REMARK SMILES NS(=O)(=O)c1ccc(-n2nc(C(=O)OCCOCCOCCOC(=O)c3ccc(-c4c5nc(c(-c6c(F)c(F)c(F)c(F)c6F)c6ccc([nH]6)c(-c6c(F)c(F)c(F)c(F)c6F)c6nc(c(-c7c(F)c(F)c(F)c(F)c7F)c7ccc4[nH]7)C=C6)C=C5)cc3)cc2-c2cc3ccccc3s2)cc1
REMARK SMILES IDX 18 1 17 2 16 3 15 4 14 5 12 6 13 7 11 8 9 9 10 10 90 11
REMARK SMILES IDX 89 12 8 13 5 14 6 15 101 16 7 17 100 18 2 19 3 20 4 21 1 22
REMARK SMILES IDX 91 25 92 26 99 27 93 28 98 29 94 30 97 31 95 32 96 33 19 34
REMARK SMILES IDX 20 35 21 36 22 37 23 38 24 39 25 40 26 41 27 42 88 43 28 44
REMARK SMILES IDX 87 45 29 46 30 47 31 48 81 49 32 50 86 51 80 52 82 53 33 54
REMARK SMILES IDX 85 55 79 56 78 57 34 59 66 60 46 61 65 62 47 63 50 64 64 65
REMARK SMILES IDX 83 66 48 67 49 68 63 70 84 71 51 72 35 73 36 74 44 75 37 76
REMARK SMILES IDX 38 77 42 78 45 79 39 80 40 81 43 82 41 83 67 84 68 85 76 86
REMARK SMILES IDX 69 87 70 88 74 89 77 90 71 91 72 92 75 93 73 94 52 95 53 96
REMARK SMILES IDX 61 97 54 98 55 99 59 100 62 101 56 102 57 103 60 104 58 105
REMARK H PARENT 1 23 1 24 82 58 50 69
REMARK Flexibility Score: inf
ROOT
ATOM      1  C   UNL     1       1.414  -3.743  10.741  1.00  0.00     0.188 C 
ENDROOT
BRANCH   1   2
ATOM      2  O   UNL     1       0.793  -4.459  11.796  1.00  0.00    -0.376 OA
BRANCH   2   3
ATOM      3  C   UNL     1       0.675  -5.875  11.757  1.00  0.00     0.202 C 
BRANCH   3   4
ATOM      4  C   UNL     1       0.282  -6.651  10.485  1.00  0.00     0.261 C 
BRANCH   4   5
ATOM      5  O   UNL     1       0.895  -6.212   9.273  1.00  0.00    -0.458 OA
BRANCH   5   6
ATOM      6  C   UNL     1       0.133  -5.442   8.440  1.00  0.00     0.358 C 
ATOM      7  O   UNL     1      -1.063  -5.231   8.597  1.00  0.00    -0.244 OA
BRANCH   6   8
ATOM      8  C   UNL     1       0.947  -4.861   7.364  1.00  0.00     0.171 A 
ATOM      9  N   UNL     1       1.474  -3.744   5.616  1.00  0.00    -0.231 N 
ATOM     10  N   UNL     1       0.634  -3.741   6.689  1.00  0.00    -0.160 NA
ATOM     11  C   UNL     1       2.329  -4.823   5.648  1.00  0.00     0.085 A 
ATOM     12  C   UNL     1       2.184  -5.354   6.915  1.00  0.00     0.068 A 
BRANCH   9  13
ATOM     13  C   UNL     1       1.329  -2.741   4.639  1.00  0.00     0.065 A 
ATOM     14  C   UNL     1       0.871  -0.738   2.781  1.00  0.00     0.082 A 
ATOM     15  C   UNL     1       0.868  -2.078   2.375  1.00  0.00     0.024 A 
ATOM     16  C   UNL     1       1.117  -0.389   4.112  1.00  0.00     0.024 A 
ATOM     17  C   UNL     1       1.124  -3.086   3.303  1.00  0.00     0.030 A 
ATOM     18  C   UNL     1       1.312  -1.399   5.053  1.00  0.00     0.030 A 
BRANCH  14  19
ATOM     19  S   UNL     1       0.575   0.544   1.601  1.00  0.00     0.238 S 
ATOM     20  O   UNL     1       1.322   1.709   1.968  1.00  0.00    -0.207 OA
ATOM     21  O   UNL     1      -0.851   0.574   1.314  1.00  0.00    -0.207 OA
BRANCH  19  22
ATOM     22  N   UNL     1       1.311  -0.038   0.206  1.00  0.00    -0.225 NA
ATOM     23  H   UNL     1       1.196   0.639  -0.548  1.00  0.00     0.137 HD
ATOM     24  H   UNL     1       0.880  -0.923  -0.062  1.00  0.00     0.137 HD
ENDBRANCH  19  22
ENDBRANCH  14  19
ENDBRANCH   9  13
BRANCH  11  25
ATOM     25  C   UNL     1       3.095  -5.457   4.604  1.00  0.00     0.054 A 
ATOM     26  C   UNL     1       4.468  -5.698   4.609  1.00  0.00     0.031 A 
ATOM     27  S   UNL     1       2.414  -6.969   4.024  1.00  0.00    -0.134 S 
ATOM     28  C   UNL     1       4.653  -7.005   5.234  1.00  0.00    -0.007 A 
ATOM     29  C   UNL     1       3.467  -7.751   5.169  1.00  0.00     0.035 A 
ATOM     30  C   UNL     1       5.720  -7.522   6.002  1.00  0.00     0.009 A 
ATOM     31  C   UNL     1       3.238  -8.879   5.969  1.00  0.00     0.019 A 
ATOM     32  C   UNL     1       5.494  -8.634   6.823  1.00  0.00     0.001 A 
ATOM     33  C   UNL     1       4.255  -9.270   6.842  1.00  0.00     0.001 A 
ENDBRANCH  11  25
ENDBRANCH   6   8
ENDBRANCH   5   6
ENDBRANCH   4   5
ENDBRANCH   3   4
ENDBRANCH   2   3
ENDBRANCH   1   2
BRANCH   1  34
ATOM     34  C   UNL     1       2.791  -4.180  10.196  1.00  0.00     0.188 C 
BRANCH  34  35
ATOM     35  O   UNL     1       3.184  -5.494  10.525  1.00  0.00    -0.376 OA
BRANCH  35  36
ATOM     36  C   UNL     1       4.102  -5.770  11.572  1.00  0.00     0.202 C 
BRANCH  36  37
ATOM     37  C   UNL     1       4.255  -4.918  12.833  1.00  0.00     0.261 C 
BRANCH  37  38
ATOM     38  O   UNL     1       3.662  -3.642  12.779  1.00  0.00    -0.460 OA
BRANCH  38  39
ATOM     39  C   UNL     1       4.434  -2.694  12.219  1.00  0.00     0.338 C 
ATOM     40  O   UNL     1       5.508  -2.839  11.663  1.00  0.00    -0.246 OA
BRANCH  39  41
ATOM     41  C   UNL     1       3.762  -1.409  12.405  1.00  0.00     0.060 A 
ATOM     42  C   UNL     1       4.250  -0.334  11.660  1.00  0.00     0.016 A 
ATOM     43  C   UNL     1       2.980  -1.253  13.555  1.00  0.00     0.016 A 
ATOM     44  C   UNL     1       4.226   0.903  12.251  1.00  0.00     0.010 A 
ATOM     45  C   UNL     1       2.999  -0.034  14.165  1.00  0.00     0.010 A 
ATOM     46  C   UNL     1       3.719   0.989  13.549  1.00  0.00    -0.014 A 
BRANCH  46  47
ATOM     47  C   UNL     1       3.974   2.191  14.301  1.00  0.00     0.031 A 
ATOM     48  C   UNL     1       2.984   3.243  14.020  1.00  0.00     0.074 A 
ATOM     49  C   UNL     1       4.944   2.212  15.235  1.00  0.00     0.049 A 
ATOM     50  N   UNL     1       3.178   4.370  13.425  1.00  0.00    -0.248 NA
ATOM     51  C   UNL     1       1.566   2.913  14.243  1.00  0.00     0.031 C 
ATOM     52  C   UNL     1       5.730   1.070  15.723  1.00  0.00     0.029 A 
ATOM     53  N   UNL     1       5.350   3.229  16.039  1.00  0.00    -0.354 N 
ATOM     54  C   UNL     1       1.930   4.984  13.412  1.00  0.00     0.074 A 
ATOM     55  C   UNL     1       0.965   3.956  13.674  1.00  0.00     0.031 C 
ATOM     56  C   UNL     1       6.335   1.411  16.882  1.00  0.00     0.029 A 
ATOM     57  C   UNL     1       6.077   2.815  17.147  1.00  0.00     0.049 A 
ATOM     58  H   UNL     1       5.147   4.174  15.853  1.00  0.00     0.167 HD
ATOM     59  C   UNL     1       1.837   6.331  13.570  1.00  0.00     0.037 A 
ATOM     60  C   UNL     1       6.351   3.568  18.239  1.00  0.00     0.037 A 
ATOM     61  C   UNL     1       3.111   6.955  13.309  1.00  0.00     0.049 A 
ATOM     62  C   UNL     1       6.150   4.988  17.860  1.00  0.00     0.074 A 
ATOM     63  C   UNL     1       3.902   7.180  12.205  1.00  0.00     0.029 A 
ATOM     64  N   UNL     1       3.904   7.105  14.417  1.00  0.00    -0.354 N 
ATOM     65  N   UNL     1       6.912   5.628  17.016  1.00  0.00    -0.248 NA
ATOM     66  C   UNL     1       4.862   5.619  18.133  1.00  0.00     0.031 C 
ATOM     67  C   UNL     1       5.242   7.259  12.689  1.00  0.00     0.029 A 
ATOM     68  C   UNL     1       5.228   7.106  14.076  1.00  0.00     0.049 A 
ATOM     69  H   UNL     1       3.566   7.200  15.337  1.00  0.00     0.167 HD
ATOM     70  C   UNL     1       6.051   6.482  16.347  1.00  0.00     0.074 A 
ATOM     71  C   UNL     1       4.863   6.561  17.186  1.00  0.00     0.031 C 
ATOM     72  C   UNL     1       6.262   6.779  15.032  1.00  0.00     0.037 A 
BRANCH  59  73
ATOM     73  C   UNL     1       0.809   7.007  14.464  1.00  0.00     0.064 A 
ATOM     74  C   UNL     1       0.841   8.415  14.552  1.00  0.00     0.173 A 
ATOM     75  C   UNL     1       0.048   6.362  15.467  1.00  0.00     0.173 A 
ATOM     76  F   UNL     1       1.524   9.139  13.653  1.00  0.00    -0.203 F 
ATOM     77  C   UNL     1       0.261   9.104  15.621  1.00  0.00     0.198 A 
ATOM     78  C   UNL     1      -0.569   7.058  16.505  1.00  0.00     0.198 A 
ATOM     79  F   UNL     1      -0.054   5.034  15.566  1.00  0.00    -0.203 F 
ATOM     80  F   UNL     1       0.441  10.426  15.733  1.00  0.00    -0.200 F 
ATOM     81  C   UNL     1      -0.430   8.423  16.604  1.00  0.00     0.200 A 
ATOM     82  F   UNL     1      -1.223   6.375  17.455  1.00  0.00    -0.200 F 
ATOM     83  F   UNL     1      -0.922   9.071  17.668  1.00  0.00    -0.200 F 
ENDBRANCH  59  73
BRANCH  60  84
ATOM     84  C   UNL     1       6.482   3.132  19.649  1.00  0.00     0.064 A 
ATOM     85  C   UNL     1       7.094   3.957  20.607  1.00  0.00     0.173 A 
ATOM     86  C   UNL     1       5.775   2.018  20.142  1.00  0.00     0.173 A 
ATOM     87  F   UNL     1       7.751   5.061  20.224  1.00  0.00    -0.203 F 
ATOM     88  C   UNL     1       6.980   3.698  21.977  1.00  0.00     0.198 A 
ATOM     89  C   UNL     1       5.670   1.756  21.508  1.00  0.00     0.198 A 
ATOM     90  F   UNL     1       5.090   1.215  19.315  1.00  0.00    -0.203 F 
ATOM     91  F   UNL     1       7.522   4.545  22.864  1.00  0.00    -0.200 F 
ATOM     92  C   UNL     1       6.259   2.604  22.426  1.00  0.00     0.200 A 
ATOM     93  F   UNL     1       4.939   0.714  21.930  1.00  0.00    -0.200 F 
ATOM     94  F   UNL     1       6.097   2.391  23.739  1.00  0.00    -0.200 F 
ENDBRANCH  60  84
BRANCH  72  95
ATOM     95  C   UNL     1       7.649   6.572  14.505  1.00  0.00     0.064 A 
ATOM     96  C   UNL     1       8.262   5.317  14.361  1.00  0.00     0.173 A 
ATOM     97  C   UNL     1       8.348   7.695  14.045  1.00  0.00     0.173 A 
ATOM     98  F   UNL     1       7.618   4.193  14.700  1.00  0.00    -0.203 F 
ATOM     99  C   UNL     1       9.541   5.202  13.820  1.00  0.00     0.198 A 
ATOM    100  C   UNL     1       9.607   7.574  13.469  1.00  0.00     0.198 A 
ATOM    101  F   UNL     1       7.786   8.912  14.118  1.00  0.00    -0.203 F 
ATOM    102  F   UNL     1      10.119   3.997  13.711  1.00  0.00    -0.200 F 
ATOM    103  C   UNL     1      10.209   6.330  13.368  1.00  0.00     0.200 A 
ATOM    104  F   UNL     1      10.228   8.661  12.992  1.00  0.00    -0.200 F 
ATOM    105  F   UNL     1      11.423   6.216  12.814  1.00  0.00    -0.200 F 
ENDBRANCH  72  95
ENDBRANCH  46  47
ENDBRANCH  39  41
ENDBRANCH  38  39
ENDBRANCH  37  38
ENDBRANCH  36  37
ENDBRANCH  35  36
ENDBRANCH  34  35
ENDBRANCH   1  34
TORSDOF 21
