REMARK SMILES COC(=O)c1c(NC(=O)[C@@H]2C[C@@H]2C(=O)OCCOCCOCCOC(=O)c2ccc(-c3c4nc(c(-c5c(F)c(F)c(F)c(F)c5F)c5ccc([nH]5)c(-c5c(F)c(F)c(F)c(F)c5F)c5nc(c(-c6c(F)c(F)c(F)c(F)c6F)c6ccc3[nH]6)C=C5)C=C4)cc2)sc2c1CC[N@@H+](Cc1ccccc1)C2
REMARK SMILES IDX 19 1 18 2 17 3 16 4 15 5 13 6 14 7 12 8 10 9 11 10 8 11 7 12
REMARK SMILES IDX 9 14 6 15 5 16 92 17 90 18 91 19 93 20 103 21 94 22 95 23
REMARK SMILES IDX 3 25 4 26 2 27 1 28 96 29 97 30 98 31 102 32 99 33 101 34
REMARK SMILES IDX 100 35 20 36 21 37 22 38 23 39 24 40 25 41 26 42 27 43 28 44
REMARK SMILES IDX 89 45 29 46 88 47 30 48 31 49 32 50 82 51 33 52 87 53 81 54
REMARK SMILES IDX 83 55 34 56 86 57 80 58 79 59 35 61 67 62 47 63 66 64 48 65
REMARK SMILES IDX 51 66 65 67 84 68 49 69 50 70 64 72 85 73 52 74 36 75 37 76
REMARK SMILES IDX 45 77 38 78 39 79 43 80 46 81 40 82 41 83 44 84 42 85 68 86
REMARK SMILES IDX 69 87 77 88 70 89 71 90 75 91 78 92 72 93 73 94 76 95 74 96
REMARK SMILES IDX 53 97 54 98 62 99 55 100 56 101 60 102 63 103 57 104 58 105
REMARK SMILES IDX 61 106 59 107
REMARK H PARENT 7 13 95 24 83 60 51 71
REMARK Flexibility Score: inf
ROOT
ATOM      1  C   UNL     1      -2.208   0.405  -4.394  1.00  0.00     0.188 C 
ENDROOT
BRANCH   1   2
ATOM      2  O   UNL     1      -2.966  -0.361  -5.323  1.00  0.00    -0.376 OA
BRANCH   2   3
ATOM      3  C   UNL     1      -4.021  -1.167  -4.807  1.00  0.00     0.202 C 
BRANCH   3   4
ATOM      4  C   UNL     1      -3.640  -2.247  -3.781  1.00  0.00     0.261 C 
BRANCH   4   5
ATOM      5  O   UNL     1      -3.167  -1.682  -2.545  1.00  0.00    -0.463 OA
BRANCH   5   6
ATOM      6  C   UNL     1      -1.866  -1.922  -2.254  1.00  0.00     0.309 C 
ATOM      7  O   UNL     1      -1.162  -2.745  -2.820  1.00  0.00    -0.252 OA
BRANCH   6   8
ATOM      8  C   UNL     1      -1.259  -0.982  -1.264  1.00  0.00     0.112 C 
ATOM      9  C   UNL     1      -1.471  -1.233   0.220  1.00  0.00     0.094 C 
ATOM     10  C   UNL     1      -1.957   0.036  -0.410  1.00  0.00     0.030 C 
BRANCH   9  11
ATOM     11  C   UNL     1      -2.433  -2.256   0.627  1.00  0.00     0.229 C 
ATOM     12  N   UNL     1      -2.157  -3.566   0.413  1.00  0.00    -0.317 N 
ATOM     13  H   UNL     1      -2.919  -4.155   0.615  1.00  0.00     0.170 HD
ATOM     14  O   UNL     1      -3.500  -1.926   1.137  1.00  0.00    -0.274 OA
BRANCH  12  15
ATOM     15  C   UNL     1      -1.051  -4.256  -0.023  1.00  0.00     0.110 A 
ATOM     16  C   UNL     1       0.262  -4.090  -0.461  1.00  0.00     0.098 A 
ATOM     17  C   UNL     1       0.873  -5.393  -0.664  1.00  0.00    -0.006 A 
ATOM     18  S   UNL     1      -1.526  -5.913   0.002  1.00  0.00    -0.116 S 
ATOM     19  C   UNL     1       0.051  -6.422  -0.267  1.00  0.00     0.065 A 
ATOM     20  C   UNL     1       2.316  -5.657  -1.001  1.00  0.00     0.099 C 
ATOM     21  C   UNL     1       0.503  -7.816  -0.001  1.00  0.00     0.310 C 
ATOM     22  C   UNL     1       2.717  -7.127  -0.724  1.00  0.00     0.267 C 
ATOM     23  N   UNL     1       1.944  -7.850   0.304  1.00  0.00    -0.326 N 
ATOM     24  H   UNL     1       2.239  -8.824   0.239  1.00  0.00     0.348 HD
BRANCH  16  25
ATOM     25  C   UNL     1       1.077  -2.893  -0.681  1.00  0.00     0.341 C 
ATOM     26  O   UNL     1       1.726  -2.707  -1.706  1.00  0.00    -0.246 OA
BRANCH  25  27
ATOM     27  O   UNL     1       1.169  -2.074   0.405  1.00  0.00    -0.465 OA
ATOM     28  C   UNL     1       1.968  -0.897   0.220  1.00  0.00     0.282 C 
ENDBRANCH  25  27
ENDBRANCH  16  25
BRANCH  23  29
ATOM     29  C   UNL     1       2.297  -7.559   1.706  1.00  0.00     0.299 C 
BRANCH  29  30
ATOM     30  C   UNL     1       2.205  -6.136   2.228  1.00  0.00     0.006 A 
ATOM     31  C   UNL     1       3.338  -5.307   2.244  1.00  0.00     0.009 A 
ATOM     32  C   UNL     1       0.994  -5.608   2.703  1.00  0.00     0.009 A 
ATOM     33  C   UNL     1       3.246  -3.973   2.653  1.00  0.00     0.001 A 
ATOM     34  C   UNL     1       0.896  -4.269   3.092  1.00  0.00     0.001 A 
ATOM     35  C   UNL     1       2.022  -3.451   3.064  1.00  0.00     0.000 A 
ENDBRANCH  29  30
ENDBRANCH  23  29
ENDBRANCH  12  15
ENDBRANCH   9  11
ENDBRANCH   6   8
ENDBRANCH   5   6
ENDBRANCH   4   5
ENDBRANCH   3   4
ENDBRANCH   2   3
ENDBRANCH   1   2
BRANCH   1  36
ATOM     36  C   UNL     1      -2.994   1.385  -3.515  1.00  0.00     0.188 C 
BRANCH  36  37
ATOM     37  O   UNL     1      -3.740   0.850  -2.440  1.00  0.00    -0.376 OA
BRANCH  37  38
ATOM     38  C   UNL     1      -5.152   0.897  -2.296  1.00  0.00     0.202 C 
BRANCH  38  39
ATOM     39  C   UNL     1      -5.990   2.118  -2.669  1.00  0.00     0.261 C 
BRANCH  39  40
ATOM     40  O   UNL     1      -5.316   3.117  -3.393  1.00  0.00    -0.460 OA
BRANCH  40  41
ATOM     41  C   UNL     1      -4.419   3.845  -2.687  1.00  0.00     0.338 C 
ATOM     42  O   UNL     1      -4.138   3.755  -1.519  1.00  0.00    -0.246 OA
BRANCH  41  43
ATOM     43  C   UNL     1      -3.876   4.837  -3.633  1.00  0.00     0.060 A 
ATOM     44  C   UNL     1      -3.047   5.822  -3.106  1.00  0.00     0.016 A 
ATOM     45  C   UNL     1      -4.336   4.887  -4.963  1.00  0.00     0.016 A 
ATOM     46  C   UNL     1      -2.882   6.977  -3.835  1.00  0.00     0.010 A 
ATOM     47  C   UNL     1      -4.181   6.043  -5.686  1.00  0.00     0.010 A 
ATOM     48  C   UNL     1      -3.538   7.106  -5.070  1.00  0.00    -0.014 A 
BRANCH  48  49
ATOM     49  C   UNL     1      -3.455   8.383  -5.738  1.00  0.00     0.031 A 
ATOM     50  C   UNL     1      -2.096   8.683  -6.219  1.00  0.00     0.074 A 
ATOM     51  C   UNL     1      -4.512   9.198  -5.908  1.00  0.00     0.049 A 
ATOM     52  N   UNL     1      -1.298   9.577  -5.746  1.00  0.00    -0.248 NA
ATOM     53  C   UNL     1      -1.489   7.783  -7.210  1.00  0.00     0.031 C 
ATOM     54  C   UNL     1      -5.930   8.910  -5.691  1.00  0.00     0.029 A 
ATOM     55  N   UNL     1      -4.528  10.467  -6.398  1.00  0.00    -0.354 N 
ATOM     56  C   UNL     1      -0.154   9.499  -6.524  1.00  0.00     0.074 A 
ATOM     57  C   UNL     1      -0.253   8.279  -7.283  1.00  0.00     0.031 C 
ATOM     58  C   UNL     1      -6.673   9.889  -6.258  1.00  0.00     0.029 A 
ATOM     59  C   UNL     1      -5.787  10.927  -6.761  1.00  0.00     0.049 A 
ATOM     60  H   UNL     1      -3.715  11.015  -6.486  1.00  0.00     0.167 HD
ATOM     61  C   UNL     1       0.624  10.601  -6.684  1.00  0.00     0.037 A 
ATOM     62  C   UNL     1      -6.056  12.046  -7.482  1.00  0.00     0.037 A 
ATOM     63  C   UNL     1       0.428  11.542  -5.607  1.00  0.00     0.049 A 
ATOM     64  C   UNL     1      -4.876  12.944  -7.369  1.00  0.00     0.074 A 
ATOM     65  C   UNL     1       0.509  11.454  -4.228  1.00  0.00     0.029 A 
ATOM     66  N   UNL     1      -0.292  12.686  -5.856  1.00  0.00    -0.354 N 
ATOM     67  N   UNL     1      -4.543  13.568  -6.274  1.00  0.00    -0.248 NA
ATOM     68  C   UNL     1      -3.806  12.781  -8.343  1.00  0.00     0.031 C 
ATOM     69  C   UNL     1      -0.575  12.242  -3.740  1.00  0.00     0.029 A 
ATOM     70  C   UNL     1      -1.202  12.826  -4.839  1.00  0.00     0.049 A 
ATOM     71  H   UNL     1      -0.176  13.293  -6.622  1.00  0.00     0.167 HD
ATOM     72  C   UNL     1      -3.164  13.452  -6.216  1.00  0.00     0.074 A 
ATOM     73  C   UNL     1      -2.757  13.041  -7.558  1.00  0.00     0.031 C 
ATOM     74  C   UNL     1      -2.510  13.410  -5.019  1.00  0.00     0.037 A 
BRANCH  61  75
ATOM     75  C   UNL     1       1.206  10.986  -8.019  1.00  0.00     0.064 A 
ATOM     76  C   UNL     1       2.098  12.071  -8.084  1.00  0.00     0.173 A 
ATOM     77  C   UNL     1       0.689  10.544  -9.259  1.00  0.00     0.173 A 
ATOM     78  F   UNL     1       2.620  12.591  -6.963  1.00  0.00    -0.203 F 
ATOM     79  C   UNL     1       2.386  12.713  -9.290  1.00  0.00     0.198 A 
ATOM     80  C   UNL     1       1.025  11.150 -10.465  1.00  0.00     0.198 A 
ATOM     81  F   UNL     1      -0.249   9.595  -9.349  1.00  0.00    -0.203 F 
ATOM     82  F   UNL     1       3.130  13.827  -9.286  1.00  0.00    -0.200 F 
ATOM     83  C   UNL     1       1.846  12.255 -10.478  1.00  0.00     0.200 A 
ATOM     84  F   UNL     1       0.468  10.705 -11.601  1.00  0.00    -0.200 F 
ATOM     85  F   UNL     1       2.069  12.908 -11.625  1.00  0.00    -0.200 F 
ENDBRANCH  61  75
BRANCH  62  86
ATOM     86  C   UNL     1      -7.117  12.264  -8.497  1.00  0.00     0.064 A 
ATOM     87  C   UNL     1      -7.374  13.548  -9.009  1.00  0.00     0.173 A 
ATOM     88  C   UNL     1      -7.702  11.190  -9.197  1.00  0.00     0.173 A 
ATOM     89  F   UNL     1      -6.823  14.628  -8.434  1.00  0.00    -0.203 F 
ATOM     90  C   UNL     1      -8.136  13.742 -10.166  1.00  0.00     0.198 A 
ATOM     91  C   UNL     1      -8.471  11.385 -10.345  1.00  0.00     0.198 A 
ATOM     92  F   UNL     1      -7.461   9.920  -8.842  1.00  0.00    -0.203 F 
ATOM     93  F   UNL     1      -8.296  14.977 -10.663  1.00  0.00    -0.200 F 
ATOM     94  C   UNL     1      -8.674  12.659 -10.840  1.00  0.00     0.200 A 
ATOM     95  F   UNL     1      -8.956  10.325 -11.007  1.00  0.00    -0.200 F 
ATOM     96  F   UNL     1      -9.349  12.837 -11.984  1.00  0.00    -0.200 F 
ENDBRANCH  62  86
BRANCH  74  97
ATOM     97  C   UNL     1      -3.272  13.789  -3.778  1.00  0.00     0.064 A 
ATOM     98  C   UNL     1      -4.444  13.149  -3.333  1.00  0.00     0.173 A 
ATOM     99  C   UNL     1      -2.721  14.770  -2.941  1.00  0.00     0.173 A 
ATOM    100  F   UNL     1      -4.978  12.126  -4.014  1.00  0.00    -0.203 F 
ATOM    101  C   UNL     1      -5.061  13.521  -2.139  1.00  0.00     0.198 A 
ATOM    102  C   UNL     1      -3.314  15.107  -1.729  1.00  0.00     0.198 A 
ATOM    103  F   UNL     1      -1.574  15.379  -3.283  1.00  0.00    -0.203 F 
ATOM    104  F   UNL     1      -6.193  12.915  -1.750  1.00  0.00    -0.200 F 
ATOM    105  C   UNL     1      -4.492  14.495  -1.335  1.00  0.00     0.200 A 
ATOM    106  F   UNL     1      -2.731  16.013  -0.932  1.00  0.00    -0.200 F 
ATOM    107  F   UNL     1      -5.066  14.827  -0.170  1.00  0.00    -0.200 F 
ENDBRANCH  74  97
ENDBRANCH  48  49
ENDBRANCH  41  43
ENDBRANCH  40  41
ENDBRANCH  39  40
ENDBRANCH  38  39
ENDBRANCH  37  38
ENDBRANCH  36  37
ENDBRANCH   1  36
TORSDOF 23
