REMARK SMILES Cc1onc(-c2cccc(Br)c2)c1C(=O)OCCOCCOCCOC(=O)c1ccc(-c2c3nc(c(-c4c(F)c(F)c(F)c(F)c4F)c4ccc([nH]4)c(-c4c(F)c(F)c(F)c(F)c4F)c4nc(c(-c5c(F)c(F)c(F)c(F)c5F)c5ccc2[nH]5)C=C4)C=C3)cc1
REMARK SMILES IDX 21 1 20 2 19 3 18 4 17 5 16 6 14 7 15 8 13 9 1 10 2 11 3 12
REMARK SMILES IDX 4 13 5 14 6 15 7 16 12 17 8 18 10 19 9 20 11 21 22 22 23 23
REMARK SMILES IDX 24 24 25 25 26 26 27 27 28 28 29 29 90 30 30 31 89 32 31 33
REMARK SMILES IDX 32 34 33 35 83 36 34 37 88 38 82 39 84 40 35 41 87 42 81 43
REMARK SMILES IDX 80 44 36 46 68 47 48 48 67 49 49 50 52 51 66 52 85 53 50 54
REMARK SMILES IDX 51 55 65 57 86 58 53 59 37 60 38 61 46 62 39 63 40 64 44 65
REMARK SMILES IDX 47 66 41 67 42 68 45 69 43 70 69 71 70 72 78 73 71 74 72 75
REMARK SMILES IDX 76 76 79 77 73 78 74 79 77 80 75 81 54 82 55 83 63 84 56 85
REMARK SMILES IDX 57 86 61 87 64 88 58 89 59 90 62 91 60 92
REMARK H PARENT 84 45 52 56
REMARK Flexibility Score: inf
ROOT
ATOM      1  C   UNL     1       0.734  -3.037   2.284  1.00  0.00     0.188 C 
ENDROOT
BRANCH   1   2
ATOM      2  C   UNL     1       0.272  -4.335   1.601  1.00  0.00     0.188 C 
BRANCH   2   3
ATOM      3  O   UNL     1       1.344  -5.061   1.008  1.00  0.00    -0.376 OA
BRANCH   3   4
ATOM      4  C   UNL     1       1.274  -5.195  -0.408  1.00  0.00     0.202 C 
BRANCH   4   5
ATOM      5  C   UNL     1       2.153  -4.147  -1.094  1.00  0.00     0.261 C 
BRANCH   5   6
ATOM      6  O   UNL     1       1.756  -2.791  -0.823  1.00  0.00    -0.459 OA
BRANCH   6   7
ATOM      7  C   UNL     1       0.585  -2.374  -1.371  1.00  0.00     0.344 C 
ATOM      8  O   UNL     1      -0.116  -3.080  -2.087  1.00  0.00    -0.246 OA
BRANCH   7   9
ATOM      9  C   UNL     1       0.208  -1.042  -0.950  1.00  0.00     0.130 A 
ATOM     10  C   UNL     1       2.460   0.186  -0.307  1.00  0.00     0.092 C 
ATOM     11  C   UNL     1       1.012  -0.005  -0.523  1.00  0.00     0.148 A 
ATOM     12  O   UNL     1       0.235   1.077  -0.242  1.00  0.00    -0.360 OA
ATOM     13  N   UNL     1      -1.098   0.757  -0.418  1.00  0.00    -0.079 NA
ATOM     14  C   UNL     1      -1.114  -0.523  -0.804  1.00  0.00     0.128 A 
BRANCH  14  15
ATOM     15  C   UNL     1      -2.346  -1.285  -0.897  1.00  0.00     0.006 A 
ATOM     16  C   UNL     1      -2.554  -2.302   0.043  1.00  0.00     0.010 A 
ATOM     17  C   UNL     1      -3.244  -1.114  -1.951  1.00  0.00     0.026 A 
ATOM     18  C   UNL     1      -3.564  -3.232  -0.144  1.00  0.00     0.002 A 
ATOM     19  C   UNL     1      -4.298  -2.018  -2.094  1.00  0.00     0.018 A 
ATOM     20  C   UNL     1      -4.438  -3.094  -1.218  1.00  0.00     0.016 A 
ATOM     21  Br  UNL     1      -5.533  -1.822  -3.512  1.00  0.00    -0.051 Br
ENDBRANCH  14  15
ENDBRANCH   7   9
ENDBRANCH   6   7
ENDBRANCH   5   6
ENDBRANCH   4   5
ENDBRANCH   3   4
ENDBRANCH   2   3
ENDBRANCH   1   2
BRANCH   1  22
ATOM     22  O   UNL     1       1.867  -3.056   3.147  1.00  0.00    -0.376 OA
BRANCH  22  23
ATOM     23  C   UNL     1       2.213  -4.268   3.799  1.00  0.00     0.202 C 
BRANCH  23  24
ATOM     24  C   UNL     1       1.372  -4.637   5.022  1.00  0.00     0.261 C 
BRANCH  24  25
ATOM     25  O   UNL     1      -0.041  -4.664   4.758  1.00  0.00    -0.460 OA
BRANCH  25  26
ATOM     26  C   UNL     1      -0.727  -3.595   5.229  1.00  0.00     0.338 C 
ATOM     27  O   UNL     1      -0.281  -2.647   5.854  1.00  0.00    -0.246 OA
BRANCH  26  28
ATOM     28  C   UNL     1      -2.137  -3.656   4.787  1.00  0.00     0.060 A 
ATOM     29  C   UNL     1      -2.728  -2.474   4.326  1.00  0.00     0.016 A 
ATOM     30  C   UNL     1      -2.898  -4.823   4.904  1.00  0.00     0.016 A 
ATOM     31  C   UNL     1      -4.090  -2.443   4.024  1.00  0.00     0.010 A 
ATOM     32  C   UNL     1      -4.270  -4.785   4.625  1.00  0.00     0.010 A 
ATOM     33  C   UNL     1      -4.879  -3.587   4.216  1.00  0.00    -0.014 A 
BRANCH  33  34
ATOM     34  C   UNL     1      -6.357  -3.469   4.133  1.00  0.00     0.031 A 
ATOM     35  C   UNL     1      -7.121  -3.023   5.342  1.00  0.00     0.074 A 
ATOM     36  C   UNL     1      -7.015  -3.726   2.990  1.00  0.00     0.049 A 
ATOM     37  N   UNL     1      -8.406  -2.818   5.479  1.00  0.00    -0.248 NA
ATOM     38  C   UNL     1      -6.338  -2.804   6.567  1.00  0.00     0.031 C 
ATOM     39  C   UNL     1      -6.390  -4.208   1.770  1.00  0.00     0.029 A 
ATOM     40  N   UNL     1      -8.342  -3.606   2.661  1.00  0.00    -0.354 N 
ATOM     41  C   UNL     1      -8.590  -2.467   6.807  1.00  0.00     0.074 A 
ATOM     42  C   UNL     1      -7.286  -2.483   7.436  1.00  0.00     0.031 C 
ATOM     43  C   UNL     1      -7.312  -4.274   0.797  1.00  0.00     0.029 A 
ATOM     44  C   UNL     1      -8.608  -3.885   1.342  1.00  0.00     0.049 A 
ATOM     45  H   UNL     1      -9.037  -3.344   3.307  1.00  0.00     0.167 HD
ATOM     46  C   UNL     1      -9.747  -2.178   7.447  1.00  0.00     0.037 A 
ATOM     47  C   UNL     1      -9.764  -3.841   0.652  1.00  0.00     0.037 A 
ATOM     48  C   UNL     1     -11.045  -2.183   6.827  1.00  0.00     0.049 A 
ATOM     49  C   UNL     1     -11.032  -3.489   1.382  1.00  0.00     0.074 A 
ATOM     50  C   UNL     1     -12.276  -1.915   7.399  1.00  0.00     0.029 A 
ATOM     51  N   UNL     1     -11.281  -2.477   5.492  1.00  0.00    -0.354 N 
ATOM     52  N   UNL     1     -11.194  -3.149   2.638  1.00  0.00    -0.248 NA
ATOM     53  C   UNL     1     -12.280  -3.546   0.609  1.00  0.00     0.031 C 
ATOM     54  C   UNL     1     -13.261  -2.084   6.420  1.00  0.00     0.029 A 
ATOM     55  C   UNL     1     -12.640  -2.414   5.226  1.00  0.00     0.049 A 
ATOM     56  H   UNL     1     -10.586  -2.697   4.830  1.00  0.00     0.167 HD
ATOM     57  C   UNL     1     -12.558  -2.962   2.808  1.00  0.00     0.074 A 
ATOM     58  C   UNL     1     -13.176  -3.187   1.518  1.00  0.00     0.031 C 
ATOM     59  C   UNL     1     -13.239  -2.652   3.938  1.00  0.00     0.037 A 
BRANCH  46  60
ATOM     60  C   UNL     1      -9.656  -1.885   8.912  1.00  0.00     0.064 A 
ATOM     61  C   UNL     1      -9.144  -0.670   9.390  1.00  0.00     0.173 A 
ATOM     62  C   UNL     1     -10.090  -2.833   9.850  1.00  0.00     0.173 A 
ATOM     63  F   UNL     1      -8.695   0.257   8.531  1.00  0.00    -0.203 F 
ATOM     64  C   UNL     1      -9.050  -0.424  10.757  1.00  0.00     0.198 A 
ATOM     65  C   UNL     1     -10.016  -2.575  11.215  1.00  0.00     0.198 A 
ATOM     66  F   UNL     1     -10.584  -4.012   9.441  1.00  0.00    -0.203 F 
ATOM     67  F   UNL     1      -8.515   0.724  11.194  1.00  0.00    -0.200 F 
ATOM     68  C   UNL     1      -9.490  -1.374  11.667  1.00  0.00     0.200 A 
ATOM     69  F   UNL     1     -10.446  -3.491  12.093  1.00  0.00    -0.200 F 
ATOM     70  F   UNL     1      -9.398  -1.136  12.983  1.00  0.00    -0.200 F 
ENDBRANCH  46  60
BRANCH  47  71
ATOM     71  C   UNL     1      -9.785  -4.138  -0.805  1.00  0.00     0.064 A 
ATOM     72  C   UNL     1     -10.076  -3.131  -1.737  1.00  0.00     0.173 A 
ATOM     73  C   UNL     1      -9.529  -5.425  -1.297  1.00  0.00     0.173 A 
ATOM     74  F   UNL     1     -10.359  -1.890  -1.315  1.00  0.00    -0.203 F 
ATOM     75  C   UNL     1     -10.123  -3.404  -3.103  1.00  0.00     0.198 A 
ATOM     76  C   UNL     1      -9.546  -5.690  -2.665  1.00  0.00     0.198 A 
ATOM     77  F   UNL     1      -9.247  -6.425  -0.449  1.00  0.00    -0.203 F 
ATOM     78  F   UNL     1     -10.452  -2.434  -3.968  1.00  0.00    -0.200 F 
ATOM     79  C   UNL     1      -9.850  -4.682  -3.567  1.00  0.00     0.200 A 
ATOM     80  F   UNL     1      -9.271  -6.925  -3.108  1.00  0.00    -0.200 F 
ATOM     81  F   UNL     1      -9.893  -4.945  -4.880  1.00  0.00    -0.200 F 
ENDBRANCH  47  71
BRANCH  59  82
ATOM     82  C   UNL     1     -14.730  -2.545   3.828  1.00  0.00     0.064 A 
ATOM     83  C   UNL     1     -15.534  -3.687   3.698  1.00  0.00     0.173 A 
ATOM     84  C   UNL     1     -15.363  -1.295   3.887  1.00  0.00     0.173 A 
ATOM     85  F   UNL     1     -14.973  -4.903   3.621  1.00  0.00    -0.203 F 
ATOM     86  C   UNL     1     -16.920  -3.579   3.612  1.00  0.00     0.198 A 
ATOM     87  C   UNL     1     -16.749  -1.193   3.825  1.00  0.00     0.198 A 
ATOM     88  F   UNL     1     -14.636  -0.175   4.014  1.00  0.00    -0.203 F 
ATOM     89  F   UNL     1     -17.667  -4.679   3.449  1.00  0.00    -0.200 F 
ATOM     90  C   UNL     1     -17.526  -2.333   3.682  1.00  0.00     0.200 A 
ATOM     91  F   UNL     1     -17.335   0.010   3.900  1.00  0.00    -0.200 F 
ATOM     92  F   UNL     1     -18.860  -2.231   3.603  1.00  0.00    -0.200 F 
ENDBRANCH  59  82
ENDBRANCH  33  34
ENDBRANCH  26  28
ENDBRANCH  25  26
ENDBRANCH  24  25
ENDBRANCH  23  24
ENDBRANCH  22  23
ENDBRANCH   1  22
TORSDOF 18
