REMARK SMILES COc1ccc(F)c(Nc2ccc(C(=O)OCCOCCOCCOC(=O)c3ccc(-c4c5nc(c(-c6c(F)c(F)c(F)c(F)c6F)c6ccc([nH]6)c(-c6c(F)c(F)c(F)c(F)c6F)c6nc(c(-c7c(F)c(F)c(F)c(F)c7F)c7ccc4[nH]7)C=C6)C=C5)cc3)cc2)c1
REMARK SMILES IDX 20 1 19 2 18 3 17 4 16 5 14 6 15 7 13 8 10 9 11 10 92 11
REMARK SMILES IDX 12 12 91 13 9 14 8 16 3 17 4 18 93 19 5 20 6 21 7 22 2 23
REMARK SMILES IDX 1 24 21 25 22 26 23 27 24 28 25 29 26 30 27 31 28 32 29 33
REMARK SMILES IDX 90 34 30 35 89 36 31 37 32 38 33 39 83 40 34 41 88 42 82 43
REMARK SMILES IDX 84 44 35 45 87 46 81 47 80 48 36 50 68 51 48 52 67 53 49 54
REMARK SMILES IDX 52 55 66 56 85 57 50 58 51 59 65 61 86 62 53 63 37 64 38 65
REMARK SMILES IDX 46 66 39 67 40 68 44 69 47 70 41 71 42 72 45 73 43 74 69 75
REMARK SMILES IDX 70 76 78 77 71 78 72 79 76 80 79 81 73 82 74 83 77 84 75 85
REMARK SMILES IDX 54 86 55 87 63 88 56 89 57 90 61 91 64 92 58 93 59 94 62 95
REMARK SMILES IDX 60 96
REMARK H PARENT 9 15 84 49 52 60
REMARK Flexibility Score: inf
ROOT
ATOM      1  C   UNL     1      -7.434   6.749  -0.624  1.00  0.00     0.188 C 
ENDROOT
BRANCH   1   2
ATOM      2  O   UNL     1      -8.693   6.245  -1.013  1.00  0.00    -0.376 OA
BRANCH   2   3
ATOM      3  C   UNL     1      -8.951   4.852  -1.067  1.00  0.00     0.202 C 
BRANCH   3   4
ATOM      4  C   UNL     1      -7.882   3.775  -1.295  1.00  0.00     0.261 C 
BRANCH   4   5
ATOM      5  O   UNL     1      -6.610   4.021  -0.695  1.00  0.00    -0.460 OA
BRANCH   5   6
ATOM      6  C   UNL     1      -5.599   4.218  -1.576  1.00  0.00     0.338 C 
ATOM      7  O   UNL     1      -5.670   4.187  -2.795  1.00  0.00    -0.246 OA
BRANCH   6   8
ATOM      8  C   UNL     1      -4.391   4.676  -0.862  1.00  0.00     0.060 A 
ATOM      9  C   UNL     1      -1.978   5.477   0.293  1.00  0.00     0.039 A 
ATOM     10  C   UNL     1      -2.440   6.111  -0.863  1.00  0.00     0.027 A 
ATOM     11  C   UNL     1      -2.784   4.510   0.917  1.00  0.00     0.027 A 
ATOM     12  C   UNL     1      -3.637   5.701  -1.448  1.00  0.00     0.018 A 
ATOM     13  C   UNL     1      -3.992   4.108   0.348  1.00  0.00     0.018 A 
BRANCH   9  14
ATOM     14  N   UNL     1      -0.632   5.625   0.670  1.00  0.00    -0.353 N 
ATOM     15  H   UNL     1      -0.358   6.497   1.034  1.00  0.00     0.167 HD
BRANCH  14  16
ATOM     16  C   UNL     1       0.360   4.620   0.569  1.00  0.00     0.078 A 
ATOM     17  C   UNL     1       1.041   2.338   0.020  1.00  0.00     0.121 A 
ATOM     18  C   UNL     1       2.327   2.594   0.485  1.00  0.00     0.049 A 
ATOM     19  C   UNL     1       0.078   3.347   0.051  1.00  0.00     0.075 A 
ATOM     20  C   UNL     1       2.636   3.858   0.996  1.00  0.00     0.045 A 
ATOM     21  C   UNL     1       1.656   4.851   1.042  1.00  0.00     0.146 A 
ATOM     22  F   UNL     1       1.980   6.059   1.530  1.00  0.00    -0.205 F 
BRANCH  17  23
ATOM     23  O   UNL     1       0.635   1.163  -0.549  1.00  0.00    -0.497 OA
ATOM     24  C   UNL     1       1.101  -0.007   0.114  1.00  0.00     0.278 C 
ENDBRANCH  17  23
ENDBRANCH  14  16
ENDBRANCH   9  14
ENDBRANCH   6   8
ENDBRANCH   5   6
ENDBRANCH   4   5
ENDBRANCH   3   4
ENDBRANCH   2   3
ENDBRANCH   1   2
BRANCH   1  25
ATOM     25  C   UNL     1      -6.939   6.588   0.829  1.00  0.00     0.188 C 
BRANCH  25  26
ATOM     26  O   UNL     1      -7.684   5.854   1.779  1.00  0.00    -0.376 OA
BRANCH  26  27
ATOM     27  C   UNL     1      -9.021   6.227   2.069  1.00  0.00     0.202 C 
BRANCH  27  28
ATOM     28  C   UNL     1      -9.430   7.689   2.283  1.00  0.00     0.261 C 
BRANCH  28  29
ATOM     29  O   UNL     1      -8.962   8.604   1.286  1.00  0.00    -0.460 OA
BRANCH  29  30
ATOM     30  C   UNL     1      -8.079   9.532   1.730  1.00  0.00     0.338 C 
ATOM     31  O   UNL     1      -7.641   9.670   2.857  1.00  0.00    -0.246 OA
BRANCH  30  32
ATOM     32  C   UNL     1      -7.579  10.305   0.582  1.00  0.00     0.060 A 
ATOM     33  C   UNL     1      -6.217  10.228   0.254  1.00  0.00     0.016 A 
ATOM     34  C   UNL     1      -8.438  11.150  -0.117  1.00  0.00     0.016 A 
ATOM     35  C   UNL     1      -5.703  11.020  -0.772  1.00  0.00     0.010 A 
ATOM     36  C   UNL     1      -7.917  11.962  -1.123  1.00  0.00     0.010 A 
ATOM     37  C   UNL     1      -6.545  11.921  -1.434  1.00  0.00    -0.014 A 
BRANCH  37  38
ATOM     38  C   UNL     1      -5.989  12.972  -2.314  1.00  0.00     0.031 A 
ATOM     39  C   UNL     1      -5.755  14.332  -1.725  1.00  0.00     0.074 A 
ATOM     40  C   UNL     1      -5.753  12.741  -3.616  1.00  0.00     0.049 A 
ATOM     41  N   UNL     1      -5.480  15.461  -2.324  1.00  0.00    -0.248 NA
ATOM     42  C   UNL     1      -5.854  14.434  -0.259  1.00  0.00     0.031 C 
ATOM     43  C   UNL     1      -5.879  11.447  -4.280  1.00  0.00     0.029 A 
ATOM     44  N   UNL     1      -5.385  13.604  -4.617  1.00  0.00    -0.354 N 
ATOM     45  C   UNL     1      -5.398  16.408  -1.313  1.00  0.00     0.074 A 
ATOM     46  C   UNL     1      -5.661  15.729  -0.064  1.00  0.00     0.031 C 
ATOM     47  C   UNL     1      -5.617  11.606  -5.589  1.00  0.00     0.029 A 
ATOM     48  C   UNL     1      -5.360  13.020  -5.859  1.00  0.00     0.049 A 
ATOM     49  H   UNL     1      -5.160  14.550  -4.460  1.00  0.00     0.167 HD
ATOM     50  C   UNL     1      -5.130  17.729  -1.425  1.00  0.00     0.037 A 
ATOM     51  C   UNL     1      -5.193  13.577  -7.076  1.00  0.00     0.037 A 
ATOM     52  C   UNL     1      -4.867  18.393  -2.672  1.00  0.00     0.049 A 
ATOM     53  C   UNL     1      -4.991  15.068  -7.186  1.00  0.00     0.074 A 
ATOM     54  C   UNL     1      -4.570  19.725  -2.891  1.00  0.00     0.029 A 
ATOM     55  N   UNL     1      -4.878  17.772  -3.912  1.00  0.00    -0.354 N 
ATOM     56  N   UNL     1      -4.919  15.965  -6.232  1.00  0.00    -0.248 NA
ATOM     57  C   UNL     1      -4.863  15.627  -8.541  1.00  0.00     0.031 C 
ATOM     58  C   UNL     1      -4.454  19.923  -4.268  1.00  0.00     0.029 A 
ATOM     59  C   UNL     1      -4.619  18.702  -4.904  1.00  0.00     0.049 A 
ATOM     60  H   UNL     1      -5.045  16.814  -4.064  1.00  0.00     0.167 HD
ATOM     61  C   UNL     1      -4.706  17.183  -6.865  1.00  0.00     0.074 A 
ATOM     62  C   UNL     1      -4.663  16.915  -8.287  1.00  0.00     0.031 C 
ATOM     63  C   UNL     1      -4.557  18.412  -6.314  1.00  0.00     0.037 A 
BRANCH  50  64
ATOM     64  C   UNL     1      -5.133  18.553  -0.173  1.00  0.00     0.064 A 
ATOM     65  C   UNL     1      -6.143  19.502   0.046  1.00  0.00     0.173 A 
ATOM     66  C   UNL     1      -4.109  18.451   0.779  1.00  0.00     0.173 A 
ATOM     67  F   UNL     1      -7.145  19.640  -0.836  1.00  0.00    -0.203 F 
ATOM     68  C   UNL     1      -6.117  20.331   1.163  1.00  0.00     0.198 A 
ATOM     69  C   UNL     1      -4.102  19.261   1.911  1.00  0.00     0.198 A 
ATOM     70  F   UNL     1      -3.129  17.548   0.622  1.00  0.00    -0.203 F 
ATOM     71  F   UNL     1      -7.075  21.253   1.334  1.00  0.00    -0.200 F 
ATOM     72  C   UNL     1      -5.099  20.207   2.097  1.00  0.00     0.200 A 
ATOM     73  F   UNL     1      -3.131  19.125   2.824  1.00  0.00    -0.200 F 
ATOM     74  F   UNL     1      -5.081  20.999   3.177  1.00  0.00    -0.200 F 
ENDBRANCH  50  64
BRANCH  51  75
ATOM     75  C   UNL     1      -5.228  12.719  -8.288  1.00  0.00     0.064 A 
ATOM     76  C   UNL     1      -6.412  12.098  -8.713  1.00  0.00     0.173 A 
ATOM     77  C   UNL     1      -4.066  12.488  -9.037  1.00  0.00     0.173 A 
ATOM     78  F   UNL     1      -7.553  12.291  -8.035  1.00  0.00    -0.203 F 
ATOM     79  C   UNL     1      -6.427  11.260  -9.827  1.00  0.00     0.198 A 
ATOM     80  C   UNL     1      -4.088  11.671 -10.166  1.00  0.00     0.198 A 
ATOM     81  F   UNL     1      -2.916  13.082  -8.687  1.00  0.00    -0.203 F 
ATOM     82  F   UNL     1      -7.565  10.654 -10.192  1.00  0.00    -0.200 F 
ATOM     83  C   UNL     1      -5.266  11.050 -10.554  1.00  0.00     0.200 A 
ATOM     84  F   UNL     1      -2.970  11.492 -10.882  1.00  0.00    -0.200 F 
ATOM     85  F   UNL     1      -5.282  10.254 -11.632  1.00  0.00    -0.200 F 
ENDBRANCH  51  75
BRANCH  63  86
ATOM     86  C   UNL     1      -4.288  19.574  -7.226  1.00  0.00     0.064 A 
ATOM     87  C   UNL     1      -3.029  20.195  -7.221  1.00  0.00     0.173 A 
ATOM     88  C   UNL     1      -5.309  20.159  -7.986  1.00  0.00     0.173 A 
ATOM     89  F   UNL     1      -2.024  19.678  -6.498  1.00  0.00    -0.203 F 
ATOM     90  C   UNL     1      -2.813  21.380  -7.917  1.00  0.00     0.198 A 
ATOM     91  C   UNL     1      -5.081  21.331  -8.703  1.00  0.00     0.198 A 
ATOM     92  F   UNL     1      -6.526  19.597  -8.030  1.00  0.00    -0.203 F 
ATOM     93  F   UNL     1      -1.619  21.986  -7.851  1.00  0.00    -0.200 F 
ATOM     94  C   UNL     1      -3.839  21.949  -8.655  1.00  0.00     0.200 A 
ATOM     95  F   UNL     1      -6.068  21.873  -9.430  1.00  0.00    -0.200 F 
ATOM     96  F   UNL     1      -3.634  23.097  -9.315  1.00  0.00    -0.200 F 
ENDBRANCH  63  86
ENDBRANCH  37  38
ENDBRANCH  30  32
ENDBRANCH  29  30
ENDBRANCH  28  29
ENDBRANCH  27  28
ENDBRANCH  26  27
ENDBRANCH  25  26
ENDBRANCH   1  25
TORSDOF 20
