REMARK SMILES Cc1[nH]c(=O)sc1S(=O)(=O)NC1(CC(=O)OCCOCCOCCOC(=O)c2ccc(-c3c4nc(c(-c5c(F)c(F)c(F)c(F)c5F)c5ccc([nH]5)c(-c5c(F)c(F)c(F)c(F)c5F)c5nc(c(-c6c(F)c(F)c(F)c(F)c6F)c6ccc3[nH]6)C=C5)C=C4)cc2)CCC1
REMARK SMILES IDX 20 1 19 2 18 3 17 4 16 5 14 6 15 7 13 8 12 9 91 10 93 11
REMARK SMILES IDX 92 12 11 13 8 15 9 16 10 17 7 18 1 19 2 20 3 21 4 22 6 24
REMARK SMILES IDX 5 25 21 26 22 27 23 28 24 29 25 30 26 31 27 32 28 33 29 34
REMARK SMILES IDX 90 35 30 36 89 37 31 38 32 39 33 40 83 41 34 42 88 43 82 44
REMARK SMILES IDX 84 45 35 46 87 47 81 48 80 49 36 51 68 52 48 53 67 54 49 55
REMARK SMILES IDX 52 56 66 57 85 58 50 59 51 60 65 62 86 63 53 64 37 65 38 66
REMARK SMILES IDX 46 67 39 68 40 69 44 70 47 71 41 72 42 73 45 74 43 75 69 76
REMARK SMILES IDX 70 77 78 78 71 79 72 80 76 81 79 82 73 83 74 84 77 85 75 86
REMARK SMILES IDX 54 87 55 88 63 89 56 90 57 91 61 92 64 93 58 94 59 95 62 96
REMARK SMILES IDX 60 97
REMARK H PARENT 11 14 3 23 84 50 52 61
REMARK Flexibility Score: inf
ROOT
ATOM      1  C   UNL     1      -0.880   2.394  -0.354  1.00  0.00     0.188 C 
ENDROOT
BRANCH   1   2
ATOM      2  O   UNL     1      -1.563   1.406  -1.079  1.00  0.00    -0.376 OA
BRANCH   2   3
ATOM      3  C   UNL     1      -0.793   0.389  -1.707  1.00  0.00     0.202 C 
BRANCH   3   4
ATOM      4  C   UNL     1       0.319  -0.441  -0.952  1.00  0.00     0.261 C 
BRANCH   4   5
ATOM      5  O   UNL     1       1.700   0.145  -0.839  1.00  0.00    -0.463 OA
BRANCH   5   6
ATOM      6  C   UNL     1       3.033  -0.227  -1.012  1.00  0.00     0.307 C 
ATOM      7  O   UNL     1       3.519  -1.139  -1.665  1.00  0.00    -0.252 OA
BRANCH   6   8
ATOM      8  C   UNL     1       3.998   0.658  -0.268  1.00  0.00     0.146 C 
BRANCH   8   9
ATOM      9  C   UNL     1       3.217   1.567   0.628  1.00  0.00     0.044 C 
ATOM     10  C   UNL     1       3.941   2.200   1.881  1.00  0.00     0.024 C 
ATOM     11  C   UNL     1       2.541   0.641   1.757  1.00  0.00     0.024 C 
ATOM     12  C   UNL     1       3.834   0.808   2.571  1.00  0.00     0.004 C 
BRANCH   9  13
ATOM     13  N   UNL     1       2.351   2.482  -0.352  1.00  0.00    -0.204 NA
ATOM     14  H   UNL     1       1.387   2.186  -0.195  1.00  0.00     0.142 HD
BRANCH  13  15
ATOM     15  S   UNL     1       2.492   2.652  -2.200  1.00  0.00     0.252 S 
ATOM     16  O   UNL     1       3.907   2.578  -2.499  1.00  0.00    -0.206 OA
ATOM     17  O   UNL     1       1.869   3.969  -2.294  1.00  0.00    -0.206 OA
BRANCH  15  18
ATOM     18  C   UNL     1       1.591   1.606  -3.461  1.00  0.00     0.158 A 
ATOM     19  C   UNL     1       1.867  -1.164  -3.568  1.00  0.00     0.067 C 
ATOM     20  C   UNL     1       1.482   0.283  -3.866  1.00  0.00     0.046 A 
ATOM     21  N   UNL     1       0.612   0.151  -4.954  1.00  0.00    -0.315 N 
ATOM     22  C   UNL     1       0.041   1.230  -5.501  1.00  0.00     0.305 A 
ATOM     23  H   UNL     1       0.418  -0.742  -5.320  1.00  0.00     0.170 HD
ATOM     24  S   UNL     1       0.640   2.622  -4.678  1.00  0.00    -0.061 S 
ATOM     25  O   UNL     1      -0.784   1.207  -6.422  1.00  0.00    -0.257 OA
ENDBRANCH  15  18
ENDBRANCH  13  15
ENDBRANCH   9  13
ENDBRANCH   8   9
ENDBRANCH   6   8
ENDBRANCH   5   6
ENDBRANCH   4   5
ENDBRANCH   3   4
ENDBRANCH   2   3
ENDBRANCH   1   2
BRANCH   1  26
ATOM     26  C   UNL     1      -0.479   1.904   1.031  1.00  0.00     0.188 C 
BRANCH  26  27
ATOM     27  O   UNL     1      -1.201   0.899   1.750  1.00  0.00    -0.376 OA
BRANCH  27  28
ATOM     28  C   UNL     1      -2.516   0.499   1.389  1.00  0.00     0.202 C 
BRANCH  28  29
ATOM     29  C   UNL     1      -3.635   1.468   1.730  1.00  0.00     0.261 C 
BRANCH  29  30
ATOM     30  O   UNL     1      -3.294   2.787   1.359  1.00  0.00    -0.460 OA
BRANCH  30  31
ATOM     31  C   UNL     1      -2.564   3.453   2.282  1.00  0.00     0.338 C 
ATOM     32  O   UNL     1      -2.220   3.068   3.385  1.00  0.00    -0.246 OA
BRANCH  31  33
ATOM     33  C   UNL     1      -2.306   4.809   1.756  1.00  0.00     0.060 A 
ATOM     34  C   UNL     1      -1.740   5.660   2.701  1.00  0.00     0.016 A 
ATOM     35  C   UNL     1      -3.225   5.250   0.796  1.00  0.00     0.016 A 
ATOM     36  C   UNL     1      -2.460   6.783   3.006  1.00  0.00     0.010 A 
ATOM     37  C   UNL     1      -3.995   6.315   1.148  1.00  0.00     0.010 A 
ATOM     38  C   UNL     1      -3.654   7.000   2.309  1.00  0.00    -0.014 A 
BRANCH  38  39
ATOM     39  C   UNL     1      -4.483   8.099   2.714  1.00  0.00     0.031 A 
ATOM     40  C   UNL     1      -3.945   9.356   2.171  1.00  0.00     0.074 A 
ATOM     41  C   UNL     1      -5.615   7.934   3.419  1.00  0.00     0.049 A 
ATOM     42  N   UNL     1      -3.285  10.248   2.826  1.00  0.00    -0.248 NA
ATOM     43  C   UNL     1      -3.876   9.504   0.707  1.00  0.00     0.031 C 
ATOM     44  C   UNL     1      -6.314   6.691   3.752  1.00  0.00     0.029 A 
ATOM     45  N   UNL     1      -6.436   8.892   3.919  1.00  0.00    -0.354 N 
ATOM     46  C   UNL     1      -2.939  11.199   1.877  1.00  0.00     0.074 A 
ATOM     47  C   UNL     1      -3.077  10.565   0.597  1.00  0.00     0.031 C 
ATOM     48  C   UNL     1      -7.559   6.988   4.196  1.00  0.00     0.029 A 
ATOM     49  C   UNL     1      -7.693   8.432   4.295  1.00  0.00     0.049 A 
ATOM     50  H   UNL     1      -6.165   9.834   4.008  1.00  0.00     0.167 HD
ATOM     51  C   UNL     1      -2.936  12.512   2.221  1.00  0.00     0.037 A 
ATOM     52  C   UNL     1      -8.762   9.223   4.568  1.00  0.00     0.037 A 
ATOM     53  C   UNL     1      -2.857  12.656   3.658  1.00  0.00     0.049 A 
ATOM     54  C   UNL     1      -8.234  10.586   4.856  1.00  0.00     0.074 A 
ATOM     55  C   UNL     1      -1.952  12.268   4.626  1.00  0.00     0.029 A 
ATOM     56  N   UNL     1      -4.029  12.926   4.320  1.00  0.00    -0.354 N 
ATOM     57  N   UNL     1      -7.537  10.880   5.919  1.00  0.00    -0.248 NA
ATOM     58  C   UNL     1      -8.072  11.500   3.735  1.00  0.00     0.031 C 
ATOM     59  C   UNL     1      -2.740  11.917   5.762  1.00  0.00     0.029 A 
ATOM     60  C   UNL     1      -4.078  12.171   5.461  1.00  0.00     0.049 A 
ATOM     61  H   UNL     1      -4.722  13.560   4.023  1.00  0.00     0.167 HD
ATOM     62  C   UNL     1      -6.532  11.720   5.458  1.00  0.00     0.074 A 
ATOM     63  C   UNL     1      -6.967  12.139   4.128  1.00  0.00     0.031 C 
ATOM     64  C   UNL     1      -5.314  11.743   6.076  1.00  0.00     0.037 A 
BRANCH  51  65
ATOM     65  C   UNL     1      -3.492  13.600   1.329  1.00  0.00     0.064 A 
ATOM     66  C   UNL     1      -3.412  14.929   1.786  1.00  0.00     0.173 A 
ATOM     67  C   UNL     1      -4.363  13.390   0.234  1.00  0.00     0.173 A 
ATOM     68  F   UNL     1      -2.622  15.247   2.823  1.00  0.00    -0.203 F 
ATOM     69  C   UNL     1      -4.222  15.939   1.264  1.00  0.00     0.198 A 
ATOM     70  C   UNL     1      -5.130  14.411  -0.319  1.00  0.00     0.198 A 
ATOM     71  F   UNL     1      -4.608  12.184  -0.286  1.00  0.00    -0.203 F 
ATOM     72  F   UNL     1      -4.215  17.152   1.831  1.00  0.00    -0.200 F 
ATOM     73  C   UNL     1      -5.088  15.677   0.220  1.00  0.00     0.200 A 
ATOM     74  F   UNL     1      -5.976  14.128  -1.320  1.00  0.00    -0.200 F 
ATOM     75  F   UNL     1      -5.917  16.624  -0.236  1.00  0.00    -0.200 F 
ENDBRANCH  51  65
BRANCH  52  76
ATOM     76  C   UNL     1     -10.195   8.988   4.266  1.00  0.00     0.064 A 
ATOM     77  C   UNL     1     -11.192   9.809   4.822  1.00  0.00     0.173 A 
ATOM     78  C   UNL     1     -10.598   8.151   3.207  1.00  0.00     0.173 A 
ATOM     79  F   UNL     1     -10.886  10.670   5.804  1.00  0.00    -0.203 F 
ATOM     80  C   UNL     1     -12.501   9.816   4.328  1.00  0.00     0.198 A 
ATOM     81  C   UNL     1     -11.907   8.153   2.720  1.00  0.00     0.198 A 
ATOM     82  F   UNL     1      -9.711   7.386   2.557  1.00  0.00    -0.203 F 
ATOM     83  F   UNL     1     -13.405  10.663   4.840  1.00  0.00    -0.200 F 
ATOM     84  C   UNL     1     -12.854   8.996   3.270  1.00  0.00     0.200 A 
ATOM     85  F   UNL     1     -12.225   7.382   1.671  1.00  0.00    -0.200 F 
ATOM     86  F   UNL     1     -14.089   9.049   2.753  1.00  0.00    -0.200 F 
ENDBRANCH  52  76
BRANCH  64  87
ATOM     87  C   UNL     1      -5.209  11.097   7.430  1.00  0.00     0.064 A 
ATOM     88  C   UNL     1      -5.418   9.729   7.680  1.00  0.00     0.173 A 
ATOM     89  C   UNL     1      -4.757  11.886   8.496  1.00  0.00     0.173 A 
ATOM     90  F   UNL     1      -5.754   8.890   6.691  1.00  0.00    -0.203 F 
ATOM     91  C   UNL     1      -5.231   9.193   8.954  1.00  0.00     0.198 A 
ATOM     92  C   UNL     1      -4.531  11.340   9.755  1.00  0.00     0.198 A 
ATOM     93  F   UNL     1      -4.490  13.187   8.302  1.00  0.00    -0.203 F 
ATOM     94  F   UNL     1      -5.457   7.889   9.175  1.00  0.00    -0.200 F 
ATOM     95  C   UNL     1      -4.780   9.997   9.987  1.00  0.00     0.200 A 
ATOM     96  F   UNL     1      -4.046  12.112  10.737  1.00  0.00    -0.200 F 
ATOM     97  F   UNL     1      -4.562   9.475  11.203  1.00  0.00    -0.200 F 
ENDBRANCH  64  87
ENDBRANCH  38  39
ENDBRANCH  31  33
ENDBRANCH  30  31
ENDBRANCH  29  30
ENDBRANCH  28  29
ENDBRANCH  27  28
ENDBRANCH  26  27
ENDBRANCH   1  26
TORSDOF 21
