REMARK SMILES Cc1oc2cc3c(cc2c1C)[C@H](C)[C@@H](CC(=O)N[C@H](CC1=c2ccccc2=NC1)C(=O)OCCOCCOCCOC(=O)c1ccc(-c2c4nc(c(-c5c(F)c(F)c(F)c(F)c5F)c5ccc([nH]5)c(-c5c(F)c(F)c(F)c(F)c5F)c5nc(c(-c6c(F)c(F)c(F)c(F)c6F)c6ccc2[nH]6)C=C5)C=C4)cc1)C(=O)O3
REMARK SMILES IDX 36 1 35 2 34 3 33 4 32 5 30 6 31 7 19 8 18 9 16 10 17 11
REMARK SMILES IDX 15 13 14 14 1 15 2 16 3 17 10 18 4 19 9 20 11 21 5 22 8 23
REMARK SMILES IDX 6 24 7 25 109 26 12 27 107 28 13 29 108 30 20 31 21 32 22 33
REMARK SMILES IDX 29 34 23 35 27 36 28 37 24 38 26 39 25 40 37 41 38 42 39 43
REMARK SMILES IDX 40 44 41 45 42 46 43 47 44 48 45 49 106 50 46 51 105 52
REMARK SMILES IDX 47 53 48 54 49 55 99 56 50 57 104 58 98 59 100 60 51 61
REMARK SMILES IDX 103 62 97 63 96 64 52 66 84 67 64 68 83 69 65 70 68 71 82 72
REMARK SMILES IDX 101 73 66 74 67 75 81 77 102 78 69 79 53 80 54 81 62 82
REMARK SMILES IDX 55 83 56 84 60 85 63 86 57 87 58 88 61 89 59 90 85 91 86 92
REMARK SMILES IDX 94 93 87 94 88 95 92 96 95 97 89 98 90 99 93 100 91 101
REMARK SMILES IDX 70 102 71 103 79 104 72 105 73 106 77 107 80 108 74 109
REMARK SMILES IDX 75 110 78 111 76 112
REMARK H PARENT 18 12 100 65 68 76
REMARK Flexibility Score: inf
ROOT
ATOM      1  C   UNL     1       1.232  10.067   7.222  1.00  0.00     0.188 C 
ENDROOT
BRANCH   1   2
ATOM      2  O   UNL     1       2.484  10.486   7.733  1.00  0.00    -0.376 OA
BRANCH   2   3
ATOM      3  C   UNL     1       3.161  11.410   6.878  1.00  0.00     0.202 C 
BRANCH   3   4
ATOM      4  C   UNL     1       3.663  10.904   5.500  1.00  0.00     0.261 C 
BRANCH   4   5
ATOM      5  O   UNL     1       2.654  10.504   4.540  1.00  0.00    -0.462 OA
BRANCH   5   6
ATOM      6  C   UNL     1       2.258   9.200   4.485  1.00  0.00     0.329 C 
ATOM      7  O   UNL     1       2.698   8.329   5.228  1.00  0.00    -0.250 OA
BRANCH   6   8
ATOM      8  C   UNL     1       1.162   8.929   3.422  1.00  0.00     0.196 C 
BRANCH   8   9
ATOM      9  N   UNL     1       1.274   9.710   2.141  1.00  0.00    -0.342 N 
ATOM     10  C   UNL     1       1.062  10.982   1.728  1.00  0.00     0.221 C 
ATOM     11  O   UNL     1       0.808  11.112   0.523  1.00  0.00    -0.275 OA
ATOM     12  H   UNL     1       1.586   9.140   1.401  1.00  0.00     0.164 HD
BRANCH  10  13
ATOM     13  C   UNL     1       1.195  12.240   2.575  1.00  0.00     0.116 C 
BRANCH  13  14
ATOM     14  C   UNL     1      -0.100  12.810   3.159  1.00  0.00     0.116 C 
ATOM     15  C   UNL     1      -5.294  16.479   8.785  1.00  0.00     0.088 C 
ATOM     16  C   UNL     1      -4.241  15.976   7.879  1.00  0.00     0.105 A 
ATOM     17  O   UNL     1      -4.479  14.748   7.344  1.00  0.00    -0.461 OA
ATOM     18  C   UNL     1      -3.041  16.486   7.410  1.00  0.00    -0.002 A 
ATOM     19  C   UNL     1      -3.448  14.468   6.508  1.00  0.00     0.138 A 
ATOM     20  C   UNL     1      -2.520  15.499   6.518  1.00  0.00     0.024 A 
ATOM     21  C   UNL     1      -2.416  17.793   7.720  1.00  0.00     0.049 C 
ATOM     22  C   UNL     1      -3.330  13.317   5.747  1.00  0.00     0.095 A 
ATOM     23  C   UNL     1      -1.361  15.381   5.720  1.00  0.00     0.020 A 
ATOM     24  C   UNL     1      -2.184  13.239   4.952  1.00  0.00     0.138 A 
ATOM     25  C   UNL     1      -1.194  14.249   4.903  1.00  0.00    -0.001 A 
ATOM     26  O   UNL     1      -2.066  12.045   4.239  1.00  0.00    -0.426 OA
ATOM     27  C   UNL     1       0.098  14.009   4.114  1.00  0.00     0.035 C 
ATOM     28  C   UNL     1      -0.738  11.834   4.067  1.00  0.00     0.315 C 
ATOM     29  C   UNL     1       0.650  15.217   3.361  1.00  0.00     0.014 C 
ATOM     30  O   UNL     1      -0.104  10.999   4.703  1.00  0.00    -0.251 OA
ENDBRANCH  13  14
ENDBRANCH  10  13
ENDBRANCH   8   9
BRANCH   8  31
ATOM     31  C   UNL     1      -0.369   8.621   3.687  1.00  0.00     0.070 C 
BRANCH  31  32
ATOM     32  C   UNL     1      -1.250   8.466   4.974  1.00  0.00    -0.037 C 
ATOM     33  C   UNL     1      -1.259   7.320   5.682  1.00  0.00     0.001 A 
ATOM     34  C   UNL     1      -2.722   8.628   4.558  1.00  0.00     0.174 C 
ATOM     35  C   UNL     1      -1.730   7.061   7.042  1.00  0.00     0.010 A 
ATOM     36  C   UNL     1      -2.220   6.560   4.811  1.00  0.00     0.065 A 
ATOM     37  N   UNL     1      -3.094   7.245   4.137  1.00  0.00    -0.280 NA
ATOM     38  C   UNL     1      -2.007   5.781   7.361  1.00  0.00     0.001 A 
ATOM     39  C   UNL     1      -2.114   5.104   5.022  1.00  0.00     0.028 A 
ATOM     40  C   UNL     1      -1.930   4.769   6.314  1.00  0.00     0.002 A 
ENDBRANCH  31  32
ENDBRANCH   8  31
ENDBRANCH   6   8
ENDBRANCH   5   6
ENDBRANCH   4   5
ENDBRANCH   3   4
ENDBRANCH   2   3
ENDBRANCH   1   2
BRANCH   1  41
ATOM     41  C   UNL     1      -0.037  10.802   7.636  1.00  0.00     0.188 C 
BRANCH  41  42
ATOM     42  O   UNL     1       0.023  12.214   7.665  1.00  0.00    -0.376 OA
BRANCH  42  43
ATOM     43  C   UNL     1       0.461  12.777   8.905  1.00  0.00     0.202 C 
BRANCH  43  44
ATOM     44  C   UNL     1      -0.238  12.273  10.188  1.00  0.00     0.261 C 
BRANCH  44  45
ATOM     45  O   UNL     1       0.311  11.002  10.633  1.00  0.00    -0.460 OA
BRANCH  45  46
ATOM     46  C   UNL     1      -0.570   9.986  10.850  1.00  0.00     0.338 C 
ATOM     47  O   UNL     1      -1.787  10.047  10.842  1.00  0.00    -0.246 OA
BRANCH  46  48
ATOM     48  C   UNL     1       0.170   8.708  10.779  1.00  0.00     0.060 A 
ATOM     49  C   UNL     1       0.891   8.179  11.836  1.00  0.00     0.016 A 
ATOM     50  C   UNL     1       0.150   8.025   9.566  1.00  0.00     0.016 A 
ATOM     51  C   UNL     1       1.625   6.997  11.637  1.00  0.00     0.010 A 
ATOM     52  C   UNL     1       0.913   6.888   9.338  1.00  0.00     0.010 A 
ATOM     53  C   UNL     1       1.655   6.356  10.381  1.00  0.00    -0.014 A 
BRANCH  53  54
ATOM     54  C   UNL     1       2.451   5.127  10.168  1.00  0.00     0.031 A 
ATOM     55  C   UNL     1       1.778   4.040   9.343  1.00  0.00     0.074 A 
ATOM     56  C   UNL     1       3.774   5.330  10.007  1.00  0.00     0.049 A 
ATOM     57  N   UNL     1       1.893   3.728   8.083  1.00  0.00    -0.248 NA
ATOM     58  C   UNL     1       0.759   3.239  10.040  1.00  0.00     0.031 C 
ATOM     59  C   UNL     1       4.450   5.946   8.873  1.00  0.00     0.029 A 
ATOM     60  N   UNL     1       4.787   4.857  10.832  1.00  0.00    -0.354 N 
ATOM     61  C   UNL     1       1.005   2.673   7.832  1.00  0.00     0.074 A 
ATOM     62  C   UNL     1       0.313   2.427   9.074  1.00  0.00     0.031 C 
ATOM     63  C   UNL     1       5.773   5.723   8.994  1.00  0.00     0.029 A 
ATOM     64  C   UNL     1       6.035   4.917  10.192  1.00  0.00     0.049 A 
ATOM     65  H   UNL     1       4.648   4.524  11.748  1.00  0.00     0.167 HD
ATOM     66  C   UNL     1       0.911   1.992   6.653  1.00  0.00     0.037 A 
ATOM     67  C   UNL     1       6.892   3.850  10.239  1.00  0.00     0.037 A 
ATOM     68  C   UNL     1       1.815   2.409   5.628  1.00  0.00     0.049 A 
ATOM     69  C   UNL     1       6.438   3.027   9.051  1.00  0.00     0.074 A 
ATOM     70  C   UNL     1       1.796   3.168   4.480  1.00  0.00     0.029 A 
ATOM     71  N   UNL     1       3.100   1.931   5.702  1.00  0.00    -0.354 N 
ATOM     72  N   UNL     1       6.677   3.274   7.788  1.00  0.00    -0.248 NA
ATOM     73  C   UNL     1       5.321   2.110   9.290  1.00  0.00     0.031 C 
ATOM     74  C   UNL     1       3.168   3.485   4.218  1.00  0.00     0.029 A 
ATOM     75  C   UNL     1       3.926   2.917   5.242  1.00  0.00     0.049 A 
ATOM     76  H   UNL     1       3.376   1.043   6.026  1.00  0.00     0.167 HD
ATOM     77  C   UNL     1       5.562   2.782   7.099  1.00  0.00     0.074 A 
ATOM     78  C   UNL     1       4.786   2.049   8.079  1.00  0.00     0.031 C 
ATOM     79  C   UNL     1       5.221   3.163   5.832  1.00  0.00     0.037 A 
BRANCH  66  80
ATOM     80  C   UNL     1       0.169   0.719   6.420  1.00  0.00     0.064 A 
ATOM     81  C   UNL     1       0.922  -0.467   6.354  1.00  0.00     0.173 A 
ATOM     82  C   UNL     1      -1.156   0.657   5.976  1.00  0.00     0.173 A 
ATOM     83  F   UNL     1       2.200  -0.470   6.770  1.00  0.00    -0.203 F 
ATOM     84  C   UNL     1       0.405  -1.632   5.796  1.00  0.00     0.198 A 
ATOM     85  C   UNL     1      -1.683  -0.520   5.439  1.00  0.00     0.198 A 
ATOM     86  F   UNL     1      -1.940   1.739   5.998  1.00  0.00    -0.203 F 
ATOM     87  F   UNL     1       1.186  -2.714   5.672  1.00  0.00    -0.200 F 
ATOM     88  C   UNL     1      -0.895  -1.655   5.325  1.00  0.00     0.200 A 
ATOM     89  F   UNL     1      -2.945  -0.540   4.986  1.00  0.00    -0.200 F 
ATOM     90  F   UNL     1      -1.382  -2.761   4.746  1.00  0.00    -0.200 F 
ENDBRANCH  66  80
BRANCH  67  91
ATOM     91  C   UNL     1       7.144   3.283  11.609  1.00  0.00     0.064 A 
ATOM     92  C   UNL     1       7.416   4.180  12.664  1.00  0.00     0.173 A 
ATOM     93  C   UNL     1       7.071   1.927  11.962  1.00  0.00     0.173 A 
ATOM     94  F   UNL     1       7.621   5.482  12.407  1.00  0.00    -0.203 F 
ATOM     95  C   UNL     1       7.431   3.773  13.997  1.00  0.00     0.198 A 
ATOM     96  C   UNL     1       7.067   1.520  13.300  1.00  0.00     0.198 A 
ATOM     97  F   UNL     1       6.972   0.972  11.029  1.00  0.00    -0.203 F 
ATOM     98  F   UNL     1       7.608   4.680  14.968  1.00  0.00    -0.200 F 
ATOM     99  C   UNL     1       7.215   2.447  14.318  1.00  0.00     0.200 A 
ATOM    100  F   UNL     1       6.880   0.228  13.602  1.00  0.00    -0.200 F 
ATOM    101  F   UNL     1       7.147   2.065  15.600  1.00  0.00    -0.200 F 
ENDBRANCH  67  91
BRANCH  79 102
ATOM    102  C   UNL     1       6.173   4.078   5.144  1.00  0.00     0.064 A 
ATOM    103  C   UNL     1       7.444   3.632   4.768  1.00  0.00     0.173 A 
ATOM    104  C   UNL     1       5.804   5.389   4.799  1.00  0.00     0.173 A 
ATOM    105  F   UNL     1       7.837   2.381   5.055  1.00  0.00    -0.203 F 
ATOM    106  C   UNL     1       8.307   4.462   4.059  1.00  0.00     0.198 A 
ATOM    107  C   UNL     1       6.654   6.202   4.058  1.00  0.00     0.198 A 
ATOM    108  F   UNL     1       4.606   5.880   5.150  1.00  0.00    -0.203 F 
ATOM    109  F   UNL     1       9.521   4.016   3.706  1.00  0.00    -0.200 F 
ATOM    110  C   UNL     1       7.906   5.737   3.690  1.00  0.00     0.200 A 
ATOM    111  F   UNL     1       6.253   7.424   3.678  1.00  0.00    -0.200 F 
ATOM    112  F   UNL     1       8.722   6.515   2.966  1.00  0.00    -0.200 F 
ENDBRANCH  79 102
ENDBRANCH  53  54
ENDBRANCH  46  48
ENDBRANCH  45  46
ENDBRANCH  44  45
ENDBRANCH  43  44
ENDBRANCH  42  43
ENDBRANCH  41  42
ENDBRANCH   1  41
TORSDOF 22
