REMARK SMILES C[C@@H](O)[C@@H](NC(=O)c1csc(-c2ccsc2)n1)C(=O)OCCOCCOCCOC(=O)c1ccc(-c2c3nc(c(-c4c(F)c(F)c(F)c(F)c4F)c4ccc([nH]4)c(-c4c(F)c(F)c(F)c(F)c4F)c4nc(c(-c5c(F)c(F)c(F)c(F)c5F)c5ccc2[nH]5)C=C4)C=C3)cc1
REMARK SMILES IDX 24 1 23 2 22 3 21 4 20 5 18 6 19 7 4 8 2 9 1 10 3 11 5 13
REMARK SMILES IDX 6 14 7 16 8 17 9 18 17 19 10 20 11 21 12 22 13 23 16 24
REMARK SMILES IDX 14 25 15 26 25 27 26 28 27 29 28 30 29 31 30 32 31 33 32 34
REMARK SMILES IDX 33 35 94 36 34 37 93 38 35 39 36 40 37 41 87 42 38 43 92 44
REMARK SMILES IDX 86 45 88 46 39 47 91 48 85 49 84 50 40 52 72 53 52 54 71 55
REMARK SMILES IDX 53 56 56 57 70 58 89 59 54 60 55 61 69 63 90 64 57 65 41 66
REMARK SMILES IDX 42 67 50 68 43 69 44 70 48 71 51 72 45 73 46 74 49 75 47 76
REMARK SMILES IDX 73 77 74 78 82 79 75 80 76 81 80 82 83 83 77 84 78 85 81 86
REMARK SMILES IDX 79 87 58 88 59 89 67 90 60 91 61 92 65 93 68 94 62 95 63 96
REMARK SMILES IDX 66 97 64 98
REMARK H PARENT 3 12 5 15 88 51 56 62
REMARK Flexibility Score: inf
ROOT
ATOM      1  C   UNL     1      -0.942   4.964   1.853  1.00  0.00     0.188 C 
ENDROOT
BRANCH   1   2
ATOM      2  O   UNL     1      -1.628   5.115   3.087  1.00  0.00    -0.376 OA
BRANCH   2   3
ATOM      3  C   UNL     1      -1.257   4.328   4.203  1.00  0.00     0.202 C 
BRANCH   3   4
ATOM      4  C   UNL     1      -1.576   2.829   4.159  1.00  0.00     0.261 C 
BRANCH   4   5
ATOM      5  O   UNL     1      -1.010   1.917   3.199  1.00  0.00    -0.462 OA
BRANCH   5   6
ATOM      6  C   UNL     1      -1.714   1.721   2.041  1.00  0.00     0.331 C 
ATOM      7  O   UNL     1      -2.591   2.468   1.621  1.00  0.00    -0.250 OA
BRANCH   6   8
ATOM      8  C   UNL     1      -1.345   0.423   1.316  1.00  0.00     0.221 C 
BRANCH   8   9
ATOM      9  C   UNL     1       0.205   0.329   1.085  1.00  0.00     0.145 C 
ATOM     10  C   UNL     1       0.663  -0.925   0.337  1.00  0.00     0.041 C 
BRANCH   9  11
ATOM     11  O   UNL     1       0.674   1.411   0.267  1.00  0.00    -0.391 OA
ATOM     12  H   UNL     1       0.279   1.343  -0.617  1.00  0.00     0.211 HD
ENDBRANCH   9  11
ENDBRANCH   8   9
BRANCH   8  13
ATOM     13  N   UNL     1      -1.881  -0.798   1.954  1.00  0.00    -0.335 N 
ATOM     14  C   UNL     1      -2.964  -1.075   2.757  1.00  0.00     0.271 C 
ATOM     15  H   UNL     1      -1.340  -1.597   1.759  1.00  0.00     0.164 HD
ATOM     16  O   UNL     1      -3.218  -2.270   2.925  1.00  0.00    -0.267 OA
BRANCH  14  17
ATOM     17  C   UNL     1      -3.663  -0.050   3.537  1.00  0.00     0.139 A 
ATOM     18  C   UNL     1      -3.692  -0.103   4.921  1.00  0.00     0.101 A 
ATOM     19  N   UNL     1      -4.406   1.004   2.999  1.00  0.00    -0.231 NA
ATOM     20  S   UNL     1      -4.586   1.206   5.561  1.00  0.00    -0.122 S 
ATOM     21  C   UNL     1      -4.802   1.824   3.961  1.00  0.00     0.125 A 
BRANCH  21  22
ATOM     22  C   UNL     1      -5.196   3.266   3.688  1.00  0.00     0.021 A 
ATOM     23  C   UNL     1      -5.529   3.797   2.404  1.00  0.00     0.023 A 
ATOM     24  C   UNL     1      -5.130   4.269   4.638  1.00  0.00     0.076 A 
ATOM     25  C   UNL     1      -5.716   5.163   2.429  1.00  0.00     0.065 A 
ATOM     26  S   UNL     1      -5.463   5.819   3.987  1.00  0.00    -0.152 S 
ENDBRANCH  21  22
ENDBRANCH  14  17
ENDBRANCH   8  13
ENDBRANCH   6   8
ENDBRANCH   5   6
ENDBRANCH   4   5
ENDBRANCH   3   4
ENDBRANCH   2   3
ENDBRANCH   1   2
BRANCH   1  27
ATOM     27  C   UNL     1       0.327   4.107   1.784  1.00  0.00     0.188 C 
BRANCH  27  28
ATOM     28  O   UNL     1       1.085   3.998   2.969  1.00  0.00    -0.376 OA
BRANCH  28  29
ATOM     29  C   UNL     1       2.222   4.834   3.104  1.00  0.00     0.202 C 
BRANCH  29  30
ATOM     30  C   UNL     1       2.026   6.332   2.834  1.00  0.00     0.261 C 
BRANCH  30  31
ATOM     31  O   UNL     1       1.572   6.693   1.512  1.00  0.00    -0.460 OA
BRANCH  31  32
ATOM     32  C   UNL     1       2.244   6.221   0.431  1.00  0.00     0.338 C 
ATOM     33  O   UNL     1       3.295   5.623   0.426  1.00  0.00    -0.246 OA
BRANCH  32  34
ATOM     34  C   UNL     1       1.310   6.309  -0.728  1.00  0.00     0.060 A 
ATOM     35  C   UNL     1       1.044   5.153  -1.482  1.00  0.00     0.016 A 
ATOM     36  C   UNL     1       0.645   7.499  -1.020  1.00  0.00     0.016 A 
ATOM     37  C   UNL     1       0.132   5.191  -2.540  1.00  0.00     0.010 A 
ATOM     38  C   UNL     1      -0.241   7.546  -2.101  1.00  0.00     0.010 A 
ATOM     39  C   UNL     1      -0.477   6.402  -2.886  1.00  0.00    -0.014 A 
BRANCH  39  40
ATOM     40  C   UNL     1      -1.151   6.552  -4.201  1.00  0.00     0.031 A 
ATOM     41  C   UNL     1      -0.345   7.134  -5.330  1.00  0.00     0.074 A 
ATOM     42  C   UNL     1      -2.434   6.204  -4.402  1.00  0.00     0.049 A 
ATOM     43  N   UNL     1      -0.722   7.495  -6.530  1.00  0.00    -0.248 NA
ATOM     44  C   UNL     1       1.088   7.344  -5.061  1.00  0.00     0.031 C 
ATOM     45  C   UNL     1      -3.309   5.574  -3.419  1.00  0.00     0.029 A 
ATOM     46  N   UNL     1      -3.228   6.357  -5.515  1.00  0.00    -0.354 N 
ATOM     47  C   UNL     1       0.418   7.991  -7.147  1.00  0.00     0.074 A 
ATOM     48  C   UNL     1       1.496   7.907  -6.187  1.00  0.00     0.031 C 
ATOM     49  C   UNL     1      -4.530   5.418  -3.963  1.00  0.00     0.029 A 
ATOM     50  C   UNL     1      -4.532   5.975  -5.316  1.00  0.00     0.049 A 
ATOM     51  H   UNL     1      -2.893   6.708  -6.372  1.00  0.00     0.167 HD
ATOM     52  C   UNL     1       0.557   8.470  -8.405  1.00  0.00     0.037 A 
ATOM     53  C   UNL     1      -5.607   6.098  -6.122  1.00  0.00     0.037 A 
ATOM     54  C   UNL     1      -0.512   8.552  -9.362  1.00  0.00     0.049 A 
ATOM     55  C   UNL     1      -5.448   6.724  -7.489  1.00  0.00     0.074 A 
ATOM     56  C   UNL     1      -0.464   9.002 -10.669  1.00  0.00     0.029 A 
ATOM     57  N   UNL     1      -1.825   8.185  -9.112  1.00  0.00    -0.354 N 
ATOM     58  N   UNL     1      -4.366   7.173  -8.077  1.00  0.00    -0.248 NA
ATOM     59  C   UNL     1      -6.666   6.864  -8.303  1.00  0.00     0.031 C 
ATOM     60  C   UNL     1      -1.762   8.970 -11.189  1.00  0.00     0.029 A 
ATOM     61  C   UNL     1      -2.605   8.434 -10.230  1.00  0.00     0.049 A 
ATOM     62  H   UNL     1      -2.155   7.805  -8.265  1.00  0.00     0.167 HD
ATOM     63  C   UNL     1      -4.765   7.616  -9.334  1.00  0.00     0.074 A 
ATOM     64  C   UNL     1      -6.187   7.371  -9.430  1.00  0.00     0.031 C 
ATOM     65  C   UNL     1      -4.019   8.174 -10.320  1.00  0.00     0.037 A 
BRANCH  52  66
ATOM     66  C   UNL     1       1.910   8.980  -8.807  1.00  0.00     0.064 A 
ATOM     67  C   UNL     1       2.999   8.118  -9.002  1.00  0.00     0.173 A 
ATOM     68  C   UNL     1       2.108  10.351  -9.030  1.00  0.00     0.173 A 
ATOM     69  F   UNL     1       2.867   6.801  -8.784  1.00  0.00    -0.203 F 
ATOM     70  C   UNL     1       4.244   8.614  -9.383  1.00  0.00     0.198 A 
ATOM     71  C   UNL     1       3.344  10.839  -9.443  1.00  0.00     0.198 A 
ATOM     72  F   UNL     1       1.099  11.218  -8.857  1.00  0.00    -0.203 F 
ATOM     73  F   UNL     1       5.284   7.779  -9.515  1.00  0.00    -0.200 F 
ATOM     74  C   UNL     1       4.413   9.971  -9.612  1.00  0.00     0.200 A 
ATOM     75  F   UNL     1       3.502  12.149  -9.677  1.00  0.00    -0.200 F 
ATOM     76  F   UNL     1       5.608  10.445  -9.989  1.00  0.00    -0.200 F 
ENDBRANCH  52  66
BRANCH  53  77
ATOM     77  C   UNL     1      -6.948   5.652  -5.654  1.00  0.00     0.064 A 
ATOM     78  C   UNL     1      -7.613   4.582  -6.271  1.00  0.00     0.173 A 
ATOM     79  C   UNL     1      -7.613   6.314  -4.611  1.00  0.00     0.173 A 
ATOM     80  F   UNL     1      -7.037   3.939  -7.298  1.00  0.00    -0.203 F 
ATOM     81  C   UNL     1      -8.896   4.207  -5.878  1.00  0.00     0.198 A 
ATOM     82  C   UNL     1      -8.883   5.916  -4.196  1.00  0.00     0.198 A 
ATOM     83  F   UNL     1      -7.029   7.352  -3.994  1.00  0.00    -0.203 F 
ATOM     84  F   UNL     1      -9.531   3.220  -6.526  1.00  0.00    -0.200 F 
ATOM     85  C   UNL     1      -9.527   4.869  -4.836  1.00  0.00     0.200 A 
ATOM     86  F   UNL     1      -9.486   6.556  -3.185  1.00  0.00    -0.200 F 
ATOM     87  F   UNL     1     -10.762   4.510  -4.460  1.00  0.00    -0.200 F 
ENDBRANCH  53  77
BRANCH  65  88
ATOM     88  C   UNL     1      -4.708   8.523 -11.610  1.00  0.00     0.064 A 
ATOM     89  C   UNL     1      -5.609   9.593 -11.702  1.00  0.00     0.173 A 
ATOM     90  C   UNL     1      -4.408   7.816 -12.786  1.00  0.00     0.173 A 
ATOM     91  F   UNL     1      -5.939  10.295 -10.607  1.00  0.00    -0.203 F 
ATOM     92  C   UNL     1      -6.200   9.930 -12.918  1.00  0.00     0.198 A 
ATOM     93  C   UNL     1      -4.975   8.177 -14.006  1.00  0.00     0.198 A 
ATOM     94  F   UNL     1      -3.544   6.790 -12.758  1.00  0.00    -0.203 F 
ATOM     95  F   UNL     1      -7.091  10.930 -12.974  1.00  0.00    -0.200 F 
ATOM     96  C   UNL     1      -5.875   9.228 -14.070  1.00  0.00     0.200 A 
ATOM     97  F   UNL     1      -4.644   7.510 -15.120  1.00  0.00    -0.200 F 
ATOM     98  F   UNL     1      -6.433   9.564 -15.241  1.00  0.00    -0.200 F 
ENDBRANCH  65  88
ENDBRANCH  39  40
ENDBRANCH  32  34
ENDBRANCH  31  32
ENDBRANCH  30  31
ENDBRANCH  29  30
ENDBRANCH  28  29
ENDBRANCH  27  28
ENDBRANCH   1  27
TORSDOF 22
