REMARK SMILES CC(C)(C)OC(=O)N1CC(Cc2ccc(C(=O)OCCOCCOCCOC(=O)c3ccc(-c4c5nc(c(-c6c(F)c(F)c(F)c(F)c6F)c6ccc([nH]6)c(-c6c(F)c(F)c(F)c(F)c6F)c6nc(c(-c7c(F)c(F)c(F)c(F)c7F)c7ccc4[nH]7)C=C6)C=C5)cc3)cc2)C1
REMARK SMILES IDX 22 1 21 2 20 3 19 4 18 5 16 6 17 7 15 8 12 9 13 10 94 11
REMARK SMILES IDX 14 12 93 13 11 14 10 15 6 16 7 17 8 18 9 19 95 20 5 21 2 22
REMARK SMILES IDX 1 23 3 24 4 25 23 26 24 27 25 28 26 29 27 30 28 31 29 32
REMARK SMILES IDX 30 33 31 34 92 35 32 36 91 37 33 38 34 39 35 40 85 41 36 42
REMARK SMILES IDX 90 43 84 44 86 45 37 46 89 47 83 48 82 49 38 51 70 52 50 53
REMARK SMILES IDX 69 54 51 55 54 56 68 57 87 58 52 59 53 60 67 62 88 63 55 64
REMARK SMILES IDX 39 65 40 66 48 67 41 68 42 69 46 70 49 71 43 72 44 73 47 74
REMARK SMILES IDX 45 75 71 76 72 77 80 78 73 79 74 80 78 81 81 82 75 83 76 84
REMARK SMILES IDX 79 85 77 86 56 87 57 88 65 89 58 90 59 91 63 92 66 93 60 94
REMARK SMILES IDX 61 95 64 96 62 97
REMARK H PARENT 86 50 54 61
REMARK Flexibility Score: inf
ROOT
ATOM      1  C   UNL     1       9.405  -7.781  -6.802  1.00  0.00     0.188 C 
ENDROOT
BRANCH   1   2
ATOM      2  O   UNL     1      10.719  -7.759  -6.270  1.00  0.00    -0.376 OA
BRANCH   2   3
ATOM      3  C   UNL     1      10.925  -7.937  -4.876  1.00  0.00     0.202 C 
BRANCH   3   4
ATOM      4  C   UNL     1      10.286  -6.943  -3.912  1.00  0.00     0.261 C 
BRANCH   4   5
ATOM      5  O   UNL     1       8.855  -6.945  -4.007  1.00  0.00    -0.460 OA
BRANCH   5   6
ATOM      6  C   UNL     1       8.305  -5.745  -4.323  1.00  0.00     0.338 C 
ATOM      7  O   UNL     1       8.887  -4.694  -4.478  1.00  0.00    -0.246 OA
BRANCH   6   8
ATOM      8  C   UNL     1       6.858  -5.904  -4.596  1.00  0.00     0.060 A 
ATOM      9  C   UNL     1       4.102  -5.962  -5.072  1.00  0.00    -0.048 A 
ATOM     10  C   UNL     1       4.917  -5.074  -5.782  1.00  0.00     0.004 A 
ATOM     11  C   UNL     1       4.689  -6.873  -4.178  1.00  0.00     0.004 A 
ATOM     12  C   UNL     1       6.289  -5.044  -5.543  1.00  0.00     0.016 A 
ATOM     13  C   UNL     1       6.063  -6.842  -3.933  1.00  0.00     0.016 A 
BRANCH   9  14
ATOM     14  C   UNL     1       2.600  -5.869  -5.192  1.00  0.00     0.042 C 
BRANCH  14  15
ATOM     15  C   UNL     1       2.044  -5.308  -3.891  1.00  0.00     0.033 C 
ATOM     16  C   UNL     1       0.356  -3.381  -1.901  1.00  0.00     0.410 C 
ATOM     17  O   UNL     1      -0.642  -3.885  -1.397  1.00  0.00    -0.224 OA
ATOM     18  N   UNL     1       0.917  -3.847  -3.049  1.00  0.00    -0.307 N 
ATOM     19  C   UNL     1       0.539  -4.980  -3.872  1.00  0.00     0.128 C 
ATOM     20  C   UNL     1       2.277  -3.809  -3.550  1.00  0.00     0.128 C 
BRANCH  16  21
ATOM     21  O   UNL     1       1.025  -2.305  -1.414  1.00  0.00    -0.444 OA
BRANCH  21  22
ATOM     22  C   UNL     1       0.594  -1.650  -0.190  1.00  0.00     0.106 C 
ATOM     23  C   UNL     1       1.318  -0.294  -0.183  1.00  0.00     0.056 C 
ATOM     24  C   UNL     1       1.056  -2.472   1.015  1.00  0.00     0.056 C 
ATOM     25  C   UNL     1      -0.917  -1.375  -0.139  1.00  0.00     0.056 C 
ENDBRANCH  21  22
ENDBRANCH  16  21
ENDBRANCH  14  15
ENDBRANCH   9  14
ENDBRANCH   6   8
ENDBRANCH   5   6
ENDBRANCH   4   5
ENDBRANCH   3   4
ENDBRANCH   2   3
ENDBRANCH   1   2
BRANCH   1  26
ATOM     26  C   UNL     1       8.407  -8.897  -6.427  1.00  0.00     0.188 C 
BRANCH  26  27
ATOM     27  O   UNL     1       8.835 -10.097  -5.809  1.00  0.00    -0.376 OA
BRANCH  27  28
ATOM     28  C   UNL     1       9.921 -10.829  -6.356  1.00  0.00     0.202 C 
BRANCH  28  29
ATOM     29  C   UNL     1       9.832 -11.317  -7.801  1.00  0.00     0.261 C 
BRANCH  29  30
ATOM     30  O   UNL     1       9.668 -10.246  -8.741  1.00  0.00    -0.460 OA
BRANCH  30  31
ATOM     31  C   UNL     1       8.561 -10.326  -9.516  1.00  0.00     0.338 C 
ATOM     32  O   UNL     1       7.713 -11.200  -9.524  1.00  0.00    -0.246 OA
BRANCH  31  33
ATOM     33  C   UNL     1       8.433  -9.084 -10.292  1.00  0.00     0.060 A 
ATOM     34  C   UNL     1       7.303  -8.282 -10.085  1.00  0.00     0.016 A 
ATOM     35  C   UNL     1       9.391  -8.741 -11.247  1.00  0.00     0.016 A 
ATOM     36  C   UNL     1       7.122  -7.130 -10.848  1.00  0.00     0.010 A 
ATOM     37  C   UNL     1       9.195  -7.599 -12.025  1.00  0.00     0.010 A 
ATOM     38  C   UNL     1       8.053  -6.799 -11.841  1.00  0.00    -0.014 A 
BRANCH  38  39
ATOM     39  C   UNL     1       7.793  -5.678 -12.772  1.00  0.00     0.031 A 
ATOM     40  C   UNL     1       7.156  -5.967 -14.100  1.00  0.00     0.074 A 
ATOM     41  C   UNL     1       8.166  -4.427 -12.453  1.00  0.00     0.049 A 
ATOM     42  N   UNL     1       6.959  -5.168 -15.117  1.00  0.00    -0.248 NA
ATOM     43  C   UNL     1       6.680  -7.344 -14.312  1.00  0.00     0.031 C 
ATOM     44  C   UNL     1       8.768  -4.022 -11.184  1.00  0.00     0.029 A 
ATOM     45  N   UNL     1       8.122  -3.270 -13.191  1.00  0.00    -0.354 N 
ATOM     46  C   UNL     1       6.353  -5.946 -16.093  1.00  0.00     0.074 A 
ATOM     47  C   UNL     1       6.217  -7.281 -15.553  1.00  0.00     0.031 C 
ATOM     48  C   UNL     1       9.074  -2.715 -11.246  1.00  0.00     0.029 A 
ATOM     49  C   UNL     1       8.723  -2.204 -12.570  1.00  0.00     0.049 A 
ATOM     50  H   UNL     1       7.700  -3.211 -14.079  1.00  0.00     0.167 HD
ATOM     51  C   UNL     1       5.951  -5.575 -17.331  1.00  0.00     0.037 A 
ATOM     52  C   UNL     1       8.998  -0.970 -13.037  1.00  0.00     0.037 A 
ATOM     53  C   UNL     1       6.084  -4.246 -17.864  1.00  0.00     0.049 A 
ATOM     54  C   UNL     1       8.597  -0.605 -14.444  1.00  0.00     0.074 A 
ATOM     55  C   UNL     1       5.657  -3.762 -19.088  1.00  0.00     0.029 A 
ATOM     56  N   UNL     1       6.704  -3.193 -17.210  1.00  0.00    -0.354 N 
ATOM     57  N   UNL     1       7.980  -1.329 -15.345  1.00  0.00    -0.248 NA
ATOM     58  C   UNL     1       8.939   0.751 -14.901  1.00  0.00     0.031 C 
ATOM     59  C   UNL     1       6.065  -2.429 -19.196  1.00  0.00     0.029 A 
ATOM     60  C   UNL     1       6.703  -2.070 -18.020  1.00  0.00     0.049 A 
ATOM     61  H   UNL     1       7.087  -3.237 -16.304  1.00  0.00     0.167 HD
ATOM     62  C   UNL     1       7.841  -0.515 -16.462  1.00  0.00     0.074 A 
ATOM     63  C   UNL     1       8.423   0.765 -16.122  1.00  0.00     0.031 C 
ATOM     64  C   UNL     1       7.283  -0.802 -17.663  1.00  0.00     0.037 A 
BRANCH  51  65
ATOM     65  C   UNL     1       5.352  -6.626 -18.214  1.00  0.00     0.064 A 
ATOM     66  C   UNL     1       4.046  -7.096 -18.017  1.00  0.00     0.173 A 
ATOM     67  C   UNL     1       6.072  -7.117 -19.313  1.00  0.00     0.173 A 
ATOM     68  F   UNL     1       3.324  -6.665 -16.971  1.00  0.00    -0.203 F 
ATOM     69  C   UNL     1       3.484  -8.028 -18.886  1.00  0.00     0.198 A 
ATOM     70  C   UNL     1       5.500  -8.033 -20.191  1.00  0.00     0.198 A 
ATOM     71  F   UNL     1       7.324  -6.696 -19.544  1.00  0.00    -0.203 F 
ATOM     72  F   UNL     1       2.243  -8.483 -18.666  1.00  0.00    -0.200 F 
ATOM     73  C   UNL     1       4.208  -8.488 -19.976  1.00  0.00     0.200 A 
ATOM     74  F   UNL     1       6.197  -8.469 -21.250  1.00  0.00    -0.200 F 
ATOM     75  F   UNL     1       3.660  -9.374 -20.820  1.00  0.00    -0.200 F 
ENDBRANCH  51  65
BRANCH  52  76
ATOM     76  C   UNL     1       9.736   0.003 -12.191  1.00  0.00     0.064 A 
ATOM     77  C   UNL     1       9.117   1.166 -11.715  1.00  0.00     0.173 A 
ATOM     78  C   UNL     1      11.092  -0.188 -11.884  1.00  0.00     0.173 A 
ATOM     79  F   UNL     1       7.831   1.407 -12.009  1.00  0.00    -0.203 F 
ATOM     80  C   UNL     1       9.833   2.116 -10.989  1.00  0.00     0.198 A 
ATOM     81  C   UNL     1      11.799   0.748 -11.134  1.00  0.00     0.198 A 
ATOM     82  F   UNL     1      11.732  -1.282 -12.322  1.00  0.00    -0.203 F 
ATOM     83  F   UNL     1       9.233   3.249 -10.599  1.00  0.00    -0.200 F 
ATOM     84  C   UNL     1      11.172   1.905 -10.696  1.00  0.00     0.200 A 
ATOM     85  F   UNL     1      13.091   0.537 -10.848  1.00  0.00    -0.200 F 
ATOM     86  F   UNL     1      11.863   2.823 -10.006  1.00  0.00    -0.200 F 
ENDBRANCH  52  76
BRANCH  64  87
ATOM     87  C   UNL     1       7.251   0.293 -18.689  1.00  0.00     0.064 A 
ATOM     88  C   UNL     1       8.411   0.696 -19.367  1.00  0.00     0.173 A 
ATOM     89  C   UNL     1       6.039   0.910 -19.034  1.00  0.00     0.173 A 
ATOM     90  F   UNL     1       9.596   0.147 -19.062  1.00  0.00    -0.203 F 
ATOM     91  C   UNL     1       8.361   1.692 -20.339  1.00  0.00     0.198 A 
ATOM     92  C   UNL     1       5.988   1.885 -20.026  1.00  0.00     0.198 A 
ATOM     93  F   UNL     1       4.901   0.554 -18.419  1.00  0.00    -0.203 F 
ATOM     94  F   UNL     1       9.487   2.090 -20.946  1.00  0.00    -0.200 F 
ATOM     95  C   UNL     1       7.149   2.279 -20.673  1.00  0.00     0.200 A 
ATOM     96  F   UNL     1       4.815   2.442 -20.356  1.00  0.00    -0.200 F 
ATOM     97  F   UNL     1       7.102   3.231 -21.616  1.00  0.00    -0.200 F 
ENDBRANCH  64  87
ENDBRANCH  38  39
ENDBRANCH  31  33
ENDBRANCH  30  31
ENDBRANCH  29  30
ENDBRANCH  28  29
ENDBRANCH  27  28
ENDBRANCH  26  27
ENDBRANCH   1  26
TORSDOF 21
