REMARK SMILES C[C@H](Sc1ccc(C(=O)OCCOCCOCCOC(=O)c2ccc(-c3c4nc(c(-c5c(F)c(F)c(F)c(F)c5F)c5ccc([nH]5)c(-c5c(F)c(F)c(F)c(F)c5F)c5nc(c(-c6c(F)c(F)c(F)c(F)c6F)c6ccc3[nH]6)C=C5)C=C4)cc2)cn1)[C@@H](C)O
REMARK SMILES IDX 14 1 13 2 12 3 11 4 10 5 8 6 9 7 7 8 4 9 5 10 86 11 6 12
REMARK SMILES IDX 85 13 3 14 2 15 1 16 87 17 88 18 89 19 15 21 16 22 17 23
REMARK SMILES IDX 18 24 19 25 20 26 21 27 22 28 23 29 84 30 24 31 83 32 25 33
REMARK SMILES IDX 26 34 27 35 77 36 28 37 82 38 76 39 78 40 29 41 81 42 75 43
REMARK SMILES IDX 74 44 30 46 62 47 42 48 61 49 43 50 46 51 60 52 79 53 44 54
REMARK SMILES IDX 45 55 59 57 80 58 47 59 31 60 32 61 40 62 33 63 34 64 38 65
REMARK SMILES IDX 41 66 35 67 36 68 39 69 37 70 63 71 64 72 72 73 65 74 66 75
REMARK SMILES IDX 70 76 73 77 67 78 68 79 71 80 69 81 48 82 49 83 57 84 50 85
REMARK SMILES IDX 51 86 55 87 58 88 52 89 53 90 56 91 54 92
REMARK H PARENT 89 20 78 45 46 56
REMARK Flexibility Score: inf
ROOT
ATOM      1  C   UNL     1      -2.411   6.201  -1.558  1.00  0.00     0.188 C 
ENDROOT
BRANCH   1   2
ATOM      2  O   UNL     1      -2.649   7.300  -2.420  1.00  0.00    -0.376 OA
BRANCH   2   3
ATOM      3  C   UNL     1      -2.663   7.132  -3.828  1.00  0.00     0.202 C 
BRANCH   3   4
ATOM      4  C   UNL     1      -1.609   6.293  -4.573  1.00  0.00     0.261 C 
BRANCH   4   5
ATOM      5  O   UNL     1      -1.182   5.079  -3.944  1.00  0.00    -0.460 OA
BRANCH   5   6
ATOM      6  C   UNL     1       0.060   5.117  -3.394  1.00  0.00     0.339 C 
ATOM      7  O   UNL     1       0.823   6.057  -3.356  1.00  0.00    -0.246 OA
BRANCH   6   8
ATOM      8  C   UNL     1       0.289   3.865  -2.656  1.00  0.00     0.078 A 
ATOM      9  C   UNL     1       0.702   1.632  -1.086  1.00  0.00     0.096 A 
ATOM     10  C   UNL     1       0.354   1.476  -2.425  1.00  0.00     0.036 A 
ATOM     11  N   UNL     1       0.860   2.863  -0.540  1.00  0.00    -0.249 NA
ATOM     12  C   UNL     1       0.112   2.606  -3.214  1.00  0.00     0.020 A 
ATOM     13  C   UNL     1       0.681   3.946  -1.332  1.00  0.00     0.128 A 
BRANCH   9  14
ATOM     14  S   UNL     1       0.992   0.320   0.076  1.00  0.00    -0.101 SA
BRANCH  14  15
ATOM     15  C   UNL     1       0.346  -1.217  -0.700  1.00  0.00     0.078 C 
ATOM     16  C   UNL     1       1.118  -2.373  -0.036  1.00  0.00     0.022 C 
BRANCH  15  17
ATOM     17  C   UNL     1      -1.177  -1.447  -0.529  1.00  0.00     0.124 C 
ATOM     18  C   UNL     1      -2.091  -0.352  -1.065  1.00  0.00     0.039 C 
BRANCH  17  19
ATOM     19  O   UNL     1      -1.545  -2.659  -1.207  1.00  0.00    -0.392 OA
ATOM     20  H   UNL     1      -1.387  -2.558  -2.159  1.00  0.00     0.210 HD
ENDBRANCH  17  19
ENDBRANCH  15  17
ENDBRANCH  14  15
ENDBRANCH   9  14
ENDBRANCH   6   8
ENDBRANCH   5   6
ENDBRANCH   4   5
ENDBRANCH   3   4
ENDBRANCH   2   3
ENDBRANCH   1   2
BRANCH   1  21
ATOM     21  C   UNL     1      -3.187   4.880  -1.734  1.00  0.00     0.188 C 
BRANCH  21  22
ATOM     22  O   UNL     1      -4.044   4.834  -2.848  1.00  0.00    -0.376 OA
BRANCH  22  23
ATOM     23  C   UNL     1      -5.392   5.257  -2.731  1.00  0.00     0.202 C 
BRANCH  23  24
ATOM     24  C   UNL     1      -5.985   6.109  -1.587  1.00  0.00     0.261 C 
BRANCH  24  25
ATOM     25  O   UNL     1      -5.146   6.467  -0.487  1.00  0.00    -0.460 OA
BRANCH  25  26
ATOM     26  C   UNL     1      -5.294   5.738   0.644  1.00  0.00     0.338 C 
ATOM     27  O   UNL     1      -6.015   4.771   0.814  1.00  0.00    -0.246 OA
BRANCH  26  28
ATOM     28  C   UNL     1      -4.299   6.203   1.629  1.00  0.00     0.060 A 
ATOM     29  C   UNL     1      -3.237   5.355   1.967  1.00  0.00     0.016 A 
ATOM     30  C   UNL     1      -4.426   7.457   2.229  1.00  0.00     0.016 A 
ATOM     31  C   UNL     1      -2.303   5.755   2.924  1.00  0.00     0.010 A 
ATOM     32  C   UNL     1      -3.501   7.847   3.202  1.00  0.00     0.010 A 
ATOM     33  C   UNL     1      -2.449   6.988   3.573  1.00  0.00    -0.014 A 
BRANCH  33  34
ATOM     34  C   UNL     1      -1.604   7.313   4.749  1.00  0.00     0.031 A 
ATOM     35  C   UNL     1      -2.173   7.108   6.125  1.00  0.00     0.074 A 
ATOM     36  C   UNL     1      -0.350   7.776   4.601  1.00  0.00     0.049 A 
ATOM     37  N   UNL     1      -1.650   7.381   7.294  1.00  0.00    -0.248 NA
ATOM     38  C   UNL     1      -3.519   6.519   6.191  1.00  0.00     0.031 C 
ATOM     39  C   UNL     1       0.330   7.978   3.325  1.00  0.00     0.029 A 
ATOM     40  N   UNL     1       0.570   8.169   5.542  1.00  0.00    -0.354 N 
ATOM     41  C   UNL     1      -2.603   7.004   8.230  1.00  0.00     0.074 A 
ATOM     42  C   UNL     1      -3.750   6.514   7.495  1.00  0.00     0.031 C 
ATOM     43  C   UNL     1       1.558   8.473   3.561  1.00  0.00     0.029 A 
ATOM     44  C   UNL     1       1.735   8.655   5.001  1.00  0.00     0.049 A 
ATOM     45  H   UNL     1       0.409   8.110   6.511  1.00  0.00     0.167 HD
ATOM     46  C   UNL     1      -2.526   7.053   9.582  1.00  0.00     0.037 A 
ATOM     47  C   UNL     1       2.808   9.207   5.602  1.00  0.00     0.037 A 
ATOM     48  C   UNL     1      -1.386   7.544  10.311  1.00  0.00     0.049 A 
ATOM     49  C   UNL     1       2.836   9.328   7.106  1.00  0.00     0.074 A 
ATOM     50  C   UNL     1      -1.204   7.615  11.681  1.00  0.00     0.029 A 
ATOM     51  N   UNL     1      -0.238   8.059   9.728  1.00  0.00    -0.354 N 
ATOM     52  N   UNL     1       1.944   8.943   7.987  1.00  0.00    -0.248 NA
ATOM     53  C   UNL     1       4.024   9.960   7.698  1.00  0.00     0.031 C 
ATOM     54  C   UNL     1       0.026   8.232  11.927  1.00  0.00     0.029 A 
ATOM     55  C   UNL     1       0.643   8.482  10.712  1.00  0.00     0.049 A 
ATOM     56  H   UNL     1      -0.072   8.116   8.759  1.00  0.00     0.167 HD
ATOM     57  C   UNL     1       2.476   9.255   9.233  1.00  0.00     0.074 A 
ATOM     58  C   UNL     1       3.774   9.849   8.995  1.00  0.00     0.031 C 
ATOM     59  C   UNL     1       1.937   9.066  10.463  1.00  0.00     0.037 A 
BRANCH  46  60
ATOM     60  C   UNL     1      -3.725   6.592  10.361  1.00  0.00     0.064 A 
ATOM     61  C   UNL     1      -4.103   5.242  10.409  1.00  0.00     0.173 A 
ATOM     62  C   UNL     1      -4.489   7.513  11.095  1.00  0.00     0.173 A 
ATOM     63  F   UNL     1      -3.416   4.322   9.715  1.00  0.00    -0.203 F 
ATOM     64  C   UNL     1      -5.219   4.836  11.137  1.00  0.00     0.198 A 
ATOM     65  C   UNL     1      -5.583   7.098  11.849  1.00  0.00     0.198 A 
ATOM     66  F   UNL     1      -4.169   8.816  11.088  1.00  0.00    -0.203 F 
ATOM     67  F   UNL     1      -5.593   3.549  11.126  1.00  0.00    -0.200 F 
ATOM     68  C   UNL     1      -5.953   5.762  11.862  1.00  0.00     0.200 A 
ATOM     69  F   UNL     1      -6.282   7.994  12.560  1.00  0.00    -0.200 F 
ATOM     70  F   UNL     1      -7.021   5.369  12.569  1.00  0.00    -0.200 F 
ENDBRANCH  46  60
BRANCH  47  71
ATOM     71  C   UNL     1       3.945   9.706   4.783  1.00  0.00     0.064 A 
ATOM     72  C   UNL     1       5.206   9.097   4.846  1.00  0.00     0.173 A 
ATOM     73  C   UNL     1       3.803  10.822   3.944  1.00  0.00     0.173 A 
ATOM     74  F   UNL     1       5.403   8.046   5.656  1.00  0.00    -0.203 F 
ATOM     75  C   UNL     1       6.285   9.596   4.118  1.00  0.00     0.198 A 
ATOM     76  C   UNL     1       4.874  11.301   3.193  1.00  0.00     0.198 A 
ATOM     77  F   UNL     1       2.620  11.448   3.853  1.00  0.00    -0.203 F 
ATOM     78  F   UNL     1       7.493   9.029   4.241  1.00  0.00    -0.200 F 
ATOM     79  C   UNL     1       6.117  10.694   3.287  1.00  0.00     0.200 A 
ATOM     80  F   UNL     1       4.704  12.357   2.385  1.00  0.00    -0.200 F 
ATOM     81  F   UNL     1       7.154  11.174   2.589  1.00  0.00    -0.200 F 
ENDBRANCH  47  71
BRANCH  59  82
ATOM     82  C   UNL     1       2.765   9.465  11.654  1.00  0.00     0.064 A 
ATOM     83  C   UNL     1       3.021  10.809  11.962  1.00  0.00     0.173 A 
ATOM     84  C   UNL     1       3.272   8.487  12.524  1.00  0.00     0.173 A 
ATOM     85  F   UNL     1       2.570  11.784  11.157  1.00  0.00    -0.203 F 
ATOM     86  C   UNL     1       3.778  11.158  13.078  1.00  0.00     0.198 A 
ATOM     87  C   UNL     1       3.998   8.840  13.659  1.00  0.00     0.198 A 
ATOM     88  F   UNL     1       3.050   7.186  12.284  1.00  0.00    -0.203 F 
ATOM     89  F   UNL     1       4.053  12.447  13.322  1.00  0.00    -0.200 F 
ATOM     90  C   UNL     1       4.258  10.175  13.930  1.00  0.00     0.200 A 
ATOM     91  F   UNL     1       4.446   7.889  14.490  1.00  0.00    -0.200 F 
ATOM     92  F   UNL     1       4.978  10.513  15.008  1.00  0.00    -0.200 F 
ENDBRANCH  59  82
ENDBRANCH  33  34
ENDBRANCH  26  28
ENDBRANCH  25  26
ENDBRANCH  24  25
ENDBRANCH  23  24
ENDBRANCH  22  23
ENDBRANCH  21  22
ENDBRANCH   1  21
TORSDOF 21
