REMARK SMILES COC(=O)c1ccc(N2C[C@@H](C(=O)OCCOCCOCCOC(=O)c3ccc(-c4c5nc(c(-c6c(F)c(F)c(F)c(F)c6F)c6ccc([nH]6)c(-c6c(F)c(F)c(F)c(F)c6F)c6nc(c(-c7c(F)c(F)c(F)c(F)c7F)c7ccc4[nH]7)C=C6)C=C5)cc3)CC2=O)cc1
REMARK SMILES IDX 18 1 17 2 16 3 15 4 14 5 12 6 13 7 11 8 9 9 10 10 90 11
REMARK SMILES IDX 89 12 91 13 8 14 5 15 6 16 93 17 7 18 92 19 3 20 4 21 2 22
REMARK SMILES IDX 1 23 19 24 20 25 21 26 22 27 23 28 24 29 25 30 26 31 27 32
REMARK SMILES IDX 88 33 28 34 87 35 29 36 30 37 31 38 81 39 32 40 86 41 80 42
REMARK SMILES IDX 82 43 33 44 85 45 79 46 78 47 34 49 66 50 46 51 65 52 47 53
REMARK SMILES IDX 50 54 64 55 83 56 48 57 49 58 63 60 84 61 51 62 35 63 36 64
REMARK SMILES IDX 44 65 37 66 38 67 42 68 45 69 39 70 40 71 43 72 41 73 67 74
REMARK SMILES IDX 68 75 76 76 69 77 70 78 74 79 77 80 71 81 72 82 75 83 73 84
REMARK SMILES IDX 52 85 53 86 61 87 54 88 55 89 59 90 62 91 56 92 57 93 60 94
REMARK SMILES IDX 58 95
REMARK H PARENT 82 48 50 59
REMARK Flexibility Score: inf
ROOT
ATOM      1  C   UNL     1      -2.577  -6.886  11.150  1.00  0.00     0.188 C 
ENDROOT
BRANCH   1   2
ATOM      2  O   UNL     1      -2.445  -6.094  12.323  1.00  0.00    -0.376 OA
BRANCH   2   3
ATOM      3  C   UNL     1      -2.712  -4.696  12.263  1.00  0.00     0.202 C 
BRANCH   3   4
ATOM      4  C   UNL     1      -1.979  -3.849  11.210  1.00  0.00     0.261 C 
BRANCH   4   5
ATOM      5  O   UNL     1      -2.127  -4.319   9.853  1.00  0.00    -0.463 OA
BRANCH   5   6
ATOM      6  C   UNL     1      -0.988  -4.621   9.188  1.00  0.00     0.311 C 
ATOM      7  O   UNL     1       0.142  -4.445   9.629  1.00  0.00    -0.252 OA
BRANCH   6   8
ATOM      8  C   UNL     1      -1.206  -5.277   7.840  1.00  0.00     0.128 C 
ATOM      9  N   UNL     1      -1.102  -4.587   5.598  1.00  0.00    -0.312 N 
ATOM     10  C   UNL     1      -0.389  -4.486   6.843  1.00  0.00     0.141 C 
ATOM     11  C   UNL     1      -2.406  -5.023   5.768  1.00  0.00     0.227 C 
ATOM     12  C   UNL     1      -2.601  -5.334   7.220  1.00  0.00     0.117 C 
ATOM     13  O   UNL     1      -3.278  -5.167   4.924  1.00  0.00    -0.274 OA
BRANCH   9  14
ATOM     14  C   UNL     1      -0.595  -3.984   4.438  1.00  0.00     0.044 A 
ATOM     15  C   UNL     1       0.474  -2.578   2.279  1.00  0.00     0.060 A 
ATOM     16  C   UNL     1       1.295  -3.415   3.039  1.00  0.00     0.018 A 
ATOM     17  C   UNL     1      -0.889  -2.474   2.573  1.00  0.00     0.018 A 
ATOM     18  C   UNL     1       0.765  -4.098   4.131  1.00  0.00     0.027 A 
ATOM     19  C   UNL     1      -1.426  -3.196   3.635  1.00  0.00     0.027 A 
BRANCH  15  20
ATOM     20  C   UNL     1       1.089  -1.819   1.171  1.00  0.00     0.337 C 
ATOM     21  O   UNL     1       2.092  -2.177   0.579  1.00  0.00    -0.246 OA
BRANCH  20  22
ATOM     22  O   UNL     1       0.405  -0.663   0.986  1.00  0.00    -0.465 OA
ATOM     23  C   UNL     1       0.950   0.174  -0.031  1.00  0.00     0.282 C 
ENDBRANCH  20  22
ENDBRANCH  15  20
ENDBRANCH   9  14
ENDBRANCH   6   8
ENDBRANCH   5   6
ENDBRANCH   4   5
ENDBRANCH   3   4
ENDBRANCH   2   3
ENDBRANCH   1   2
BRANCH   1  24
ATOM     24  C   UNL     1      -3.743  -6.621  10.184  1.00  0.00     0.188 C 
BRANCH  24  25
ATOM     25  O   UNL     1      -4.633  -5.612  10.593  1.00  0.00    -0.376 OA
BRANCH  25  26
ATOM     26  C   UNL     1      -5.974  -5.977  10.854  1.00  0.00     0.202 C 
BRANCH  26  27
ATOM     27  C   UNL     1      -6.252  -7.137  11.826  1.00  0.00     0.261 C 
BRANCH  27  28
ATOM     28  O   UNL     1      -5.407  -8.297  11.718  1.00  0.00    -0.460 OA
BRANCH  28  29
ATOM     29  C   UNL     1      -5.662  -9.159  10.704  1.00  0.00     0.338 C 
ATOM     30  O   UNL     1      -6.538  -9.068   9.868  1.00  0.00    -0.246 OA
BRANCH  29  31
ATOM     31  C   UNL     1      -4.535 -10.123  10.639  1.00  0.00     0.060 A 
ATOM     32  C   UNL     1      -3.746 -10.176   9.479  1.00  0.00     0.016 A 
ATOM     33  C   UNL     1      -4.252 -10.962  11.718  1.00  0.00     0.016 A 
ATOM     34  C   UNL     1      -2.688 -11.085   9.387  1.00  0.00     0.010 A 
ATOM     35  C   UNL     1      -3.210 -11.890  11.614  1.00  0.00     0.010 A 
ATOM     36  C   UNL     1      -2.440 -11.977  10.439  1.00  0.00    -0.014 A 
BRANCH  36  37
ATOM     37  C   UNL     1      -1.516 -13.125  10.248  1.00  0.00     0.031 A 
ATOM     38  C   UNL     1      -2.107 -14.466   9.907  1.00  0.00     0.074 A 
ATOM     39  C   UNL     1      -0.184 -12.994  10.382  1.00  0.00     0.049 A 
ATOM     40  N   UNL     1      -1.524 -15.632   9.795  1.00  0.00    -0.248 NA
ATOM     41  C   UNL     1      -3.558 -14.493   9.666  1.00  0.00     0.031 C 
ATOM     42  C   UNL     1       0.519 -11.746  10.665  1.00  0.00     0.029 A 
ATOM     43  N   UNL     1       0.813 -13.937  10.313  1.00  0.00    -0.354 N 
ATOM     44  C   UNL     1      -2.537 -16.531   9.486  1.00  0.00     0.074 A 
ATOM     45  C   UNL     1      -3.774 -15.782   9.454  1.00  0.00     0.031 C 
ATOM     46  C   UNL     1       1.836 -12.004  10.768  1.00  0.00     0.029 A 
ATOM     47  C   UNL     1       2.062 -13.439  10.597  1.00  0.00     0.049 A 
ATOM     48  H   UNL     1       0.649 -14.880  10.083  1.00  0.00     0.167 HD
ATOM     49  C   UNL     1      -2.443 -17.861   9.247  1.00  0.00     0.037 A 
ATOM     50  C   UNL     1       3.242 -14.075  10.735  1.00  0.00     0.037 A 
ATOM     51  C   UNL     1      -1.213 -18.606   9.279  1.00  0.00     0.049 A 
ATOM     52  C   UNL     1       3.309 -15.572  10.541  1.00  0.00     0.074 A 
ATOM     53  C   UNL     1      -1.013 -19.952   9.029  1.00  0.00     0.029 A 
ATOM     54  N   UNL     1       0.028 -18.070   9.592  1.00  0.00    -0.354 N 
ATOM     55  N   UNL     1       2.353 -16.412  10.226  1.00  0.00    -0.248 NA
ATOM     56  C   UNL     1       4.623 -16.207  10.722  1.00  0.00     0.031 C 
ATOM     57  C   UNL     1       0.336 -20.244   9.252  1.00  0.00     0.029 A 
ATOM     58  C   UNL     1       0.991 -19.066   9.572  1.00  0.00     0.049 A 
ATOM     59  H   UNL     1       0.198 -17.122   9.798  1.00  0.00     0.167 HD
ATOM     60  C   UNL     1       2.954 -17.662  10.136  1.00  0.00     0.074 A 
ATOM     61  C   UNL     1       4.360 -17.470  10.418  1.00  0.00     0.031 C 
ATOM     62  C   UNL     1       2.392 -18.861   9.842  1.00  0.00     0.037 A 
BRANCH  49  63
ATOM     63  C   UNL     1      -3.716 -18.605   8.961  1.00  0.00     0.064 A 
ATOM     64  C   UNL     1      -4.429 -18.425   7.767  1.00  0.00     0.173 A 
ATOM     65  C   UNL     1      -4.209 -19.540   9.884  1.00  0.00     0.173 A 
ATOM     66  F   UNL     1      -4.008 -17.532   6.858  1.00  0.00    -0.203 F 
ATOM     67  C   UNL     1      -5.603 -19.132   7.519  1.00  0.00     0.198 A 
ATOM     68  C   UNL     1      -5.364 -20.270   9.619  1.00  0.00     0.198 A 
ATOM     69  F   UNL     1      -3.565 -19.755  11.041  1.00  0.00    -0.203 F 
ATOM     70  F   UNL     1      -6.295 -18.906   6.394  1.00  0.00    -0.200 F 
ATOM     71  C   UNL     1      -6.065 -20.060   8.441  1.00  0.00     0.200 A 
ATOM     72  F   UNL     1      -5.801 -21.177  10.505  1.00  0.00    -0.200 F 
ATOM     73  F   UNL     1      -7.189 -20.747   8.197  1.00  0.00    -0.200 F 
ENDBRANCH  49  63
BRANCH  50  74
ATOM     74  C   UNL     1       4.466 -13.310  11.097  1.00  0.00     0.064 A 
ATOM     75  C   UNL     1       5.535 -13.185  10.199  1.00  0.00     0.173 A 
ATOM     76  C   UNL     1       4.607 -12.717  12.361  1.00  0.00     0.173 A 
ATOM     77  F   UNL     1       5.463 -13.759   8.989  1.00  0.00    -0.203 F 
ATOM     78  C   UNL     1       6.705 -12.517  10.558  1.00  0.00     0.198 A 
ATOM     79  C   UNL     1       5.764 -12.022  12.708  1.00  0.00     0.198 A 
ATOM     80  F   UNL     1       3.618 -12.812  13.262  1.00  0.00    -0.203 F 
ATOM     81  F   UNL     1       7.733 -12.462   9.700  1.00  0.00    -0.200 F 
ATOM     82  C   UNL     1       6.816 -11.930  11.809  1.00  0.00     0.200 A 
ATOM     83  F   UNL     1       5.862 -11.448  13.914  1.00  0.00    -0.200 F 
ATOM     84  F   UNL     1       7.940 -11.288  12.154  1.00  0.00    -0.200 F 
ENDBRANCH  50  74
BRANCH  62  85
ATOM     85  C   UNL     1       3.301 -20.057   9.756  1.00  0.00     0.064 A 
ATOM     86  C   UNL     1       3.903 -20.615  10.893  1.00  0.00     0.173 A 
ATOM     87  C   UNL     1       3.532 -20.682   8.520  1.00  0.00     0.173 A 
ATOM     88  F   UNL     1       3.726 -20.052  12.097  1.00  0.00    -0.203 F 
ATOM     89  C   UNL     1       4.725 -21.736  10.791  1.00  0.00     0.198 A 
ATOM     90  C   UNL     1       4.325 -21.822   8.427  1.00  0.00     0.198 A 
ATOM     91  F   UNL     1       2.973 -20.196   7.401  1.00  0.00    -0.203 F 
ATOM     92  F   UNL     1       5.331 -22.221  11.884  1.00  0.00    -0.200 F 
ATOM     93  C   UNL     1       4.928 -22.343   9.561  1.00  0.00     0.200 A 
ATOM     94  F   UNL     1       4.504 -22.418   7.239  1.00  0.00    -0.200 F 
ATOM     95  F   UNL     1       5.710 -23.428   9.467  1.00  0.00    -0.200 F 
ENDBRANCH  62  85
ENDBRANCH  36  37
ENDBRANCH  29  31
ENDBRANCH  28  29
ENDBRANCH  27  28
ENDBRANCH  26  27
ENDBRANCH  25  26
ENDBRANCH  24  25
ENDBRANCH   1  24
TORSDOF 20
