REMARK SMILES CNC(=O)c1cccc(-c2cnc(O)c(C(=O)OCCOCCOCCOC(=O)c3ccc(-c4c5nc(c(-c6c(F)c(F)c(F)c(F)c6F)c6ccc([nH]6)c(-c6c(F)c(F)c(F)c(F)c6F)c6nc(c(-c7c(F)c(F)c(F)c(F)c7F)c7ccc4[nH]7)C=C6)C=C5)cc3)c2)c1
REMARK SMILES IDX 22 1 21 2 20 3 19 4 18 5 16 6 17 7 15 8 10 9 11 10 93 11
REMARK SMILES IDX 12 12 13 13 9 14 5 15 6 16 94 17 7 18 8 19 3 20 1 21 2 22
REMARK SMILES IDX 4 24 14 25 23 27 24 28 25 29 26 30 27 31 28 32 29 33 30 34
REMARK SMILES IDX 31 35 92 36 32 37 91 38 33 39 34 40 35 41 85 42 36 43 90 44
REMARK SMILES IDX 84 45 86 46 37 47 89 48 83 49 82 50 38 52 70 53 50 54 69 55
REMARK SMILES IDX 51 56 54 57 68 58 87 59 52 60 53 61 67 63 88 64 55 65 39 66
REMARK SMILES IDX 40 67 48 68 41 69 42 70 46 71 49 72 43 73 44 74 47 75 45 76
REMARK SMILES IDX 71 77 72 78 80 79 73 80 74 81 78 82 81 83 75 84 76 85 79 86
REMARK SMILES IDX 77 87 56 88 57 89 65 90 58 91 59 92 63 93 66 94 60 95 61 96
REMARK SMILES IDX 64 97 62 98
REMARK H PARENT 2 23 14 26 86 51 54 62
REMARK Flexibility Score: inf
ROOT
ATOM      1  C   UNL     1      -6.617   0.436  -5.674  1.00  0.00     0.188 C 
ENDROOT
BRANCH   1   2
ATOM      2  O   UNL     1      -7.509  -0.654  -5.505  1.00  0.00    -0.376 OA
BRANCH   2   3
ATOM      3  C   UNL     1      -7.572  -1.359  -4.275  1.00  0.00     0.202 C 
BRANCH   3   4
ATOM      4  C   UNL     1      -6.299  -1.911  -3.616  1.00  0.00     0.261 C 
BRANCH   4   5
ATOM      5  O   UNL     1      -5.207  -0.985  -3.506  1.00  0.00    -0.459 OA
BRANCH   5   6
ATOM      6  C   UNL     1      -4.166  -1.211  -4.341  1.00  0.00     0.343 C 
ATOM      7  O   UNL     1      -4.048  -2.121  -5.149  1.00  0.00    -0.246 OA
BRANCH   6   8
ATOM      8  C   UNL     1      -3.250  -0.061  -4.355  1.00  0.00     0.122 A 
ATOM      9  C   UNL     1      -2.072   1.770  -3.280  1.00  0.00     0.001 A 
ATOM     10  C   UNL     1      -1.639   2.122  -4.561  1.00  0.00     0.124 A 
ATOM     11  C   UNL     1      -2.924   0.656  -3.200  1.00  0.00     0.031 A 
ATOM     12  N   UNL     1      -1.965   1.465  -5.701  1.00  0.00    -0.221 NA
ATOM     13  C   UNL     1      -2.740   0.374  -5.574  1.00  0.00     0.225 A 
BRANCH   9  14
ATOM     14  C   UNL     1      -1.602   2.485  -2.079  1.00  0.00    -0.016 A 
ATOM     15  C   UNL     1      -0.686   2.407   0.185  1.00  0.00     0.040 A 
ATOM     16  C   UNL     1      -0.558   3.796   0.201  1.00  0.00     0.014 A 
ATOM     17  C   UNL     1      -1.237   1.765  -0.929  1.00  0.00     0.022 A 
ATOM     18  C   UNL     1      -0.938   4.534  -0.918  1.00  0.00     0.001 A 
ATOM     19  C   UNL     1      -1.447   3.883  -2.049  1.00  0.00     0.009 A 
BRANCH  15  20
ATOM     20  C   UNL     1      -0.274   1.633   1.376  1.00  0.00     0.251 C 
ATOM     21  C   UNL     1       1.154  -0.027   0.066  1.00  0.00     0.143 C 
ATOM     22  N   UNL     1       0.480   0.494   1.235  1.00  0.00    -0.355 N 
ATOM     23  H   UNL     1       0.576  -0.048   2.051  1.00  0.00     0.163 HD
ATOM     24  O   UNL     1      -0.606   2.018   2.492  1.00  0.00    -0.269 OA
ENDBRANCH  15  20
ENDBRANCH   9  14
BRANCH  13  25
ATOM     25  O   UNL     1      -3.030  -0.233  -6.763  1.00  0.00    -0.493 OA
ATOM     26  H   UNL     1      -2.663   0.097  -7.560  1.00  0.00     0.295 HD
ENDBRANCH  13  25
ENDBRANCH   6   8
ENDBRANCH   5   6
ENDBRANCH   4   5
ENDBRANCH   3   4
ENDBRANCH   2   3
ENDBRANCH   1   2
BRANCH   1  27
ATOM     27  C   UNL     1      -6.474   1.523  -4.588  1.00  0.00     0.188 C 
BRANCH  27  28
ATOM     28  O   UNL     1      -7.271   1.350  -3.446  1.00  0.00    -0.376 OA
BRANCH  28  29
ATOM     29  C   UNL     1      -8.577   1.897  -3.392  1.00  0.00     0.202 C 
BRANCH  29  30
ATOM     30  C   UNL     1      -9.386   2.435  -4.591  1.00  0.00     0.261 C 
BRANCH  30  31
ATOM     31  O   UNL     1      -8.781   2.443  -5.886  1.00  0.00    -0.460 OA
BRANCH  31  32
ATOM     32  C   UNL     1      -8.280   3.625  -6.311  1.00  0.00     0.338 C 
ATOM     33  O   UNL     1      -8.235   4.679  -5.689  1.00  0.00    -0.246 OA
BRANCH  32  34
ATOM     34  C   UNL     1      -7.628   3.419  -7.616  1.00  0.00     0.060 A 
ATOM     35  C   UNL     1      -6.234   3.528  -7.706  1.00  0.00     0.016 A 
ATOM     36  C   UNL     1      -8.392   3.137  -8.750  1.00  0.00     0.016 A 
ATOM     37  C   UNL     1      -5.599   3.376  -8.940  1.00  0.00     0.010 A 
ATOM     38  C   UNL     1      -7.756   3.006  -9.988  1.00  0.00     0.010 A 
ATOM     39  C   UNL     1      -6.360   3.152 -10.095  1.00  0.00    -0.014 A 
BRANCH  39  40
ATOM     40  C   UNL     1      -5.728   3.232 -11.435  1.00  0.00     0.031 A 
ATOM     41  C   UNL     1      -5.870   4.505 -12.224  1.00  0.00     0.074 A 
ATOM     42  C   UNL     1      -5.045   2.195 -11.950  1.00  0.00     0.049 A 
ATOM     43  N   UNL     1      -5.484   4.778 -13.444  1.00  0.00    -0.248 NA
ATOM     44  C   UNL     1      -6.546   5.620 -11.542  1.00  0.00     0.031 C 
ATOM     45  C   UNL     1      -4.797   0.926 -11.271  1.00  0.00     0.029 A 
ATOM     46  N   UNL     1      -4.449   2.044 -13.179  1.00  0.00    -0.354 N 
ATOM     47  C   UNL     1      -5.879   6.088 -13.680  1.00  0.00     0.074 A 
ATOM     48  C   UNL     1      -6.560   6.547 -12.488  1.00  0.00     0.031 C 
ATOM     49  C   UNL     1      -4.116   0.116 -12.101  1.00  0.00     0.029 A 
ATOM     50  C   UNL     1      -3.913   0.797 -13.379  1.00  0.00     0.049 A 
ATOM     51  H   UNL     1      -4.410   2.763 -13.851  1.00  0.00     0.167 HD
ATOM     52  C   UNL     1      -5.685   6.843 -14.787  1.00  0.00     0.037 A 
ATOM     53  C   UNL     1      -3.348   0.259 -14.479  1.00  0.00     0.037 A 
ATOM     54  C   UNL     1      -5.007   6.385 -15.972  1.00  0.00     0.049 A 
ATOM     55  C   UNL     1      -3.213   1.094 -15.728  1.00  0.00     0.074 A 
ATOM     56  C   UNL     1      -4.739   7.083 -17.136  1.00  0.00     0.029 A 
ATOM     57  N   UNL     1      -4.500   5.106 -16.147  1.00  0.00    -0.354 N 
ATOM     58  N   UNL     1      -3.562   2.341 -15.936  1.00  0.00    -0.248 NA
ATOM     59  C   UNL     1      -2.600   0.446 -16.897  1.00  0.00     0.031 C 
ATOM     60  C   UNL     1      -4.126   6.209 -18.039  1.00  0.00     0.029 A 
ATOM     61  C   UNL     1      -3.950   4.986 -17.413  1.00  0.00     0.049 A 
ATOM     62  H   UNL     1      -4.527   4.390 -15.472  1.00  0.00     0.167 HD
ATOM     63  C   UNL     1      -3.183   2.635 -17.240  1.00  0.00     0.074 A 
ATOM     64  C   UNL     1      -2.566   1.439 -17.774  1.00  0.00     0.031 C 
ATOM     65  C   UNL     1      -3.329   3.792 -17.932  1.00  0.00     0.037 A 
BRANCH  52  66
ATOM     66  C   UNL     1      -6.244   8.237 -14.784  1.00  0.00     0.064 A 
ATOM     67  C   UNL     1      -5.699   9.252 -13.983  1.00  0.00     0.173 A 
ATOM     68  C   UNL     1      -7.319   8.569 -15.623  1.00  0.00     0.173 A 
ATOM     69  F   UNL     1      -4.679   8.984 -13.153  1.00  0.00    -0.203 F 
ATOM     70  C   UNL     1      -6.227  10.540 -14.002  1.00  0.00     0.198 A 
ATOM     71  C   UNL     1      -7.823   9.866 -15.663  1.00  0.00     0.198 A 
ATOM     72  F   UNL     1      -7.874   7.638 -16.413  1.00  0.00    -0.203 F 
ATOM     73  F   UNL     1      -5.723  11.481 -13.192  1.00  0.00    -0.200 F 
ATOM     74  C   UNL     1      -7.283  10.848 -14.848  1.00  0.00     0.200 A 
ATOM     75  F   UNL     1      -8.833  10.165 -16.492  1.00  0.00    -0.200 F 
ATOM     76  F   UNL     1      -7.784  12.091 -14.871  1.00  0.00    -0.200 F 
ENDBRANCH  52  66
BRANCH  53  77
ATOM     77  C   UNL     1      -2.881  -1.153 -14.460  1.00  0.00     0.064 A 
ATOM     78  C   UNL     1      -1.518  -1.467 -14.556  1.00  0.00     0.173 A 
ATOM     79  C   UNL     1      -3.790  -2.218 -14.375  1.00  0.00     0.173 A 
ATOM     80  F   UNL     1      -0.612  -0.486 -14.673  1.00  0.00    -0.203 F 
ATOM     81  C   UNL     1      -1.085  -2.791 -14.587  1.00  0.00     0.198 A 
ATOM     82  C   UNL     1      -3.353  -3.541 -14.374  1.00  0.00     0.198 A 
ATOM     83  F   UNL     1      -5.106  -1.974 -14.290  1.00  0.00    -0.203 F 
ATOM     84  F   UNL     1       0.219  -3.064 -14.735  1.00  0.00    -0.200 F 
ATOM     85  C   UNL     1      -2.002  -3.827 -14.489  1.00  0.00     0.200 A 
ATOM     86  F   UNL     1      -4.242  -4.539 -14.271  1.00  0.00    -0.200 F 
ATOM     87  F   UNL     1      -1.584  -5.100 -14.519  1.00  0.00    -0.200 F 
ENDBRANCH  53  77
BRANCH  65  88
ATOM     88  C   UNL     1      -2.774   3.845 -19.328  1.00  0.00     0.064 A 
ATOM     89  C   UNL     1      -3.364   3.140 -20.387  1.00  0.00     0.173 A 
ATOM     90  C   UNL     1      -1.665   4.656 -19.619  1.00  0.00     0.173 A 
ATOM     91  F   UNL     1      -4.419   2.342 -20.163  1.00  0.00    -0.203 F 
ATOM     92  C   UNL     1      -2.849   3.224 -21.679  1.00  0.00     0.198 A 
ATOM     93  C   UNL     1      -1.174   4.764 -20.917  1.00  0.00     0.198 A 
ATOM     94  F   UNL     1      -1.067   5.359 -18.646  1.00  0.00    -0.203 F 
ATOM     95  F   UNL     1      -3.400   2.503 -22.666  1.00  0.00    -0.200 F 
ATOM     96  C   UNL     1      -1.761   4.042 -21.944  1.00  0.00     0.200 A 
ATOM     97  F   UNL     1      -0.134   5.569 -21.174  1.00  0.00    -0.200 F 
ATOM     98  F   UNL     1      -1.274   4.130 -23.190  1.00  0.00    -0.200 F 
ENDBRANCH  65  88
ENDBRANCH  39  40
ENDBRANCH  32  34
ENDBRANCH  31  32
ENDBRANCH  30  31
ENDBRANCH  29  30
ENDBRANCH  28  29
ENDBRANCH  27  28
ENDBRANCH   1  27
TORSDOF 20
