REMARK SMILES C/C=C/C[C@]1(C(=O)OCCOCCOCCOC(=O)c2ccc(-c3c4nc(c(-c5c(F)c(F)c(F)c(F)c5F)c5ccc([nH]5)c(-c5c(F)c(F)c(F)c(F)c5F)c5nc(c(-c6c(F)c(F)c(F)c(F)c6F)c6ccc3[nH]6)C=C5)C=C4)cc2)CCN(C(=O)OC(C)(C)C)C1
REMARK SMILES IDX 12 1 11 2 10 3 9 4 8 5 6 6 7 7 5 8 83 9 93 10 84 11 85 12
REMARK SMILES IDX 4 13 3 14 1 15 2 16 86 17 87 18 88 19 89 20 90 21 91 22
REMARK SMILES IDX 92 23 13 24 14 25 15 26 16 27 17 28 18 29 19 30 20 31 21 32
REMARK SMILES IDX 82 33 22 34 81 35 23 36 24 37 25 38 75 39 26 40 80 41 74 42
REMARK SMILES IDX 76 43 27 44 79 45 73 46 72 47 28 49 60 50 40 51 59 52 41 53
REMARK SMILES IDX 44 54 58 55 77 56 42 57 43 58 57 60 78 61 45 62 29 63 30 64
REMARK SMILES IDX 38 65 31 66 32 67 36 68 39 69 33 70 34 71 37 72 35 73 61 74
REMARK SMILES IDX 62 75 70 76 63 77 64 78 68 79 71 80 65 81 66 82 69 83 67 84
REMARK SMILES IDX 46 85 47 86 55 87 48 88 49 89 53 90 56 91 50 92 51 93 54 94
REMARK SMILES IDX 52 95
REMARK H PARENT 76 48 44 59
REMARK Flexibility Score: inf
ROOT
ATOM      1  C   UNL     1      -0.781  -3.209   3.096  1.00  0.00     0.188 C 
ENDROOT
BRANCH   1   2
ATOM      2  O   UNL     1      -1.522  -4.002   4.005  1.00  0.00    -0.376 OA
BRANCH   2   3
ATOM      3  C   UNL     1      -1.464  -5.416   3.913  1.00  0.00     0.202 C 
BRANCH   3   4
ATOM      4  C   UNL     1      -1.795  -6.080   2.578  1.00  0.00     0.261 C 
BRANCH   4   5
ATOM      5  O   UNL     1      -0.907  -5.715   1.504  1.00  0.00    -0.463 OA
BRANCH   5   6
ATOM      6  C   UNL     1      -1.478  -5.083   0.445  1.00  0.00     0.314 C 
ATOM      7  O   UNL     1      -2.660  -4.757   0.401  1.00  0.00    -0.252 OA
BRANCH   6   8
ATOM      8  C   UNL     1      -0.532  -4.901  -0.738  1.00  0.00     0.091 C 
ATOM      9  C   UNL     1       0.995  -4.992  -0.489  1.00  0.00     0.042 C 
ATOM     10  C   UNL     1      -0.767  -6.166  -1.588  1.00  0.00     0.142 C 
ATOM     11  C   UNL     1       1.533  -5.522  -1.807  1.00  0.00     0.124 C 
ATOM     12  N   UNL     1       0.519  -6.482  -2.179  1.00  0.00    -0.307 N 
BRANCH   8  13
ATOM     13  C   UNL     1      -0.919  -3.617  -1.532  1.00  0.00     0.047 C 
BRANCH  13  14
ATOM     14  C   UNL     1      -0.214  -2.357  -1.081  1.00  0.00    -0.030 C 
ATOM     15  C   UNL     1       1.489  -0.527  -1.468  1.00  0.00     0.035 C 
ATOM     16  C   UNL     1       0.689  -1.727  -1.853  1.00  0.00    -0.035 C 
ENDBRANCH  13  14
ENDBRANCH   8  13
BRANCH  12  17
ATOM     17  C   UNL     1       0.764  -7.681  -2.778  1.00  0.00     0.410 C 
ATOM     18  O   UNL     1      -0.080  -8.586  -2.826  1.00  0.00    -0.224 OA
BRANCH  17  19
ATOM     19  O   UNL     1       2.014  -7.754  -3.279  1.00  0.00    -0.444 OA
BRANCH  19  20
ATOM     20  C   UNL     1       2.515  -8.984  -3.855  1.00  0.00     0.106 C 
ATOM     21  C   UNL     1       2.752 -10.012  -2.745  1.00  0.00     0.056 C 
ATOM     22  C   UNL     1       1.604  -9.524  -4.964  1.00  0.00     0.056 C 
ATOM     23  C   UNL     1       3.865  -8.603  -4.481  1.00  0.00     0.056 C 
ENDBRANCH  19  20
ENDBRANCH  17  19
ENDBRANCH  12  17
ENDBRANCH   6   8
ENDBRANCH   5   6
ENDBRANCH   4   5
ENDBRANCH   3   4
ENDBRANCH   2   3
ENDBRANCH   1   2
BRANCH   1  24
ATOM     24  C   UNL     1       0.688  -3.555   2.778  1.00  0.00     0.188 C 
BRANCH  24  25
ATOM     25  O   UNL     1       1.423  -4.436   3.602  1.00  0.00    -0.376 OA
BRANCH  25  26
ATOM     26  C   UNL     1       1.550  -4.091   4.975  1.00  0.00     0.202 C 
BRANCH  26  27
ATOM     27  C   UNL     1       2.064  -2.686   5.315  1.00  0.00     0.261 C 
BRANCH  27  28
ATOM     28  O   UNL     1       1.234  -1.643   4.766  1.00  0.00    -0.460 OA
BRANCH  28  29
ATOM     29  C   UNL     1       1.897  -0.568   4.274  1.00  0.00     0.338 C 
ATOM     30  O   UNL     1       3.091  -0.336   4.348  1.00  0.00    -0.246 OA
BRANCH  29  31
ATOM     31  C   UNL     1       0.968   0.291   3.512  1.00  0.00     0.060 A 
ATOM     32  C   UNL     1       0.672  -0.025   2.184  1.00  0.00     0.016 A 
ATOM     33  C   UNL     1       0.491   1.480   4.062  1.00  0.00     0.016 A 
ATOM     34  C   UNL     1      -0.120   0.822   1.412  1.00  0.00     0.010 A 
ATOM     35  C   UNL     1      -0.291   2.342   3.277  1.00  0.00     0.010 A 
ATOM     36  C   UNL     1      -0.594   2.022   1.941  1.00  0.00    -0.014 A 
BRANCH  36  37
ATOM     37  C   UNL     1      -1.288   2.983   1.046  1.00  0.00     0.031 A 
ATOM     38  C   UNL     1      -0.570   4.226   0.606  1.00  0.00     0.074 A 
ATOM     39  C   UNL     1      -2.507   2.714   0.544  1.00  0.00     0.049 A 
ATOM     40  N   UNL     1      -1.035   5.280  -0.013  1.00  0.00    -0.248 NA
ATOM     41  C   UNL     1       0.874   4.275   0.882  1.00  0.00     0.031 C 
ATOM     42  C   UNL     1      -3.252   1.472   0.747  1.00  0.00     0.029 A 
ATOM     43  N   UNL     1      -3.332   3.474  -0.249  1.00  0.00    -0.354 N 
ATOM     44  C   UNL     1       0.047   6.138  -0.159  1.00  0.00     0.074 A 
ATOM     45  C   UNL     1       1.196   5.475   0.418  1.00  0.00     0.031 C 
ATOM     46  C   UNL     1      -4.426   1.558   0.101  1.00  0.00     0.029 A 
ATOM     47  C   UNL     1      -4.554   2.891  -0.483  1.00  0.00     0.049 A 
ATOM     48  H   UNL     1      -3.073   4.351  -0.614  1.00  0.00     0.167 HD
ATOM     49  C   UNL     1       0.068   7.374  -0.713  1.00  0.00     0.037 A 
ATOM     50  C   UNL     1      -5.670   3.400  -1.040  1.00  0.00     0.037 A 
ATOM     51  C   UNL     1      -1.075   8.013  -1.311  1.00  0.00     0.049 A 
ATOM     52  C   UNL     1      -5.668   4.829  -1.517  1.00  0.00     0.074 A 
ATOM     53  C   UNL     1      -1.164   9.273  -1.877  1.00  0.00     0.029 A 
ATOM     54  N   UNL     1      -2.330   7.435  -1.427  1.00  0.00    -0.354 N 
ATOM     55  N   UNL     1      -4.677   5.687  -1.560  1.00  0.00    -0.248 NA
ATOM     56  C   UNL     1      -6.949   5.371  -1.995  1.00  0.00     0.031 C 
ATOM     57  C   UNL     1      -2.486   9.477  -2.286  1.00  0.00     0.029 A 
ATOM     58  C   UNL     1      -3.209   8.325  -2.024  1.00  0.00     0.049 A 
ATOM     59  H   UNL     1      -2.563   6.526  -1.128  1.00  0.00     0.167 HD
ATOM     60  C   UNL     1      -5.210   6.862  -2.073  1.00  0.00     0.074 A 
ATOM     61  C   UNL     1      -6.607   6.601  -2.352  1.00  0.00     0.031 C 
ATOM     62  C   UNL     1      -4.599   8.054  -2.288  1.00  0.00     0.037 A 
BRANCH  49  63
ATOM     63  C   UNL     1       1.349   8.149  -0.631  1.00  0.00     0.064 A 
ATOM     64  C   UNL     1       2.465   7.839  -1.421  1.00  0.00     0.173 A 
ATOM     65  C   UNL     1       1.444   9.247   0.238  1.00  0.00     0.173 A 
ATOM     66  F   UNL     1       2.432   6.787  -2.253  1.00  0.00    -0.203 F 
ATOM     67  C   UNL     1       3.635   8.590  -1.331  1.00  0.00     0.198 A 
ATOM     68  C   UNL     1       2.605  10.012   0.306  1.00  0.00     0.198 A 
ATOM     69  F   UNL     1       0.405   9.586   1.016  1.00  0.00    -0.203 F 
ATOM     70  F   UNL     1       4.705   8.251  -2.064  1.00  0.00    -0.200 F 
ATOM     71  C   UNL     1       3.701   9.679  -0.474  1.00  0.00     0.200 A 
ATOM     72  F   UNL     1       2.662  11.070   1.126  1.00  0.00    -0.200 F 
ATOM     73  F   UNL     1       4.825  10.405  -0.395  1.00  0.00    -0.200 F 
ENDBRANCH  49  63
BRANCH  50  74
ATOM     74  C   UNL     1      -6.916   2.587  -1.086  1.00  0.00     0.064 A 
ATOM     75  C   UNL     1      -7.490   2.199  -2.304  1.00  0.00     0.173 A 
ATOM     76  C   UNL     1      -7.576   2.206   0.093  1.00  0.00     0.173 A 
ATOM     77  F   UNL     1      -6.921   2.570  -3.461  1.00  0.00    -0.203 F 
ATOM     78  C   UNL     1      -8.678   1.469  -2.341  1.00  0.00     0.198 A 
ATOM     79  C   UNL     1      -8.743   1.448   0.057  1.00  0.00     0.198 A 
ATOM     80  F   UNL     1      -7.081   2.567   1.287  1.00  0.00    -0.203 F 
ATOM     81  F   UNL     1      -9.232   1.155  -3.519  1.00  0.00    -0.200 F 
ATOM     82  C   UNL     1      -9.298   1.087  -1.160  1.00  0.00     0.200 A 
ATOM     83  F   UNL     1      -9.333   1.075   1.201  1.00  0.00    -0.200 F 
ATOM     84  F   UNL     1     -10.437   0.382  -1.196  1.00  0.00    -0.200 F 
ENDBRANCH  50  74
BRANCH  62  85
ATOM     85  C   UNL     1      -5.433   9.162  -2.862  1.00  0.00     0.064 A 
ATOM     86  C   UNL     1      -6.408   9.818  -2.096  1.00  0.00     0.173 A 
ATOM     87  C   UNL     1      -5.229   9.600  -4.180  1.00  0.00     0.173 A 
ATOM     88  F   UNL     1      -6.653   9.426  -0.837  1.00  0.00    -0.203 F 
ATOM     89  C   UNL     1      -7.164  10.855  -2.636  1.00  0.00     0.198 A 
ATOM     90  C   UNL     1      -5.966  10.657  -4.706  1.00  0.00     0.198 A 
ATOM     91  F   UNL     1      -4.304   9.011  -4.952  1.00  0.00    -0.203 F 
ATOM     92  F   UNL     1      -8.122  11.437  -1.900  1.00  0.00    -0.200 F 
ATOM     93  C   UNL     1      -6.937  11.279  -3.937  1.00  0.00     0.200 A 
ATOM     94  F   UNL     1      -5.735  11.074  -5.959  1.00  0.00    -0.200 F 
ATOM     95  F   UNL     1      -7.661  12.283  -4.452  1.00  0.00    -0.200 F 
ENDBRANCH  62  85
ENDBRANCH  36  37
ENDBRANCH  29  31
ENDBRANCH  28  29
ENDBRANCH  27  28
ENDBRANCH  26  27
ENDBRANCH  25  26
ENDBRANCH  24  25
ENDBRANCH   1  24
TORSDOF 22
