REMARK SMILES CCc1ccc(C[NH+]2CCC(Oc3ccccc3OC)(C(=O)OCCOCCOCCOC(=O)c3ccc(-c4c5nc(c(-c6c(F)c(F)c(F)c(F)c6F)c6ccc([nH]6)c(-c6c(F)c(F)c(F)c(F)c6F)c6nc(c(-c7c(F)c(F)c(F)c(F)c7F)c7ccc4[nH]7)C=C6)C=C5)cc3)CC2)nc1
REMARK SMILES IDX 27 1 26 2 25 3 24 4 23 5 21 6 22 7 11 8 8 9 9 10 99 11 10 13
REMARK SMILES IDX 98 14 7 15 6 16 3 17 4 18 101 19 5 20 100 21 2 22 1 23 12 24
REMARK SMILES IDX 13 25 14 26 18 27 15 28 17 29 16 30 19 31 20 32 28 33 29 34
REMARK SMILES IDX 30 35 31 36 32 37 33 38 34 39 35 40 36 41 97 42 37 43 96 44
REMARK SMILES IDX 38 45 39 46 40 47 90 48 41 49 95 50 89 51 91 52 42 53 94 54
REMARK SMILES IDX 88 55 87 56 43 58 75 59 55 60 74 61 56 62 59 63 73 64 92 65
REMARK SMILES IDX 57 66 58 67 72 69 93 70 60 71 44 72 45 73 53 74 46 75 47 76
REMARK SMILES IDX 51 77 54 78 48 79 49 80 52 81 50 82 76 83 77 84 85 85 78 86
REMARK SMILES IDX 79 87 83 88 86 89 80 90 81 91 84 92 82 93 61 94 62 95 70 96
REMARK SMILES IDX 63 97 64 98 68 99 71 100 65 101 66 102 69 103 67 104
REMARK H PARENT 8 12 91 57 59 68
REMARK Flexibility Score: inf
ROOT
ATOM      1  C   UNL     1       3.557  -2.612  -1.289  1.00  0.00     0.188 C 
ENDROOT
BRANCH   1   2
ATOM      2  O   UNL     1       3.750  -2.564   0.105  1.00  0.00    -0.376 OA
BRANCH   2   3
ATOM      3  C   UNL     1       5.085  -2.879   0.473  1.00  0.00     0.202 C 
BRANCH   3   4
ATOM      4  C   UNL     1       5.800  -4.055  -0.274  1.00  0.00     0.261 C 
BRANCH   4   5
ATOM      5  O   UNL     1       5.896  -4.045  -1.750  1.00  0.00    -0.460 OA
BRANCH   5   6
ATOM      6  C   UNL     1       5.107  -4.910  -2.483  1.00  0.00     0.351 C 
ATOM      7  O   UNL     1       4.399  -5.756  -1.931  1.00  0.00    -0.247 OA
BRANCH   6   8
ATOM      8  C   UNL     1       5.197  -4.801  -4.055  1.00  0.00     0.216 C 
ATOM      9  N   UNL     1       3.509  -2.958  -5.854  1.00  0.00    -0.330 N 
ATOM     10  C   UNL     1       4.820  -2.522  -5.420  1.00  0.00     0.267 C 
ATOM     11  C   UNL     1       2.928  -4.014  -5.017  1.00  0.00     0.267 C 
ATOM     12  H   UNL     1       3.570  -3.479  -6.729  1.00  0.00     0.348 HD
ATOM     13  C   UNL     1       5.739  -3.580  -4.816  1.00  0.00     0.122 C 
ATOM     14  C   UNL     1       3.864  -5.219  -4.731  1.00  0.00     0.122 C 
BRANCH   9  15
ATOM     15  C   UNL     1       2.675  -1.750  -6.202  1.00  0.00     0.319 C 
BRANCH  15  16
ATOM     16  C   UNL     1       2.282  -0.780  -5.061  1.00  0.00     0.095 A 
ATOM     17  C   UNL     1       0.735   0.992  -2.274  1.00  0.00    -0.030 A 
ATOM     18  C   UNL     1       0.958   1.806  -3.891  1.00  0.00     0.007 A 
ATOM     19  C   UNL     1       1.232  -0.712  -2.115  1.00  0.00     0.115 A 
ATOM     20  C   UNL     1       1.608   0.881  -5.326  1.00  0.00     0.030 A 
ATOM     21  N   UNL     1       2.116  -1.514  -3.433  1.00  0.00    -0.255 NA
BRANCH  17  22
ATOM     22  C   UNL     1       0.248   1.652  -1.007  1.00  0.00     0.034 C 
ATOM     23  C   UNL     1       0.655   0.883   0.264  1.00  0.00     0.009 C 
ENDBRANCH  17  22
ENDBRANCH  15  16
ENDBRANCH   9  15
BRANCH   8  24
ATOM     24  O   UNL     1       6.260  -5.830  -4.002  1.00  0.00    -0.471 OA
BRANCH  24  25
ATOM     25  C   UNL     1       6.548  -6.529  -5.127  1.00  0.00     0.162 A 
ATOM     26  C   UNL     1       5.931  -7.781  -5.229  1.00  0.00     0.050 A 
ATOM     27  C   UNL     1       7.456  -6.098  -6.097  1.00  0.00     0.160 A 
ATOM     28  C   UNL     1       6.107  -8.555  -6.370  1.00  0.00     0.004 A 
ATOM     29  C   UNL     1       7.565  -6.852  -7.268  1.00  0.00     0.050 A 
ATOM     30  C   UNL     1       6.896  -8.070  -7.407  1.00  0.00     0.004 A 
BRANCH  27  31
ATOM     31  O   UNL     1       8.226  -4.968  -6.115  1.00  0.00    -0.493 OA
ATOM     32  C   UNL     1       8.706  -4.393  -4.904  1.00  0.00     0.278 C 
ENDBRANCH  27  31
ENDBRANCH  24  25
ENDBRANCH   8  24
ENDBRANCH   6   8
ENDBRANCH   5   6
ENDBRANCH   4   5
ENDBRANCH   3   4
ENDBRANCH   2   3
ENDBRANCH   1   2
BRANCH   1  33
ATOM     33  C   UNL     1       4.513  -1.758  -2.144  1.00  0.00     0.188 C 
BRANCH  33  34
ATOM     34  O   UNL     1       5.439  -0.987  -1.413  1.00  0.00    -0.376 OA
BRANCH  34  35
ATOM     35  C   UNL     1       5.499   0.372  -1.798  1.00  0.00     0.202 C 
BRANCH  35  36
ATOM     36  C   UNL     1       4.199   1.193  -1.707  1.00  0.00     0.261 C 
BRANCH  36  37
ATOM     37  O   UNL     1       2.947   0.524  -2.019  1.00  0.00    -0.460 OA
BRANCH  37  38
ATOM     38  C   UNL     1       2.402   0.433  -3.413  1.00  0.00     0.338 C 
ATOM     39  O   UNL     1       3.366   0.915  -4.077  1.00  0.00    -0.246 OA
BRANCH  38  40
ATOM     40  C   UNL     1       0.480  -0.349  -3.990  1.00  0.00     0.060 A 
ATOM     41  C   UNL     1       0.201  -1.737  -4.540  1.00  0.00     0.016 A 
ATOM     42  C   UNL     1      -0.913   0.220  -3.946  1.00  0.00     0.016 A 
ATOM     43  C   UNL     1      -0.895  -2.283  -5.132  1.00  0.00     0.010 A 
ATOM     44  C   UNL     1      -2.118  -0.412  -4.328  1.00  0.00     0.010 A 
ATOM     45  C   UNL     1      -2.077  -1.655  -4.929  1.00  0.00    -0.014 A 
BRANCH  45  46
ATOM     46  C   UNL     1      -3.197  -2.345  -5.522  1.00  0.00     0.031 A 
ATOM     47  C   UNL     1      -3.760  -1.716  -6.734  1.00  0.00     0.074 A 
ATOM     48  C   UNL     1      -3.460  -3.588  -5.083  1.00  0.00     0.049 A 
ATOM     49  N   UNL     1      -4.867  -1.991  -7.345  1.00  0.00    -0.248 NA
ATOM     50  C   UNL     1      -2.989  -0.603  -7.327  1.00  0.00     0.031 C 
ATOM     51  C   UNL     1      -2.715  -4.301  -4.026  1.00  0.00     0.029 A 
ATOM     52  N   UNL     1      -4.375  -4.499  -5.503  1.00  0.00    -0.354 N 
ATOM     53  C   UNL     1      -4.971  -1.037  -8.341  1.00  0.00     0.074 A 
ATOM     54  C   UNL     1      -3.820  -0.172  -8.261  1.00  0.00     0.031 C 
ATOM     55  C   UNL     1      -3.200  -5.543  -3.901  1.00  0.00     0.029 A 
ATOM     56  C   UNL     1      -4.373  -5.644  -4.746  1.00  0.00     0.049 A 
ATOM     57  H   UNL     1      -4.976  -4.354  -6.269  1.00  0.00     0.167 HD
ATOM     58  C   UNL     1      -5.987  -0.926  -9.216  1.00  0.00     0.037 A 
ATOM     59  C   UNL     1      -5.309  -6.601  -4.688  1.00  0.00     0.037 A 
ATOM     60  C   UNL     1      -7.070  -1.869  -9.205  1.00  0.00     0.049 A 
ATOM     61  C   UNL     1      -6.490  -6.390  -5.592  1.00  0.00     0.074 A 
ATOM     62  C   UNL     1      -8.231  -1.877  -9.944  1.00  0.00     0.029 A 
ATOM     63  N   UNL     1      -7.097  -3.001  -8.386  1.00  0.00    -0.354 N 
ATOM     64  N   UNL     1      -6.707  -5.411  -6.445  1.00  0.00    -0.248 NA
ATOM     65  C   UNL     1      -7.559  -7.380  -5.521  1.00  0.00     0.031 C 
ATOM     66  C   UNL     1      -8.981  -2.986  -9.535  1.00  0.00     0.029 A 
ATOM     67  C   UNL     1      -8.258  -3.713  -8.595  1.00  0.00     0.049 A 
ATOM     68  H   UNL     1      -6.388  -3.252  -7.751  1.00  0.00     0.167 HD
ATOM     69  C   UNL     1      -7.928  -5.674  -7.034  1.00  0.00     0.074 A 
ATOM     70  C   UNL     1      -8.390  -6.923  -6.447  1.00  0.00     0.031 C 
ATOM     71  C   UNL     1      -8.617  -4.965  -7.965  1.00  0.00     0.037 A 
BRANCH  58  72
ATOM     72  C   UNL     1      -5.984   0.268 -10.118  1.00  0.00     0.064 A 
ATOM     73  C   UNL     1      -5.013   0.452 -11.116  1.00  0.00     0.173 A 
ATOM     74  C   UNL     1      -6.921   1.292  -9.923  1.00  0.00     0.173 A 
ATOM     75  F   UNL     1      -4.057  -0.469 -11.307  1.00  0.00    -0.203 F 
ATOM     76  C   UNL     1      -4.969   1.625 -11.866  1.00  0.00     0.198 A 
ATOM     77  C   UNL     1      -6.897   2.448 -10.699  1.00  0.00     0.198 A 
ATOM     78  F   UNL     1      -7.846   1.188  -8.957  1.00  0.00    -0.203 F 
ATOM     79  F   UNL     1      -3.986   1.811 -12.759  1.00  0.00    -0.200 F 
ATOM     80  C   UNL     1      -5.916   2.618 -11.664  1.00  0.00     0.200 A 
ATOM     81  F   UNL     1      -7.808   3.409 -10.495  1.00  0.00    -0.200 F 
ATOM     82  F   UNL     1      -5.870   3.747 -12.384  1.00  0.00    -0.200 F 
ENDBRANCH  58  72
BRANCH  59  83
ATOM     83  C   UNL     1      -5.213  -7.704  -3.696  1.00  0.00     0.064 A 
ATOM     84  C   UNL     1      -5.146  -9.041  -4.100  1.00  0.00     0.173 A 
ATOM     85  C   UNL     1      -5.181  -7.447  -2.312  1.00  0.00     0.173 A 
ATOM     86  F   UNL     1      -5.172  -9.347  -5.406  1.00  0.00    -0.203 F 
ATOM     87  C   UNL     1      -5.087 -10.077  -3.167  1.00  0.00     0.198 A 
ATOM     88  C   UNL     1      -5.081  -8.479  -1.382  1.00  0.00     0.198 A 
ATOM     89  F   UNL     1      -5.229  -6.185  -1.857  1.00  0.00    -0.203 F 
ATOM     90  F   UNL     1      -5.083 -11.350  -3.585  1.00  0.00    -0.200 F 
ATOM     91  C   UNL     1      -5.050  -9.795  -1.810  1.00  0.00     0.200 A 
ATOM     92  F   UNL     1      -5.021  -8.197  -0.073  1.00  0.00    -0.200 F 
ATOM     93  F   UNL     1      -4.997 -10.792  -0.916  1.00  0.00    -0.200 F 
ENDBRANCH  59  83
BRANCH  71  94
ATOM     94  C   UNL     1      -9.894  -5.583  -8.431  1.00  0.00     0.064 A 
ATOM     95  C   UNL     1     -11.030  -5.633  -7.614  1.00  0.00     0.173 A 
ATOM     96  C   UNL     1      -9.982  -6.081  -9.739  1.00  0.00     0.173 A 
ATOM     97  F   UNL     1     -10.976  -5.183  -6.351  1.00  0.00    -0.203 F 
ATOM     98  C   UNL     1     -12.209  -6.194  -8.085  1.00  0.00     0.198 A 
ATOM     99  C   UNL     1     -11.176  -6.596 -10.220  1.00  0.00     0.198 A 
ATOM    100  F   UNL     1      -8.916  -6.040 -10.553  1.00  0.00    -0.203 F 
ATOM    101  F   UNL     1     -13.269  -6.293  -7.271  1.00  0.00    -0.200 F 
ATOM    102  C   UNL     1     -12.285  -6.662  -9.389  1.00  0.00     0.200 A 
ATOM    103  F   UNL     1     -11.256  -7.023 -11.487  1.00  0.00    -0.200 F 
ATOM    104  F   UNL     1     -13.431  -7.184  -9.846  1.00  0.00    -0.200 F 
ENDBRANCH  71  94
ENDBRANCH  45  46
ENDBRANCH  38  40
ENDBRANCH  37  38
ENDBRANCH  36  37
ENDBRANCH  35  36
ENDBRANCH  34  35
ENDBRANCH  33  34
ENDBRANCH   1  33
TORSDOF 23
