REMARK SMILES CC[N@@H+]1CCO[C@@H](C[N@@H+](CCC(=O)OCCOCCOCCOC(=O)c2ccc(-c3c4nc(c(-c5c(F)c(F)c(F)c(F)c5F)c5ccc([nH]5)c(-c5c(F)c(F)c(F)c(F)c5F)c5nc(c(-c6c(F)c(F)c(F)c(F)c6F)c6ccc3[nH]6)C=C5)C=C4)cc2)C2CC2)C1
REMARK SMILES IDX 17 1 16 2 15 3 14 4 12 5 13 6 11 7 10 8 9 9 8 11 7 12 3 13
REMARK SMILES IDX 4 14 92 15 5 17 6 18 2 19 1 20 89 21 90 22 91 23 18 24 19 25
REMARK SMILES IDX 20 26 21 27 22 28 23 29 24 30 25 31 26 32 27 33 88 34 28 35
REMARK SMILES IDX 87 36 29 37 30 38 31 39 81 40 32 41 86 42 80 43 82 44 33 45
REMARK SMILES IDX 85 46 79 47 78 48 34 50 66 51 46 52 65 53 47 54 50 55 64 56
REMARK SMILES IDX 83 57 48 58 49 59 63 61 84 62 51 63 35 64 36 65 44 66 37 67
REMARK SMILES IDX 38 68 42 69 45 70 39 71 40 72 43 73 41 74 67 75 68 76 76 77
REMARK SMILES IDX 69 78 70 79 74 80 77 81 71 82 72 83 75 84 73 85 52 86 53 87
REMARK SMILES IDX 61 88 54 89 55 90 59 91 62 92 56 93 57 94 60 95 58 96
REMARK H PARENT 9 10 3 16 82 49 50 60
REMARK Flexibility Score: inf
ROOT
ATOM      1  O   UNL     1       4.954   2.702   1.614  1.00  0.00    -0.376 OA
ENDROOT
BRANCH   1   2
ATOM      2  C   UNL     1       4.362   1.886   0.601  1.00  0.00     0.202 C 
BRANCH   2   3
ATOM      3  C   UNL     1       4.786   0.417   0.705  1.00  0.00     0.261 C 
BRANCH   3   4
ATOM      4  O   UNL     1       4.004  -0.321   1.670  1.00  0.00    -0.463 OA
BRANCH   4   5
ATOM      5  C   UNL     1       4.586  -0.592   2.863  1.00  0.00     0.311 C 
ATOM      6  O   UNL     1       5.712  -0.228   3.186  1.00  0.00    -0.252 OA
BRANCH   5   7
ATOM      7  C   UNL     1       3.756  -1.484   3.754  1.00  0.00     0.184 C 
BRANCH   7   8
ATOM      8  C   UNL     1       2.248  -1.240   3.851  1.00  0.00     0.274 C 
BRANCH   8   9
ATOM      9  N   UNL     1       1.383  -1.484   2.695  1.00  0.00    -0.330 N 
ATOM     10  H   UNL     1       0.468  -1.629   3.122  1.00  0.00     0.348 HD
BRANCH   9  11
ATOM     11  C   UNL     1       1.568  -2.791   2.035  1.00  0.00     0.300 C 
BRANCH  11  12
ATOM     12  C   UNL     1       1.016  -3.015   0.600  1.00  0.00     0.228 C 
ATOM     13  N   UNL     1       1.534  -2.697  -1.864  1.00  0.00    -0.331 N 
ATOM     14  C   UNL     1       1.225  -4.135  -2.034  1.00  0.00     0.291 C 
ATOM     15  C   UNL     1       2.002  -2.502  -0.478  1.00  0.00     0.300 C 
ATOM     16  H   UNL     1       2.294  -2.384  -2.468  1.00  0.00     0.348 HD
ATOM     17  C   UNL     1       0.335  -4.716  -0.914  1.00  0.00     0.222 C 
ATOM     18  O   UNL     1       0.851  -4.442   0.398  1.00  0.00    -0.361 OA
BRANCH  13  19
ATOM     19  C   UNL     1       0.408  -1.862  -2.308  1.00  0.00     0.258 C 
ATOM     20  C   UNL     1       0.298  -0.460  -1.719  1.00  0.00     0.071 C 
ENDBRANCH  13  19
ENDBRANCH  11  12
ENDBRANCH   9  11
BRANCH   9  21
ATOM     21  C   UNL     1       0.993  -0.332   1.888  1.00  0.00     0.184 C 
ATOM     22  C   UNL     1      -0.440   0.143   2.006  1.00  0.00     0.071 C 
ATOM     23  C   UNL     1       0.679   1.031   2.425  1.00  0.00     0.071 C 
ENDBRANCH   9  21
ENDBRANCH   8   9
ENDBRANCH   7   8
ENDBRANCH   5   7
ENDBRANCH   4   5
ENDBRANCH   3   4
ENDBRANCH   2   3
ENDBRANCH   1   2
BRANCH   1  24
ATOM     24  C   UNL     1       4.257   2.682   2.856  1.00  0.00     0.188 C 
BRANCH  24  25
ATOM     25  C   UNL     1       3.318   3.871   2.982  1.00  0.00     0.188 C 
BRANCH  25  26
ATOM     26  O   UNL     1       2.169   3.669   2.159  1.00  0.00    -0.376 OA
BRANCH  26  27
ATOM     27  C   UNL     1       1.868   4.731   1.258  1.00  0.00     0.202 C 
BRANCH  27  28
ATOM     28  C   UNL     1       0.811   5.690   1.813  1.00  0.00     0.261 C 
BRANCH  28  29
ATOM     29  O   UNL     1       1.134   6.051   3.161  1.00  0.00    -0.460 OA
BRANCH  29  30
ATOM     30  C   UNL     1       0.518   5.299   4.109  1.00  0.00     0.338 C 
ATOM     31  O   UNL     1      -0.468   4.593   3.970  1.00  0.00    -0.246 OA
BRANCH  30  32
ATOM     32  C   UNL     1       1.350   5.309   5.334  1.00  0.00     0.060 A 
ATOM     33  C   UNL     1       1.328   4.171   6.156  1.00  0.00     0.016 A 
ATOM     34  C   UNL     1       2.219   6.368   5.622  1.00  0.00     0.016 A 
ATOM     35  C   UNL     1       2.136   4.111   7.291  1.00  0.00     0.010 A 
ATOM     36  C   UNL     1       3.026   6.311   6.755  1.00  0.00     0.010 A 
ATOM     37  C   UNL     1       2.950   5.204   7.617  1.00  0.00    -0.014 A 
BRANCH  37  38
ATOM     38  C   UNL     1       3.474   5.346   8.992  1.00  0.00     0.031 A 
ATOM     39  C   UNL     1       2.625   6.121   9.961  1.00  0.00     0.074 A 
ATOM     40  C   UNL     1       4.661   4.839   9.363  1.00  0.00     0.049 A 
ATOM     41  N   UNL     1       2.874   6.478  11.193  1.00  0.00    -0.248 NA
ATOM     42  C   UNL     1       1.314   6.570   9.458  1.00  0.00     0.031 C 
ATOM     43  C   UNL     1       5.553   4.054   8.514  1.00  0.00     0.029 A 
ATOM     44  N   UNL     1       5.324   4.930  10.560  1.00  0.00    -0.354 N 
ATOM     45  C   UNL     1       1.758   7.194  11.605  1.00  0.00     0.074 A 
ATOM     46  C   UNL     1       0.849   7.260  10.485  1.00  0.00     0.031 C 
ATOM     47  C   UNL     1       6.659   3.745   9.216  1.00  0.00     0.029 A 
ATOM     48  C   UNL     1       6.561   4.335  10.551  1.00  0.00     0.049 A 
ATOM     49  H   UNL     1       4.948   5.380  11.351  1.00  0.00     0.167 HD
ATOM     50  C   UNL     1       1.508   7.742  12.816  1.00  0.00     0.037 A 
ATOM     51  C   UNL     1       7.504   4.295  11.512  1.00  0.00     0.037 A 
ATOM     52  C   UNL     1       2.424   7.685  13.920  1.00  0.00     0.049 A 
ATOM     53  C   UNL     1       7.227   4.964  12.838  1.00  0.00     0.074 A 
ATOM     54  C   UNL     1       2.276   8.202  15.193  1.00  0.00     0.029 A 
ATOM     55  N   UNL     1       3.669   7.074  13.873  1.00  0.00    -0.354 N 
ATOM     56  N   UNL     1       6.158   5.615  13.234  1.00  0.00    -0.248 NA
ATOM     57  C   UNL     1       8.287   4.886  13.852  1.00  0.00     0.031 C 
ATOM     58  C   UNL     1       3.453   7.945  15.903  1.00  0.00     0.029 A 
ATOM     59  C   UNL     1       4.309   7.217  15.091  1.00  0.00     0.049 A 
ATOM     60  H   UNL     1       4.041   6.609  13.089  1.00  0.00     0.167 HD
ATOM     61  C   UNL     1       6.402   5.991  14.549  1.00  0.00     0.074 A 
ATOM     62  C   UNL     1       7.717   5.486  14.887  1.00  0.00     0.031 C 
ATOM     63  C   UNL     1       5.613   6.690  15.404  1.00  0.00     0.037 A 
BRANCH  50  64
ATOM     64  C   UNL     1       0.207   8.468  12.982  1.00  0.00     0.064 A 
ATOM     65  C   UNL     1      -1.021   7.788  12.998  1.00  0.00     0.173 A 
ATOM     66  C   UNL     1       0.185   9.864  13.116  1.00  0.00     0.173 A 
ATOM     67  F   UNL     1      -1.056   6.455  12.847  1.00  0.00    -0.203 F 
ATOM     68  C   UNL     1      -2.223   8.481  13.111  1.00  0.00     0.198 A 
ATOM     69  C   UNL     1      -1.017  10.551  13.261  1.00  0.00     0.198 A 
ATOM     70  F   UNL     1       1.330  10.563  13.100  1.00  0.00    -0.203 F 
ATOM     71  F   UNL     1      -3.385   7.815  13.063  1.00  0.00    -0.200 F 
ATOM     72  C   UNL     1      -2.220   9.860  13.250  1.00  0.00     0.200 A 
ATOM     73  F   UNL     1      -1.012  11.884  13.402  1.00  0.00    -0.200 F 
ATOM     74  F   UNL     1      -3.377  10.527  13.360  1.00  0.00    -0.200 F 
ENDBRANCH  50  64
BRANCH  51  75
ATOM     75  C   UNL     1       8.796   3.600  11.269  1.00  0.00     0.064 A 
ATOM     76  C   UNL     1       9.127   2.427  11.962  1.00  0.00     0.173 A 
ATOM     77  C   UNL     1       9.739   4.108  10.364  1.00  0.00     0.173 A 
ATOM     78  F   UNL     1       8.271   1.917  12.860  1.00  0.00    -0.203 F 
ATOM     79  C   UNL     1      10.360   1.803  11.777  1.00  0.00     0.198 A 
ATOM     80  C   UNL     1      10.960   3.467  10.158  1.00  0.00     0.198 A 
ATOM     81  F   UNL     1       9.476   5.230   9.678  1.00  0.00    -0.203 F 
ATOM     82  F   UNL     1      10.671   0.714  12.495  1.00  0.00    -0.200 F 
ATOM     83  C   UNL     1      11.273   2.320  10.872  1.00  0.00     0.200 A 
ATOM     84  F   UNL     1      11.837   3.966   9.277  1.00  0.00    -0.200 F 
ATOM     85  F   UNL     1      12.459   1.721  10.696  1.00  0.00    -0.200 F 
ENDBRANCH  51  75
BRANCH  63  86
ATOM     86  C   UNL     1       6.126   6.903  16.799  1.00  0.00     0.064 A 
ATOM     87  C   UNL     1       7.184   7.782  17.072  1.00  0.00     0.173 A 
ATOM     88  C   UNL     1       5.516   6.251  17.882  1.00  0.00     0.173 A 
ATOM     89  F   UNL     1       7.807   8.421  16.071  1.00  0.00    -0.203 F 
ATOM     90  C   UNL     1       7.633   7.976  18.376  1.00  0.00     0.198 A 
ATOM     91  C   UNL     1       5.945   6.474  19.187  1.00  0.00     0.198 A 
ATOM     92  F   UNL     1       4.491   5.410  17.675  1.00  0.00    -0.203 F 
ATOM     93  F   UNL     1       8.679   8.780  18.609  1.00  0.00    -0.200 F 
ATOM     94  C   UNL     1       7.008   7.328  19.432  1.00  0.00     0.200 A 
ATOM     95  F   UNL     1       5.328   5.861  20.207  1.00  0.00    -0.200 F 
ATOM     96  F   UNL     1       7.437   7.523  20.687  1.00  0.00    -0.200 F 
ENDBRANCH  63  86
ENDBRANCH  37  38
ENDBRANCH  30  32
ENDBRANCH  29  30
ENDBRANCH  28  29
ENDBRANCH  27  28
ENDBRANCH  26  27
ENDBRANCH  25  26
ENDBRANCH  24  25
ENDBRANCH   1  24
TORSDOF 23
