REMARK SMILES NS(=O)(=O)c1ccc(-n2nc(NC(=O)NCCCCCCCCCCC(=O)OCCOCCOCCOC(=O)c3ccc(-c4c5nc(c(-c6c(F)c(F)c(F)c(F)c6F)c6ccc([nH]6)c(-c6c(F)c(F)c(F)c(F)c6F)c6nc(c(-c7c(F)c(F)c(F)c(F)c7F)c7ccc4[nH]7)C=C6)C=C5)cc3)cc2-c2ccccc2)cc1
REMARK SMILES IDX 25 1 24 2 23 3 22 4 21 5 20 6 19 7 18 8 17 9 16 10 15 11
REMARK SMILES IDX 12 12 13 13 14 15 11 17 9 18 10 19 104 20 103 21 8 22 5 23
REMARK SMILES IDX 6 24 112 25 7 26 111 27 2 28 3 29 4 30 1 31 105 34 106 35
REMARK SMILES IDX 110 36 107 37 109 38 108 39 26 40 27 41 28 42 29 43 30 44
REMARK SMILES IDX 31 45 32 46 33 47 34 48 35 49 36 50 37 51 38 52 39 53 40 54
REMARK SMILES IDX 41 55 102 56 42 57 101 58 43 59 44 60 45 61 95 62 46 63
REMARK SMILES IDX 100 64 94 65 96 66 47 67 99 68 93 69 92 70 48 72 80 73 60 74
REMARK SMILES IDX 79 75 61 76 64 77 78 78 97 79 62 80 63 81 77 83 98 84 65 85
REMARK SMILES IDX 49 86 50 87 58 88 51 89 52 90 56 91 59 92 53 93 54 94 57 95
REMARK SMILES IDX 55 96 81 97 82 98 90 99 83 100 84 101 88 102 91 103 85 104
REMARK SMILES IDX 86 105 89 106 87 107 66 108 67 109 75 110 68 111 69 112
REMARK SMILES IDX 73 113 76 114 70 115 71 116 74 117 72 118
REMARK H PARENT 12 14 15 16 1 32 1 33 96 71 64 82
REMARK Flexibility Score: inf
ROOT
ATOM      1  C   UNL     1      -4.135   3.463   2.541  1.00  0.00     0.123 C 
ENDROOT
BRANCH   1   2
ATOM      2  C   UNL     1      -2.999   3.938   3.454  1.00  0.00     0.012 C 
BRANCH   2   3
ATOM      3  C   UNL     1      -3.236   3.777   4.956  1.00  0.00     0.001 C 
BRANCH   3   4
ATOM      4  C   UNL     1      -3.683   2.374   5.350  1.00  0.00     0.000 C 
BRANCH   4   5
ATOM      5  C   UNL     1      -2.562   1.350   5.225  1.00  0.00     0.000 C 
BRANCH   5   6
ATOM      6  C   UNL     1      -1.396   1.608   6.179  1.00  0.00     0.000 C 
BRANCH   6   7
ATOM      7  C   UNL     1      -1.780   1.760   7.655  1.00  0.00     0.000 C 
BRANCH   7   8
ATOM      8  C   UNL     1      -2.597   0.600   8.237  1.00  0.00     0.002 C 
BRANCH   8   9
ATOM      9  C   UNL     1      -2.040  -0.796   7.968  1.00  0.00     0.021 C 
BRANCH   9  10
ATOM     10  C   UNL     1      -0.575  -0.980   8.320  1.00  0.00     0.117 C 
BRANCH  10  11
ATOM     11  N   UNL     1      -0.293  -1.029   9.735  1.00  0.00    -0.338 N 
ATOM     12  N   UNL     1       1.640  -2.418   9.770  1.00  0.00    -0.291 N 
ATOM     13  C   UNL     1       0.674  -1.705  10.392  1.00  0.00     0.320 C 
ATOM     14  H   UNL     1       2.045  -3.119  10.331  1.00  0.00     0.173 HD
ATOM     15  O   UNL     1       0.599  -1.761  11.623  1.00  0.00    -0.248 OA
ATOM     16  H   UNL     1      -0.892  -0.493  10.303  1.00  0.00     0.165 HD
BRANCH  12  17
ATOM     17  C   UNL     1       2.163  -2.347   8.498  1.00  0.00     0.157 A 
ATOM     18  N   UNL     1       2.399  -1.783   6.470  1.00  0.00    -0.231 N 
ATOM     19  N   UNL     1       2.104  -1.287   7.689  1.00  0.00    -0.149 NA
ATOM     20  C   UNL     1       3.097  -2.979   6.576  1.00  0.00     0.076 A 
ATOM     21  C   UNL     1       2.894  -3.390   7.881  1.00  0.00     0.078 A 
BRANCH  18  22
ATOM     22  C   UNL     1       1.925  -1.138   5.293  1.00  0.00     0.065 A 
ATOM     23  C   UNL     1       1.011   0.122   2.978  1.00  0.00     0.082 A 
ATOM     24  C   UNL     1       1.016  -1.273   3.046  1.00  0.00     0.024 A 
ATOM     25  C   UNL     1       1.438   0.891   4.066  1.00  0.00     0.024 A 
ATOM     26  C   UNL     1       1.483  -1.902   4.201  1.00  0.00     0.030 A 
ATOM     27  C   UNL     1       1.871   0.260   5.238  1.00  0.00     0.030 A 
BRANCH  23  28
ATOM     28  S   UNL     1       0.495   0.922   1.489  1.00  0.00     0.238 S 
ATOM     29  O   UNL     1       1.147   2.212   1.397  1.00  0.00    -0.207 OA
ATOM     30  O   UNL     1      -0.928   0.754   1.344  1.00  0.00    -0.207 OA
BRANCH  28  31
ATOM     31  N   UNL     1       1.211  -0.009   0.284  1.00  0.00    -0.225 NA
ATOM     32  H   UNL     1       0.971   0.375  -0.630  1.00  0.00     0.137 HD
ATOM     33  H   UNL     1       0.871  -0.969   0.350  1.00  0.00     0.137 HD
ENDBRANCH  28  31
ENDBRANCH  23  28
ENDBRANCH  18  22
BRANCH  20  34
ATOM     34  C   UNL     1       3.870  -3.556   5.483  1.00  0.00     0.000 A 
ATOM     35  C   UNL     1       4.788  -2.745   4.797  1.00  0.00     0.010 A 
ATOM     36  C   UNL     1       3.664  -4.870   5.057  1.00  0.00     0.010 A 
ATOM     37  C   UNL     1       5.457  -3.223   3.674  1.00  0.00     0.001 A 
ATOM     38  C   UNL     1       4.339  -5.349   3.931  1.00  0.00     0.001 A 
ATOM     39  C   UNL     1       5.226  -4.524   3.236  1.00  0.00     0.000 A 
ENDBRANCH  20  34
ENDBRANCH  12  17
ENDBRANCH  10  11
ENDBRANCH   9  10
ENDBRANCH   8   9
ENDBRANCH   7   8
ENDBRANCH   6   7
ENDBRANCH   5   6
ENDBRANCH   4   5
ENDBRANCH   3   4
ENDBRANCH   2   3
ENDBRANCH   1   2
BRANCH   1  40
ATOM     40  C   UNL     1      -5.546   3.968   2.804  1.00  0.00     0.305 C 
ATOM     41  O   UNL     1      -6.515   3.558   2.176  1.00  0.00    -0.252 OA
BRANCH  40  42
ATOM     42  O   UNL     1      -5.590   4.957   3.728  1.00  0.00    -0.463 OA
BRANCH  42  43
ATOM     43  C   UNL     1      -6.807   5.704   3.865  1.00  0.00     0.261 C 
BRANCH  43  44
ATOM     44  C   UNL     1      -6.602   7.192   3.556  1.00  0.00     0.202 C 
BRANCH  44  45
ATOM     45  O   UNL     1      -6.021   7.487   2.286  1.00  0.00    -0.376 OA
BRANCH  45  46
ATOM     46  C   UNL     1      -4.639   7.151   2.122  1.00  0.00     0.188 C 
BRANCH  46  47
ATOM     47  C   UNL     1      -3.716   7.689   3.219  1.00  0.00     0.188 C 
BRANCH  47  48
ATOM     48  O   UNL     1      -3.844   7.004   4.453  1.00  0.00    -0.376 OA
BRANCH  48  49
ATOM     49  C   UNL     1      -3.684   7.642   5.717  1.00  0.00     0.202 C 
BRANCH  49  50
ATOM     50  C   UNL     1      -3.262   9.100   5.946  1.00  0.00     0.261 C 
BRANCH  50  51
ATOM     51  O   UNL     1      -2.760   9.803   4.834  1.00  0.00    -0.460 OA
BRANCH  51  52
ATOM     52  C   UNL     1      -1.607   9.366   4.297  1.00  0.00     0.338 C 
ATOM     53  O   UNL     1      -0.874   8.491   4.717  1.00  0.00    -0.246 OA
BRANCH  52  54
ATOM     54  C   UNL     1      -1.403  10.172   3.079  1.00  0.00     0.060 A 
ATOM     55  C   UNL     1      -0.168  10.074   2.448  1.00  0.00     0.016 A 
ATOM     56  C   UNL     1      -2.358  11.135   2.693  1.00  0.00     0.016 A 
ATOM     57  C   UNL     1       0.219  11.119   1.641  1.00  0.00     0.010 A 
ATOM     58  C   UNL     1      -1.971  12.179   1.895  1.00  0.00     0.010 A 
ATOM     59  C   UNL     1      -0.648  12.209   1.486  1.00  0.00    -0.014 A 
BRANCH  59  60
ATOM     60  C   UNL     1      -0.113  13.413   0.898  1.00  0.00     0.031 A 
ATOM     61  C   UNL     1       0.083  13.312  -0.556  1.00  0.00     0.074 A 
ATOM     62  C   UNL     1       0.156  14.504   1.639  1.00  0.00     0.049 A 
ATOM     63  N   UNL     1       1.207  13.226  -1.182  1.00  0.00    -0.248 NA
ATOM     64  C   UNL     1      -1.104  13.112  -1.398  1.00  0.00     0.031 C 
ATOM     65  C   UNL     1      -0.241  14.790   3.021  1.00  0.00     0.029 A 
ATOM     66  N   UNL     1       0.797  15.642   1.264  1.00  0.00    -0.354 N 
ATOM     67  C   UNL     1       0.874  13.158  -2.527  1.00  0.00     0.074 A 
ATOM     68  C   UNL     1      -0.543  12.909  -2.590  1.00  0.00     0.031 C 
ATOM     69  C   UNL     1      -0.024  16.099   3.285  1.00  0.00     0.029 A 
ATOM     70  C   UNL     1       0.651  16.701   2.148  1.00  0.00     0.049 A 
ATOM     71  H   UNL     1       1.322  15.709   0.434  1.00  0.00     0.167 HD
ATOM     72  C   UNL     1       1.751  13.585  -3.472  1.00  0.00     0.037 A 
ATOM     73  C   UNL     1       1.004  17.989   1.909  1.00  0.00     0.037 A 
ATOM     74  C   UNL     1       3.092  13.656  -2.947  1.00  0.00     0.049 A 
ATOM     75  C   UNL     1       1.993  17.977   0.800  1.00  0.00     0.074 A 
ATOM     76  C   UNL     1       3.986  12.739  -2.432  1.00  0.00     0.029 A 
ATOM     77  N   UNL     1       3.555  14.890  -2.563  1.00  0.00    -0.354 N 
ATOM     78  N   UNL     1       3.202  17.500   0.908  1.00  0.00    -0.248 NA
ATOM     79  C   UNL     1       1.491  18.093  -0.561  1.00  0.00     0.031 C 
ATOM     80  C   UNL     1       4.686  13.433  -1.402  1.00  0.00     0.029 A 
ATOM     81  C   UNL     1       4.221  14.748  -1.374  1.00  0.00     0.049 A 
ATOM     82  H   UNL     1       3.430  15.732  -3.057  1.00  0.00     0.167 HD
ATOM     83  C   UNL     1       3.435  16.854  -0.297  1.00  0.00     0.074 A 
ATOM     84  C   UNL     1       2.394  17.342  -1.196  1.00  0.00     0.031 C 
ATOM     85  C   UNL     1       4.269  15.775  -0.358  1.00  0.00     0.037 A 
BRANCH  72  86
ATOM     86  C   UNL     1       1.331  14.331  -4.712  1.00  0.00     0.064 A 
ATOM     87  C   UNL     1       2.298  14.611  -5.695  1.00  0.00     0.173 A 
ATOM     88  C   UNL     1       0.117  15.044  -4.826  1.00  0.00     0.173 A 
ATOM     89  F   UNL     1       3.496  14.009  -5.665  1.00  0.00    -0.203 F 
ATOM     90  C   UNL     1       2.093  15.591  -6.669  1.00  0.00     0.198 A 
ATOM     91  C   UNL     1      -0.105  15.979  -5.833  1.00  0.00     0.198 A 
ATOM     92  F   UNL     1      -0.853  14.961  -3.909  1.00  0.00    -0.203 F 
ATOM     93  F   UNL     1       3.090  15.920  -7.500  1.00  0.00    -0.200 F 
ATOM     94  C   UNL     1       0.894  16.277  -6.733  1.00  0.00     0.200 A 
ATOM     95  F   UNL     1      -1.266  16.649  -5.863  1.00  0.00    -0.200 F 
ATOM     96  F   UNL     1       0.719  17.261  -7.624  1.00  0.00    -0.200 F 
ENDBRANCH  72  86
BRANCH  73  97
ATOM     97  C   UNL     1       0.294  19.225   2.316  1.00  0.00     0.064 A 
ATOM     98  C   UNL     1       0.914  20.481   2.209  1.00  0.00     0.173 A 
ATOM     99  C   UNL     1      -1.098  19.232   2.534  1.00  0.00     0.173 A 
ATOM    100  F   UNL     1       2.228  20.565   1.956  1.00  0.00    -0.203 F 
ATOM    101  C   UNL     1       0.181  21.671   2.282  1.00  0.00     0.198 A 
ATOM    102  C   UNL     1      -1.827  20.420   2.614  1.00  0.00     0.198 A 
ATOM    103  F   UNL     1      -1.795  18.088   2.574  1.00  0.00    -0.203 F 
ATOM    104  F   UNL     1       0.797  22.848   2.105  1.00  0.00    -0.200 F 
ATOM    105  C   UNL     1      -1.190  21.638   2.473  1.00  0.00     0.200 A 
ATOM    106  F   UNL     1      -3.159  20.372   2.760  1.00  0.00    -0.200 F 
ATOM    107  F   UNL     1      -1.903  22.773   2.476  1.00  0.00    -0.200 F 
ENDBRANCH  73  97
BRANCH  85 108
ATOM    108  C   UNL     1       5.158  15.518   0.828  1.00  0.00     0.064 A 
ATOM    109  C   UNL     1       4.690  15.204   2.116  1.00  0.00     0.173 A 
ATOM    110  C   UNL     1       6.542  15.471   0.616  1.00  0.00     0.173 A 
ATOM    111  F   UNL     1       3.378  15.130   2.376  1.00  0.00    -0.203 F 
ATOM    112  C   UNL     1       5.575  14.906   3.152  1.00  0.00     0.198 A 
ATOM    113  C   UNL     1       7.420  15.135   1.641  1.00  0.00     0.198 A 
ATOM    114  F   UNL     1       7.043  15.710  -0.607  1.00  0.00    -0.203 F 
ATOM    115  F   UNL     1       5.106  14.629   4.378  1.00  0.00    -0.200 F 
ATOM    116  C   UNL     1       6.938  14.865   2.911  1.00  0.00     0.200 A 
ATOM    117  F   UNL     1       8.734  15.048   1.391  1.00  0.00    -0.200 F 
ATOM    118  F   UNL     1       7.787  14.540   3.897  1.00  0.00    -0.200 F 
ENDBRANCH  85 108
ENDBRANCH  59  60
ENDBRANCH  52  54
ENDBRANCH  51  52
ENDBRANCH  50  51
ENDBRANCH  49  50
ENDBRANCH  48  49
ENDBRANCH  47  48
ENDBRANCH  46  47
ENDBRANCH  45  46
ENDBRANCH  44  45
ENDBRANCH  43  44
ENDBRANCH  42  43
ENDBRANCH  40  42
ENDBRANCH   1  40
TORSDOF 32
