REMARK SMILES O=C(/C=C/c1ccccc1)Nc1ccc(O)cc1C(=O)OCCOCCOCCOC(=O)c1ccc(-c2c3nc(c(-c4c(F)c(F)c(F)c(F)c4F)c4ccc([nH]4)c(-c4c(F)c(F)c(F)c(F)c4F)c4nc(c(-c5c(F)c(F)c(F)c(F)c5F)c5ccc2[nH]5)C=C4)C=C3)cc1
REMARK SMILES IDX 25 1 24 2 23 3 22 4 21 5 19 6 20 7 18 8 12 9 13 10 14 11
REMARK SMILES IDX 17 12 15 13 11 14 1 15 2 16 3 18 4 19 5 20 6 21 10 22 7 23
REMARK SMILES IDX 9 24 8 25 16 26 26 28 27 29 28 30 29 31 30 32 31 33 32 34
REMARK SMILES IDX 33 35 34 36 95 37 35 38 94 39 36 40 37 41 38 42 88 43 39 44
REMARK SMILES IDX 93 45 87 46 89 47 40 48 92 49 86 50 85 51 41 53 73 54 53 55
REMARK SMILES IDX 72 56 54 57 57 58 71 59 90 60 55 61 56 62 70 64 91 65 58 66
REMARK SMILES IDX 42 67 43 68 51 69 44 70 45 71 49 72 52 73 46 74 47 75 50 76
REMARK SMILES IDX 48 77 74 78 75 79 83 80 76 81 77 82 81 83 84 84 78 85 79 86
REMARK SMILES IDX 82 87 80 88 59 89 60 90 68 91 61 92 62 93 66 94 69 95 63 96
REMARK SMILES IDX 64 97 67 98 65 99
REMARK H PARENT 11 17 16 27 89 52 57 63
REMARK Flexibility Score: inf
ROOT
ATOM      1  C   UNL     1       0.457   4.020   1.294  1.00  0.00     0.188 C 
ENDROOT
BRANCH   1   2
ATOM      2  O   UNL     1      -0.055   3.597   2.542  1.00  0.00    -0.376 OA
BRANCH   2   3
ATOM      3  C   UNL     1      -0.002   2.225   2.904  1.00  0.00     0.202 C 
BRANCH   3   4
ATOM      4  C   UNL     1      -0.120   1.093   1.876  1.00  0.00     0.261 C 
BRANCH   4   5
ATOM      5  O   UNL     1       0.579   1.320   0.650  1.00  0.00    -0.460 OA
BRANCH   5   6
ATOM      6  C   UNL     1      -0.173   1.291  -0.482  1.00  0.00     0.340 C 
ATOM      7  O   UNL     1      -1.391   1.212  -0.539  1.00  0.00    -0.246 OA
BRANCH   6   8
ATOM      8  C   UNL     1       0.660   1.667  -1.655  1.00  0.00     0.087 A 
ATOM      9  C   UNL     1       1.982   1.241  -1.904  1.00  0.00     0.056 A 
ATOM     10  C   UNL     1       2.693   1.845  -2.958  1.00  0.00     0.031 A 
ATOM     11  C   UNL     1       2.108   2.833  -3.755  1.00  0.00     0.048 A 
ATOM     12  C   UNL     1       0.083   2.671  -2.462  1.00  0.00     0.064 A 
ATOM     13  C   UNL     1       0.812   3.246  -3.494  1.00  0.00     0.116 A 
BRANCH   9  14
ATOM     14  N   UNL     1       2.713   0.289  -1.154  1.00  0.00    -0.322 N 
ATOM     15  O   UNL     1       1.026  -1.150  -0.514  1.00  0.00    -0.270 OA
ATOM     16  C   UNL     1       2.176  -0.731  -0.415  1.00  0.00     0.248 C 
ATOM     17  H   UNL     1       3.694   0.368  -1.165  1.00  0.00     0.170 HD
BRANCH  16  18
ATOM     18  C   UNL     1       3.089  -1.428   0.526  1.00  0.00     0.072 C 
ATOM     19  C   UNL     1       4.397  -1.218   0.742  1.00  0.00     0.014 C 
BRANCH  19  20
ATOM     20  C   UNL     1       5.202  -2.081   1.628  1.00  0.00    -0.025 A 
ATOM     21  C   UNL     1       6.367  -1.577   2.219  1.00  0.00     0.008 A 
ATOM     22  C   UNL     1       4.889  -3.437   1.815  1.00  0.00     0.008 A 
ATOM     23  C   UNL     1       7.193  -2.409   2.984  1.00  0.00     0.001 A 
ATOM     24  C   UNL     1       5.709  -4.264   2.583  1.00  0.00     0.001 A 
ATOM     25  C   UNL     1       6.864  -3.751   3.163  1.00  0.00     0.000 A 
ENDBRANCH  19  20
ENDBRANCH  16  18
ENDBRANCH   9  14
BRANCH  13  26
ATOM     26  O   UNL     1       0.298   4.249  -4.257  1.00  0.00    -0.508 OA
ATOM     27  H   UNL     1       0.809   4.622  -4.948  1.00  0.00     0.293 HD
ENDBRANCH  13  26
ENDBRANCH   6   8
ENDBRANCH   5   6
ENDBRANCH   4   5
ENDBRANCH   3   4
ENDBRANCH   2   3
ENDBRANCH   1   2
BRANCH   1  28
ATOM     28  C   UNL     1       1.956   3.841   0.971  1.00  0.00     0.188 C 
BRANCH  28  29
ATOM     29  O   UNL     1       2.775   3.110   1.851  1.00  0.00    -0.376 OA
BRANCH  29  30
ATOM     30  C   UNL     1       3.118   3.640   3.120  1.00  0.00     0.202 C 
BRANCH  30  31
ATOM     31  C   UNL     1       2.993   5.120   3.541  1.00  0.00     0.261 C 
BRANCH  31  32
ATOM     32  O   UNL     1       2.085   5.956   2.818  1.00  0.00    -0.460 OA
BRANCH  32  33
ATOM     33  C   UNL     1       2.654   6.859   1.977  1.00  0.00     0.338 C 
ATOM     34  O   UNL     1       3.836   7.024   1.756  1.00  0.00    -0.246 OA
BRANCH  33  35
ATOM     35  C   UNL     1       1.579   7.510   1.198  1.00  0.00     0.060 A 
ATOM     36  C   UNL     1       1.475   7.235  -0.173  1.00  0.00     0.016 A 
ATOM     37  C   UNL     1       0.681   8.378   1.817  1.00  0.00     0.016 A 
ATOM     38  C   UNL     1       0.458   7.820  -0.929  1.00  0.00     0.010 A 
ATOM     39  C   UNL     1      -0.319   8.987   1.052  1.00  0.00     0.010 A 
ATOM     40  C   UNL     1      -0.430   8.719  -0.326  1.00  0.00    -0.014 A 
BRANCH  40  41
ATOM     41  C   UNL     1      -1.406   9.476  -1.149  1.00  0.00     0.031 A 
ATOM     42  C   UNL     1      -1.079  10.885  -1.552  1.00  0.00     0.074 A 
ATOM     43  C   UNL     1      -2.573   8.921  -1.522  1.00  0.00     0.049 A 
ATOM     44  N   UNL     1      -1.817  11.764  -2.181  1.00  0.00    -0.248 NA
ATOM     45  C   UNL     1       0.262  11.370  -1.192  1.00  0.00     0.031 C 
ATOM     46  C   UNL     1      -2.989   7.552  -1.231  1.00  0.00     0.029 A 
ATOM     47  N   UNL     1      -3.632   9.457  -2.213  1.00  0.00    -0.354 N 
ATOM     48  C   UNL     1      -1.035  12.906  -2.286  1.00  0.00     0.074 A 
ATOM     49  C   UNL     1       0.225  12.618  -1.633  1.00  0.00     0.031 C 
ATOM     50  C   UNL     1      -4.226   7.360  -1.722  1.00  0.00     0.029 A 
ATOM     51  C   UNL     1      -4.703   8.605  -2.323  1.00  0.00     0.049 A 
ATOM     52  H   UNL     1      -3.625  10.366  -2.593  1.00  0.00     0.167 HD
ATOM     53  C   UNL     1      -1.339  14.086  -2.878  1.00  0.00     0.037 A 
ATOM     54  C   UNL     1      -5.939   8.819  -2.819  1.00  0.00     0.037 A 
ATOM     55  C   UNL     1      -2.597  14.372  -3.518  1.00  0.00     0.049 A 
ATOM     56  C   UNL     1      -6.287  10.174  -3.384  1.00  0.00     0.074 A 
ATOM     57  C   UNL     1      -2.992  15.530  -4.165  1.00  0.00     0.029 A 
ATOM     58  N   UNL     1      -3.672  13.497  -3.577  1.00  0.00    -0.354 N 
ATOM     59  N   UNL     1      -5.534  11.240  -3.510  1.00  0.00    -0.248 NA
ATOM     60  C   UNL     1      -7.662  10.356  -3.872  1.00  0.00     0.031 C 
ATOM     61  C   UNL     1      -4.326  15.380  -4.556  1.00  0.00     0.029 A 
ATOM     62  C   UNL     1      -4.742  14.104  -4.215  1.00  0.00     0.049 A 
ATOM     63  H   UNL     1      -3.674  12.580  -3.219  1.00  0.00     0.167 HD
ATOM     64  C   UNL     1      -6.332  12.205  -4.114  1.00  0.00     0.074 A 
ATOM     65  C   UNL     1      -7.622  11.593  -4.347  1.00  0.00     0.031 C 
ATOM     66  C   UNL     1      -6.024  13.484  -4.444  1.00  0.00     0.037 A 
BRANCH  53  67
ATOM     67  C   UNL     1      -0.304  15.173  -2.833  1.00  0.00     0.064 A 
ATOM     68  C   UNL     1       0.889  15.090  -3.567  1.00  0.00     0.173 A 
ATOM     69  C   UNL     1      -0.526  16.332  -2.074  1.00  0.00     0.173 A 
ATOM     70  F   UNL     1       1.157  13.999  -4.301  1.00  0.00    -0.203 F 
ATOM     71  C   UNL     1       1.832  16.114  -3.521  1.00  0.00     0.198 A 
ATOM     72  C   UNL     1       0.403  17.368  -2.056  1.00  0.00     0.198 A 
ATOM     73  F   UNL     1      -1.652  16.465  -1.357  1.00  0.00    -0.203 F 
ATOM     74  F   UNL     1       2.986  15.992  -4.191  1.00  0.00    -0.200 F 
ATOM     75  C   UNL     1       1.584  17.255  -2.772  1.00  0.00     0.200 A 
ATOM     76  F   UNL     1       0.154  18.477  -1.345  1.00  0.00    -0.200 F 
ATOM     77  F   UNL     1       2.488  18.244  -2.736  1.00  0.00    -0.200 F 
ENDBRANCH  53  67
BRANCH  54  78
ATOM     78  C   UNL     1      -6.956   7.734  -2.783  1.00  0.00     0.064 A 
ATOM     79  C   UNL     1      -7.444   7.160  -3.965  1.00  0.00     0.173 A 
ATOM     80  C   UNL     1      -7.486   7.271  -1.569  1.00  0.00     0.173 A 
ATOM     81  F   UNL     1      -6.992   7.589  -5.153  1.00  0.00    -0.203 F 
ATOM     82  C   UNL     1      -8.436   6.181  -3.936  1.00  0.00     0.198 A 
ATOM     83  C   UNL     1      -8.454   6.268  -1.539  1.00  0.00     0.198 A 
ATOM     84  F   UNL     1      -7.060   7.790  -0.408  1.00  0.00    -0.203 F 
ATOM     85  F   UNL     1      -8.925   5.692  -5.084  1.00  0.00    -0.200 F 
ATOM     86  C   UNL     1      -8.935   5.731  -2.723  1.00  0.00     0.200 A 
ATOM     87  F   UNL     1      -8.925   5.830  -0.364  1.00  0.00    -0.200 F 
ATOM     88  F   UNL     1      -9.889   4.790  -2.696  1.00  0.00    -0.200 F 
ENDBRANCH  54  78
BRANCH  66  89
ATOM     89  C   UNL     1      -7.087  14.304  -5.122  1.00  0.00     0.064 A 
ATOM     90  C   UNL     1      -8.229  14.745  -4.438  1.00  0.00     0.173 A 
ATOM     91  C   UNL     1      -6.937  14.693  -6.463  1.00  0.00     0.173 A 
ATOM     92  F   UNL     1      -8.429  14.391  -3.159  1.00  0.00    -0.203 F 
ATOM     93  C   UNL     1      -9.193  15.522  -5.076  1.00  0.00     0.198 A 
ATOM     94  C   UNL     1      -7.885  15.499  -7.088  1.00  0.00     0.198 A 
ATOM     95  F   UNL     1      -5.861  14.307  -7.164  1.00  0.00    -0.203 F 
ATOM     96  F   UNL     1     -10.300  15.890  -4.416  1.00  0.00    -0.200 F 
ATOM     97  C   UNL     1      -9.016  15.906  -6.397  1.00  0.00     0.200 A 
ATOM     98  F   UNL     1      -7.703  15.884  -8.359  1.00  0.00    -0.200 F 
ATOM     99  F   UNL     1      -9.939  16.664  -7.006  1.00  0.00    -0.200 F 
ENDBRANCH  66  89
ENDBRANCH  40  41
ENDBRANCH  33  35
ENDBRANCH  32  33
ENDBRANCH  31  32
ENDBRANCH  30  31
ENDBRANCH  29  30
ENDBRANCH  28  29
ENDBRANCH   1  28
TORSDOF 21
