REMARK SMILES Cc1ccc(S(=O)(=O)N2c3ccc(C(=O)OCCOCCOCCOC(=O)c4ccc(-c5c6nc(c(-c7c(F)c(F)c(F)c(F)c7F)c7ccc([nH]7)c(-c7c(F)c(F)c(F)c(F)c7F)c7nc(c(-c8c(F)c(F)c(F)c(F)c8F)c8ccc5[nH]8)C=C7)C=C6)cc4)cc3C[C@H]2C)cc1
REMARK SMILES IDX 20 1 19 2 18 3 17 4 16 5 14 6 15 7 13 8 9 9 10 10 94 11
REMARK SMILES IDX 11 12 92 13 93 14 95 15 12 16 91 17 6 18 7 19 8 20 5 21 1 22
REMARK SMILES IDX 2 23 3 24 97 25 4 26 96 27 21 28 22 29 23 30 24 31 25 32
REMARK SMILES IDX 26 33 27 34 28 35 29 36 90 37 30 38 89 39 31 40 32 41 33 42
REMARK SMILES IDX 83 43 34 44 88 45 82 46 84 47 35 48 87 49 81 50 80 51 36 53
REMARK SMILES IDX 68 54 48 55 67 56 49 57 52 58 66 59 85 60 50 61 51 62 65 64
REMARK SMILES IDX 86 65 53 66 37 67 38 68 46 69 39 70 40 71 44 72 47 73 41 74
REMARK SMILES IDX 42 75 45 76 43 77 69 78 70 79 78 80 71 81 72 82 76 83 79 84
REMARK SMILES IDX 73 85 74 86 77 87 75 88 54 89 55 90 63 91 56 92 57 93 61 94
REMARK SMILES IDX 64 95 58 96 59 97 62 98 60 99
REMARK H PARENT 84 52 52 63
REMARK Flexibility Score: inf
ROOT
ATOM      1  C   UNL     1     -12.991   4.883   0.803  1.00  0.00     0.188 C 
ENDROOT
BRANCH   1   2
ATOM      2  O   UNL     1     -12.680   3.486   0.999  1.00  0.00    -0.376 OA
BRANCH   2   3
ATOM      3  C   UNL     1     -12.846   2.803   2.240  1.00  0.00     0.202 C 
BRANCH   3   4
ATOM      4  C   UNL     1     -11.677   1.792   2.952  1.00  0.00     0.261 C 
BRANCH   4   5
ATOM      5  O   UNL     1     -10.014   1.762   2.858  1.00  0.00    -0.460 OA
BRANCH   5   6
ATOM      6  C   UNL     1      -9.007   1.259   2.010  1.00  0.00     0.338 C 
ATOM      7  O   UNL     1      -9.101   0.441   1.105  1.00  0.00    -0.246 OA
BRANCH   6   8
ATOM      8  C   UNL     1      -7.576   1.683   2.009  1.00  0.00     0.060 A 
ATOM      9  N   UNL     1      -3.468   1.580   0.895  1.00  0.00    -0.263 N 
ATOM     10  C   UNL     1      -4.833   1.541   1.374  1.00  0.00     0.055 A 
ATOM     11  C   UNL     1      -3.446   2.801  -0.028  1.00  0.00     0.101 C 
ATOM     12  C   UNL     1      -5.335   0.795   2.431  1.00  0.00     0.028 A 
ATOM     13  C   UNL     1      -5.665   2.334   0.600  1.00  0.00    -0.021 A 
ATOM     14  C   UNL     1      -4.901   2.941  -0.545  1.00  0.00     0.063 C 
ATOM     15  C   UNL     1      -3.043   4.029   0.804  1.00  0.00     0.032 C 
ATOM     16  C   UNL     1      -6.706   0.868   2.745  1.00  0.00     0.018 A 
ATOM     17  C   UNL     1      -7.031   2.362   0.872  1.00  0.00     0.021 A 
BRANCH   9  18
ATOM     18  S   UNL     1      -3.007   0.105   0.093  1.00  0.00     0.264 S 
ATOM     19  O   UNL     1      -3.414   0.190  -1.295  1.00  0.00    -0.201 OA
ATOM     20  O   UNL     1      -3.398  -1.016   0.926  1.00  0.00    -0.201 OA
BRANCH  18  21
ATOM     21  C   UNL     1      -1.222   0.074   0.084  1.00  0.00     0.088 A 
ATOM     22  C   UNL     1       3.072  -0.263   0.039  1.00  0.00     0.044 C 
ATOM     23  C   UNL     1       1.576  -0.140   0.051  1.00  0.00    -0.051 A 
ATOM     24  C   UNL     1       0.781  -1.263  -0.199  1.00  0.00     0.005 A 
ATOM     25  C   UNL     1       0.957   1.081   0.349  1.00  0.00     0.005 A 
ATOM     26  C   UNL     1      -0.611  -1.157  -0.188  1.00  0.00     0.022 A 
ATOM     27  C   UNL     1      -0.438   1.190   0.372  1.00  0.00     0.022 A 
ENDBRANCH  18  21
ENDBRANCH   9  18
ENDBRANCH   6   8
ENDBRANCH   5   6
ENDBRANCH   4   5
ENDBRANCH   3   4
ENDBRANCH   2   3
ENDBRANCH   1   2
BRANCH   1  28
ATOM     28  C   UNL     1     -12.901   5.854   1.982  1.00  0.00     0.188 C 
BRANCH  28  29
ATOM     29  O   UNL     1     -11.932   5.371   2.894  1.00  0.00    -0.376 OA
BRANCH  29  30
ATOM     30  C   UNL     1     -11.741   6.150   4.060  1.00  0.00     0.202 C 
BRANCH  30  31
ATOM     31  C   UNL     1     -10.755   7.305   3.819  1.00  0.00     0.261 C 
BRANCH  31  32
ATOM     32  O   UNL     1      -9.550   6.805   3.182  1.00  0.00    -0.460 OA
BRANCH  32  33
ATOM     33  C   UNL     1      -9.381   7.069   1.846  1.00  0.00     0.338 C 
ATOM     34  O   UNL     1      -9.582   8.156   1.321  1.00  0.00    -0.246 OA
BRANCH  33  35
ATOM     35  C   UNL     1      -9.178   5.787   1.074  1.00  0.00     0.060 A 
ATOM     36  C   UNL     1      -9.255   5.647  -0.321  1.00  0.00     0.016 A 
ATOM     37  C   UNL     1      -9.342   4.639   1.774  1.00  0.00     0.016 A 
ATOM     38  C   UNL     1      -9.654   4.385  -0.953  1.00  0.00     0.010 A 
ATOM     39  C   UNL     1      -9.995   3.600   1.093  1.00  0.00     0.010 A 
ATOM     40  C   UNL     1     -10.140   3.280  -0.243  1.00  0.00    -0.014 A 
BRANCH  40  41
ATOM     41  C   UNL     1     -11.049   2.075  -0.752  1.00  0.00     0.031 A 
ATOM     42  C   UNL     1     -11.091   0.496  -0.485  1.00  0.00     0.074 A 
ATOM     43  C   UNL     1     -12.003   2.394  -1.658  1.00  0.00     0.049 A 
ATOM     44  N   UNL     1     -11.008  -0.425  -1.434  1.00  0.00    -0.248 NA
ATOM     45  C   UNL     1     -11.332  -0.212   0.794  1.00  0.00     0.031 C 
ATOM     46  C   UNL     1     -13.041   1.521  -2.208  1.00  0.00     0.029 A 
ATOM     47  N   UNL     1     -12.119   3.573  -2.404  1.00  0.00    -0.354 N 
ATOM     48  C   UNL     1     -11.154  -1.693  -0.848  1.00  0.00     0.074 A 
ATOM     49  C   UNL     1     -11.172  -1.507   0.548  1.00  0.00     0.031 C 
ATOM     50  C   UNL     1     -13.435   2.027  -3.385  1.00  0.00     0.029 A 
ATOM     51  C   UNL     1     -12.611   3.189  -3.660  1.00  0.00     0.049 A 
ATOM     52  H   UNL     1     -11.899   4.486  -2.108  1.00  0.00     0.167 HD
ATOM     53  C   UNL     1     -11.469  -2.867  -1.455  1.00  0.00     0.037 A 
ATOM     54  C   UNL     1     -11.925   3.445  -4.805  1.00  0.00     0.037 A 
ATOM     55  C   UNL     1     -12.018  -2.606  -2.744  1.00  0.00     0.049 A 
ATOM     56  C   UNL     1     -11.670   2.223  -5.649  1.00  0.00     0.074 A 
ATOM     57  C   UNL     1     -13.322  -2.377  -3.144  1.00  0.00     0.029 A 
ATOM     58  N   UNL     1     -11.188  -2.131  -3.731  1.00  0.00    -0.354 N 
ATOM     59  N   UNL     1     -11.764   0.998  -5.215  1.00  0.00    -0.248 NA
ATOM     60  C   UNL     1     -11.255   2.288  -7.045  1.00  0.00     0.031 C 
ATOM     61  C   UNL     1     -13.273  -1.738  -4.401  1.00  0.00     0.029 A 
ATOM     62  C   UNL     1     -11.944  -1.644  -4.770  1.00  0.00     0.049 A 
ATOM     63  H   UNL     1     -10.204  -2.137  -3.697  1.00  0.00     0.167 HD
ATOM     64  C   UNL     1     -11.375   0.130  -6.207  1.00  0.00     0.074 A 
ATOM     65  C   UNL     1     -11.105   0.986  -7.342  1.00  0.00     0.031 C 
ATOM     66  C   UNL     1     -11.285  -1.214  -5.980  1.00  0.00     0.037 A 
BRANCH  53  67
ATOM     67  C   UNL     1     -11.623  -4.152  -0.664  1.00  0.00     0.064 A 
ATOM     68  C   UNL     1     -12.786  -4.941  -0.710  1.00  0.00     0.173 A 
ATOM     69  C   UNL     1     -10.627  -4.590   0.240  1.00  0.00     0.173 A 
ATOM     70  F   UNL     1     -13.777  -4.663  -1.566  1.00  0.00    -0.203 F 
ATOM     71  C   UNL     1     -12.987  -6.017   0.163  1.00  0.00     0.198 A 
ATOM     72  C   UNL     1     -10.844  -5.644   1.137  1.00  0.00     0.198 A 
ATOM     73  F   UNL     1      -9.449  -3.951   0.311  1.00  0.00    -0.203 F 
ATOM     74  F   UNL     1     -14.135  -6.709   0.113  1.00  0.00    -0.200 F 
ATOM     75  C   UNL     1     -12.034  -6.346   1.109  1.00  0.00     0.200 A 
ATOM     76  F   UNL     1      -9.918  -5.945   2.060  1.00  0.00    -0.200 F 
ATOM     77  F   UNL     1     -12.268  -7.322   1.998  1.00  0.00    -0.200 F 
ENDBRANCH  53  67
BRANCH  54  78
ATOM     78  C   UNL     1     -11.062   4.659  -4.744  1.00  0.00     0.064 A 
ATOM     79  C   UNL     1     -11.674   5.897  -4.454  1.00  0.00     0.173 A 
ATOM     80  C   UNL     1      -9.667   4.594  -4.630  1.00  0.00     0.173 A 
ATOM     81  F   UNL     1     -13.009   6.019  -4.537  1.00  0.00    -0.203 F 
ATOM     82  C   UNL     1     -10.945   6.979  -3.966  1.00  0.00     0.198 A 
ATOM     83  C   UNL     1      -8.934   5.691  -4.158  1.00  0.00     0.198 A 
ATOM     84  F   UNL     1      -9.023   3.438  -4.838  1.00  0.00    -0.203 F 
ATOM     85  F   UNL     1     -11.581   8.096  -3.583  1.00  0.00    -0.200 F 
ATOM     86  C   UNL     1      -9.577   6.869  -3.800  1.00  0.00     0.200 A 
ATOM     87  F   UNL     1      -7.619   5.565  -3.922  1.00  0.00    -0.200 F 
ATOM     88  F   UNL     1      -8.889   7.865  -3.224  1.00  0.00    -0.200 F 
ENDBRANCH  54  78
BRANCH  66  89
ATOM     89  C   UNL     1     -10.620  -2.293  -6.816  1.00  0.00     0.064 A 
ATOM     90  C   UNL     1      -9.671  -2.050  -7.816  1.00  0.00     0.173 A 
ATOM     91  C   UNL     1     -10.813  -3.669  -6.495  1.00  0.00     0.173 A 
ATOM     92  F   UNL     1      -9.320  -0.808  -8.164  1.00  0.00    -0.203 F 
ATOM     93  C   UNL     1      -8.993  -3.090  -8.463  1.00  0.00     0.198 A 
ATOM     94  C   UNL     1     -10.081  -4.696  -7.088  1.00  0.00     0.198 A 
ATOM     95  F   UNL     1     -11.700  -4.071  -5.573  1.00  0.00    -0.203 F 
ATOM     96  F   UNL     1      -8.128  -2.801  -9.444  1.00  0.00    -0.200 F 
ATOM     97  C   UNL     1      -9.180  -4.407  -8.085  1.00  0.00     0.200 A 
ATOM     98  F   UNL     1     -10.245  -5.959  -6.669  1.00  0.00    -0.200 F 
ATOM     99  F   UNL     1      -8.484  -5.390  -8.670  1.00  0.00    -0.200 F 
ENDBRANCH  66  89
ENDBRANCH  40  41
ENDBRANCH  33  35
ENDBRANCH  32  33
ENDBRANCH  31  32
ENDBRANCH  30  31
ENDBRANCH  29  30
ENDBRANCH  28  29
ENDBRANCH   1  28
TORSDOF 19
