REMARK SMILES O=C(COc1cc2ccccc2cc1O)OCCOCCOCCOC(=O)c1ccc(-c2c3nc(c(-c4c(F)c(F)c(F)c(F)c4F)c4ccc([nH]4)c(-c4c(F)c(F)c(F)c(F)c4F)c4nc(c(-c5c(F)c(F)c(F)c(F)c5F)c5ccc2[nH]5)C=C4)C=C3)cc1
REMARK SMILES IDX 20 1 19 2 18 3 17 4 16 5 2 6 1 7 3 8 4 9 5 10 6 11 14 12
REMARK SMILES IDX 7 13 13 14 8 15 12 16 9 17 11 18 10 19 15 20 21 22 22 23
REMARK SMILES IDX 23 24 24 25 25 26 26 27 27 28 28 29 29 30 90 31 30 32 89 33
REMARK SMILES IDX 31 34 32 35 33 36 83 37 34 38 88 39 82 40 84 41 35 42 87 43
REMARK SMILES IDX 81 44 80 45 36 47 68 48 48 49 67 50 49 51 52 52 66 53 85 54
REMARK SMILES IDX 50 55 51 56 65 58 86 59 53 60 37 61 38 62 46 63 39 64 40 65
REMARK SMILES IDX 44 66 47 67 41 68 42 69 45 70 43 71 69 72 70 73 78 74 71 75
REMARK SMILES IDX 72 76 76 77 79 78 73 79 74 80 77 81 75 82 54 83 55 84 63 85
REMARK SMILES IDX 56 86 57 87 61 88 64 89 58 90 59 91 62 92 60 93
REMARK H PARENT 15 21 84 46 52 57
REMARK Flexibility Score: inf
ROOT
ATOM      1  C   UNL     1       2.877   0.262  -2.273  1.00  0.00     0.188 C 
ENDROOT
BRANCH   1   2
ATOM      2  O   UNL     1       4.023   0.351  -1.445  1.00  0.00    -0.376 OA
BRANCH   2   3
ATOM      3  C   UNL     1       4.712  -0.832  -1.131  1.00  0.00     0.202 C 
BRANCH   3   4
ATOM      4  C   UNL     1       3.956  -1.723  -0.144  1.00  0.00     0.261 C 
BRANCH   4   5
ATOM      5  O   UNL     1       2.688  -1.244   0.434  1.00  0.00    -0.461 OA
BRANCH   5   6
ATOM      6  C   UNL     1       2.121  -0.155   0.994  1.00  0.00     0.344 C 
ATOM      7  O   UNL     1       0.935  -0.248   1.332  1.00  0.00    -0.248 OA
BRANCH   6   8
ATOM      8  C   UNL     1       2.839   1.211   1.186  1.00  0.00     0.352 C 
BRANCH   8   9
ATOM      9  O   UNL     1       3.401   1.719   2.414  1.00  0.00    -0.478 OA
BRANCH   9  10
ATOM     10  C   UNL     1       4.224   0.864   3.077  1.00  0.00     0.162 A 
ATOM     11  C   UNL     1       4.935   1.196   4.214  1.00  0.00     0.059 A 
ATOM     12  C   UNL     1       4.625  -0.306   2.490  1.00  0.00     0.158 A 
ATOM     13  C   UNL     1       5.835   0.231   4.757  1.00  0.00    -0.014 A 
ATOM     14  C   UNL     1       5.016  -1.410   3.200  1.00  0.00     0.059 A 
ATOM     15  C   UNL     1       6.867   0.534   5.654  1.00  0.00     0.009 A 
ATOM     16  C   UNL     1       5.766  -1.114   4.301  1.00  0.00    -0.014 A 
ATOM     17  C   UNL     1       7.763  -0.465   6.069  1.00  0.00     0.001 A 
ATOM     18  C   UNL     1       6.581  -2.124   4.799  1.00  0.00     0.009 A 
ATOM     19  C   UNL     1       7.602  -1.792   5.669  1.00  0.00     0.001 A 
BRANCH  12  20
ATOM     20  O   UNL     1       5.414  -0.091   1.358  1.00  0.00    -0.504 OA
ATOM     21  H   UNL     1       5.238   0.637   0.795  1.00  0.00     0.293 HD
ENDBRANCH  12  20
ENDBRANCH   9  10
ENDBRANCH   8   9
ENDBRANCH   6   8
ENDBRANCH   5   6
ENDBRANCH   4   5
ENDBRANCH   3   4
ENDBRANCH   2   3
ENDBRANCH   1   2
BRANCH   1  22
ATOM     22  C   UNL     1       2.200  -1.077  -2.646  1.00  0.00     0.188 C 
BRANCH  22  23
ATOM     23  O   UNL     1       3.021  -2.217  -2.742  1.00  0.00    -0.376 OA
BRANCH  23  24
ATOM     24  C   UNL     1       3.791  -2.593  -3.860  1.00  0.00     0.202 C 
BRANCH  24  25
ATOM     25  C   UNL     1       4.286  -1.656  -4.971  1.00  0.00     0.261 C 
BRANCH  25  26
ATOM     26  O   UNL     1       3.830  -0.307  -4.976  1.00  0.00    -0.460 OA
BRANCH  26  27
ATOM     27  C   UNL     1       2.678  -0.072  -5.654  1.00  0.00     0.338 C 
ATOM     28  O   UNL     1       1.973  -0.889  -6.203  1.00  0.00    -0.246 OA
BRANCH  27  29
ATOM     29  C   UNL     1       2.310   1.350  -5.457  1.00  0.00     0.060 A 
ATOM     30  C   UNL     1       1.103   1.647  -4.808  1.00  0.00     0.016 A 
ATOM     31  C   UNL     1       3.157   2.376  -5.879  1.00  0.00     0.016 A 
ATOM     32  C   UNL     1       0.721   2.974  -4.613  1.00  0.00     0.010 A 
ATOM     33  C   UNL     1       2.756   3.705  -5.715  1.00  0.00     0.010 A 
ATOM     34  C   UNL     1       1.520   4.008  -5.114  1.00  0.00    -0.014 A 
BRANCH  34  35
ATOM     35  C   UNL     1       0.969   5.382  -5.206  1.00  0.00     0.031 A 
ATOM     36  C   UNL     1       0.371   5.816  -6.517  1.00  0.00     0.074 A 
ATOM     37  C   UNL     1       0.979   6.221  -4.156  1.00  0.00     0.049 A 
ATOM     38  N   UNL     1      -0.105   6.982  -6.872  1.00  0.00    -0.248 NA
ATOM     39  C   UNL     1       0.304   4.793  -7.574  1.00  0.00     0.031 C 
ATOM     40  C   UNL     1       1.480   5.902  -2.822  1.00  0.00     0.029 A 
ATOM     41  N   UNL     1       0.561   7.526  -4.057  1.00  0.00    -0.354 N 
ATOM     42  C   UNL     1      -0.516   6.835  -8.191  1.00  0.00     0.074 A 
ATOM     43  C   UNL     1      -0.210   5.477  -8.584  1.00  0.00     0.031 C 
ATOM     44  C   UNL     1       1.360   6.990  -2.040  1.00  0.00     0.029 A 
ATOM     45  C   UNL     1       0.809   8.091  -2.830  1.00  0.00     0.049 A 
ATOM     46  H   UNL     1       0.125   8.010  -4.795  1.00  0.00     0.167 HD
ATOM     47  C   UNL     1      -1.100   7.750  -8.998  1.00  0.00     0.037 A 
ATOM     48  C   UNL     1       0.639   9.361  -2.409  1.00  0.00     0.037 A 
ATOM     49  C   UNL     1      -1.405   9.099  -8.604  1.00  0.00     0.049 A 
ATOM     50  C   UNL     1       0.063  10.384  -3.359  1.00  0.00     0.074 A 
ATOM     51  C   UNL     1      -2.016  10.096  -9.343  1.00  0.00     0.029 A 
ATOM     52  N   UNL     1      -1.110   9.644  -7.363  1.00  0.00    -0.354 N 
ATOM     53  N   UNL     1      -0.349  10.232  -4.595  1.00  0.00    -0.248 NA
ATOM     54  C   UNL     1      -0.074  11.758  -2.852  1.00  0.00     0.031 C 
ATOM     55  C   UNL     1      -2.031  11.263  -8.574  1.00  0.00     0.029 A 
ATOM     56  C   UNL     1      -1.496  10.974  -7.329  1.00  0.00     0.049 A 
ATOM     57  H   UNL     1      -0.689   9.158  -6.617  1.00  0.00     0.167 HD
ATOM     58  C   UNL     1      -0.824  11.475  -4.997  1.00  0.00     0.074 A 
ATOM     59  C   UNL     1      -0.665  12.367  -3.869  1.00  0.00     0.031 C 
ATOM     60  C   UNL     1      -1.344  11.847  -6.193  1.00  0.00     0.037 A 
BRANCH  47  61
ATOM     61  C   UNL     1      -1.424   7.336 -10.405  1.00  0.00     0.064 A 
ATOM     62  C   UNL     1      -2.455   6.430 -10.692  1.00  0.00     0.173 A 
ATOM     63  C   UNL     1      -0.727   7.901 -11.484  1.00  0.00     0.173 A 
ATOM     64  F   UNL     1      -3.142   5.850  -9.696  1.00  0.00    -0.203 F 
ATOM     65  C   UNL     1      -2.766   6.093 -12.007  1.00  0.00     0.198 A 
ATOM     66  C   UNL     1      -1.060   7.585 -12.798  1.00  0.00     0.198 A 
ATOM     67  F   UNL     1       0.269   8.773 -11.264  1.00  0.00    -0.203 F 
ATOM     68  F   UNL     1      -3.729   5.195 -12.258  1.00  0.00    -0.200 F 
ATOM     69  C   UNL     1      -2.076   6.678 -13.058  1.00  0.00     0.200 A 
ATOM     70  F   UNL     1      -0.402   8.164 -13.812  1.00  0.00    -0.200 F 
ATOM     71  F   UNL     1      -2.387   6.365 -14.324  1.00  0.00    -0.200 F 
ENDBRANCH  47  61
BRANCH  48  72
ATOM     72  C   UNL     1       1.046   9.758  -1.032  1.00  0.00     0.064 A 
ATOM     73  C   UNL     1       0.101  10.194  -0.092  1.00  0.00     0.173 A 
ATOM     74  C   UNL     1       2.395   9.765  -0.646  1.00  0.00     0.173 A 
ATOM     75  F   UNL     1      -1.199  10.236  -0.420  1.00  0.00    -0.203 F 
ATOM     76  C   UNL     1       0.491  10.650   1.166  1.00  0.00     0.198 A 
ATOM     77  C   UNL     1       2.781  10.187   0.624  1.00  0.00     0.198 A 
ATOM     78  F   UNL     1       3.342   9.364  -1.507  1.00  0.00    -0.203 F 
ATOM     79  F   UNL     1      -0.427  11.126   2.018  1.00  0.00    -0.200 F 
ATOM     80  C   UNL     1       1.830  10.642   1.525  1.00  0.00     0.200 A 
ATOM     81  F   UNL     1       4.075  10.165   0.970  1.00  0.00    -0.200 F 
ATOM     82  F   UNL     1       2.206  11.085   2.732  1.00  0.00    -0.200 F 
ENDBRANCH  48  72
BRANCH  60  83
ATOM     83  C   UNL     1      -1.826  13.265  -6.333  1.00  0.00     0.064 A 
ATOM     84  C   UNL     1      -0.938  14.350  -6.364  1.00  0.00     0.173 A 
ATOM     85  C   UNL     1      -3.196  13.536  -6.481  1.00  0.00     0.173 A 
ATOM     86  F   UNL     1       0.380  14.149  -6.216  1.00  0.00    -0.203 F 
ATOM     87  C   UNL     1      -1.405  15.655  -6.506  1.00  0.00     0.198 A 
ATOM     88  C   UNL     1      -3.656  14.837  -6.660  1.00  0.00     0.198 A 
ATOM     89  F   UNL     1      -4.089  12.534  -6.470  1.00  0.00    -0.203 F 
ATOM     90  F   UNL     1      -0.543  16.680  -6.477  1.00  0.00    -0.200 F 
ATOM     91  C   UNL     1      -2.762  15.896  -6.662  1.00  0.00     0.200 A 
ATOM     92  F   UNL     1      -4.965  15.066  -6.831  1.00  0.00    -0.200 F 
ATOM     93  F   UNL     1      -3.208  17.151  -6.808  1.00  0.00    -0.200 F 
ENDBRANCH  60  83
ENDBRANCH  34  35
ENDBRANCH  27  29
ENDBRANCH  26  27
ENDBRANCH  25  26
ENDBRANCH  24  25
ENDBRANCH  23  24
ENDBRANCH  22  23
ENDBRANCH   1  22
TORSDOF 20
