REMARK SMILES CC1=C2C(CSc3c(Cl)cccc3Cl)=CC(=O)N=C2S[C@H]1C(=O)OCCOCCOCCOC(=O)c1ccc(-c2c3nc(c(-c4c(F)c(F)c(F)c(F)c4F)c4ccc([nH]4)c(-c4c(F)c(F)c(F)c(F)c4F)c4nc(c(-c5c(F)c(F)c(F)c(F)c5F)c5ccc2[nH]5)C=C4)C=C3)cc1
REMARK SMILES IDX 28 1 27 2 26 3 25 4 24 5 22 6 23 7 21 8 1 9 2 10 3 11 4 12
REMARK SMILES IDX 19 13 20 14 15 15 18 16 16 17 17 18 5 19 6 20 7 21 8 22
REMARK SMILES IDX 13 23 9 24 10 25 12 26 14 27 11 28 29 29 30 30 31 31 32 32
REMARK SMILES IDX 33 33 34 34 35 35 36 36 37 37 98 38 38 39 97 40 39 41 40 42
REMARK SMILES IDX 41 43 91 44 42 45 96 46 90 47 92 48 43 49 95 50 89 51 88 52
REMARK SMILES IDX 44 54 76 55 56 56 75 57 57 58 60 59 74 60 93 61 58 62 59 63
REMARK SMILES IDX 73 65 94 66 61 67 45 68 46 69 54 70 47 71 48 72 52 73 55 74
REMARK SMILES IDX 49 75 50 76 53 77 51 78 77 79 78 80 86 81 79 82 80 83 84 84
REMARK SMILES IDX 87 85 81 86 82 87 85 88 83 89 62 90 63 91 71 92 64 93 65 94
REMARK SMILES IDX 69 95 72 96 66 97 67 98 70 99 68 100
REMARK H PARENT 92 53 60 64
REMARK Flexibility Score: inf
ROOT
ATOM      1  C   UNL     1       1.784   2.123   4.062  1.00  0.00     0.188 C 
ENDROOT
BRANCH   1   2
ATOM      2  O   UNL     1       1.516   2.443   5.422  1.00  0.00    -0.376 OA
BRANCH   2   3
ATOM      3  C   UNL     1       1.079   1.405   6.292  1.00  0.00     0.202 C 
BRANCH   3   4
ATOM      4  C   UNL     1      -0.322   0.857   6.011  1.00  0.00     0.261 C 
BRANCH   4   5
ATOM      5  O   UNL     1      -0.396  -0.001   4.852  1.00  0.00    -0.462 OA
BRANCH   5   6
ATOM      6  C   UNL     1      -1.153   0.406   3.793  1.00  0.00     0.323 C 
ATOM      7  O   UNL     1      -1.620   1.534   3.674  1.00  0.00    -0.251 OA
BRANCH   6   8
ATOM      8  C   UNL     1      -1.306  -0.671   2.697  1.00  0.00     0.189 C 
ATOM      9  C   UNL     1       0.071   0.276   0.750  1.00  0.00     0.042 C 
ATOM     10  C   UNL     1      -0.113  -0.815   1.760  1.00  0.00    -0.039 C 
ATOM     11  C   UNL     1       0.658  -1.906   1.936  1.00  0.00     0.012 C 
ATOM     12  C   UNL     1       1.833  -2.469   1.281  1.00  0.00    -0.022 C 
ATOM     13  C   UNL     1       0.143  -2.717   3.070  1.00  0.00     0.109 C 
ATOM     14  S   UNL     1      -1.509  -2.323   3.438  1.00  0.00    -0.086 SA
ATOM     15  C   UNL     1       2.509  -3.387   2.004  1.00  0.00     0.079 C 
ATOM     16  N   UNL     1       0.795  -3.601   3.732  1.00  0.00    -0.202 NA
ATOM     17  C   UNL     1       2.111  -3.780   3.388  1.00  0.00     0.271 C 
ATOM     18  O   UNL     1       2.943  -4.303   4.121  1.00  0.00    -0.267 OA
BRANCH  12  19
ATOM     19  C   UNL     1       2.129  -2.151  -0.170  1.00  0.00     0.111 C 
BRANCH  19  20
ATOM     20  S   UNL     1       3.758  -2.682  -0.810  1.00  0.00    -0.118 SA
BRANCH  20  21
ATOM     21  C   UNL     1       4.790  -1.204  -0.642  1.00  0.00     0.045 A 
ATOM     22  C   UNL     1       5.950  -1.241   0.165  1.00  0.00     0.056 A 
ATOM     23  C   UNL     1       4.583  -0.040  -1.415  1.00  0.00     0.056 A 
ATOM     24  Cl  UNL     1       6.317  -2.571   1.218  1.00  0.00    -0.083 Cl
ATOM     25  C   UNL     1       6.865  -0.173   0.182  1.00  0.00     0.022 A 
ATOM     26  C   UNL     1       5.489   1.034  -1.374  1.00  0.00     0.022 A 
ATOM     27  Cl  UNL     1       3.239   0.157  -2.493  1.00  0.00    -0.083 Cl
ATOM     28  C   UNL     1       6.635   0.965  -0.586  1.00  0.00     0.003 A 
ENDBRANCH  20  21
ENDBRANCH  19  20
ENDBRANCH  12  19
ENDBRANCH   6   8
ENDBRANCH   5   6
ENDBRANCH   4   5
ENDBRANCH   3   4
ENDBRANCH   2   3
ENDBRANCH   1   2
BRANCH   1  29
ATOM     29  C   UNL     1       2.371   0.742   3.749  1.00  0.00     0.188 C 
BRANCH  29  30
ATOM     30  O   UNL     1       3.286   0.306   4.738  1.00  0.00    -0.376 OA
BRANCH  30  31
ATOM     31  C   UNL     1       4.604   0.034   4.301  1.00  0.00     0.202 C 
BRANCH  31  32
ATOM     32  C   UNL     1       5.479   1.294   4.359  1.00  0.00     0.261 C 
BRANCH  32  33
ATOM     33  O   UNL     1       5.091   2.419   3.537  1.00  0.00    -0.460 OA
BRANCH  33  34
ATOM     34  C   UNL     1       4.825   2.155   2.245  1.00  0.00     0.338 C 
ATOM     35  O   UNL     1       4.804   1.056   1.723  1.00  0.00    -0.246 OA
BRANCH  34  36
ATOM     36  C   UNL     1       4.382   3.343   1.504  1.00  0.00     0.060 A 
ATOM     37  C   UNL     1       3.291   3.188   0.637  1.00  0.00     0.016 A 
ATOM     38  C   UNL     1       5.061   4.557   1.584  1.00  0.00     0.016 A 
ATOM     39  C   UNL     1       2.871   4.250  -0.156  1.00  0.00     0.010 A 
ATOM     40  C   UNL     1       4.643   5.621   0.783  1.00  0.00     0.010 A 
ATOM     41  C   UNL     1       3.547   5.473  -0.087  1.00  0.00    -0.014 A 
BRANCH  41  42
ATOM     42  C   UNL     1       3.083   6.627  -0.885  1.00  0.00     0.031 A 
ATOM     43  C   UNL     1       3.786   7.011  -2.148  1.00  0.00     0.074 A 
ATOM     44  C   UNL     1       2.041   7.344  -0.430  1.00  0.00     0.049 A 
ATOM     45  N   UNL     1       3.638   8.083  -2.883  1.00  0.00    -0.248 NA
ATOM     46  C   UNL     1       4.787   6.062  -2.658  1.00  0.00     0.031 C 
ATOM     47  C   UNL     1       1.251   7.017   0.757  1.00  0.00     0.029 A 
ATOM     48  N   UNL     1       1.487   8.509  -0.894  1.00  0.00    -0.354 N 
ATOM     49  C   UNL     1       4.533   7.948  -3.935  1.00  0.00     0.074 A 
ATOM     50  C   UNL     1       5.226   6.691  -3.741  1.00  0.00     0.031 C 
ATOM     51  C   UNL     1       0.335   7.978   0.949  1.00  0.00     0.029 A 
ATOM     52  C   UNL     1       0.514   9.011  -0.066  1.00  0.00     0.049 A 
ATOM     53  H   UNL     1       1.760   8.942  -1.735  1.00  0.00     0.167 HD
ATOM     54  C   UNL     1       4.752   8.805  -4.961  1.00  0.00     0.037 A 
ATOM     55  C   UNL     1      -0.118  10.199  -0.092  1.00  0.00     0.037 A 
ATOM     56  C   UNL     1       4.057  10.057  -5.127  1.00  0.00     0.049 A 
ATOM     57  C   UNL     1       0.221  11.180  -1.179  1.00  0.00     0.074 A 
ATOM     58  C   UNL     1       4.189  10.992  -6.139  1.00  0.00     0.029 A 
ATOM     59  N   UNL     1       3.105  10.555  -4.247  1.00  0.00    -0.354 N 
ATOM     60  N   UNL     1       1.067  11.052  -2.172  1.00  0.00    -0.248 NA
ATOM     61  C   UNL     1      -0.473  12.473  -1.144  1.00  0.00     0.031 C 
ATOM     62  C   UNL     1       3.359  12.079  -5.843  1.00  0.00     0.029 A 
ATOM     63  C   UNL     1       2.670  11.800  -4.673  1.00  0.00     0.049 A 
ATOM     64  H   UNL     1       2.786  10.092  -3.439  1.00  0.00     0.167 HD
ATOM     65  C   UNL     1       1.001  12.239  -2.887  1.00  0.00     0.074 A 
ATOM     66  C   UNL     1       0.014  13.068  -2.224  1.00  0.00     0.031 C 
ATOM     67  C   UNL     1       1.696  12.613  -3.989  1.00  0.00     0.037 A 
BRANCH  54  68
ATOM     68  C   UNL     1       5.809   8.444  -5.963  1.00  0.00     0.064 A 
ATOM     69  C   UNL     1       5.620   7.420  -6.902  1.00  0.00     0.173 A 
ATOM     70  C   UNL     1       7.010   9.169  -6.017  1.00  0.00     0.173 A 
ATOM     71  F   UNL     1       4.496   6.688  -6.886  1.00  0.00    -0.203 F 
ATOM     72  C   UNL     1       6.601   7.124  -7.847  1.00  0.00     0.198 A 
ATOM     73  C   UNL     1       7.977   8.887  -6.978  1.00  0.00     0.198 A 
ATOM     74  F   UNL     1       7.240  10.161  -5.143  1.00  0.00    -0.203 F 
ATOM     75  F   UNL     1       6.415   6.117  -8.711  1.00  0.00    -0.200 F 
ATOM     76  C   UNL     1       7.775   7.862  -7.888  1.00  0.00     0.200 A 
ATOM     77  F   UNL     1       9.106   9.609  -7.022  1.00  0.00    -0.200 F 
ATOM     78  F   UNL     1       8.714   7.581  -8.802  1.00  0.00    -0.200 F 
ENDBRANCH  54  68
BRANCH  55  79
ATOM     79  C   UNL     1      -1.092  10.538   0.977  1.00  0.00     0.064 A 
ATOM     80  C   UNL     1      -2.459  10.655   0.699  1.00  0.00     0.173 A 
ATOM     81  C   UNL     1      -0.675  10.741   2.302  1.00  0.00     0.173 A 
ATOM     82  F   UNL     1      -2.902  10.496  -0.557  1.00  0.00    -0.203 F 
ATOM     83  C   UNL     1      -3.373  10.971   1.703  1.00  0.00     0.198 A 
ATOM     84  C   UNL     1      -1.592  11.027   3.311  1.00  0.00     0.198 A 
ATOM     85  F   UNL     1       0.624  10.643   2.620  1.00  0.00    -0.203 F 
ATOM     86  F   UNL     1      -4.670  11.116   1.403  1.00  0.00    -0.200 F 
ATOM     87  C   UNL     1      -2.940  11.148   3.009  1.00  0.00     0.200 A 
ATOM     88  F   UNL     1      -1.170  11.185   4.572  1.00  0.00    -0.200 F 
ATOM     89  F   UNL     1      -3.820  11.442   3.975  1.00  0.00    -0.200 F 
ENDBRANCH  55  79
BRANCH  67  90
ATOM     90  C   UNL     1       1.402  13.974  -4.549  1.00  0.00     0.064 A 
ATOM     91  C   UNL     1       1.841  15.139  -3.903  1.00  0.00     0.173 A 
ATOM     92  C   UNL     1       0.700  14.113  -5.755  1.00  0.00     0.173 A 
ATOM     93  F   UNL     1       2.499  15.058  -2.737  1.00  0.00    -0.203 F 
ATOM     94  C   UNL     1       1.567  16.397  -4.435  1.00  0.00     0.198 A 
ATOM     95  C   UNL     1       0.453  15.371  -6.298  1.00  0.00     0.198 A 
ATOM     96  F   UNL     1       0.263  13.029  -6.412  1.00  0.00    -0.203 F 
ATOM     97  F   UNL     1       1.955  17.498  -3.778  1.00  0.00    -0.200 F 
ATOM     98  C   UNL     1       0.880  16.511  -5.634  1.00  0.00     0.200 A 
ATOM     99  F   UNL     1      -0.200  15.479  -7.463  1.00  0.00    -0.200 F 
ATOM    100  F   UNL     1       0.623  17.722  -6.147  1.00  0.00    -0.200 F 
ENDBRANCH  67  90
ENDBRANCH  41  42
ENDBRANCH  34  36
ENDBRANCH  33  34
ENDBRANCH  32  33
ENDBRANCH  31  32
ENDBRANCH  30  31
ENDBRANCH  29  30
ENDBRANCH   1  29
TORSDOF 20
