REMARK SMILES C[C@@H]1CCC[C@H](NC(=O)N(C)CC(=O)OCCOCCOCCOC(=O)c2ccc(-c3c4nc(c(-c5c(F)c(F)c(F)c(F)c5F)c5ccc([nH]5)c(-c5c(F)c(F)c(F)c(F)c5F)c5nc(c(-c6c(F)c(F)c(F)c(F)c6F)c6ccc3[nH]6)C=C5)C=C4)cc2)C1
REMARK SMILES IDX 19 1 18 2 17 3 16 4 15 5 13 6 14 7 12 8 10 9 11 10 8 11 7 12
REMARK SMILES IDX 9 14 6 15 1 16 2 17 3 18 90 19 4 20 5 21 20 22 21 23 22 24
REMARK SMILES IDX 23 25 24 26 25 27 26 28 27 29 28 30 89 31 29 32 88 33 30 34
REMARK SMILES IDX 31 35 32 36 82 37 33 38 87 39 81 40 83 41 34 42 86 43 80 44
REMARK SMILES IDX 79 45 35 47 67 48 47 49 66 50 48 51 51 52 65 53 84 54 49 55
REMARK SMILES IDX 50 56 64 58 85 59 52 60 36 61 37 62 45 63 38 64 39 65 43 66
REMARK SMILES IDX 46 67 40 68 41 69 44 70 42 71 68 72 69 73 77 74 70 75 71 76
REMARK SMILES IDX 75 77 78 78 72 79 73 80 76 81 74 82 53 83 54 84 62 85 55 86
REMARK SMILES IDX 56 87 60 88 63 89 57 90 58 91 61 92 59 93
REMARK H PARENT 7 13 83 46 51 57
REMARK Flexibility Score: inf
ROOT
ATOM      1  C   UNL     1      -1.108  -4.514   4.949  1.00  0.00     0.188 C 
ENDROOT
BRANCH   1   2
ATOM      2  O   UNL     1      -0.870  -5.867   5.345  1.00  0.00    -0.376 OA
BRANCH   2   3
ATOM      3  C   UNL     1      -0.268  -6.739   4.397  1.00  0.00     0.202 C 
BRANCH   3   4
ATOM      4  C   UNL     1      -1.192  -7.207   3.272  1.00  0.00     0.261 C 
BRANCH   4   5
ATOM      5  O   UNL     1      -1.727  -6.109   2.506  1.00  0.00    -0.462 OA
BRANCH   5   6
ATOM      6  C   UNL     1      -3.084  -6.027   2.449  1.00  0.00     0.325 C 
ATOM      7  O   UNL     1      -3.851  -6.849   2.942  1.00  0.00    -0.250 OA
BRANCH   6   8
ATOM      8  C   UNL     1      -3.603  -4.810   1.675  1.00  0.00     0.243 C 
BRANCH   8   9
ATOM      9  N   UNL     1      -2.657  -3.853   1.067  1.00  0.00    -0.317 N 
ATOM     10  C   UNL     1      -2.044  -4.298  -0.169  1.00  0.00     0.149 C 
BRANCH   9  11
ATOM     11  C   UNL     1      -2.459  -2.669   1.714  1.00  0.00     0.317 C 
ATOM     12  N   UNL     1      -1.851  -1.603   1.159  1.00  0.00    -0.335 N 
ATOM     13  H   UNL     1      -1.637  -0.912   1.828  1.00  0.00     0.165 HD
ATOM     14  O   UNL     1      -2.851  -2.506   2.874  1.00  0.00    -0.249 OA
BRANCH  12  15
ATOM     15  C   UNL     1      -1.427  -1.212  -0.186  1.00  0.00     0.084 C 
ATOM     16  C   UNL     1       1.071  -0.049   1.701  1.00  0.00     0.008 C 
ATOM     17  C   UNL     1       0.875  -0.021   0.190  1.00  0.00    -0.012 C 
ATOM     18  C   UNL     1       0.230   1.293  -0.252  1.00  0.00     0.003 C 
ATOM     19  C   UNL     1       0.106  -1.252  -0.333  1.00  0.00     0.028 C 
ATOM     20  C   UNL     1      -1.259   1.343   0.066  1.00  0.00     0.002 C 
ATOM     21  C   UNL     1      -1.998   0.166  -0.567  1.00  0.00     0.025 C 
ENDBRANCH  12  15
ENDBRANCH   9  11
ENDBRANCH   8   9
ENDBRANCH   6   8
ENDBRANCH   5   6
ENDBRANCH   4   5
ENDBRANCH   3   4
ENDBRANCH   2   3
ENDBRANCH   1   2
BRANCH   1  22
ATOM     22  C   UNL     1      -0.123  -3.867   3.967  1.00  0.00     0.188 C 
BRANCH  22  23
ATOM     23  O   UNL     1       1.226  -4.119   4.367  1.00  0.00    -0.376 OA
BRANCH  23  24
ATOM     24  C   UNL     1       2.065  -2.974   4.307  1.00  0.00     0.202 C 
BRANCH  24  25
ATOM     25  C   UNL     1       2.178  -2.333   5.688  1.00  0.00     0.261 C 
BRANCH  25  26
ATOM     26  O   UNL     1       0.905  -1.975   6.258  1.00  0.00    -0.460 OA
BRANCH  26  27
ATOM     27  C   UNL     1       0.295  -0.896   5.722  1.00  0.00     0.338 C 
ATOM     28  O   UNL     1       0.707  -0.190   4.820  1.00  0.00    -0.246 OA
BRANCH  27  29
ATOM     29  C   UNL     1      -1.031  -0.744   6.350  1.00  0.00     0.060 A 
ATOM     30  C   UNL     1      -2.164  -0.672   5.535  1.00  0.00     0.016 A 
ATOM     31  C   UNL     1      -1.148  -0.618   7.736  1.00  0.00     0.016 A 
ATOM     32  C   UNL     1      -3.422  -0.452   6.103  1.00  0.00     0.010 A 
ATOM     33  C   UNL     1      -2.403  -0.381   8.302  1.00  0.00     0.010 A 
ATOM     34  C   UNL     1      -3.543  -0.270   7.487  1.00  0.00    -0.014 A 
BRANCH  34  35
ATOM     35  C   UNL     1      -4.826   0.187   8.076  1.00  0.00     0.031 A 
ATOM     36  C   UNL     1      -5.002   1.649   8.381  1.00  0.00     0.074 A 
ATOM     37  C   UNL     1      -5.819  -0.678   8.345  1.00  0.00     0.049 A 
ATOM     38  N   UNL     1      -5.990   2.263   8.980  1.00  0.00    -0.248 NA
ATOM     39  C   UNL     1      -3.911   2.538   7.952  1.00  0.00     0.031 C 
ATOM     40  C   UNL     1      -5.794  -2.110   8.059  1.00  0.00     0.029 A 
ATOM     41  N   UNL     1      -7.043  -0.471   8.934  1.00  0.00    -0.354 N 
ATOM     42  C   UNL     1      -5.637   3.606   9.009  1.00  0.00     0.074 A 
ATOM     43  C   UNL     1      -4.334   3.716   8.388  1.00  0.00     0.031 C 
ATOM     44  C   UNL     1      -6.947  -2.658   8.483  1.00  0.00     0.029 A 
ATOM     45  C   UNL     1      -7.773  -1.621   9.101  1.00  0.00     0.049 A 
ATOM     46  H   UNL     1      -7.365   0.417   9.210  1.00  0.00     0.167 HD
ATOM     47  C   UNL     1      -6.337   4.654   9.504  1.00  0.00     0.037 A 
ATOM     48  C   UNL     1      -8.962  -1.815   9.705  1.00  0.00     0.037 A 
ATOM     49  C   UNL     1      -7.632   4.550  10.122  1.00  0.00     0.049 A 
ATOM     50  C   UNL     1      -9.690  -0.643  10.311  1.00  0.00     0.074 A 
ATOM     51  C   UNL     1      -8.422   5.557  10.649  1.00  0.00     0.029 A 
ATOM     52  N   UNL     1      -8.328   3.363  10.298  1.00  0.00    -0.354 N 
ATOM     53  N   UNL     1      -9.353   0.624  10.333  1.00  0.00    -0.248 NA
ATOM     54  C   UNL     1     -10.967  -0.931  10.982  1.00  0.00     0.031 C 
ATOM     55  C   UNL     1      -9.579   4.975  11.179  1.00  0.00     0.029 A 
ATOM     56  C   UNL     1      -9.529   3.610  10.943  1.00  0.00     0.049 A 
ATOM     57  H   UNL     1      -8.014   2.476  10.008  1.00  0.00     0.167 HD
ATOM     58  C   UNL     1     -10.381   1.284  10.994  1.00  0.00     0.074 A 
ATOM     59  C   UNL     1     -11.362   0.280  11.348  1.00  0.00     0.031 C 
ATOM     60  C   UNL     1     -10.500   2.603  11.283  1.00  0.00     0.037 A 
BRANCH  47  61
ATOM     61  C   UNL     1      -5.699   6.008   9.419  1.00  0.00     0.064 A 
ATOM     62  C   UNL     1      -5.595   6.695   8.200  1.00  0.00     0.173 A 
ATOM     63  C   UNL     1      -5.208   6.635  10.573  1.00  0.00     0.173 A 
ATOM     64  F   UNL     1      -6.035   6.129   7.066  1.00  0.00    -0.203 F 
ATOM     65  C   UNL     1      -5.002   7.953   8.138  1.00  0.00     0.198 A 
ATOM     66  C   UNL     1      -4.638   7.903  10.511  1.00  0.00     0.198 A 
ATOM     67  F   UNL     1      -5.286   6.020  11.763  1.00  0.00    -0.203 F 
ATOM     68  F   UNL     1      -4.874   8.574   6.957  1.00  0.00    -0.200 F 
ATOM     69  C   UNL     1      -4.529   8.558   9.293  1.00  0.00     0.200 A 
ATOM     70  F   UNL     1      -4.190   8.491  11.629  1.00  0.00    -0.200 F 
ATOM     71  F   UNL     1      -3.962   9.771   9.232  1.00  0.00    -0.200 F 
ENDBRANCH  47  61
BRANCH  48  72
ATOM     72  C   UNL     1      -9.540  -3.181   9.783  1.00  0.00     0.064 A 
ATOM     73  C   UNL     1     -10.688  -3.522   9.053  1.00  0.00     0.173 A 
ATOM     74  C   UNL     1      -8.976  -4.164  10.610  1.00  0.00     0.173 A 
ATOM     75  F   UNL     1     -11.283  -2.605   8.276  1.00  0.00    -0.203 F 
ATOM     76  C   UNL     1     -11.257  -4.789   9.157  1.00  0.00     0.198 A 
ATOM     77  C   UNL     1      -9.531  -5.439  10.693  1.00  0.00     0.198 A 
ATOM     78  F   UNL     1      -7.886  -3.884  11.338  1.00  0.00    -0.203 F 
ATOM     79  F   UNL     1     -12.381  -5.074   8.486  1.00  0.00    -0.200 F 
ATOM     80  C   UNL     1     -10.675  -5.748   9.973  1.00  0.00     0.200 A 
ATOM     81  F   UNL     1      -8.965  -6.364  11.481  1.00  0.00    -0.200 F 
ATOM     82  F   UNL     1     -11.225  -6.966  10.075  1.00  0.00    -0.200 F 
ENDBRANCH  48  72
BRANCH  60  83
ATOM     83  C   UNL     1     -11.749   3.045  11.988  1.00  0.00     0.064 A 
ATOM     84  C   UNL     1     -11.963   2.770  13.346  1.00  0.00     0.173 A 
ATOM     85  C   UNL     1     -12.726   3.786  11.305  1.00  0.00     0.173 A 
ATOM     86  F   UNL     1     -11.065   2.053  14.039  1.00  0.00    -0.203 F 
ATOM     87  C   UNL     1     -13.120   3.202  13.990  1.00  0.00     0.198 A 
ATOM     88  C   UNL     1     -13.869   4.238  11.958  1.00  0.00     0.198 A 
ATOM     89  F   UNL     1     -12.566   4.081  10.006  1.00  0.00    -0.203 F 
ATOM     90  F   UNL     1     -13.323   2.893  15.278  1.00  0.00    -0.200 F 
ATOM     91  C   UNL     1     -14.068   3.940  13.297  1.00  0.00     0.200 A 
ATOM     92  F   UNL     1     -14.779   4.961  11.291  1.00  0.00    -0.200 F 
ATOM     93  F   UNL     1     -15.179   4.359  13.920  1.00  0.00    -0.200 F 
ENDBRANCH  60  83
ENDBRANCH  34  35
ENDBRANCH  27  29
ENDBRANCH  26  27
ENDBRANCH  25  26
ENDBRANCH  24  25
ENDBRANCH  23  24
ENDBRANCH  22  23
ENDBRANCH   1  22
TORSDOF 20
