REMARK SMILES O=C(OCCOCCOCCOC(=O)[C@@H]1[C@H](C(=O)NCc2ccncc2)[C@H]2C=C[C@@H]1O2)c1ccc(-c2c3nc(c(-c4c(F)c(F)c(F)c(F)c4F)c4ccc([nH]4)c(-c4c(F)c(F)c(F)c(F)c4F)c4nc(c(-c5c(F)c(F)c(F)c(F)c5F)c5ccc2[nH]5)C=C4)C=C3)cc1
REMARK SMILES IDX 8 1 7 2 6 3 5 4 4 5 3 6 2 7 1 8 32 9 33 10 94 11 34 12 93 13
REMARK SMILES IDX 35 14 36 15 37 16 87 17 38 18 92 19 86 20 88 21 39 22 91 23
REMARK SMILES IDX 85 24 84 25 40 27 72 28 52 29 71 30 53 31 56 32 70 33 89 34
REMARK SMILES IDX 54 35 55 36 69 38 90 39 57 40 41 41 42 42 50 43 43 44 44 45
REMARK SMILES IDX 48 46 51 47 45 48 46 49 49 50 47 51 73 52 74 53 82 54 75 55
REMARK SMILES IDX 76 56 80 57 83 58 77 59 78 60 81 61 79 62 58 63 59 64 67 65
REMARK SMILES IDX 60 66 61 67 65 68 68 69 62 70 63 71 66 72 64 73 9 74 10 75
REMARK SMILES IDX 11 76 12 77 13 78 14 79 15 80 16 81 30 82 27 83 29 84 31 85
REMARK SMILES IDX 28 86 17 87 18 88 19 89 20 91 21 92 22 93 26 94 23 95 25 96
REMARK SMILES IDX 24 97
REMARK H PARENT 88 26 56 37 19 90
REMARK Flexibility Score: inf
ROOT
ATOM      1  C   UNL     1       2.197   0.104   2.881  1.00  0.00     0.188 C 
ENDROOT
BRANCH   1   2
ATOM      2  C   UNL     1       2.619   0.745   1.565  1.00  0.00     0.188 C 
BRANCH   2   3
ATOM      3  O   UNL     1       3.887   0.247   1.128  1.00  0.00    -0.376 OA
BRANCH   3   4
ATOM      4  C   UNL     1       4.725   1.256   0.560  1.00  0.00     0.202 C 
BRANCH   4   5
ATOM      5  C   UNL     1       4.365   1.633  -0.883  1.00  0.00     0.261 C 
BRANCH   5   6
ATOM      6  O   UNL     1       2.990   1.379  -1.219  1.00  0.00    -0.460 OA
BRANCH   6   7
ATOM      7  C   UNL     1       2.456   0.299  -1.843  1.00  0.00     0.338 C 
ATOM      8  O   UNL     1       1.300   0.378  -2.256  1.00  0.00    -0.246 OA
BRANCH   7   9
ATOM      9  C   UNL     1       3.179  -0.996  -2.058  1.00  0.00     0.060 A 
ATOM     10  C   UNL     1       4.309  -1.415  -1.357  1.00  0.00     0.016 A 
ATOM     11  C   UNL     1       2.633  -1.894  -2.994  1.00  0.00     0.016 A 
ATOM     12  C   UNL     1       4.914  -2.642  -1.596  1.00  0.00     0.010 A 
ATOM     13  C   UNL     1       3.218  -3.146  -3.227  1.00  0.00     0.010 A 
ATOM     14  C   UNL     1       4.378  -3.514  -2.536  1.00  0.00    -0.014 A 
BRANCH  14  15
ATOM     15  C   UNL     1       5.144  -4.729  -2.871  1.00  0.00     0.031 A 
ATOM     16  C   UNL     1       5.945  -4.731  -4.133  1.00  0.00     0.074 A 
ATOM     17  C   UNL     1       5.253  -5.738  -1.989  1.00  0.00     0.049 A 
ATOM     18  N   UNL     1       6.654  -5.691  -4.657  1.00  0.00    -0.248 NA
ATOM     19  C   UNL     1       5.989  -3.463  -4.883  1.00  0.00     0.031 C 
ATOM     20  C   UNL     1       4.681  -5.737  -0.645  1.00  0.00     0.029 A 
ATOM     21  N   UNL     1       5.894  -6.946  -2.072  1.00  0.00    -0.354 N 
ATOM     22  C   UNL     1       7.227  -5.148  -5.796  1.00  0.00     0.074 A 
ATOM     23  C   UNL     1       6.776  -3.779  -5.899  1.00  0.00     0.031 C 
ATOM     24  C   UNL     1       4.977  -6.897  -0.038  1.00  0.00     0.029 A 
ATOM     25  C   UNL     1       5.671  -7.753  -0.983  1.00  0.00     0.049 A 
ATOM     26  H   UNL     1       6.458  -7.209  -2.836  1.00  0.00     0.167 HD
ATOM     27  C   UNL     1       8.060  -5.753  -6.671  1.00  0.00     0.037 A 
ATOM     28  C   UNL     1       5.934  -9.060  -0.803  1.00  0.00     0.037 A 
ATOM     29  C   UNL     1       8.486  -7.119  -6.544  1.00  0.00     0.049 A 
ATOM     30  C   UNL     1       6.682  -9.773  -1.889  1.00  0.00     0.074 A 
ATOM     31  C   UNL     1       9.294  -7.856  -7.388  1.00  0.00     0.029 A 
ATOM     32  N   UNL     1       8.122  -7.957  -5.497  1.00  0.00    -0.354 N 
ATOM     33  N   UNL     1       7.171  -9.282  -3.003  1.00  0.00    -0.248 NA
ATOM     34  C   UNL     1       6.922 -11.207  -1.702  1.00  0.00     0.031 C 
ATOM     35  C   UNL     1       9.372  -9.158  -6.881  1.00  0.00     0.029 A 
ATOM     36  C   UNL     1       8.656  -9.218  -5.694  1.00  0.00     0.049 A 
ATOM     37  H   UNL     1       7.567  -7.692  -4.729  1.00  0.00     0.167 HD
ATOM     38  C   UNL     1       7.803 -10.337  -3.637  1.00  0.00     0.074 A 
ATOM     39  C   UNL     1       7.639 -11.495  -2.779  1.00  0.00     0.031 C 
ATOM     40  C   UNL     1       8.468 -10.346  -4.818  1.00  0.00     0.037 A 
BRANCH  27  41
ATOM     41  C   UNL     1       8.491  -4.958  -7.864  1.00  0.00     0.064 A 
ATOM     42  C   UNL     1       9.436  -3.926  -7.769  1.00  0.00     0.173 A 
ATOM     43  C   UNL     1       7.935  -5.230  -9.122  1.00  0.00     0.173 A 
ATOM     44  F   UNL     1       9.970  -3.606  -6.581  1.00  0.00    -0.203 F 
ATOM     45  C   UNL     1       9.799  -3.186  -8.892  1.00  0.00     0.198 A 
ATOM     46  C   UNL     1       8.316  -4.503 -10.245  1.00  0.00     0.198 A 
ATOM     47  F   UNL     1       7.014  -6.196  -9.259  1.00  0.00    -0.203 F 
ATOM     48  F   UNL     1      10.671  -2.175  -8.774  1.00  0.00    -0.200 F 
ATOM     49  C   UNL     1       9.244  -3.479 -10.129  1.00  0.00     0.200 A 
ATOM     50  F   UNL     1       7.776  -4.786 -11.439  1.00  0.00    -0.200 F 
ATOM     51  F   UNL     1       9.594  -2.766 -11.209  1.00  0.00    -0.200 F 
ENDBRANCH  27  41
BRANCH  28  52
ATOM     52  C   UNL     1       5.396  -9.787   0.378  1.00  0.00     0.064 A 
ATOM     53  C   UNL     1       6.231 -10.329   1.362  1.00  0.00     0.173 A 
ATOM     54  C   UNL     1       4.012  -9.993   0.515  1.00  0.00     0.173 A 
ATOM     55  F   UNL     1       7.560 -10.184   1.265  1.00  0.00    -0.203 F 
ATOM     56  C   UNL     1       5.707 -11.068   2.424  1.00  0.00     0.198 A 
ATOM     57  C   UNL     1       3.487 -10.709   1.589  1.00  0.00     0.198 A 
ATOM     58  F   UNL     1       3.166  -9.499  -0.401  1.00  0.00    -0.203 F 
ATOM     59  F   UNL     1       6.532 -11.621   3.323  1.00  0.00    -0.200 F 
ATOM     60  C   UNL     1       4.336 -11.255   2.538  1.00  0.00     0.200 A 
ATOM     61  F   UNL     1       2.163 -10.880   1.694  1.00  0.00    -0.200 F 
ATOM     62  F   UNL     1       3.837 -11.975   3.552  1.00  0.00    -0.200 F 
ENDBRANCH  28  52
BRANCH  40  63
ATOM     63  C   UNL     1       9.090 -11.645  -5.223  1.00  0.00     0.064 A 
ATOM     64  C   UNL     1       8.312 -12.718  -5.678  1.00  0.00     0.173 A 
ATOM     65  C   UNL     1      10.482 -11.803  -5.178  1.00  0.00     0.173 A 
ATOM     66  F   UNL     1       6.975 -12.617  -5.713  1.00  0.00    -0.203 F 
ATOM     67  C   UNL     1       8.908 -13.916  -6.055  1.00  0.00     0.198 A 
ATOM     68  C   UNL     1      11.076 -12.991  -5.587  1.00  0.00     0.198 A 
ATOM     69  F   UNL     1      11.264 -10.801  -4.750  1.00  0.00    -0.203 F 
ATOM     70  F   UNL     1       8.146 -14.949  -6.440  1.00  0.00    -0.200 F 
ATOM     71  C   UNL     1      10.289 -14.049  -6.018  1.00  0.00     0.200 A 
ATOM     72  F   UNL     1      12.410 -13.114  -5.561  1.00  0.00    -0.200 F 
ATOM     73  F   UNL     1      10.862 -15.201  -6.389  1.00  0.00    -0.200 F 
ENDBRANCH  40  63
ENDBRANCH  14  15
ENDBRANCH   7   9
ENDBRANCH   6   7
ENDBRANCH   5   6
ENDBRANCH   4   5
ENDBRANCH   3   4
ENDBRANCH   2   3
ENDBRANCH   1   2
BRANCH   1  74
ATOM     74  O   UNL     1       3.063   0.334   3.988  1.00  0.00    -0.376 OA
BRANCH  74  75
ATOM     75  C   UNL     1       4.403  -0.136   3.880  1.00  0.00     0.202 C 
BRANCH  75  76
ATOM     76  C   UNL     1       4.657  -1.648   3.722  1.00  0.00     0.261 C 
BRANCH  76  77
ATOM     77  O   UNL     1       3.683  -2.374   2.948  1.00  0.00    -0.463 OA
BRANCH  77  78
ATOM     78  C   UNL     1       3.504  -3.676   3.313  1.00  0.00     0.312 C 
ATOM     79  O   UNL     1       4.138  -4.236   4.190  1.00  0.00    -0.252 OA
BRANCH  78  80
ATOM     80  C   UNL     1       2.555  -4.393   2.376  1.00  0.00     0.147 C 
ATOM     81  C   UNL     1       1.036  -4.123   2.411  1.00  0.00     0.128 C 
ATOM     82  C   UNL     1       2.581  -5.904   2.692  1.00  0.00     0.157 C 
ATOM     83  C   UNL     1       0.459  -5.469   2.880  1.00  0.00     0.155 C 
ATOM     84  C   UNL     1       1.886  -6.705   1.625  1.00  0.00     0.004 C 
ATOM     85  O   UNL     1       1.542  -5.967   3.707  1.00  0.00    -0.365 OA
ATOM     86  C   UNL     1       0.577  -6.457   1.758  1.00  0.00     0.004 C 
BRANCH  81  87
ATOM     87  C   UNL     1       0.404  -2.944   3.106  1.00  0.00     0.227 C 
ATOM     88  O   UNL     1      -0.207  -2.117   2.414  1.00  0.00    -0.275 OA
ATOM     89  N   UNL     1       0.389  -2.711   4.429  1.00  0.00    -0.352 N 
ATOM     90  H   UNL     1      -0.153  -1.927   4.674  1.00  0.00     0.163 HD
BRANCH  89  91
ATOM     91  C   UNL     1       0.995  -3.358   5.574  1.00  0.00     0.151 C 
BRANCH  91  92
ATOM     92  C   UNL     1       1.983  -2.462   6.280  1.00  0.00    -0.026 A 
ATOM     93  C   UNL     1       3.131  -3.017   6.853  1.00  0.00     0.025 A 
ATOM     94  C   UNL     1       1.797  -1.082   6.408  1.00  0.00     0.025 A 
ATOM     95  C   UNL     1       4.060  -2.179   7.452  1.00  0.00     0.111 A 
ATOM     96  C   UNL     1       2.784  -0.324   7.023  1.00  0.00     0.111 A 
ATOM     97  N   UNL     1       3.917  -0.841   7.541  1.00  0.00    -0.265 NA
ENDBRANCH  91  92
ENDBRANCH  89  91
ENDBRANCH  81  87
ENDBRANCH  78  80
ENDBRANCH  77  78
ENDBRANCH  76  77
ENDBRANCH  75  76
ENDBRANCH  74  75
ENDBRANCH   1  74
TORSDOF 20
