REMARK SMILES Cc1ccc(/C=C2/C[N@@H+](C)Cc3c2nc2ccccc2c3C(=O)OCCOCCOCCOC(=O)c2ccc(-c3c4nc(c(-c5c(F)c(F)c(F)c(F)c5F)c5ccc([nH]5)c(-c5c(F)c(F)c(F)c(F)c5F)c5nc(c(-c6c(F)c(F)c(F)c(F)c6F)c6ccc3[nH]6)C=C5)C=C4)cc2)cc1
REMARK SMILES IDX 29 1 28 2 27 3 26 4 25 5 24 6 22 7 23 8 21 9 6 10 7 11 8 12
REMARK SMILES IDX 13 13 9 14 12 15 14 16 10 17 11 18 15 20 20 21 16 22 19 23
REMARK SMILES IDX 17 24 18 25 5 26 1 27 2 28 3 29 100 30 4 31 99 32 30 33
REMARK SMILES IDX 31 34 32 35 33 36 34 37 35 38 36 39 37 40 98 41 38 42 97 43
REMARK SMILES IDX 39 44 40 45 41 46 91 47 42 48 96 49 90 50 92 51 43 52 95 53
REMARK SMILES IDX 89 54 88 55 44 57 76 58 56 59 75 60 57 61 60 62 74 63 93 64
REMARK SMILES IDX 58 65 59 66 73 68 94 69 61 70 45 71 46 72 54 73 47 74 48 75
REMARK SMILES IDX 52 76 55 77 49 78 50 79 53 80 51 81 77 82 78 83 86 84 79 85
REMARK SMILES IDX 80 86 84 87 87 88 81 89 82 90 85 91 83 92 62 93 63 94 71 95
REMARK SMILES IDX 64 96 65 97 69 98 72 99 66 100 67 101 70 102 68 103
REMARK H PARENT 9 19 92 56 60 67
REMARK Flexibility Score: inf
ROOT
ATOM      1  C   UNL     1      -6.062  -9.591  -2.160  1.00  0.00     0.188 C 
ENDROOT
BRANCH   1   2
ATOM      2  C   UNL     1      -5.497  -9.672  -0.750  1.00  0.00     0.188 C 
BRANCH   2   3
ATOM      3  O   UNL     1      -6.091  -9.069   0.421  1.00  0.00    -0.376 OA
BRANCH   3   4
ATOM      4  C   UNL     1      -6.956  -7.914   0.561  1.00  0.00     0.202 C 
BRANCH   4   5
ATOM      5  C   UNL     1      -6.697  -6.192   0.928  1.00  0.00     0.261 C 
BRANCH   5   6
ATOM      6  O   UNL     1      -5.536  -5.044   0.458  1.00  0.00    -0.460 OA
BRANCH   6   7
ATOM      7  C   UNL     1      -4.148  -4.727   0.435  1.00  0.00     0.339 C 
ATOM      8  O   UNL     1      -3.219  -5.282   1.004  1.00  0.00    -0.246 OA
BRANCH   7   9
ATOM      9  C   UNL     1      -3.509  -3.706  -0.395  1.00  0.00     0.080 A 
ATOM     10  C   UNL     1      -3.262   0.693  -0.046  1.00  0.00     0.020 C 
ATOM     11  C   UNL     1      -4.044  -0.214  -0.676  1.00  0.00     0.033 C 
ATOM     12  C   UNL     1      -5.562  -0.130  -0.691  1.00  0.00     0.301 C 
ATOM     13  C   UNL     1      -3.553  -1.528  -1.132  1.00  0.00     0.082 A 
ATOM     14  N   UNL     1      -6.081  -1.133   0.237  1.00  0.00    -0.330 N 
ATOM     15  C   UNL     1      -4.256  -2.582  -0.608  1.00  0.00     0.048 A 
ATOM     16  N   UNL     1      -2.323  -1.621  -1.704  1.00  0.00    -0.247 NA
ATOM     17  C   UNL     1      -7.529  -1.145   0.411  1.00  0.00     0.333 C 
ATOM     18  C   UNL     1      -5.678  -2.464  -0.175  1.00  0.00     0.302 C 
ATOM     19  H   UNL     1      -5.678  -0.863   1.134  1.00  0.00     0.348 HD
ATOM     20  C   UNL     1      -1.574  -2.714  -1.486  1.00  0.00     0.072 A 
ATOM     21  C   UNL     1      -2.053  -3.771  -0.713  1.00  0.00     0.015 A 
ATOM     22  C   UNL     1      -0.245  -2.725  -1.944  1.00  0.00     0.029 A 
ATOM     23  C   UNL     1      -1.026  -4.723  -0.298  1.00  0.00     0.011 A 
ATOM     24  C   UNL     1       0.693  -3.697  -1.579  1.00  0.00     0.002 A 
ATOM     25  C   UNL     1       0.308  -4.687  -0.709  1.00  0.00     0.001 A 
BRANCH  10  26
ATOM     26  C   UNL     1      -1.806   0.620   0.199  1.00  0.00    -0.025 A 
ATOM     27  C   UNL     1       2.497   0.282   0.181  1.00  0.00     0.044 C 
ATOM     28  C   UNL     1       1.013   0.455   0.314  1.00  0.00    -0.051 A 
ATOM     29  C   UNL     1       0.223  -0.548   0.882  1.00  0.00     0.004 A 
ATOM     30  C   UNL     1       0.384   1.578  -0.234  1.00  0.00     0.004 A 
ATOM     31  C   UNL     1      -1.176  -0.449   0.854  1.00  0.00     0.008 A 
ATOM     32  C   UNL     1      -1.011   1.659  -0.288  1.00  0.00     0.008 A 
ENDBRANCH  10  26
ENDBRANCH   7   9
ENDBRANCH   6   7
ENDBRANCH   5   6
ENDBRANCH   4   5
ENDBRANCH   3   4
ENDBRANCH   2   3
ENDBRANCH   1   2
BRANCH   1  33
ATOM     33  O   UNL     1      -6.902  -8.471  -2.282  1.00  0.00    -0.376 OA
BRANCH  33  34
ATOM     34  C   UNL     1      -7.624  -8.371  -3.491  1.00  0.00     0.202 C 
BRANCH  34  35
ATOM     35  C   UNL     1      -6.755  -8.220  -4.757  1.00  0.00     0.261 C 
BRANCH  35  36
ATOM     36  O   UNL     1      -5.902  -7.048  -4.688  1.00  0.00    -0.460 OA
BRANCH  36  37
ATOM     37  C   UNL     1      -4.545  -7.248  -4.571  1.00  0.00     0.338 C 
ATOM     38  O   UNL     1      -3.872  -7.897  -5.361  1.00  0.00    -0.246 OA
BRANCH  37  39
ATOM     39  C   UNL     1      -4.071  -6.788  -3.222  1.00  0.00     0.060 A 
ATOM     40  C   UNL     1      -2.924  -7.217  -2.534  1.00  0.00     0.016 A 
ATOM     41  C   UNL     1      -5.033  -6.246  -2.454  1.00  0.00     0.016 A 
ATOM     42  C   UNL     1      -2.892  -7.323  -1.071  1.00  0.00     0.010 A 
ATOM     43  C   UNL     1      -5.051  -6.699  -1.139  1.00  0.00     0.010 A 
ATOM     44  C   UNL     1      -4.022  -7.177  -0.269  1.00  0.00    -0.014 A 
BRANCH  44  45
ATOM     45  C   UNL     1      -4.154  -7.407   1.457  1.00  0.00     0.031 A 
ATOM     46  C   UNL     1      -4.648  -6.348   2.705  1.00  0.00     0.074 A 
ATOM     47  C   UNL     1      -3.972  -8.637   1.968  1.00  0.00     0.049 A 
ATOM     48  N   UNL     1      -5.765  -6.452   3.404  1.00  0.00    -0.248 NA
ATOM     49  C   UNL     1      -3.966  -5.072   3.138  1.00  0.00     0.031 C 
ATOM     50  C   UNL     1      -4.272  -9.119   3.316  1.00  0.00     0.029 A 
ATOM     51  N   UNL     1      -3.309  -9.711   1.380  1.00  0.00    -0.354 N 
ATOM     52  C   UNL     1      -6.036  -5.217   4.047  1.00  0.00     0.074 A 
ATOM     53  C   UNL     1      -4.963  -4.327   3.623  1.00  0.00     0.031 C 
ATOM     54  C   UNL     1      -3.447 -10.147   3.579  1.00  0.00     0.029 A 
ATOM     55  C   UNL     1      -2.556 -10.260   2.434  1.00  0.00     0.049 A 
ATOM     56  H   UNL     1      -3.356 -10.015   0.445  1.00  0.00     0.167 HD
ATOM     57  C   UNL     1      -6.306  -5.119   5.384  1.00  0.00     0.037 A 
ATOM     58  C   UNL     1      -1.223  -9.974   2.432  1.00  0.00     0.037 A 
ATOM     59  C   UNL     1      -5.426  -6.001   6.109  1.00  0.00     0.049 A 
ATOM     60  C   UNL     1      -0.924  -9.035   3.589  1.00  0.00     0.074 A 
ATOM     61  C   UNL     1      -5.535  -7.316   6.497  1.00  0.00     0.029 A 
ATOM     62  N   UNL     1      -4.070  -5.697   6.108  1.00  0.00    -0.354 N 
ATOM     63  N   UNL     1      -1.707  -8.079   4.042  1.00  0.00    -0.248 NA
ATOM     64  C   UNL     1       0.221  -9.291   4.450  1.00  0.00     0.031 C 
ATOM     65  C   UNL     1      -4.212  -7.851   6.501  1.00  0.00     0.029 A 
ATOM     66  C   UNL     1      -3.305  -6.842   6.195  1.00  0.00     0.049 A 
ATOM     67  H   UNL     1      -3.704  -4.785   6.052  1.00  0.00     0.167 HD
ATOM     68  C   UNL     1      -1.228  -7.658   5.262  1.00  0.00     0.074 A 
ATOM     69  C   UNL     1      -0.022  -8.446   5.461  1.00  0.00     0.031 C 
ATOM     70  C   UNL     1      -1.845  -6.789   6.128  1.00  0.00     0.037 A 
BRANCH  57  71
ATOM     71  C   UNL     1      -7.248  -4.068   5.939  1.00  0.00     0.064 A 
ATOM     72  C   UNL     1      -7.619  -4.071   7.299  1.00  0.00     0.173 A 
ATOM     73  C   UNL     1      -7.902  -3.096   5.143  1.00  0.00     0.173 A 
ATOM     74  F   UNL     1      -7.062  -4.939   8.155  1.00  0.00    -0.203 F 
ATOM     75  C   UNL     1      -8.595  -3.204   7.815  1.00  0.00     0.198 A 
ATOM     76  C   UNL     1      -8.872  -2.222   5.664  1.00  0.00     0.198 A 
ATOM     77  F   UNL     1      -7.626  -2.976   3.835  1.00  0.00    -0.203 F 
ATOM     78  F   UNL     1      -8.938  -3.277   9.110  1.00  0.00    -0.200 F 
ATOM     79  C   UNL     1      -9.229  -2.287   6.997  1.00  0.00     0.200 A 
ATOM     80  F   UNL     1      -9.473  -1.329   4.861  1.00  0.00    -0.200 F 
ATOM     81  F   UNL     1     -10.181  -1.479   7.487  1.00  0.00    -0.200 F 
ENDBRANCH  57  71
BRANCH  58  82
ATOM     82  C   UNL     1      -0.646 -10.006   1.037  1.00  0.00     0.064 A 
ATOM     83  C   UNL     1      -1.014 -11.106   0.211  1.00  0.00     0.173 A 
ATOM     84  C   UNL     1      -0.074  -8.915   0.380  1.00  0.00     0.173 A 
ATOM     85  F   UNL     1      -1.507 -12.226   0.768  1.00  0.00    -0.203 F 
ATOM     86  C   UNL     1      -1.033 -11.023  -1.181  1.00  0.00     0.198 A 
ATOM     87  C   UNL     1      -0.012  -8.872  -1.028  1.00  0.00     0.198 A 
ATOM     88  F   UNL     1       0.290  -7.822   1.065  1.00  0.00    -0.203 F 
ATOM     89  F   UNL     1      -1.592 -12.004  -1.906  1.00  0.00    -0.200 F 
ATOM     90  C   UNL     1      -0.559  -9.889  -1.802  1.00  0.00     0.200 A 
ATOM     91  F   UNL     1       0.412  -7.756  -1.642  1.00  0.00    -0.200 F 
ATOM     92  F   UNL     1      -0.693  -9.741  -3.128  1.00  0.00    -0.200 F 
ENDBRANCH  58  82
BRANCH  70  93
ATOM     93  C   UNL     1      -1.068  -5.960   7.145  1.00  0.00     0.064 A 
ATOM     94  C   UNL     1       0.329  -5.791   7.094  1.00  0.00     0.173 A 
ATOM     95  C   UNL     1      -1.710  -5.202   8.155  1.00  0.00     0.173 A 
ATOM     96  F   UNL     1       1.057  -6.247   6.066  1.00  0.00    -0.203 F 
ATOM     97  C   UNL     1       1.036  -5.096   8.075  1.00  0.00     0.198 A 
ATOM     98  C   UNL     1      -1.008  -4.431   9.081  1.00  0.00     0.198 A 
ATOM     99  F   UNL     1      -3.043  -5.138   8.267  1.00  0.00    -0.203 F 
ATOM    100  F   UNL     1       2.375  -5.075   8.032  1.00  0.00    -0.200 F 
ATOM    101  C   UNL     1       0.369  -4.418   9.072  1.00  0.00     0.200 A 
ATOM    102  F   UNL     1      -1.681  -3.690   9.973  1.00  0.00    -0.200 F 
ATOM    103  F   UNL     1       1.046  -3.729   9.998  1.00  0.00    -0.200 F 
ENDBRANCH  70  93
ENDBRANCH  44  45
ENDBRANCH  37  39
ENDBRANCH  36  37
ENDBRANCH  35  36
ENDBRANCH  34  35
ENDBRANCH  33  34
ENDBRANCH   1  33
TORSDOF 18
