REMARK SMILES C[C@@H](Cc1ccco1)C(=O)OCCOCCOCCOC(=O)c1ccc(-c2c3nc(c(-c4c(F)c(F)c(F)c(F)c4F)c4ccc([nH]4)c(-c4c(F)c(F)c(F)c(F)c4F)c4nc(c(-c5c(F)c(F)c(F)c(F)c5F)c5ccc2[nH]5)C=C4)C=C3)cc1
REMARK SMILES IDX 15 1 14 2 13 3 12 4 11 5 9 6 10 7 2 8 1 9 3 10 4 11 5 12
REMARK SMILES IDX 8 13 6 14 7 15 16 16 17 17 18 18 19 19 20 20 21 21 22 22
REMARK SMILES IDX 23 23 24 24 85 25 25 26 84 27 26 28 27 29 28 30 78 31 29 32
REMARK SMILES IDX 83 33 77 34 79 35 30 36 82 37 76 38 75 39 31 41 63 42 43 43
REMARK SMILES IDX 62 44 44 45 47 46 61 47 80 48 45 49 46 50 60 52 81 53 48 54
REMARK SMILES IDX 32 55 33 56 41 57 34 58 35 59 39 60 42 61 36 62 37 63 40 64
REMARK SMILES IDX 38 65 64 66 65 67 73 68 66 69 67 70 71 71 74 72 68 73 69 74
REMARK SMILES IDX 72 75 70 76 49 77 50 78 58 79 51 80 52 81 56 82 59 83 53 84
REMARK SMILES IDX 54 85 57 86 55 87
REMARK H PARENT 79 40 47 51
REMARK Flexibility Score: inf
ROOT
ATOM      1  C   UNL     1      -2.476  -1.973  -0.241  1.00  0.00     0.188 C 
ENDROOT
BRANCH   1   2
ATOM      2  O   UNL     1      -3.776  -1.726   0.278  1.00  0.00    -0.376 OA
BRANCH   2   3
ATOM      3  C   UNL     1      -4.057  -0.460   0.864  1.00  0.00     0.202 C 
BRANCH   3   4
ATOM      4  C   UNL     1      -3.125   0.073   1.965  1.00  0.00     0.261 C 
BRANCH   4   5
ATOM      5  O   UNL     1      -1.730   0.228   1.614  1.00  0.00    -0.463 OA
BRANCH   5   6
ATOM      6  C   UNL     1      -0.833  -0.531   2.297  1.00  0.00     0.309 C 
ATOM      7  O   UNL     1      -1.147  -1.389   3.118  1.00  0.00    -0.252 OA
BRANCH   6   8
ATOM      8  C   UNL     1       0.634  -0.182   2.042  1.00  0.00     0.103 C 
ATOM      9  C   UNL     1       1.037   0.387   0.679  1.00  0.00     0.020 C 
BRANCH   8  10
ATOM     10  C   UNL     1       1.116   0.715   3.189  1.00  0.00     0.090 C 
BRANCH  10  11
ATOM     11  C   UNL     1       0.569   2.092   3.073  1.00  0.00     0.104 A 
ATOM     12  C   UNL     1      -0.666   2.645   3.332  1.00  0.00     0.045 A 
ATOM     13  O   UNL     1       1.394   3.025   2.521  1.00  0.00    -0.469 OA
ATOM     14  C   UNL     1      -0.611   3.977   2.862  1.00  0.00     0.042 A 
ATOM     15  C   UNL     1       0.669   4.165   2.395  1.00  0.00     0.195 A 
ENDBRANCH  10  11
ENDBRANCH   8  10
ENDBRANCH   6   8
ENDBRANCH   5   6
ENDBRANCH   4   5
ENDBRANCH   3   4
ENDBRANCH   2   3
ENDBRANCH   1   2
BRANCH   1  16
ATOM     16  C   UNL     1      -1.759  -0.858  -1.019  1.00  0.00     0.188 C 
BRANCH  16  17
ATOM     17  O   UNL     1      -2.534   0.297  -1.240  1.00  0.00    -0.376 OA
BRANCH  17  18
ATOM     18  C   UNL     1      -2.886   0.614  -2.573  1.00  0.00     0.202 C 
BRANCH  18  19
ATOM     19  C   UNL     1      -3.609  -0.452  -3.413  1.00  0.00     0.261 C 
BRANCH  19  20
ATOM     20  O   UNL     1      -3.096  -1.794  -3.338  1.00  0.00    -0.460 OA
BRANCH  20  21
ATOM     21  C   UNL     1      -1.941  -2.063  -3.988  1.00  0.00     0.338 C 
ATOM     22  O   UNL     1      -1.277  -1.290  -4.659  1.00  0.00    -0.246 OA
BRANCH  21  23
ATOM     23  C   UNL     1      -1.485  -3.403  -3.546  1.00  0.00     0.060 A 
ATOM     24  C   UNL     1      -0.246  -3.527  -2.899  1.00  0.00     0.016 A 
ATOM     25  C   UNL     1      -2.293  -4.526  -3.732  1.00  0.00     0.016 A 
ATOM     26  C   UNL     1       0.197  -4.777  -2.457  1.00  0.00     0.010 A 
ATOM     27  C   UNL     1      -1.838  -5.780  -3.314  1.00  0.00     0.010 A 
ATOM     28  C   UNL     1      -0.579  -5.918  -2.700  1.00  0.00    -0.014 A 
BRANCH  28  29
ATOM     29  C   UNL     1       0.000  -7.272  -2.510  1.00  0.00     0.031 A 
ATOM     30  C   UNL     1       0.555  -7.979  -3.717  1.00  0.00     0.074 A 
ATOM     31  C   UNL     1       0.034  -7.871  -1.307  1.00  0.00     0.049 A 
ATOM     32  N   UNL     1       1.020  -9.196  -3.833  1.00  0.00    -0.248 NA
ATOM     33  C   UNL     1       0.581  -7.202  -4.967  1.00  0.00     0.031 C 
ATOM     34  C   UNL     1      -0.424  -7.280  -0.053  1.00  0.00     0.029 A 
ATOM     35  N   UNL     1       0.463  -9.128  -0.952  1.00  0.00    -0.354 N 
ATOM     36  C   UNL     1       1.380  -9.335  -5.167  1.00  0.00     0.074 A 
ATOM     37  C   UNL     1       1.053  -8.090  -5.827  1.00  0.00     0.031 C 
ATOM     38  C   UNL     1      -0.270  -8.182   0.934  1.00  0.00     0.029 A 
ATOM     39  C   UNL     1       0.260  -9.425   0.374  1.00  0.00     0.049 A 
ATOM     40  H   UNL     1       0.876  -9.756  -1.588  1.00  0.00     0.167 HD
ATOM     41  C   UNL     1       1.939 -10.402  -5.786  1.00  0.00     0.037 A 
ATOM     42  C   UNL     1       0.452 -10.578   1.046  1.00  0.00     0.037 A 
ATOM     43  C   UNL     1       2.260 -11.641  -5.129  1.00  0.00     0.049 A 
ATOM     44  C   UNL     1       0.996 -11.783   0.316  1.00  0.00     0.074 A 
ATOM     45  C   UNL     1       2.841 -12.776  -5.666  1.00  0.00     0.029 A 
ATOM     46  N   UNL     1       2.014 -11.912  -3.791  1.00  0.00    -0.354 N 
ATOM     47  N   UNL     1       1.355 -11.902  -0.939  1.00  0.00    -0.248 NA
ATOM     48  C   UNL     1       1.163 -13.016   1.101  1.00  0.00     0.031 C 
ATOM     49  C   UNL     1       2.890 -13.755  -4.670  1.00  0.00     0.029 A 
ATOM     50  C   UNL     1       2.407 -13.208  -3.493  1.00  0.00     0.049 A 
ATOM     51  H   UNL     1       1.620 -11.279  -3.149  1.00  0.00     0.167 HD
ATOM     52  C   UNL     1       1.824 -13.204  -1.084  1.00  0.00     0.074 A 
ATOM     53  C   UNL     1       1.712 -13.833   0.214  1.00  0.00     0.031 C 
ATOM     54  C   UNL     1       2.306 -13.820  -2.192  1.00  0.00     0.037 A 
BRANCH  41  55
ATOM     55  C   UNL     1       2.206 -10.287  -7.259  1.00  0.00     0.064 A 
ATOM     56  C   UNL     1       3.203  -9.441  -7.767  1.00  0.00     0.173 A 
ATOM     57  C   UNL     1       1.472 -11.058  -8.173  1.00  0.00     0.173 A 
ATOM     58  F   UNL     1       3.923  -8.670  -6.937  1.00  0.00    -0.203 F 
ATOM     59  C   UNL     1       3.436  -9.349  -9.137  1.00  0.00     0.198 A 
ATOM     60  C   UNL     1       1.731 -10.990  -9.539  1.00  0.00     0.198 A 
ATOM     61  F   UNL     1       0.509 -11.885  -7.741  1.00  0.00    -0.203 F 
ATOM     62  F   UNL     1       4.357  -8.494  -9.603  1.00  0.00    -0.200 F 
ATOM     63  C   UNL     1       2.706 -10.130 -10.021  1.00  0.00     0.200 A 
ATOM     64  F   UNL     1       1.034 -11.756 -10.390  1.00  0.00    -0.200 F 
ATOM     65  F   UNL     1       2.937 -10.047 -11.338  1.00  0.00    -0.200 F 
ENDBRANCH  41  55
BRANCH  42  66
ATOM     66  C   UNL     1       0.112 -10.665   2.493  1.00  0.00     0.064 A 
ATOM     67  C   UNL     1       1.108 -10.857   3.461  1.00  0.00     0.173 A 
ATOM     68  C   UNL     1      -1.218 -10.598   2.934  1.00  0.00     0.173 A 
ATOM     69  F   UNL     1       2.393 -10.960   3.088  1.00  0.00    -0.203 F 
ATOM     70  C   UNL     1       0.786 -10.999   4.810  1.00  0.00     0.198 A 
ATOM     71  C   UNL     1      -1.536 -10.707   4.287  1.00  0.00     0.198 A 
ATOM     72  F   UNL     1      -2.212 -10.425   2.050  1.00  0.00    -0.203 F 
ATOM     73  F   UNL     1       1.754 -11.239   5.705  1.00  0.00    -0.200 F 
ATOM     74  C   UNL     1      -0.535 -10.917   5.222  1.00  0.00     0.200 A 
ATOM     75  F   UNL     1      -2.814 -10.620   4.682  1.00  0.00    -0.200 F 
ATOM     76  F   UNL     1      -0.844 -11.055   6.519  1.00  0.00    -0.200 F 
ENDBRANCH  42  66
BRANCH  54  77
ATOM     77  C   UNL     1       2.808 -15.230  -2.046  1.00  0.00     0.064 A 
ATOM     78  C   UNL     1       1.940 -16.309  -1.823  1.00  0.00     0.173 A 
ATOM     79  C   UNL     1       4.177 -15.510  -2.184  1.00  0.00     0.173 A 
ATOM     80  F   UNL     1       0.624 -16.097  -1.673  1.00  0.00    -0.203 F 
ATOM     81  C   UNL     1       2.426 -17.610  -1.718  1.00  0.00     0.198 A 
ATOM     82  C   UNL     1       4.655 -16.816  -2.114  1.00  0.00     0.198 A 
ATOM     83  F   UNL     1       5.051 -14.518  -2.409  1.00  0.00    -0.203 F 
ATOM     84  F   UNL     1       1.584 -18.619  -1.456  1.00  0.00    -0.200 F 
ATOM     85  C   UNL     1       3.781 -17.864  -1.872  1.00  0.00     0.200 A 
ATOM     86  F   UNL     1       5.962 -17.059  -2.283  1.00  0.00    -0.200 F 
ATOM     87  F   UNL     1       4.245 -19.118  -1.783  1.00  0.00    -0.200 F 
ENDBRANCH  54  77
ENDBRANCH  28  29
ENDBRANCH  21  23
ENDBRANCH  20  21
ENDBRANCH  19  20
ENDBRANCH  18  19
ENDBRANCH  17  18
ENDBRANCH  16  17
ENDBRANCH   1  16
TORSDOF 19
