REMARK SMILES Cc1cc(C)cc(Oc2nc3ccccn3c(=O)c2/C=C2\SC(=S)N(CCC(=O)OCCOCCOCCOC(=O)c3ccc(-c4c5nc(c(-c6c(F)c(F)c(F)c(F)c6F)c6ccc([nH]6)c(-c6c(F)c(F)c(F)c(F)c6F)c6nc(c(-c7c(F)c(F)c(F)c(F)c7F)c7ccc4[nH]7)C=C6)C=C5)cc3)C2=O)c1
REMARK SMILES IDX 33 1 32 2 31 3 30 4 28 5 29 6 27 7 26 8 25 9 20 10 21 11
REMARK SMILES IDX 22 12 105 13 23 14 106 15 24 16 19 17 9 18 10 19 11 20 17 21
REMARK SMILES IDX 12 22 16 23 18 24 13 25 15 26 14 27 8 28 7 29 1 30 2 31 3 32
REMARK SMILES IDX 107 33 4 34 5 35 6 36 34 37 35 38 36 39 37 40 38 41 39 42
REMARK SMILES IDX 40 43 41 44 42 45 43 46 104 47 44 48 103 49 45 50 46 51
REMARK SMILES IDX 47 52 97 53 48 54 102 55 96 56 98 57 49 58 101 59 95 60
REMARK SMILES IDX 94 61 50 63 82 64 62 65 81 66 63 67 66 68 80 69 99 70 64 71
REMARK SMILES IDX 65 72 79 74 100 75 67 76 51 77 52 78 60 79 53 80 54 81 58 82
REMARK SMILES IDX 61 83 55 84 56 85 59 86 57 87 83 88 84 89 92 90 85 91 86 92
REMARK SMILES IDX 90 93 93 94 87 95 88 96 91 97 89 98 68 99 69 100 77 101
REMARK SMILES IDX 70 102 71 103 75 104 78 105 72 106 73 107 76 108 74 109
REMARK H PARENT 98 62 66 73
REMARK Flexibility Score: inf
ROOT
ATOM      1  O   UNL     1      -0.805   0.191   6.186  1.00  0.00    -0.376 OA
ENDROOT
BRANCH   1   2
ATOM      2  C   UNL     1      -1.148  -0.378   4.922  1.00  0.00     0.202 C 
BRANCH   2   3
ATOM      3  C   UNL     1      -1.293   0.631   3.758  1.00  0.00     0.261 C 
BRANCH   3   4
ATOM      4  O   UNL     1      -0.047   1.125   3.206  1.00  0.00    -0.463 OA
BRANCH   4   5
ATOM      5  C   UNL     1       0.446   2.297   3.670  1.00  0.00     0.307 C 
ATOM      6  O   UNL     1      -0.162   3.069   4.403  1.00  0.00    -0.252 OA
BRANCH   5   7
ATOM      7  C   UNL     1       1.865   2.566   3.195  1.00  0.00     0.144 C 
BRANCH   7   8
ATOM      8  C   UNL     1       3.003   1.678   3.735  1.00  0.00     0.139 C 
BRANCH   8   9
ATOM      9  N   UNL     1       3.326   0.467   2.957  1.00  0.00    -0.292 N 
ATOM     10  C   UNL     1       2.106  -2.747   1.951  1.00  0.00     0.041 C 
ATOM     11  C   UNL     1       2.954  -1.734   2.185  1.00  0.00     0.081 C 
ATOM     12  S   UNL     1       4.452  -1.335   1.467  1.00  0.00    -0.054 SA
ATOM     13  C   UNL     1       2.513  -0.639   3.061  1.00  0.00     0.266 C 
ATOM     14  C   UNL     1       4.466   0.275   2.201  1.00  0.00     0.148 C 
ATOM     15  O   UNL     1       1.516  -0.751   3.743  1.00  0.00    -0.268 OA
ATOM     16  S   UNL     1       5.723   1.341   1.939  1.00  0.00    -0.052 S 
BRANCH  10  17
ATOM     17  C   UNL     1       2.254  -3.737   0.909  1.00  0.00     0.104 A 
ATOM     18  C   UNL     1       1.410  -3.848  -0.141  1.00  0.00     0.234 A 
ATOM     19  N   UNL     1       1.594  -4.750  -1.157  1.00  0.00    -0.194 NA
ATOM     20  C   UNL     1       2.666  -5.475  -1.150  1.00  0.00     0.143 A 
ATOM     21  C   UNL     1       3.400  -4.685   0.982  1.00  0.00     0.269 A 
ATOM     22  C   UNL     1       2.920  -6.387  -2.299  1.00  0.00     0.048 A 
ATOM     23  N   UNL     1       3.612  -5.464  -0.139  1.00  0.00    -0.267 N 
ATOM     24  O   UNL     1       4.076  -4.755   2.011  1.00  0.00    -0.268 OA
ATOM     25  C   UNL     1       4.041  -7.117  -2.337  1.00  0.00     0.005 A 
ATOM     26  C   UNL     1       4.751  -6.256  -0.208  1.00  0.00     0.096 A 
ATOM     27  C   UNL     1       4.992  -7.049  -1.259  1.00  0.00     0.019 A 
BRANCH  18  28
ATOM     28  O   UNL     1       0.221  -3.117  -0.241  1.00  0.00    -0.438 OA
BRANCH  28  29
ATOM     29  C   UNL     1       0.201  -1.741  -0.307  1.00  0.00     0.130 A 
ATOM     30  C   UNL     1       2.420   1.326  -0.644  1.00  0.00     0.044 C 
ATOM     31  C   UNL     1       1.206   0.460  -0.490  1.00  0.00    -0.047 A 
ATOM     32  C   UNL     1      -0.044   1.044  -0.250  1.00  0.00     0.007 A 
ATOM     33  C   UNL     1       1.308  -0.935  -0.571  1.00  0.00     0.050 A 
ATOM     34  C   UNL     1      -1.186   0.249  -0.089  1.00  0.00    -0.047 A 
ATOM     35  C   UNL     1      -2.526   0.901   0.087  1.00  0.00     0.044 C 
ATOM     36  C   UNL     1      -1.048  -1.145  -0.096  1.00  0.00     0.050 A 
ENDBRANCH  28  29
ENDBRANCH  18  28
ENDBRANCH  10  17
ENDBRANCH   8   9
ENDBRANCH   7   8
ENDBRANCH   5   7
ENDBRANCH   4   5
ENDBRANCH   3   4
ENDBRANCH   2   3
ENDBRANCH   1   2
BRANCH   1  37
ATOM     37  C   UNL     1       0.548   0.604   6.288  1.00  0.00     0.188 C 
BRANCH  37  38
ATOM     38  C   UNL     1       1.451  -0.360   7.027  1.00  0.00     0.188 C 
BRANCH  38  39
ATOM     39  O   UNL     1       2.056  -1.395   6.253  1.00  0.00    -0.376 OA
BRANCH  39  40
ATOM     40  C   UNL     1       1.570  -2.704   6.532  1.00  0.00     0.202 C 
BRANCH  40  41
ATOM     41  C   UNL     1       2.101  -3.333   7.837  1.00  0.00     0.261 C 
BRANCH  41  42
ATOM     42  O   UNL     1       2.147  -2.410   8.941  1.00  0.00    -0.460 OA
BRANCH  42  43
ATOM     43  C   UNL     1       3.303  -1.701   9.053  1.00  0.00     0.338 C 
ATOM     44  O   UNL     1       4.354  -1.915   8.475  1.00  0.00    -0.246 OA
BRANCH  43  45
ATOM     45  C   UNL     1       3.039  -0.457   9.826  1.00  0.00     0.060 A 
ATOM     46  C   UNL     1       3.627   0.738   9.376  1.00  0.00     0.016 A 
ATOM     47  C   UNL     1       2.172  -0.433  10.921  1.00  0.00     0.016 A 
ATOM     48  C   UNL     1       3.355   1.951  10.012  1.00  0.00     0.010 A 
ATOM     49  C   UNL     1       1.936   0.774  11.589  1.00  0.00     0.010 A 
ATOM     50  C   UNL     1       2.547   1.966  11.154  1.00  0.00    -0.014 A 
BRANCH  50  51
ATOM     51  C   UNL     1       2.571   3.145  12.054  1.00  0.00     0.031 A 
ATOM     52  C   UNL     1       3.569   3.127  13.181  1.00  0.00     0.074 A 
ATOM     53  C   UNL     1       1.762   4.206  11.887  1.00  0.00     0.049 A 
ATOM     54  N   UNL     1       3.731   3.966  14.171  1.00  0.00    -0.248 NA
ATOM     55  C   UNL     1       4.515   1.998  13.189  1.00  0.00     0.031 C 
ATOM     56  C   UNL     1       0.807   4.386  10.798  1.00  0.00     0.029 A 
ATOM     57  N   UNL     1       1.615   5.337  12.655  1.00  0.00    -0.354 N 
ATOM     58  C   UNL     1       4.790   3.465  14.916  1.00  0.00     0.074 A 
ATOM     59  C   UNL     1       5.213   2.233  14.287  1.00  0.00     0.031 C 
ATOM     60  C   UNL     1       0.157   5.552  10.977  1.00  0.00     0.029 A 
ATOM     61  C   UNL     1       0.622   6.178  12.215  1.00  0.00     0.049 A 
ATOM     62  H   UNL     1       2.169   5.526  13.447  1.00  0.00     0.167 HD
ATOM     63  C   UNL     1       5.368   3.988  16.021  1.00  0.00     0.037 A 
ATOM     64  C   UNL     1       0.131   7.305  12.771  1.00  0.00     0.037 A 
ATOM     65  C   UNL     1       4.941   5.203  16.657  1.00  0.00     0.049 A 
ATOM     66  C   UNL     1       0.712   7.803  14.075  1.00  0.00     0.074 A 
ATOM     67  C   UNL     1       5.444   5.804  17.797  1.00  0.00     0.029 A 
ATOM     68  N   UNL     1       3.902   6.003  16.206  1.00  0.00    -0.354 N 
ATOM     69  N   UNL     1       1.710   7.325  14.779  1.00  0.00    -0.248 NA
ATOM     70  C   UNL     1       0.092   9.000  14.664  1.00  0.00     0.031 C 
ATOM     71  C   UNL     1       4.677   6.942  18.064  1.00  0.00     0.029 A 
ATOM     72  C   UNL     1       3.736   7.083  17.056  1.00  0.00     0.049 A 
ATOM     73  H   UNL     1       3.362   5.828  15.401  1.00  0.00     0.167 HD
ATOM     74  C   UNL     1       1.864   8.183  15.862  1.00  0.00     0.074 A 
ATOM     75  C   UNL     1       0.863   9.218  15.720  1.00  0.00     0.031 C 
ATOM     76  C   UNL     1       2.755   8.122  16.883  1.00  0.00     0.037 A 
BRANCH  63  77
ATOM     77  C   UNL     1       6.510   3.227  16.627  1.00  0.00     0.064 A 
ATOM     78  C   UNL     1       7.761   3.153  15.995  1.00  0.00     0.173 A 
ATOM     79  C   UNL     1       6.361   2.587  17.866  1.00  0.00     0.173 A 
ATOM     80  F   UNL     1       7.948   3.730  14.798  1.00  0.00    -0.203 F 
ATOM     81  C   UNL     1       8.813   2.447  16.571  1.00  0.00     0.198 A 
ATOM     82  C   UNL     1       7.425   1.910  18.454  1.00  0.00     0.198 A 
ATOM     83  F   UNL     1       5.185   2.626  18.510  1.00  0.00    -0.203 F 
ATOM     84  F   UNL     1       9.984   2.349  15.927  1.00  0.00    -0.200 F 
ATOM     85  C   UNL     1       8.647   1.834  17.804  1.00  0.00     0.200 A 
ATOM     86  F   UNL     1       7.266   1.328  19.651  1.00  0.00    -0.200 F 
ATOM     87  F   UNL     1       9.664   1.165  18.363  1.00  0.00    -0.200 F 
ENDBRANCH  63  77
BRANCH  64  88
ATOM     88  C   UNL     1      -0.994   8.042  12.129  1.00  0.00     0.064 A 
ATOM     89  C   UNL     1      -0.821   9.347  11.645  1.00  0.00     0.173 A 
ATOM     90  C   UNL     1      -2.280   7.488  12.052  1.00  0.00     0.173 A 
ATOM     91  F   UNL     1       0.381   9.937  11.726  1.00  0.00    -0.203 F 
ATOM     92  C   UNL     1      -1.894  10.079  11.140  1.00  0.00     0.198 A 
ATOM     93  C   UNL     1      -3.346   8.208  11.516  1.00  0.00     0.198 A 
ATOM     94  F   UNL     1      -2.508   6.249  12.512  1.00  0.00    -0.203 F 
ATOM     95  F   UNL     1      -1.713  11.349  10.751  1.00  0.00    -0.200 F 
ATOM     96  C   UNL     1      -3.155   9.508  11.072  1.00  0.00     0.200 A 
ATOM     97  F   UNL     1      -4.563   7.651  11.448  1.00  0.00    -0.200 F 
ATOM     98  F   UNL     1      -4.190  10.216  10.597  1.00  0.00    -0.200 F 
ENDBRANCH  64  88
BRANCH  76  99
ATOM     99  C   UNL     1       2.739   9.236  17.892  1.00  0.00     0.064 A 
ATOM    100  C   UNL     1       1.701   9.380  18.824  1.00  0.00     0.173 A 
ATOM    101  C   UNL     1       3.813  10.138  17.963  1.00  0.00     0.173 A 
ATOM    102  F   UNL     1       0.647   8.551  18.794  1.00  0.00    -0.203 F 
ATOM    103  C   UNL     1       1.725  10.402  19.770  1.00  0.00     0.198 A 
ATOM    104  C   UNL     1       3.850  11.137  18.931  1.00  0.00     0.198 A 
ATOM    105  F   UNL     1       4.838  10.038  17.103  1.00  0.00    -0.203 F 
ATOM    106  F   UNL     1       0.699  10.550  20.620  1.00  0.00    -0.200 F 
ATOM    107  C   UNL     1       2.803  11.273  19.829  1.00  0.00     0.200 A 
ATOM    108  F   UNL     1       4.902  11.965  18.998  1.00  0.00    -0.200 F 
ATOM    109  F   UNL     1       2.829  12.248  20.748  1.00  0.00    -0.200 F 
ENDBRANCH  76  99
ENDBRANCH  50  51
ENDBRANCH  43  45
ENDBRANCH  42  43
ENDBRANCH  41  42
ENDBRANCH  40  41
ENDBRANCH  39  40
ENDBRANCH  38  39
ENDBRANCH  37  38
ENDBRANCH   1  37
TORSDOF 22
