REMARK SMILES Nc1ccc(-c2cc3ccccc3s2)c(C(=O)OCCOCCOCCOC(=O)c2ccc(-c3c4nc(c(-c5c(F)c(F)c(F)c(F)c5F)c5ccc([nH]5)c(-c5c(F)c(F)c(F)c(F)c5F)c5nc(c(-c6c(F)c(F)c(F)c(F)c6F)c6ccc3[nH]6)C=C5)C=C4)cc2)n1
REMARK SMILES IDX 23 1 22 2 21 3 20 4 19 5 18 6 16 7 17 8 15 9 2 10 3 11 93 12
REMARK SMILES IDX 4 13 5 14 1 15 6 18 7 19 14 20 8 21 13 22 9 23 12 24 10 25
REMARK SMILES IDX 11 26 24 27 25 28 26 29 27 30 28 31 29 32 30 33 31 34 92 35
REMARK SMILES IDX 32 36 91 37 33 38 34 39 35 40 85 41 36 42 90 43 84 44 86 45
REMARK SMILES IDX 37 46 89 47 83 48 82 49 38 51 70 52 50 53 69 54 51 55 54 56
REMARK SMILES IDX 68 57 87 58 52 59 53 60 67 62 88 63 55 64 39 65 40 66 48 67
REMARK SMILES IDX 41 68 42 69 46 70 49 71 43 72 44 73 47 74 45 75 71 76 72 77
REMARK SMILES IDX 80 78 73 79 74 80 78 81 81 82 75 83 76 84 79 85 77 86 56 87
REMARK SMILES IDX 57 88 65 89 58 90 59 91 63 92 66 93 60 94 61 95 64 96 62 97
REMARK H PARENT 1 16 1 17 86 50 54 61
REMARK Flexibility Score: inf
ROOT
ATOM      1  C   UNL     1      -1.869   2.685   2.285  1.00  0.00     0.188 C 
ENDROOT
BRANCH   1   2
ATOM      2  C   UNL     1      -1.128   3.865   1.617  1.00  0.00     0.188 C 
BRANCH   2   3
ATOM      3  O   UNL     1      -1.834   5.072   1.347  1.00  0.00    -0.376 OA
BRANCH   3   4
ATOM      4  C   UNL     1      -3.058   5.011   0.618  1.00  0.00     0.202 C 
BRANCH   4   5
ATOM      5  C   UNL     1      -3.114   4.195  -0.681  1.00  0.00     0.261 C 
BRANCH   5   6
ATOM      6  O   UNL     1      -2.675   2.840  -0.506  1.00  0.00    -0.458 OA
BRANCH   6   7
ATOM      7  C   UNL     1      -1.745   2.377  -1.381  1.00  0.00     0.357 C 
ATOM      8  O   UNL     1      -1.319   2.966  -2.362  1.00  0.00    -0.244 OA
BRANCH   7   9
ATOM      9  C   UNL     1      -1.207   1.069  -0.893  1.00  0.00     0.159 A 
ATOM     10  C   UNL     1       0.737  -0.022  -0.248  1.00  0.00     0.124 A 
ATOM     11  C   UNL     1       0.017  -1.158   0.079  1.00  0.00     0.047 A 
ATOM     12  N   UNL     1       0.152   1.082  -0.727  1.00  0.00    -0.224 NA
ATOM     13  C   UNL     1      -1.369  -1.160  -0.092  1.00  0.00     0.016 A 
ATOM     14  C   UNL     1      -2.028  -0.021  -0.573  1.00  0.00     0.025 A 
BRANCH  10  15
ATOM     15  N   UNL     1       2.093   0.052  -0.006  1.00  0.00    -0.384 N 
ATOM     16  H   UNL     1       2.574  -0.731   0.346  1.00  0.00     0.158 HD
ATOM     17  H   UNL     1       2.580   0.889  -0.187  1.00  0.00     0.158 HD
ENDBRANCH  10  15
BRANCH  14  18
ATOM     18  C   UNL     1      -3.493   0.019  -0.676  1.00  0.00     0.038 A 
ATOM     19  C   UNL     1      -4.282   0.539  -1.683  1.00  0.00     0.029 A 
ATOM     20  S   UNL     1      -4.462  -0.546   0.620  1.00  0.00    -0.135 S 
ATOM     21  C   UNL     1      -5.670   0.621  -1.333  1.00  0.00    -0.007 A 
ATOM     22  C   UNL     1      -5.914   0.036  -0.090  1.00  0.00     0.035 A 
ATOM     23  C   UNL     1      -6.757   1.200  -2.029  1.00  0.00     0.009 A 
ATOM     24  C   UNL     1      -7.211  -0.018   0.456  1.00  0.00     0.019 A 
ATOM     25  C   UNL     1      -8.041   1.171  -1.480  1.00  0.00     0.001 A 
ATOM     26  C   UNL     1      -8.266   0.560  -0.254  1.00  0.00     0.001 A 
ENDBRANCH  14  18
ENDBRANCH   7   9
ENDBRANCH   6   7
ENDBRANCH   5   6
ENDBRANCH   4   5
ENDBRANCH   3   4
ENDBRANCH   2   3
ENDBRANCH   1   2
BRANCH   1  27
ATOM     27  O   UNL     1      -3.255   2.875   2.435  1.00  0.00    -0.376 OA
BRANCH  27  28
ATOM     28  C   UNL     1      -3.780   3.327   3.670  1.00  0.00     0.202 C 
BRANCH  28  29
ATOM     29  C   UNL     1      -3.009   4.173   4.705  1.00  0.00     0.261 C 
BRANCH  29  30
ATOM     30  O   UNL     1      -1.593   4.307   4.556  1.00  0.00    -0.460 OA
BRANCH  30  31
ATOM     31  C   UNL     1      -0.824   3.459   5.280  1.00  0.00     0.338 C 
ATOM     32  O   UNL     1      -1.194   2.565   6.015  1.00  0.00    -0.246 OA
BRANCH  31  33
ATOM     33  C   UNL     1       0.585   3.682   4.894  1.00  0.00     0.060 A 
ATOM     34  C   UNL     1       1.268   2.667   4.211  1.00  0.00     0.016 A 
ATOM     35  C   UNL     1       1.226   4.880   5.212  1.00  0.00     0.016 A 
ATOM     36  C   UNL     1       2.607   2.841   3.861  1.00  0.00     0.010 A 
ATOM     37  C   UNL     1       2.573   5.044   4.880  1.00  0.00     0.010 A 
ATOM     38  C   UNL     1       3.277   4.015   4.229  1.00  0.00    -0.014 A 
BRANCH  38  39
ATOM     39  C   UNL     1       4.751   4.101   4.092  1.00  0.00     0.031 A 
ATOM     40  C   UNL     1       5.601   3.817   5.299  1.00  0.00     0.074 A 
ATOM     41  C   UNL     1       5.327   4.423   2.921  1.00  0.00     0.049 A 
ATOM     42  N   UNL     1       6.900   3.888   5.441  1.00  0.00    -0.248 NA
ATOM     43  C   UNL     1       4.884   3.398   6.513  1.00  0.00     0.031 C 
ATOM     44  C   UNL     1       4.617   4.681   1.672  1.00  0.00     0.029 A 
ATOM     45  N   UNL     1       6.651   4.600   2.602  1.00  0.00    -0.354 N 
ATOM     46  C   UNL     1       7.154   3.536   6.760  1.00  0.00     0.074 A 
ATOM     47  C   UNL     1       5.874   3.278   7.384  1.00  0.00     0.031 C 
ATOM     48  C   UNL     1       5.513   4.997   0.720  1.00  0.00     0.029 A 
ATOM     49  C   UNL     1       6.854   4.997   1.303  1.00  0.00     0.049 A 
ATOM     50  H   UNL     1       7.385   4.456   3.243  1.00  0.00     0.167 HD
ATOM     51  C   UNL     1       8.347   3.433   7.392  1.00  0.00     0.037 A 
ATOM     52  C   UNL     1       7.992   5.342   0.670  1.00  0.00     0.037 A 
ATOM     53  C   UNL     1       9.618   3.693   6.769  1.00  0.00     0.049 A 
ATOM     54  C   UNL     1       9.302   5.296   1.418  1.00  0.00     0.074 A 
ATOM     55  C   UNL     1      10.884   3.587   7.316  1.00  0.00     0.029 A 
ATOM     56  N   UNL     1       9.782   4.127   5.462  1.00  0.00    -0.354 N 
ATOM     57  N   UNL     1       9.540   4.928   2.653  1.00  0.00    -0.248 NA
ATOM     58  C   UNL     1      10.502   5.715   0.678  1.00  0.00     0.031 C 
ATOM     59  C   UNL     1      11.810   4.016   6.359  1.00  0.00     0.029 A 
ATOM     60  C   UNL     1      11.127   4.326   5.194  1.00  0.00     0.049 A 
ATOM     61  H   UNL     1       9.050   4.272   4.819  1.00  0.00     0.167 HD
ATOM     62  C   UNL     1      10.915   5.037   2.828  1.00  0.00     0.074 A 
ATOM     63  C   UNL     1      11.460   5.497   1.568  1.00  0.00     0.031 C 
ATOM     64  C   UNL     1      11.659   4.776   3.932  1.00  0.00     0.037 A 
BRANCH  51  65
ATOM     65  C   UNL     1       8.328   3.056   8.845  1.00  0.00     0.064 A 
ATOM     66  C   UNL     1       7.966   1.770   9.274  1.00  0.00     0.173 A 
ATOM     67  C   UNL     1       8.696   3.993   9.823  1.00  0.00     0.173 A 
ATOM     68  F   UNL     1       7.592   0.841   8.381  1.00  0.00    -0.203 F 
ATOM     69  C   UNL     1       7.943   1.446  10.628  1.00  0.00     0.198 A 
ATOM     70  C   UNL     1       8.704   3.655  11.174  1.00  0.00     0.198 A 
ATOM     71  F   UNL     1       9.055   5.236   9.468  1.00  0.00    -0.203 F 
ATOM     72  F   UNL     1       7.541   0.228  11.017  1.00  0.00    -0.200 F 
ATOM     73  C   UNL     1       8.318   2.386  11.576  1.00  0.00     0.200 A 
ATOM     74  F   UNL     1       9.079   4.561  12.087  1.00  0.00    -0.200 F 
ATOM     75  F   UNL     1       8.299   2.071  12.878  1.00  0.00    -0.200 F 
ENDBRANCH  51  65
BRANCH  52  76
ATOM     76  C   UNL     1       7.950   5.769  -0.754  1.00  0.00     0.064 A 
ATOM     77  C   UNL     1       8.524   4.980  -1.760  1.00  0.00     0.173 A 
ATOM     78  C   UNL     1       7.356   6.981  -1.135  1.00  0.00     0.173 A 
ATOM     79  F   UNL     1       9.131   3.827  -1.442  1.00  0.00    -0.203 F 
ATOM     80  C   UNL     1       8.521   5.395  -3.091  1.00  0.00     0.198 A 
ATOM     81  C   UNL     1       7.327   7.381  -2.470  1.00  0.00     0.198 A 
ATOM     82  F   UNL     1       6.800   7.777  -0.210  1.00  0.00    -0.203 F 
ATOM     83  F   UNL     1       9.121   4.645  -4.025  1.00  0.00    -0.200 F 
ATOM     84  C   UNL     1       7.916   6.591  -3.446  1.00  0.00     0.200 A 
ATOM     85  F   UNL     1       6.736   8.535  -2.809  1.00  0.00    -0.200 F 
ATOM     86  F   UNL     1       7.912   6.989  -4.725  1.00  0.00    -0.200 F 
ENDBRANCH  52  76
BRANCH  64  87
ATOM     87  C   UNL     1      13.149   4.935   3.820  1.00  0.00     0.064 A 
ATOM     88  C   UNL     1      13.755   6.196   3.713  1.00  0.00     0.173 A 
ATOM     89  C   UNL     1      13.987   3.809   3.867  1.00  0.00     0.173 A 
ATOM     90  F   UNL     1      13.001   7.303   3.650  1.00  0.00    -0.203 F 
ATOM     91  C   UNL     1      15.140   6.321   3.630  1.00  0.00     0.198 A 
ATOM     92  C   UNL     1      15.372   3.940   3.819  1.00  0.00     0.198 A 
ATOM     93  F   UNL     1      13.461   2.579   3.978  1.00  0.00    -0.203 F 
ATOM     94  F   UNL     1      15.693   7.532   3.478  1.00  0.00    -0.200 F 
ATOM     95  C   UNL     1      15.947   5.195   3.692  1.00  0.00     0.200 A 
ATOM     96  F   UNL     1      16.150   2.851   3.896  1.00  0.00    -0.200 F 
ATOM     97  F   UNL     1      17.279   5.318   3.622  1.00  0.00    -0.200 F 
ENDBRANCH  64  87
ENDBRANCH  38  39
ENDBRANCH  31  33
ENDBRANCH  30  31
ENDBRANCH  29  30
ENDBRANCH  28  29
ENDBRANCH  27  28
ENDBRANCH   1  27
TORSDOF 19
