REMARK SMILES O=C(OCCOCCOCCOC(=O)C1C2=CC=CC=C1CCCC2)c1ccc(-c2c3nc(c(-c4c(F)c(F)c(F)c(F)c4F)c4ccc([nH]4)c(-c4c(F)c(F)c(F)c(F)c4F)c4nc(c(-c5c(F)c(F)c(F)c(F)c5F)c5ccc2[nH]5)C=C4)C=C3)cc1
REMARK SMILES IDX 9 1 8 2 7 3 6 4 5 5 4 6 3 7 2 8 1 9 26 10 27 11 88 12 28 13
REMARK SMILES IDX 87 14 29 15 30 16 31 17 81 18 32 19 86 20 80 21 82 22 33 23
REMARK SMILES IDX 85 24 79 25 78 26 34 28 66 29 46 30 65 31 47 32 50 33 64 34
REMARK SMILES IDX 83 35 48 36 49 37 63 39 84 40 51 41 35 42 36 43 44 44 37 45
REMARK SMILES IDX 38 46 42 47 45 48 39 49 40 50 43 51 41 52 67 53 68 54 76 55
REMARK SMILES IDX 69 56 70 57 74 58 77 59 71 60 72 61 75 62 73 63 52 64 53 65
REMARK SMILES IDX 61 66 54 67 55 68 59 69 62 70 56 71 57 72 60 73 58 74 10 75
REMARK SMILES IDX 11 76 12 77 13 78 14 79 15 80 21 82 20 83 22 84 23 85 19 87
REMARK SMILES IDX 18 88 17 89 16 90 25 92 24 93
REMARK H PARENT 82 27 50 38
REMARK Flexibility Score: 180.00
ROOT
ATOM      1  O   UNL     1       3.588  -4.112   0.508  1.00  0.00    -0.376 OA
ENDROOT
BRANCH   1   2
ATOM      2  C   UNL     1       2.542  -3.181   0.231  1.00  0.00     0.188 C 
BRANCH   2   3
ATOM      3  C   UNL     1       2.779  -1.757   0.736  1.00  0.00     0.188 C 
BRANCH   3   4
ATOM      4  O   UNL     1       3.985  -1.194   0.231  1.00  0.00    -0.376 OA
BRANCH   4   5
ATOM      5  C   UNL     1       4.889  -0.719   1.227  1.00  0.00     0.202 C 
BRANCH   5   6
ATOM      6  C   UNL     1       4.362   0.491   1.999  1.00  0.00     0.261 C 
BRANCH   6   7
ATOM      7  O   UNL     1       4.143   1.550   1.063  1.00  0.00    -0.460 OA
BRANCH   7   8
ATOM      8  C   UNL     1       2.886   1.642   0.550  1.00  0.00     0.338 C 
ATOM      9  O   UNL     1       1.839   1.350   1.081  1.00  0.00    -0.246 OA
BRANCH   8  10
ATOM     10  C   UNL     1       3.058   2.217  -0.797  1.00  0.00     0.060 A 
ATOM     11  C   UNL     1       4.072   1.703  -1.613  1.00  0.00     0.016 A 
ATOM     12  C   UNL     1       2.307   3.326  -1.191  1.00  0.00     0.016 A 
ATOM     13  C   UNL     1       4.437   2.383  -2.757  1.00  0.00     0.010 A 
ATOM     14  C   UNL     1       2.657   3.998  -2.364  1.00  0.00     0.010 A 
ATOM     15  C   UNL     1       3.755   3.553  -3.114  1.00  0.00    -0.014 A 
BRANCH  15  16
ATOM     16  C   UNL     1       4.357   4.377  -4.176  1.00  0.00     0.031 A 
ATOM     17  C   UNL     1       5.335   5.425  -3.772  1.00  0.00     0.074 A 
ATOM     18  C   UNL     1       4.134   4.073  -5.462  1.00  0.00     0.049 A 
ATOM     19  N   UNL     1       5.969   6.282  -4.521  1.00  0.00    -0.248 NA
ATOM     20  C   UNL     1       5.604   5.560  -2.331  1.00  0.00     0.031 C 
ATOM     21  C   UNL     1       3.200   3.052  -5.904  1.00  0.00     0.029 A 
ATOM     22  N   UNL     1       4.719   4.508  -6.618  1.00  0.00    -0.354 N 
ATOM     23  C   UNL     1       6.599   7.144  -3.638  1.00  0.00     0.074 A 
ATOM     24  C   UNL     1       6.362   6.645  -2.303  1.00  0.00     0.031 C 
ATOM     25  C   UNL     1       3.406   2.795  -7.203  1.00  0.00     0.029 A 
ATOM     26  C   UNL     1       4.381   3.748  -7.715  1.00  0.00     0.049 A 
ATOM     27  H   UNL     1       5.322   5.285  -6.661  1.00  0.00     0.167 HD
ATOM     28  C   UNL     1       7.227   8.302  -3.948  1.00  0.00     0.037 A 
ATOM     29  C   UNL     1       4.810   3.845  -8.988  1.00  0.00     0.037 A 
ATOM     30  C   UNL     1       7.427   8.727  -5.309  1.00  0.00     0.049 A 
ATOM     31  C   UNL     1       5.662   5.043  -9.310  1.00  0.00     0.074 A 
ATOM     32  C   UNL     1       7.952   9.910  -5.788  1.00  0.00     0.029 A 
ATOM     33  N   UNL     1       7.105   7.949  -6.420  1.00  0.00    -0.354 N 
ATOM     34  N   UNL     1       6.148   5.946  -8.488  1.00  0.00    -0.248 NA
ATOM     35  C   UNL     1       5.947   5.301 -10.725  1.00  0.00     0.031 C 
ATOM     36  C   UNL     1       7.916   9.861  -7.188  1.00  0.00     0.029 A 
ATOM     37  C   UNL     1       7.421   8.625  -7.583  1.00  0.00     0.049 A 
ATOM     38  H   UNL     1       6.710   7.049  -6.381  1.00  0.00     0.167 HD
ATOM     39  C   UNL     1       6.735   6.914  -9.283  1.00  0.00     0.074 A 
ATOM     40  C   UNL     1       6.616   6.446 -10.653  1.00  0.00     0.031 C 
ATOM     41  C   UNL     1       7.274   8.106  -8.924  1.00  0.00     0.037 A 
BRANCH  28  42
ATOM     42  C   UNL     1       7.539   9.217  -2.801  1.00  0.00     0.064 A 
ATOM     43  C   UNL     1       8.515   8.924  -1.838  1.00  0.00     0.173 A 
ATOM     44  C   UNL     1       6.746  10.359  -2.600  1.00  0.00     0.173 A 
ATOM     45  F   UNL     1       9.276   7.826  -1.960  1.00  0.00    -0.203 F 
ATOM     46  C   UNL     1       8.647   9.707  -0.691  1.00  0.00     0.198 A 
ATOM     47  C   UNL     1       6.902  11.157  -1.470  1.00  0.00     0.198 A 
ATOM     48  F   UNL     1       5.789  10.683  -3.482  1.00  0.00    -0.203 F 
ATOM     49  F   UNL     1       9.522   9.354   0.262  1.00  0.00    -0.200 F 
ATOM     50  C   UNL     1       7.840  10.820  -0.507  1.00  0.00     0.200 A 
ATOM     51  F   UNL     1       6.120  12.232  -1.296  1.00  0.00    -0.200 F 
ATOM     52  F   UNL     1       7.947  11.553   0.610  1.00  0.00    -0.200 F 
ENDBRANCH  28  42
BRANCH  29  53
ATOM     53  C   UNL     1       4.404   2.844 -10.014  1.00  0.00     0.064 A 
ATOM     54  C   UNL     1       5.360   2.040 -10.653  1.00  0.00     0.173 A 
ATOM     55  C   UNL     1       3.057   2.615 -10.342  1.00  0.00     0.173 A 
ATOM     56  F   UNL     1       6.666   2.229 -10.409  1.00  0.00    -0.203 F 
ATOM     57  C   UNL     1       4.986   1.041 -11.555  1.00  0.00     0.198 A 
ATOM     58  C   UNL     1       2.681   1.589 -11.209  1.00  0.00     0.198 A 
ATOM     59  F   UNL     1       2.094   3.365  -9.787  1.00  0.00    -0.203 F 
ATOM     60  F   UNL     1       5.925   0.305 -12.167  1.00  0.00    -0.200 F 
ATOM     61  C   UNL     1       3.646   0.804 -11.817  1.00  0.00     0.200 A 
ATOM     62  F   UNL     1       1.382   1.355 -11.441  1.00  0.00    -0.200 F 
ATOM     63  F   UNL     1       3.284  -0.178 -12.655  1.00  0.00    -0.200 F 
ENDBRANCH  29  53
BRANCH  41  64
ATOM     64  C   UNL     1       7.752   8.985 -10.036  1.00  0.00     0.064 A 
ATOM     65  C   UNL     1       6.849   9.716 -10.821  1.00  0.00     0.173 A 
ATOM     66  C   UNL     1       9.123   9.161 -10.256  1.00  0.00     0.173 A 
ATOM     67  F   UNL     1       5.527   9.566 -10.648  1.00  0.00    -0.203 F 
ATOM     68  C   UNL     1       7.307  10.593 -11.797  1.00  0.00     0.198 A 
ATOM     69  C   UNL     1       9.578  10.055 -11.219  1.00  0.00     0.198 A 
ATOM     70  F   UNL     1      10.018   8.482  -9.522  1.00  0.00    -0.203 F 
ATOM     71  F   UNL     1       6.431  11.268 -12.554  1.00  0.00    -0.200 F 
ATOM     72  C   UNL     1       8.670  10.769 -11.988  1.00  0.00     0.200 A 
ATOM     73  F   UNL     1      10.894  10.232 -11.396  1.00  0.00    -0.200 F 
ATOM     74  F   UNL     1       9.110  11.627 -12.918  1.00  0.00    -0.200 F 
ENDBRANCH  41  64
ENDBRANCH  15  16
ENDBRANCH   8  10
ENDBRANCH   7   8
ENDBRANCH   6   7
ENDBRANCH   5   6
ENDBRANCH   4   5
ENDBRANCH   3   4
ENDBRANCH   2   3
ENDBRANCH   1   2
BRANCH   1  75
ATOM     75  C   UNL     1       4.802  -3.984  -0.243  1.00  0.00     0.202 C 
BRANCH  75  76
ATOM     76  C   UNL     1       4.648  -3.953  -1.770  1.00  0.00     0.261 C 
BRANCH  76  77
ATOM     77  O   UNL     1       4.667  -2.596  -2.260  1.00  0.00    -0.463 OA
BRANCH  77  78
ATOM     78  C   UNL     1       3.538  -2.169  -2.897  1.00  0.00     0.317 C 
ATOM     79  O   UNL     1       2.800  -1.338  -2.379  1.00  0.00    -0.251 OA
BRANCH  78  80
ATOM     80  C   UNL     1       3.313  -2.848  -4.280  1.00  0.00     0.151 CG0
ATOM     81  G   UNL     1       4.238  -2.516  -5.434  1.00  0.00     0.000 G0
BRANCH  80  82
ATOM     82  C   UNL     1       1.943  -2.627  -4.890  1.00  0.00    -0.052 C 
ATOM     83  C   UNL     1       1.520  -1.374  -5.177  1.00  0.00     0.000 C 
BRANCH  82  84
ATOM     84  C   UNL     1       1.322  -3.837  -5.536  1.00  0.00     0.032 C 
BRANCH  84  85
ATOM     85  C   UNL     1       2.240  -5.070  -5.722  1.00  0.00     0.005 CG1
ATOM     86  G   UNL     1       3.719  -4.958  -6.200  1.00  0.00     0.000 G1
ENDBRANCH  84  85
ENDBRANCH  82  84
BRANCH  83  87
ATOM     87  C   UNL     1       2.359  -0.204  -4.939  1.00  0.00    -0.000 C 
ATOM     88  C   UNL     1       3.682  -0.149  -5.213  1.00  0.00    -0.000 C 
BRANCH  88  89
ATOM     89  C   UNL     1       4.433  -1.234  -5.815  1.00  0.00     0.000 C 
ATOM     90  C   UNL     1       4.238  -2.516  -5.434  1.00  0.00    -0.052 CG0
ATOM     91  G   UNL     1       3.313  -2.848  -4.280  1.00  0.00     0.000 G0
BRANCH  90  92
ATOM     92  C   UNL     1       4.399  -3.601  -6.479  1.00  0.00     0.032 C 
BRANCH  92  93
ATOM     93  C   UNL     1       3.719  -4.958  -6.200  1.00  0.00     0.005 CG1
ATOM     94  G   UNL     1       2.240  -5.070  -5.722  1.00  0.00     0.000 G1
ENDBRANCH  92  93
ENDBRANCH  90  92
ENDBRANCH  88  89
ENDBRANCH  83  87
ENDBRANCH  80  82
ENDBRANCH  78  80
ENDBRANCH  77  78
ENDBRANCH  76  77
ENDBRANCH  75  76
ENDBRANCH   1  75
TORSDOF 17
