REMARK SMILES CCc1ccc(-c2cc(Cl)cc3c2O[C@H](C(F)(F)F)C(C(=O)OCCOCCOCCOC(=O)c2ccc(-c4c5nc(c(-c6c(F)c(F)c(F)c(F)c6F)c6ccc([nH]6)c(-c6c(F)c(F)c(F)c(F)c6F)c6nc(c(-c7c(F)c(F)c(F)c(F)c7F)c7ccc4[nH]7)C=C6)C=C5)cc2)=C3)cc1
REMARK SMILES IDX 27 1 26 2 25 3 24 4 23 5 21 6 22 7 20 8 7 9 8 10 13 11 9 12
REMARK SMILES IDX 12 13 14 14 10 15 11 16 98 17 15 18 6 19 3 20 4 21 100 22
REMARK SMILES IDX 5 23 99 24 2 25 1 26 16 27 17 28 18 29 19 30 28 31 29 32
REMARK SMILES IDX 30 33 31 34 32 35 33 36 34 37 35 38 36 39 97 40 37 41 96 42
REMARK SMILES IDX 38 43 39 44 40 45 90 46 41 47 95 48 89 49 91 50 42 51 94 52
REMARK SMILES IDX 88 53 87 54 43 56 75 57 55 58 74 59 56 60 59 61 73 62 92 63
REMARK SMILES IDX 57 64 58 65 72 67 93 68 60 69 44 70 45 71 53 72 46 73 47 74
REMARK SMILES IDX 51 75 54 76 48 77 49 78 52 79 50 80 76 81 77 82 85 83 78 84
REMARK SMILES IDX 79 85 83 86 86 87 80 88 81 89 84 90 82 91 61 92 62 93 70 94
REMARK SMILES IDX 63 95 64 96 68 97 71 98 65 99 66 100 69 101 67 102
REMARK H PARENT 91 55 59 66
REMARK Flexibility Score: inf
ROOT
ATOM      1  C   UNL     1       2.489  -8.497  -7.256  1.00  0.00     0.188 C 
ENDROOT
BRANCH   1   2
ATOM      2  O   UNL     1       1.786  -8.960  -8.395  1.00  0.00    -0.376 OA
BRANCH   2   3
ATOM      3  C   UNL     1       2.245  -8.511  -9.668  1.00  0.00     0.202 C 
BRANCH   3   4
ATOM      4  C   UNL     1       3.723  -8.795  -9.964  1.00  0.00     0.261 C 
BRANCH   4   5
ATOM      5  O   UNL     1       4.560  -7.831  -9.283  1.00  0.00    -0.460 OA
BRANCH   5   6
ATOM      6  C   UNL     1       4.726  -6.668  -9.953  1.00  0.00     0.338 C 
ATOM      7  O   UNL     1       4.382  -6.471 -11.110  1.00  0.00    -0.246 OA
BRANCH   6   8
ATOM      8  C   UNL     1       5.199  -5.585  -9.054  1.00  0.00     0.087 C 
ATOM      9  C   UNL     1       3.292  -3.972  -5.747  1.00  0.00     0.026 A 
ATOM     10  C   UNL     1       1.897  -4.039  -5.950  1.00  0.00     0.033 A 
ATOM     11  C   UNL     1       4.083  -4.324  -6.838  1.00  0.00     0.135 A 
ATOM     12  C   UNL     1       1.324  -4.305  -7.191  1.00  0.00     0.042 A 
ATOM     13  C   UNL     1       3.508  -4.376  -8.122  1.00  0.00     0.019 A 
ATOM     14  O   UNL     1       5.408  -4.707  -6.727  1.00  0.00    -0.475 OA
ATOM     15  Cl  UNL     1      -0.382  -4.435  -7.338  1.00  0.00    -0.084 Cl
ATOM     16  C   UNL     1       2.130  -4.405  -8.306  1.00  0.00     0.032 A 
ATOM     17  C   UNL     1       4.422  -4.508  -9.269  1.00  0.00     0.027 C 
ATOM     18  C   UNL     1       5.673  -5.865  -7.630  1.00  0.00     0.316 C 
BRANCH   9  19
ATOM     19  C   UNL     1       3.729  -3.294  -4.507  1.00  0.00    -0.015 A 
ATOM     20  C   UNL     1       3.595  -1.536  -2.269  1.00  0.00    -0.048 A 
ATOM     21  C   UNL     1       3.247  -2.884  -2.140  1.00  0.00     0.004 A 
ATOM     22  C   UNL     1       4.108  -1.100  -3.498  1.00  0.00     0.004 A 
ATOM     23  C   UNL     1       3.323  -3.748  -3.243  1.00  0.00     0.009 A 
ATOM     24  C   UNL     1       4.189  -1.970  -4.595  1.00  0.00     0.009 A 
BRANCH  20  25
ATOM     25  C   UNL     1       3.227  -0.521  -1.213  1.00  0.00     0.032 C 
ATOM     26  C   UNL     1       3.480  -0.870   0.242  1.00  0.00     0.009 C 
ENDBRANCH  20  25
ENDBRANCH   9  19
BRANCH  18  27
ATOM     27  C   UNL     1       7.157  -6.240  -7.623  1.00  0.00     0.430 C 
ATOM     28  F   UNL     1       7.943  -5.229  -8.053  1.00  0.00    -0.167 F 
ATOM     29  F   UNL     1       7.570  -6.591  -6.384  1.00  0.00    -0.167 F 
ATOM     30  F   UNL     1       7.391  -7.305  -8.430  1.00  0.00    -0.167 F 
ENDBRANCH  18  27
ENDBRANCH   6   8
ENDBRANCH   5   6
ENDBRANCH   4   5
ENDBRANCH   3   4
ENDBRANCH   2   3
ENDBRANCH   1   2
BRANCH   1  31
ATOM     31  C   UNL     1       3.611  -9.427  -6.745  1.00  0.00     0.188 C 
BRANCH  31  32
ATOM     32  O   UNL     1       3.730 -10.747  -7.258  1.00  0.00    -0.376 OA
BRANCH  32  33
ATOM     33  C   UNL     1       2.568 -11.555  -7.404  1.00  0.00     0.202 C 
BRANCH  33  34
ATOM     34  C   UNL     1       1.771 -11.883  -6.141  1.00  0.00     0.261 C 
BRANCH  34  35
ATOM     35  O   UNL     1       1.211 -10.718  -5.506  1.00  0.00    -0.460 OA
BRANCH  35  36
ATOM     36  C   UNL     1       1.626 -10.512  -4.233  1.00  0.00     0.338 C 
ATOM     37  O   UNL     1       2.389 -11.205  -3.584  1.00  0.00    -0.246 OA
BRANCH  36  38
ATOM     38  C   UNL     1       1.147  -9.210  -3.727  1.00  0.00     0.060 A 
ATOM     39  C   UNL     1       2.102  -8.359  -3.163  1.00  0.00     0.016 A 
ATOM     40  C   UNL     1      -0.211  -8.879  -3.677  1.00  0.00     0.016 A 
ATOM     41  C   UNL     1       1.695  -7.206  -2.495  1.00  0.00     0.010 A 
ATOM     42  C   UNL     1      -0.617  -7.718  -3.001  1.00  0.00     0.010 A 
ATOM     43  C   UNL     1       0.332  -6.889  -2.380  1.00  0.00    -0.014 A 
BRANCH  43  44
ATOM     44  C   UNL     1      -0.054  -5.797  -1.444  1.00  0.00     0.031 A 
ATOM     45  C   UNL     1      -0.014  -6.086   0.025  1.00  0.00     0.074 A 
ATOM     46  C   UNL     1      -0.372  -4.564  -1.877  1.00  0.00     0.049 A 
ATOM     47  N   UNL     1      -0.060  -5.259   1.035  1.00  0.00    -0.248 NA
ATOM     48  C   UNL     1       0.074  -7.505   0.402  1.00  0.00     0.031 C 
ATOM     49  C   UNL     1      -0.505  -4.209  -3.278  1.00  0.00     0.029 A 
ATOM     50  N   UNL     1      -0.591  -3.378  -1.211  1.00  0.00    -0.354 N 
ATOM     51  C   UNL     1      -0.051  -6.060   2.168  1.00  0.00     0.074 A 
ATOM     52  C   UNL     1       0.037  -7.433   1.723  1.00  0.00     0.031 C 
ATOM     53  C   UNL     1      -0.661  -2.880  -3.382  1.00  0.00     0.029 A 
ATOM     54  C   UNL     1      -0.699  -2.283  -2.048  1.00  0.00     0.049 A 
ATOM     55  H   UNL     1      -0.663  -3.316  -0.231  1.00  0.00     0.167 HD
ATOM     56  C   UNL     1      -0.150  -5.677   3.462  1.00  0.00     0.037 A 
ATOM     57  C   UNL     1      -0.781  -0.960  -1.764  1.00  0.00     0.037 A 
ATOM     58  C   UNL     1      -0.254  -4.307   3.886  1.00  0.00     0.049 A 
ATOM     59  C   UNL     1      -0.775  -0.563  -0.301  1.00  0.00     0.074 A 
ATOM     60  C   UNL     1      -0.364  -3.805   5.169  1.00  0.00     0.029 A 
ATOM     61  N   UNL     1      -0.276  -3.219   3.023  1.00  0.00    -0.354 N 
ATOM     62  N   UNL     1      -0.578  -1.309   0.763  1.00  0.00    -0.248 NA
ATOM     63  C   UNL     1      -0.991   0.856   0.007  1.00  0.00     0.031 C 
ATOM     64  C   UNL     1      -0.499  -2.415   5.080  1.00  0.00     0.029 A 
ATOM     65  C   UNL     1      -0.421  -2.047   3.745  1.00  0.00     0.049 A 
ATOM     66  H   UNL     1      -0.199  -3.273   2.043  1.00  0.00     0.167 HD
ATOM     67  C   UNL     1      -0.585  -0.443   1.851  1.00  0.00     0.074 A 
ATOM     68  C   UNL     1      -0.766   0.889   1.313  1.00  0.00     0.031 C 
ATOM     69  C   UNL     1      -0.482  -0.722   3.176  1.00  0.00     0.037 A 
BRANCH  56  70
ATOM     70  C   UNL     1      -0.244  -6.766   4.488  1.00  0.00     0.064 A 
ATOM     71  C   UNL     1       0.857  -7.561   4.836  1.00  0.00     0.173 A 
ATOM     72  C   UNL     1      -1.473  -7.035   5.111  1.00  0.00     0.173 A 
ATOM     73  F   UNL     1       2.047  -7.361   4.250  1.00  0.00    -0.203 F 
ATOM     74  C   UNL     1       0.723  -8.607   5.747  1.00  0.00     0.198 A 
ATOM     75  C   UNL     1      -1.597  -8.063   6.039  1.00  0.00     0.198 A 
ATOM     76  F   UNL     1      -2.558  -6.306   4.807  1.00  0.00    -0.203 F 
ATOM     77  F   UNL     1       1.774  -9.393   6.021  1.00  0.00    -0.200 F 
ATOM     78  C   UNL     1      -0.502  -8.855   6.349  1.00  0.00     0.200 A 
ATOM     79  F   UNL     1      -2.780  -8.299   6.622  1.00  0.00    -0.200 F 
ATOM     80  F   UNL     1      -0.631  -9.867   7.218  1.00  0.00    -0.200 F 
ENDBRANCH  56  70
BRANCH  57  81
ATOM     81  C   UNL     1      -0.743   0.072  -2.864  1.00  0.00     0.064 A 
ATOM     82  C   UNL     1       0.222   1.098  -2.892  1.00  0.00     0.173 A 
ATOM     83  C   UNL     1      -1.625   0.037  -3.957  1.00  0.00     0.173 A 
ATOM     84  F   UNL     1       1.020   1.317  -1.839  1.00  0.00    -0.203 F 
ATOM     85  C   UNL     1       0.363   1.963  -3.978  1.00  0.00     0.198 A 
ATOM     86  C   UNL     1      -1.468   0.883  -5.060  1.00  0.00     0.198 A 
ATOM     87  F   UNL     1      -2.635  -0.846  -3.980  1.00  0.00    -0.203 F 
ATOM     88  F   UNL     1       1.302   2.919  -3.949  1.00  0.00    -0.200 F 
ATOM     89  C   UNL     1      -0.464   1.835  -5.076  1.00  0.00     0.200 A 
ATOM     90  F   UNL     1      -2.283   0.759  -6.117  1.00  0.00    -0.200 F 
ATOM     91  F   UNL     1      -0.304   2.638  -6.137  1.00  0.00    -0.200 F 
ENDBRANCH  57  81
BRANCH  69  92
ATOM     92  C   UNL     1      -0.453   0.433   4.141  1.00  0.00     0.064 A 
ATOM     93  C   UNL     1      -1.577   1.237   4.376  1.00  0.00     0.173 A 
ATOM     94  C   UNL     1       0.701   0.686   4.902  1.00  0.00     0.173 A 
ATOM     95  F   UNL     1      -2.707   1.037   3.681  1.00  0.00    -0.203 F 
ATOM     96  C   UNL     1      -1.538   2.274   5.305  1.00  0.00     0.198 A 
ATOM     97  C   UNL     1       0.725   1.700   5.857  1.00  0.00     0.198 A 
ATOM     98  F   UNL     1       1.800  -0.066   4.736  1.00  0.00    -0.203 F 
ATOM     99  F   UNL     1      -2.609   3.061   5.473  1.00  0.00    -0.200 F 
ATOM    100  C   UNL     1      -0.390   2.499   6.051  1.00  0.00     0.200 A 
ATOM    101  F   UNL     1       1.827   1.899   6.594  1.00  0.00    -0.200 F 
ATOM    102  F   UNL     1      -0.360   3.488   6.954  1.00  0.00    -0.200 F 
ENDBRANCH  69  92
ENDBRANCH  43  44
ENDBRANCH  36  38
ENDBRANCH  35  36
ENDBRANCH  34  35
ENDBRANCH  33  34
ENDBRANCH  32  33
ENDBRANCH  31  32
ENDBRANCH   1  31
TORSDOF 20
