REMARK SMILES CC[C@@H](C)[C@H](NC(=O)[C@H](C)N1C(=O)N2CCC3=c4cc(OC)ccc4=N[C@H]3[C@@]2(C)C1=O)C(=O)OCCOCCOCCOC(=O)c1ccc(-c2c3nc(c(-c4c(F)c(F)c(F)c(F)c4F)c4ccc([nH]4)c(-c4c(F)c(F)c(F)c(F)c4F)c4nc(c(-c5c(F)c(F)c(F)c(F)c5F)c5ccc2[nH]5)C=C4)C=C3)cc1
REMARK SMILES IDX 38 1 37 2 36 3 35 4 34 5 32 6 33 7 5 8 3 9 4 10 2 11 1 12
REMARK SMILES IDX 6 13 7 14 8 16 9 17 10 18 11 19 12 20 30 21 14 22 13 23
REMARK SMILES IDX 28 24 31 25 15 26 27 27 29 28 16 29 17 30 26 31 18 32 25 33
REMARK SMILES IDX 19 34 24 35 20 36 23 37 21 38 22 39 39 40 40 41 41 42 42 43
REMARK SMILES IDX 43 44 44 45 45 46 46 47 47 48 108 49 48 50 107 51 49 52
REMARK SMILES IDX 50 53 51 54 101 55 52 56 106 57 100 58 102 59 53 60 105 61
REMARK SMILES IDX 99 62 98 63 54 65 86 66 66 67 85 68 67 69 70 70 84 71 103 72
REMARK SMILES IDX 68 73 69 74 83 76 104 77 71 78 55 79 56 80 64 81 57 82 58 83
REMARK SMILES IDX 62 84 65 85 59 86 60 87 63 88 61 89 87 90 88 91 96 92 89 93
REMARK SMILES IDX 90 94 94 95 97 96 91 97 92 98 95 99 93 100 72 101 73 102
REMARK SMILES IDX 81 103 74 104 75 105 79 106 82 107 76 108 77 109 80 110
REMARK SMILES IDX 78 111
REMARK H PARENT 6 15 102 64 70 75
REMARK Flexibility Score: inf
ROOT
ATOM      1  C   UNL     1       3.020  -3.970   3.340  1.00  0.00     0.188 C 
ENDROOT
BRANCH   1   2
ATOM      2  O   UNL     1       2.740  -3.197   4.683  1.00  0.00    -0.376 OA
BRANCH   2   3
ATOM      3  C   UNL     1       1.386  -3.230   5.779  1.00  0.00     0.202 C 
BRANCH   3   4
ATOM      4  C   UNL     1       0.929  -1.904   7.482  1.00  0.00     0.261 C 
BRANCH   4   5
ATOM      5  O   UNL     1       1.067  -0.110   7.369  1.00  0.00    -0.462 OA
BRANCH   5   6
ATOM      6  C   UNL     1       2.093   0.807   7.026  1.00  0.00     0.328 C 
ATOM      7  O   UNL     1       2.492   1.531   7.944  1.00  0.00    -0.250 OA
BRANCH   6   8
ATOM      8  C   UNL     1       2.783   0.997   5.403  1.00  0.00     0.195 C 
BRANCH   8   9
ATOM      9  C   UNL     1       3.006   2.497   4.965  1.00  0.00     0.019 C 
ATOM     10  C   UNL     1       4.054   2.539   3.824  1.00  0.00     0.010 C 
BRANCH   9  11
ATOM     11  C   UNL     1       3.454   3.420   6.119  1.00  0.00     0.002 C 
ATOM     12  C   UNL     1       3.961   4.795   5.704  1.00  0.00     0.004 C 
ENDBRANCH   9  11
ENDBRANCH   8   9
BRANCH   8  13
ATOM     13  N   UNL     1       2.271   0.258   4.141  1.00  0.00    -0.341 N 
ATOM     14  C   UNL     1       2.654  -1.023   3.629  1.00  0.00     0.243 C 
ATOM     15  H   UNL     1       1.586   0.736   3.619  1.00  0.00     0.164 HD
ATOM     16  O   UNL     1       3.851  -1.241   3.415  1.00  0.00    -0.273 OA
BRANCH  14  17
ATOM     17  C   UNL     1       1.334  -2.157   3.077  1.00  0.00     0.181 C 
ATOM     18  C   UNL     1       0.114  -0.958   2.680  1.00  0.00     0.042 C 
BRANCH  17  19
ATOM     19  N   UNL     1       0.849  -4.111   2.832  1.00  0.00    -0.250 N 
ATOM     20  C   UNL     1       0.309  -5.035   4.294  1.00  0.00     0.328 C 
ATOM     21  C   UNL     1      -0.389  -4.462   1.289  1.00  0.00     0.259 C 
ATOM     22  N   UNL     1      -1.473  -5.354   4.095  1.00  0.00    -0.307 N 
ATOM     23  O   UNL     1       0.992  -5.891   4.879  1.00  0.00    -0.248 OA
ATOM     24  C   UNL     1      -1.877  -4.628   2.845  1.00  0.00     0.147 C 
ATOM     25  O   UNL     1      -0.511  -4.279   0.092  1.00  0.00    -0.271 OA
ATOM     26  C   UNL     1      -2.730  -5.372   5.354  1.00  0.00     0.127 C 
ATOM     27  C   UNL     1      -1.697  -3.506   4.455  1.00  0.00     0.168 C 
ATOM     28  C   UNL     1      -3.283  -4.918   2.343  1.00  0.00     0.048 C 
ATOM     29  C   UNL     1      -3.037  -3.678   6.132  1.00  0.00     0.055 C 
ATOM     30  C   UNL     1      -1.886  -2.439   5.449  1.00  0.00    -0.032 C 
ATOM     31  N   UNL     1      -0.947  -4.386   5.938  1.00  0.00    -0.274 NA
ATOM     32  C   UNL     1      -0.661  -2.076   6.050  1.00  0.00     0.005 A 
ATOM     33  C   UNL     1      -0.405  -3.593   6.821  1.00  0.00     0.066 A 
ATOM     34  C   UNL     1       0.995  -1.284   5.625  1.00  0.00     0.056 A 
ATOM     35  C   UNL     1       1.161  -4.007   7.815  1.00  0.00     0.032 A 
ATOM     36  C   UNL     1       2.516  -1.745   6.360  1.00  0.00     0.119 A 
ATOM     37  C   UNL     1       2.499  -3.268   7.520  1.00  0.00     0.048 A 
BRANCH  36  38
ATOM     38  O   UNL     1       3.739  -1.154   6.432  1.00  0.00    -0.497 OA
ATOM     39  C   UNL     1       4.889  -1.971   6.212  1.00  0.00     0.278 C 
ENDBRANCH  36  38
ENDBRANCH  17  19
ENDBRANCH  14  17
ENDBRANCH   8  13
ENDBRANCH   6   8
ENDBRANCH   5   6
ENDBRANCH   4   5
ENDBRANCH   3   4
ENDBRANCH   2   3
ENDBRANCH   1   2
BRANCH   1  40
ATOM     40  C   UNL     1       2.421  -3.595   1.582  1.00  0.00     0.188 C 
BRANCH  40  41
ATOM     41  O   UNL     1       0.775  -2.888   1.273  1.00  0.00    -0.376 OA
BRANCH  41  42
ATOM     42  C   UNL     1      -0.613  -3.390   2.507  1.00  0.00     0.202 C 
BRANCH  42  43
ATOM     43  C   UNL     1      -0.242  -5.648   2.467  1.00  0.00     0.261 C 
BRANCH  43  44
ATOM     44  O   UNL     1       1.215  -6.178   2.250  1.00  0.00    -0.460 OA
BRANCH  44  45
ATOM     45  C   UNL     1       1.707  -7.002   1.320  1.00  0.00     0.338 C 
ATOM     46  O   UNL     1       1.156  -7.455   0.342  1.00  0.00    -0.246 OA
BRANCH  45  47
ATOM     47  C   UNL     1       3.135  -7.142   1.718  1.00  0.00     0.060 A 
ATOM     48  C   UNL     1       3.463  -7.745   2.942  1.00  0.00     0.016 A 
ATOM     49  C   UNL     1       4.133  -6.521   0.962  1.00  0.00     0.016 A 
ATOM     50  C   UNL     1       4.794  -7.777   3.381  1.00  0.00     0.010 A 
ATOM     51  C   UNL     1       5.454  -6.504   1.429  1.00  0.00     0.010 A 
ATOM     52  C   UNL     1       5.805  -7.176   2.618  1.00  0.00    -0.014 A 
BRANCH  52  53
ATOM     53  C   UNL     1       7.232  -7.510   2.878  1.00  0.00     0.031 A 
ATOM     54  C   UNL     1       8.071  -6.867   3.943  1.00  0.00     0.074 A 
ATOM     55  C   UNL     1       7.771  -8.467   2.098  1.00  0.00     0.049 A 
ATOM     56  N   UNL     1       9.294  -7.171   4.308  1.00  0.00    -0.248 NA
ATOM     57  C   UNL     1       7.483  -5.750   4.694  1.00  0.00     0.031 C 
ATOM     58  C   UNL     1       7.055  -9.180   1.037  1.00  0.00     0.029 A 
ATOM     59  N   UNL     1       9.037  -8.990   2.056  1.00  0.00    -0.354 N 
ATOM     60  C   UNL     1       9.613  -6.315   5.352  1.00  0.00     0.074 A 
ATOM     61  C   UNL     1       8.467  -5.445   5.537  1.00  0.00     0.031 C 
ATOM     62  C   UNL     1       7.904 -10.003   0.410  1.00  0.00     0.029 A 
ATOM     63  C   UNL     1       9.211  -9.904   1.048  1.00  0.00     0.049 A 
ATOM     64  H   UNL     1       9.749  -8.736   2.685  1.00  0.00     0.167 HD
ATOM     65  C   UNL     1      10.750  -6.280   6.091  1.00  0.00     0.037 A 
ATOM     66  C   UNL     1      10.295 -10.605   0.675  1.00  0.00     0.037 A 
ATOM     67  C   UNL     1      11.895  -7.140   5.895  1.00  0.00     0.049 A 
ATOM     68  C   UNL     1      11.549 -10.512   1.479  1.00  0.00     0.074 A 
ATOM     69  C   UNL     1      13.045  -7.237   6.664  1.00  0.00     0.029 A 
ATOM     70  N   UNL     1      12.048  -8.032   4.845  1.00  0.00    -0.354 N 
ATOM     71  N   UNL     1      11.793  -9.778   2.534  1.00  0.00    -0.248 NA
ATOM     72  C   UNL     1      12.665 -11.371   1.064  1.00  0.00     0.031 C 
ATOM     73  C   UNL     1      13.909  -8.157   6.058  1.00  0.00     0.029 A 
ATOM     74  C   UNL     1      13.285  -8.656   4.928  1.00  0.00     0.049 A 
ATOM     75  H   UNL     1      11.378  -8.198   4.143  1.00  0.00     0.167 HD
ATOM     76  C   UNL     1      13.079 -10.104   2.931  1.00  0.00     0.074 A 
ATOM     77  C   UNL     1      13.568 -11.099   1.998  1.00  0.00     0.031 C 
ATOM     78  C   UNL     1      13.779  -9.627   3.987  1.00  0.00     0.037 A 
BRANCH  65  79
ATOM     79  C   UNL     1      10.834  -5.303   7.227  1.00  0.00     0.064 A 
ATOM     80  C   UNL     1      10.220  -5.578   8.457  1.00  0.00     0.173 A 
ATOM     81  C   UNL     1      11.662  -4.173   7.142  1.00  0.00     0.173 A 
ATOM     82  F   UNL     1       9.430  -6.653   8.591  1.00  0.00    -0.203 F 
ATOM     83  C   UNL     1      10.436  -4.760   9.564  1.00  0.00     0.198 A 
ATOM     84  C   UNL     1      11.884  -3.364   8.254  1.00  0.00     0.198 A 
ATOM     85  F   UNL     1      12.287  -3.879   5.992  1.00  0.00    -0.203 F 
ATOM     86  F   UNL     1       9.847  -5.047  10.733  1.00  0.00    -0.200 F 
ATOM     87  C   UNL     1      11.275  -3.660   9.464  1.00  0.00     0.200 A 
ATOM     88  F   UNL     1      12.708  -2.310   8.162  1.00  0.00    -0.200 F 
ATOM     89  F   UNL     1      11.504  -2.890  10.538  1.00  0.00    -0.200 F 
ENDBRANCH  65  79
BRANCH  66  90
ATOM     90  C   UNL     1      10.184 -11.499  -0.497  1.00  0.00     0.064 A 
ATOM     91  C   UNL     1       9.953 -12.869  -0.331  1.00  0.00     0.173 A 
ATOM     92  C   UNL     1      10.205 -10.981  -1.799  1.00  0.00     0.173 A 
ATOM     93  F   UNL     1       9.928 -13.399   0.900  1.00  0.00    -0.203 F 
ATOM     94  C   UNL     1       9.740 -13.694  -1.432  1.00  0.00     0.198 A 
ATOM     95  C   UNL     1       9.981 -11.805  -2.897  1.00  0.00     0.198 A 
ATOM     96  F   UNL     1      10.410  -9.670  -1.996  1.00  0.00    -0.203 F 
ATOM     97  F   UNL     1       9.520 -15.003  -1.252  1.00  0.00    -0.200 F 
ATOM     98  C   UNL     1       9.747 -13.160  -2.713  1.00  0.00     0.200 A 
ATOM     99  F   UNL     1       9.975 -11.285  -4.133  1.00  0.00    -0.200 F 
ATOM    100  F   UNL     1       9.523 -13.951  -3.770  1.00  0.00    -0.200 F 
ENDBRANCH  66  90
BRANCH  78 101
ATOM    101  C   UNL     1      15.154 -10.182   4.189  1.00  0.00     0.064 A 
ATOM    102  C   UNL     1      16.232  -9.755   3.402  1.00  0.00     0.173 A 
ATOM    103  C   UNL     1      15.397 -11.145   5.179  1.00  0.00     0.173 A 
ATOM    104  F   UNL     1      16.041  -8.851   2.429  1.00  0.00    -0.203 F 
ATOM    105  C   UNL     1      17.505 -10.288   3.587  1.00  0.00     0.198 A 
ATOM    106  C   UNL     1      16.675 -11.664   5.371  1.00  0.00     0.198 A 
ATOM    107  F   UNL     1      14.396 -11.586   5.954  1.00  0.00    -0.203 F 
ATOM    108  F   UNL     1      18.515  -9.894   2.799  1.00  0.00    -0.200 F 
ATOM    109  C   UNL     1      17.726 -11.239   4.572  1.00  0.00     0.200 A 
ATOM    110  F   UNL     1      16.888 -12.582   6.324  1.00  0.00    -0.200 F 
ATOM    111  F   UNL     1      18.951 -11.754   4.745  1.00  0.00    -0.200 F 
ENDBRANCH  78 101
ENDBRANCH  52  53
ENDBRANCH  45  47
ENDBRANCH  44  45
ENDBRANCH  43  44
ENDBRANCH  42  43
ENDBRANCH  41  42
ENDBRANCH  40  41
ENDBRANCH   1  40
TORSDOF 23
