REMARK SMILES COC[C@H](C)n1c(SCC(=O)OCCOCCOCCOC(=O)c2ccc(-c3c4nc(c(-c5c(F)c(F)c(F)c(F)c5F)c5ccc([nH]5)c(-c5c(F)c(F)c(F)c(F)c5F)c5nc(c(-c6c(F)c(F)c(F)c(F)c6F)c6ccc3[nH]6)C=C5)C=C4)cc2)nc2cc(C)cnc21
REMARK SMILES IDX 15 1 14 2 13 3 12 4 10 5 11 6 9 7 8 8 7 9 6 10 94 11 87 12
REMARK SMILES IDX 88 13 93 14 89 15 92 16 90 17 91 18 4 19 5 20 3 21 2 22 1 23
REMARK SMILES IDX 16 24 17 25 18 26 19 27 20 28 21 29 22 30 23 31 24 32 25 33
REMARK SMILES IDX 86 34 26 35 85 36 27 37 28 38 29 39 79 40 30 41 84 42 78 43
REMARK SMILES IDX 80 44 31 45 83 46 77 47 76 48 32 50 64 51 44 52 63 53 45 54
REMARK SMILES IDX 48 55 62 56 81 57 46 58 47 59 61 61 82 62 49 63 33 64 34 65
REMARK SMILES IDX 42 66 35 67 36 68 40 69 43 70 37 71 38 72 41 73 39 74 65 75
REMARK SMILES IDX 66 76 74 77 67 78 68 79 72 80 75 81 69 82 70 83 73 84 71 85
REMARK SMILES IDX 50 86 51 87 59 88 52 89 53 90 57 91 60 92 54 93 55 94 58 95
REMARK SMILES IDX 56 96
REMARK H PARENT 80 49 48 60
REMARK Flexibility Score: inf
ROOT
ATOM      1  O   UNL     1      -2.338   1.667  -3.520  1.00  0.00    -0.376 OA
ENDROOT
BRANCH   1   2
ATOM      2  C   UNL     1      -3.577   2.336  -3.310  1.00  0.00     0.202 C 
BRANCH   2   3
ATOM      3  C   UNL     1      -4.148   2.257  -1.895  1.00  0.00     0.261 C 
BRANCH   3   4
ATOM      4  O   UNL     1      -3.489   3.163  -0.981  1.00  0.00    -0.463 OA
BRANCH   4   5
ATOM      5  C   UNL     1      -3.156   2.670   0.238  1.00  0.00     0.316 C 
ATOM      6  O   UNL     1      -3.317   1.497   0.567  1.00  0.00    -0.251 OA
BRANCH   5   7
ATOM      7  C   UNL     1      -2.620   3.679   1.235  1.00  0.00     0.200 C 
BRANCH   7   8
ATOM      8  S   UNL     1      -2.067   5.252   0.620  1.00  0.00    -0.076 SA
BRANCH   8   9
ATOM      9  C   UNL     1      -0.357   5.351   0.324  1.00  0.00     0.171 A 
ATOM     10  N   UNL     1       0.686   4.447   0.484  1.00  0.00    -0.298 N 
ATOM     11  C   UNL     1       1.847   5.131   0.139  1.00  0.00     0.161 A 
ATOM     12  N   UNL     1       0.071   6.477  -0.214  1.00  0.00    -0.221 NA
ATOM     13  C   UNL     1       1.407   6.326  -0.410  1.00  0.00     0.109 A 
ATOM     14  N   UNL     1       3.127   4.704   0.196  1.00  0.00    -0.236 NA
ATOM     15  C   UNL     1       2.325   7.136  -1.089  1.00  0.00     0.037 A 
ATOM     16  C   UNL     1       3.984   5.532  -0.475  1.00  0.00     0.117 A 
ATOM     17  C   UNL     1       3.642   6.681  -1.188  1.00  0.00    -0.030 A 
ATOM     18  C   UNL     1       4.639   7.393  -2.051  1.00  0.00     0.046 C 
BRANCH  10  19
ATOM     19  C   UNL     1       0.623   3.005   0.704  1.00  0.00     0.114 C 
ATOM     20  C   UNL     1       1.522   2.153  -0.208  1.00  0.00     0.034 C 
BRANCH  19  21
ATOM     21  C   UNL     1       0.838   2.602   2.171  1.00  0.00     0.185 C 
BRANCH  21  22
ATOM     22  O   UNL     1       0.778   1.183   2.379  1.00  0.00    -0.383 OA
ATOM     23  C   UNL     1      -0.491   0.589   2.127  1.00  0.00     0.194 C 
ENDBRANCH  21  22
ENDBRANCH  19  21
ENDBRANCH  10  19
ENDBRANCH   8   9
ENDBRANCH   7   8
ENDBRANCH   5   7
ENDBRANCH   4   5
ENDBRANCH   3   4
ENDBRANCH   2   3
ENDBRANCH   1   2
BRANCH   1  24
ATOM     24  C   UNL     1      -1.195   2.141  -2.829  1.00  0.00     0.188 C 
BRANCH  24  25
ATOM     25  C   UNL     1      -0.966   3.655  -2.718  1.00  0.00     0.188 C 
BRANCH  25  26
ATOM     26  O   UNL     1      -1.432   4.555  -3.706  1.00  0.00    -0.376 OA
BRANCH  26  27
ATOM     27  C   UNL     1      -1.337   4.225  -5.079  1.00  0.00     0.202 C 
BRANCH  27  28
ATOM     28  C   UNL     1       0.047   4.264  -5.699  1.00  0.00     0.261 C 
BRANCH  28  29
ATOM     29  O   UNL     1       0.914   3.272  -5.154  1.00  0.00    -0.460 OA
BRANCH  29  30
ATOM     30  C   UNL     1       1.789   3.788  -4.279  1.00  0.00     0.338 C 
ATOM     31  O   UNL     1       1.788   4.919  -3.794  1.00  0.00    -0.246 OA
BRANCH  30  32
ATOM     32  C   UNL     1       2.883   2.860  -4.027  1.00  0.00     0.060 A 
ATOM     33  C   UNL     1       3.545   3.047  -2.817  1.00  0.00     0.016 A 
ATOM     34  C   UNL     1       3.482   2.209  -5.106  1.00  0.00     0.016 A 
ATOM     35  C   UNL     1       4.894   2.831  -2.749  1.00  0.00     0.010 A 
ATOM     36  C   UNL     1       4.845   1.995  -5.046  1.00  0.00     0.010 A 
ATOM     37  C   UNL     1       5.541   2.454  -3.920  1.00  0.00    -0.014 A 
BRANCH  37  38
ATOM     38  C   UNL     1       6.962   2.769  -3.965  1.00  0.00     0.031 A 
ATOM     39  C   UNL     1       7.834   1.998  -3.039  1.00  0.00     0.074 A 
ATOM     40  C   UNL     1       7.385   3.716  -4.827  1.00  0.00     0.049 A 
ATOM     41  N   UNL     1       8.855   2.402  -2.351  1.00  0.00    -0.248 NA
ATOM     42  C   UNL     1       7.456   0.594  -2.795  1.00  0.00     0.031 C 
ATOM     43  C   UNL     1       6.592   4.414  -5.851  1.00  0.00     0.029 A 
ATOM     44  N   UNL     1       8.651   4.144  -5.084  1.00  0.00    -0.354 N 
ATOM     45  C   UNL     1       9.339   1.267  -1.707  1.00  0.00     0.074 A 
ATOM     46  C   UNL     1       8.383   0.212  -1.923  1.00  0.00     0.031 C 
ATOM     47  C   UNL     1       7.426   4.913  -6.784  1.00  0.00     0.029 A 
ATOM     48  C   UNL     1       8.791   4.646  -6.369  1.00  0.00     0.049 A 
ATOM     49  H   UNL     1       9.386   4.101  -4.430  1.00  0.00     0.167 HD
ATOM     50  C   UNL     1      10.596   1.178  -1.202  1.00  0.00     0.037 A 
ATOM     51  C   UNL     1       9.930   4.660  -7.101  1.00  0.00     0.037 A 
ATOM     52  C   UNL     1      11.146   2.446  -0.837  1.00  0.00     0.049 A 
ATOM     53  C   UNL     1      11.069   4.496  -6.164  1.00  0.00     0.074 A 
ATOM     54  C   UNL     1      10.809   3.400   0.104  1.00  0.00     0.029 A 
ATOM     55  N   UNL     1      12.057   3.049  -1.665  1.00  0.00    -0.354 N 
ATOM     56  N   UNL     1      11.444   5.391  -5.291  1.00  0.00    -0.248 NA
ATOM     57  C   UNL     1      11.547   3.143  -5.913  1.00  0.00     0.031 C 
ATOM     58  C   UNL     1      11.178   4.648  -0.472  1.00  0.00     0.029 A 
ATOM     59  C   UNL     1      11.715   4.377  -1.730  1.00  0.00     0.049 A 
ATOM     60  H   UNL     1      12.812   2.614  -2.124  1.00  0.00     0.167 HD
ATOM     61  C   UNL     1      11.868   4.660  -4.190  1.00  0.00     0.074 A 
ATOM     62  C   UNL     1      12.001   3.288  -4.666  1.00  0.00     0.031 C 
ATOM     63  C   UNL     1      11.802   5.175  -2.928  1.00  0.00     0.037 A 
BRANCH  50  64
ATOM     64  C   UNL     1      11.389  -0.090  -1.297  1.00  0.00     0.064 A 
ATOM     65  C   UNL     1      12.508  -0.308  -0.478  1.00  0.00     0.173 A 
ATOM     66  C   UNL     1      11.205  -1.014  -2.352  1.00  0.00     0.173 A 
ATOM     67  F   UNL     1      12.806   0.549   0.509  1.00  0.00    -0.203 F 
ATOM     68  C   UNL     1      13.377  -1.379  -0.701  1.00  0.00     0.198 A 
ATOM     69  C   UNL     1      12.038  -2.111  -2.536  1.00  0.00     0.198 A 
ATOM     70  F   UNL     1      10.267  -0.827  -3.293  1.00  0.00    -0.203 F 
ATOM     71  F   UNL     1      14.481  -1.507   0.048  1.00  0.00    -0.200 F 
ATOM     72  C   UNL     1      13.136  -2.285  -1.722  1.00  0.00     0.200 A 
ATOM     73  F   UNL     1      11.800  -2.959  -3.546  1.00  0.00    -0.200 F 
ATOM     74  F   UNL     1      13.985  -3.295  -1.952  1.00  0.00    -0.200 F 
ENDBRANCH  50  64
BRANCH  51  75
ATOM     75  C   UNL     1      10.033   4.423  -8.563  1.00  0.00     0.064 A 
ATOM     76  C   UNL     1      11.196   4.762  -9.267  1.00  0.00     0.173 A 
ATOM     77  C   UNL     1       9.077   3.662  -9.271  1.00  0.00     0.173 A 
ATOM     78  F   UNL     1      12.186   5.424  -8.652  1.00  0.00    -0.203 F 
ATOM     79  C   UNL     1      11.386   4.375 -10.599  1.00  0.00     0.198 A 
ATOM     80  C   UNL     1       9.255   3.300 -10.605  1.00  0.00     0.198 A 
ATOM     81  F   UNL     1       7.987   3.172  -8.663  1.00  0.00    -0.203 F 
ATOM     82  F   UNL     1      12.535   4.671 -11.223  1.00  0.00    -0.200 F 
ATOM     83  C   UNL     1      10.414   3.649 -11.268  1.00  0.00     0.200 A 
ATOM     84  F   UNL     1       8.319   2.566 -11.224  1.00  0.00    -0.200 F 
ATOM     85  F   UNL     1      10.610   3.250 -12.532  1.00  0.00    -0.200 F 
ENDBRANCH  51  75
BRANCH  63  86
ATOM     86  C   UNL     1      11.480   6.635  -2.788  1.00  0.00     0.064 A 
ATOM     87  C   UNL     1      10.231   7.175  -3.139  1.00  0.00     0.173 A 
ATOM     88  C   UNL     1      12.383   7.472  -2.120  1.00  0.00     0.173 A 
ATOM     89  F   UNL     1       9.276   6.404  -3.674  1.00  0.00    -0.203 F 
ATOM     90  C   UNL     1       9.918   8.506  -2.874  1.00  0.00     0.198 A 
ATOM     91  C   UNL     1      12.055   8.793  -1.826  1.00  0.00     0.198 A 
ATOM     92  F   UNL     1      13.562   6.989  -1.698  1.00  0.00    -0.203 F 
ATOM     93  F   UNL     1       8.718   8.996  -3.220  1.00  0.00    -0.200 F 
ATOM     94  C   UNL     1      10.828   9.312  -2.211  1.00  0.00     0.200 A 
ATOM     95  F   UNL     1      12.914   9.556  -1.135  1.00  0.00    -0.200 F 
ATOM     96  F   UNL     1      10.509  10.579  -1.911  1.00  0.00    -0.200 F 
ENDBRANCH  63  86
ENDBRANCH  37  38
ENDBRANCH  30  32
ENDBRANCH  29  30
ENDBRANCH  28  29
ENDBRANCH  27  28
ENDBRANCH  26  27
ENDBRANCH  25  26
ENDBRANCH  24  25
ENDBRANCH   1  24
TORSDOF 22
