REMARK SMILES Cc1ncn(CC[C@@H]2CCC[C@@]2([NH3+])C(=O)OCCOCCOCCOC(=O)c2ccc(-c3c4nc(c(-c5c(F)c(F)c(F)c(F)c5F)c5ccc([nH]5)c(-c5c(F)c(F)c(F)c(F)c5F)c5nc(c(-c6c(F)c(F)c(F)c(F)c6F)c6ccc3[nH]6)C=C5)C=C4)cc2)c1C
REMARK SMILES IDX 20 1 19 2 18 3 17 4 16 5 14 6 15 7 12 8 8 9 9 10 10 11 11 12
REMARK SMILES IDX 7 13 6 14 5 15 1 16 2 17 3 18 91 19 4 20 92 21 13 22 21 26
REMARK SMILES IDX 22 27 23 28 24 29 25 30 26 31 27 32 28 33 29 34 90 35 30 36
REMARK SMILES IDX 89 37 31 38 32 39 33 40 83 41 34 42 88 43 82 44 84 45 35 46
REMARK SMILES IDX 87 47 81 48 80 49 36 51 68 52 48 53 67 54 49 55 52 56 66 57
REMARK SMILES IDX 85 58 50 59 51 60 65 62 86 63 53 64 37 65 38 66 46 67 39 68
REMARK SMILES IDX 40 69 44 70 47 71 41 72 42 73 45 74 43 75 69 76 70 77 78 78
REMARK SMILES IDX 71 79 72 80 76 81 79 82 73 83 74 84 77 85 75 86 54 87 55 88
REMARK SMILES IDX 63 89 56 90 57 91 61 92 64 93 58 94 59 95 62 96 60 97
REMARK H PARENT 13 23 13 24 13 25 84 50 52 61
REMARK Flexibility Score: inf
ROOT
ATOM      1  C   UNL     1      -4.414   0.716   6.056  1.00  0.00     0.188 C 
ENDROOT
BRANCH   1   2
ATOM      2  O   UNL     1      -5.257   0.336   4.990  1.00  0.00    -0.376 OA
BRANCH   2   3
ATOM      3  C   UNL     1      -5.108   1.082   3.791  1.00  0.00     0.202 C 
BRANCH   3   4
ATOM      4  C   UNL     1      -3.723   1.103   3.136  1.00  0.00     0.261 C 
BRANCH   4   5
ATOM      5  O   UNL     1      -2.600   1.279   4.030  1.00  0.00    -0.459 OA
BRANCH   5   6
ATOM      6  C   UNL     1      -2.000   2.487   4.145  1.00  0.00     0.368 C 
ATOM      7  O   UNL     1      -2.471   3.511   3.667  1.00  0.00    -0.245 OA
BRANCH   6   8
ATOM      8  C   UNL     1      -0.714   2.419   5.038  1.00  0.00     0.195 C 
ATOM      9  C   UNL     1       0.382   1.368   4.664  1.00  0.00     0.064 C 
ATOM     10  C   UNL     1       1.637   1.918   5.379  1.00  0.00     0.011 C 
ATOM     11  C   UNL     1       1.490   3.438   5.363  1.00  0.00     0.008 C 
ATOM     12  C   UNL     1       0.099   3.712   4.796  1.00  0.00     0.081 C 
BRANCH   9  13
ATOM     13  C   UNL     1       0.225  -0.135   4.978  1.00  0.00     0.032 C 
BRANCH  13  14
ATOM     14  C   UNL     1      -0.521  -0.997   3.944  1.00  0.00     0.124 C 
BRANCH  14  15
ATOM     15  N   UNL     1       0.178  -1.209   2.688  1.00  0.00    -0.335 N 
ATOM     16  C   UNL     1       1.485  -0.689  -0.668  1.00  0.00     0.069 C 
ATOM     17  C   UNL     1       1.037  -1.100   0.682  1.00  0.00     0.058 A 
ATOM     18  N   UNL     1       1.444  -2.293   1.219  1.00  0.00    -0.242 NA
ATOM     19  C   UNL     1       0.187  -0.435   1.548  1.00  0.00     0.037 A 
ATOM     20  C   UNL     1       0.892  -2.345   2.408  1.00  0.00     0.199 A 
ATOM     21  C   UNL     1      -0.550   0.829   1.323  1.00  0.00     0.066 C 
ENDBRANCH  14  15
ENDBRANCH  13  14
ENDBRANCH   9  13
BRANCH   8  22
ATOM     22  N   UNL     1      -1.052   2.435   6.481  1.00  0.00    -0.343 N 
ATOM     23  H   UNL     1      -0.194   2.389   7.032  1.00  0.00     0.345 HD
ATOM     24  H   UNL     1      -1.639   1.631   6.702  1.00  0.00     0.345 HD
ATOM     25  H   UNL     1      -1.553   3.294   6.704  1.00  0.00     0.345 HD
ENDBRANCH   8  22
ENDBRANCH   6   8
ENDBRANCH   5   6
ENDBRANCH   4   5
ENDBRANCH   3   4
ENDBRANCH   2   3
ENDBRANCH   1   2
BRANCH   1  26
ATOM     26  C   UNL     1      -3.255  -0.264   6.316  1.00  0.00     0.188 C 
BRANCH  26  27
ATOM     27  O   UNL     1      -3.097  -1.498   5.624  1.00  0.00    -0.376 OA
BRANCH  27  28
ATOM     28  C   UNL     1      -4.205  -2.293   5.234  1.00  0.00     0.202 C 
BRANCH  28  29
ATOM     29  C   UNL     1      -5.027  -2.944   6.336  1.00  0.00     0.261 C 
BRANCH  29  30
ATOM     30  O   UNL     1      -5.496  -1.984   7.267  1.00  0.00    -0.460 OA
BRANCH  30  31
ATOM     31  C   UNL     1      -4.729  -1.837   8.357  1.00  0.00     0.338 C 
ATOM     32  O   UNL     1      -3.696  -2.451   8.640  1.00  0.00    -0.246 OA
BRANCH  31  33
ATOM     33  C   UNL     1      -5.310  -0.799   9.207  1.00  0.00     0.060 A 
ATOM     34  C   UNL     1      -4.642  -0.511  10.399  1.00  0.00     0.016 A 
ATOM     35  C   UNL     1      -6.596  -0.306   8.932  1.00  0.00     0.016 A 
ATOM     36  C   UNL     1      -5.378  -0.000  11.438  1.00  0.00     0.010 A 
ATOM     37  C   UNL     1      -7.332   0.205   9.967  1.00  0.00     0.010 A 
ATOM     38  C   UNL     1      -6.743   0.212  11.228  1.00  0.00    -0.014 A 
BRANCH  38  39
ATOM     39  C   UNL     1      -7.590   0.232  12.398  1.00  0.00     0.031 A 
ATOM     40  C   UNL     1      -7.696   1.534  13.065  1.00  0.00     0.074 A 
ATOM     41  C   UNL     1      -8.262  -0.881  12.755  1.00  0.00     0.049 A 
ATOM     42  N   UNL     1      -7.355   1.831  14.272  1.00  0.00    -0.248 NA
ATOM     43  C   UNL     1      -8.147   2.675  12.256  1.00  0.00     0.031 C 
ATOM     44  C   UNL     1      -8.409  -2.110  11.962  1.00  0.00     0.029 A 
ATOM     45  N   UNL     1      -9.048  -1.115  13.843  1.00  0.00    -0.354 N 
ATOM     46  C   UNL     1      -7.748   3.151  14.443  1.00  0.00     0.074 A 
ATOM     47  C   UNL     1      -8.062   3.669  13.138  1.00  0.00     0.031 C 
ATOM     48  C   UNL     1      -9.398  -2.861  12.488  1.00  0.00     0.029 A 
ATOM     49  C   UNL     1      -9.858  -2.233  13.714  1.00  0.00     0.049 A 
ATOM     50  H   UNL     1      -9.042  -0.545  14.646  1.00  0.00     0.167 HD
ATOM     51  C   UNL     1      -8.094   3.603  15.674  1.00  0.00     0.037 A 
ATOM     52  C   UNL     1     -10.888  -2.582  14.518  1.00  0.00     0.037 A 
ATOM     53  C   UNL     1      -7.576   2.757  16.717  1.00  0.00     0.049 A 
ATOM     54  C   UNL     1     -10.701  -1.910  15.825  1.00  0.00     0.074 A 
ATOM     55  C   UNL     1      -6.344   2.522  17.286  1.00  0.00     0.029 A 
ATOM     56  N   UNL     1      -8.402   1.733  17.094  1.00  0.00    -0.354 N 
ATOM     57  N   UNL     1      -9.729  -2.183  16.651  1.00  0.00    -0.248 NA
ATOM     58  C   UNL     1     -11.432  -0.679  16.113  1.00  0.00     0.031 C 
ATOM     59  C   UNL     1      -6.414   1.226  17.876  1.00  0.00     0.029 A 
ATOM     60  C   UNL     1      -7.684   0.702  17.641  1.00  0.00     0.049 A 
ATOM     61  H   UNL     1      -9.381   1.736  16.987  1.00  0.00     0.167 HD
ATOM     62  C   UNL     1      -9.469  -0.984  17.285  1.00  0.00     0.074 A 
ATOM     63  C   UNL     1     -10.646  -0.162  17.061  1.00  0.00     0.031 C 
ATOM     64  C   UNL     1      -8.197  -0.648  17.643  1.00  0.00     0.037 A 
BRANCH  51  65
ATOM     65  C   UNL     1      -9.288   4.494  15.917  1.00  0.00     0.064 A 
ATOM     66  C   UNL     1      -9.480   5.029  17.205  1.00  0.00     0.173 A 
ATOM     67  C   UNL     1     -10.405   4.564  15.053  1.00  0.00     0.173 A 
ATOM     68  F   UNL     1      -8.492   4.989  18.112  1.00  0.00    -0.203 F 
ATOM     69  C   UNL     1     -10.718   5.528  17.616  1.00  0.00     0.198 A 
ATOM     70  C   UNL     1     -11.620   5.115  15.449  1.00  0.00     0.198 A 
ATOM     71  F   UNL     1     -10.408   3.998  13.840  1.00  0.00    -0.203 F 
ATOM     72  F   UNL     1     -10.891   5.908  18.889  1.00  0.00    -0.200 F 
ATOM     73  C   UNL     1     -11.788   5.566  16.740  1.00  0.00     0.200 A 
ATOM     74  F   UNL     1     -12.651   5.120  14.592  1.00  0.00    -0.200 F 
ATOM     75  F   UNL     1     -12.991   5.985  17.151  1.00  0.00    -0.200 F 
ENDBRANCH  51  65
BRANCH  52  76
ATOM     76  C   UNL     1     -12.138  -3.277  14.135  1.00  0.00     0.064 A 
ATOM     77  C   UNL     1     -12.960  -3.872  15.103  1.00  0.00     0.173 A 
ATOM     78  C   UNL     1     -12.681  -3.156  12.840  1.00  0.00     0.173 A 
ATOM     79  F   UNL     1     -12.537  -3.985  16.370  1.00  0.00    -0.203 F 
ATOM     80  C   UNL     1     -14.257  -4.299  14.799  1.00  0.00     0.198 A 
ATOM     81  C   UNL     1     -13.967  -3.598  12.534  1.00  0.00     0.198 A 
ATOM     82  F   UNL     1     -12.011  -2.524  11.865  1.00  0.00    -0.203 F 
ATOM     83  F   UNL     1     -15.037  -4.802  15.766  1.00  0.00    -0.200 F 
ATOM     84  C   UNL     1     -14.761  -4.155  13.517  1.00  0.00     0.200 A 
ATOM     85  F   UNL     1     -14.452  -3.422  11.296  1.00  0.00    -0.200 F 
ATOM     86  F   UNL     1     -16.022  -4.513  13.239  1.00  0.00    -0.200 F 
ENDBRANCH  52  76
BRANCH  64  87
ATOM     87  C   UNL     1      -7.231  -1.773  17.835  1.00  0.00     0.064 A 
ATOM     88  C   UNL     1      -6.740  -2.568  16.788  1.00  0.00     0.173 A 
ATOM     89  C   UNL     1      -6.737  -2.013  19.124  1.00  0.00     0.173 A 
ATOM     90  F   UNL     1      -7.107  -2.338  15.521  1.00  0.00    -0.203 F 
ATOM     91  C   UNL     1      -5.830  -3.594  17.034  1.00  0.00     0.198 A 
ATOM     92  C   UNL     1      -5.802  -3.014  19.361  1.00  0.00     0.198 A 
ATOM     93  F   UNL     1      -7.140  -1.248  20.151  1.00  0.00    -0.203 F 
ATOM     94  F   UNL     1      -5.391  -4.359  16.023  1.00  0.00    -0.200 F 
ATOM     95  C   UNL     1      -5.359  -3.813  18.319  1.00  0.00     0.200 A 
ATOM     96  F   UNL     1      -5.317  -3.195  20.597  1.00  0.00    -0.200 F 
ATOM     97  F   UNL     1      -4.462  -4.782  18.550  1.00  0.00    -0.200 F 
ENDBRANCH  64  87
ENDBRANCH  38  39
ENDBRANCH  31  33
ENDBRANCH  30  31
ENDBRANCH  29  30
ENDBRANCH  28  29
ENDBRANCH  27  28
ENDBRANCH  26  27
ENDBRANCH   1  26
TORSDOF 21
