REMARK SMILES C[C@@H](C(=O)OCCOCCOCCOC(=O)c1ccc(-c2c3nc(c(-c4c(F)c(F)c(F)c(F)c4F)c4ccc([nH]4)c(-c4c(F)c(F)c(F)c(F)c4F)c4nc(c(-c5c(F)c(F)c(F)c(F)c5F)c5ccc2[nH]5)C=C4)C=C3)cc1)c1ccccc1-c1ccn(C(F)F)c(=O)c1
REMARK SMILES IDX 9 1 8 2 7 3 6 4 5 5 3 6 4 7 2 8 1 9 80 10 81 11 85 12 82 13
REMARK SMILES IDX 84 14 83 15 86 16 87 17 95 18 88 19 93 20 89 21 94 22 90 23
REMARK SMILES IDX 91 24 92 25 10 26 11 27 12 28 13 29 14 30 15 31 16 32 17 33
REMARK SMILES IDX 18 34 79 35 19 36 78 37 20 38 21 39 22 40 72 41 23 42 77 43
REMARK SMILES IDX 71 44 73 45 24 46 76 47 70 48 69 49 25 51 57 52 37 53 56 54
REMARK SMILES IDX 38 55 41 56 55 57 74 58 39 59 40 60 54 62 75 63 42 64 26 65
REMARK SMILES IDX 27 66 35 67 28 68 29 69 33 70 36 71 30 72 31 73 34 74 32 75
REMARK SMILES IDX 58 76 59 77 67 78 60 79 61 80 65 81 68 82 62 83 63 84 66 85
REMARK SMILES IDX 64 86 43 87 44 88 52 89 45 90 46 91 50 92 53 93 47 94 48 95
REMARK SMILES IDX 51 96 49 97
REMARK H PARENT 73 50 41 61
REMARK Flexibility Score: inf
ROOT
ATOM      1  C   UNL     1       2.617  -2.321  -1.125  1.00  0.00     0.188 C 
ENDROOT
BRANCH   1   2
ATOM      2  O   UNL     1       2.601  -3.227  -2.230  1.00  0.00    -0.376 OA
BRANCH   2   3
ATOM      3  C   UNL     1       3.441  -2.775  -3.298  1.00  0.00     0.202 C 
BRANCH   3   4
ATOM      4  C   UNL     1       2.960  -1.530  -4.069  1.00  0.00     0.261 C 
BRANCH   4   5
ATOM      5  O   UNL     1       2.308  -0.563  -3.223  1.00  0.00    -0.463 OA
BRANCH   5   6
ATOM      6  C   UNL     1       1.002  -0.285  -3.506  1.00  0.00     0.313 C 
ATOM      7  O   UNL     1       0.443  -0.626  -4.542  1.00  0.00    -0.252 OA
BRANCH   6   8
ATOM      8  C   UNL     1       0.360   0.620  -2.453  1.00  0.00     0.127 C 
ATOM      9  C   UNL     1       1.060   0.721  -1.087  1.00  0.00     0.025 C 
BRANCH   8  10
ATOM     10  C   UNL     1      -1.145   0.444  -2.210  1.00  0.00    -0.026 A 
ATOM     11  C   UNL     1      -1.823   1.627  -1.816  1.00  0.00     0.005 A 
ATOM     12  C   UNL     1      -1.879  -0.763  -2.228  1.00  0.00    -0.014 A 
ATOM     13  C   UNL     1      -3.165   1.629  -1.440  1.00  0.00     0.000 A 
ATOM     14  C   UNL     1      -3.239  -0.727  -1.858  1.00  0.00     0.009 A 
ATOM     15  C   UNL     1      -3.877   0.445  -1.461  1.00  0.00     0.001 A 
BRANCH  12  16
ATOM     16  C   UNL     1      -1.349  -2.126  -2.487  1.00  0.00    -0.011 A 
ATOM     17  C   UNL     1      -0.841  -2.948  -1.413  1.00  0.00     0.027 A 
ATOM     18  C   UNL     1      -1.465  -2.686  -3.707  1.00  0.00     0.080 A 
ATOM     19  C   UNL     1      -0.367  -4.174  -1.651  1.00  0.00     0.095 A 
ATOM     20  C   UNL     1      -0.959  -4.070  -3.983  1.00  0.00     0.255 A 
ATOM     21  N   UNL     1      -0.338  -4.701  -2.921  1.00  0.00    -0.258 N 
ATOM     22  O   UNL     1      -1.118  -4.549  -5.101  1.00  0.00    -0.269 OA
BRANCH  21  23
ATOM     23  C   UNL     1       0.302  -5.979  -3.128  1.00  0.00     0.451 C 
ATOM     24  F   UNL     1      -0.606  -6.985  -3.057  1.00  0.00    -0.185 F 
ATOM     25  F   UNL     1       0.928  -6.065  -4.327  1.00  0.00    -0.185 F 
ENDBRANCH  21  23
ENDBRANCH  12  16
ENDBRANCH   8  10
ENDBRANCH   6   8
ENDBRANCH   5   6
ENDBRANCH   4   5
ENDBRANCH   3   4
ENDBRANCH   2   3
ENDBRANCH   1   2
BRANCH   1  26
ATOM     26  C   UNL     1       2.405  -2.995   0.215  1.00  0.00     0.188 C 
BRANCH  26  27
ATOM     27  O   UNL     1       3.416  -3.959   0.465  1.00  0.00    -0.376 OA
BRANCH  27  28
ATOM     28  C   UNL     1       3.236  -4.599   1.730  1.00  0.00     0.202 C 
BRANCH  28  29
ATOM     29  C   UNL     1       2.241  -5.768   1.673  1.00  0.00     0.261 C 
BRANCH  29  30
ATOM     30  O   UNL     1       0.844  -5.464   1.442  1.00  0.00    -0.460 OA
BRANCH  30  31
ATOM     31  C   UNL     1       0.189  -4.608   2.261  1.00  0.00     0.338 C 
ATOM     32  O   UNL     1       0.678  -3.938   3.154  1.00  0.00    -0.246 OA
BRANCH  31  33
ATOM     33  C   UNL     1      -1.238  -4.513   1.832  1.00  0.00     0.060 A 
ATOM     34  C   UNL     1      -1.922  -3.299   1.984  1.00  0.00     0.016 A 
ATOM     35  C   UNL     1      -1.907  -5.608   1.267  1.00  0.00     0.016 A 
ATOM     36  C   UNL     1      -3.258  -3.182   1.569  1.00  0.00     0.010 A 
ATOM     37  C   UNL     1      -3.246  -5.495   0.865  1.00  0.00     0.010 A 
ATOM     38  C   UNL     1      -3.940  -4.287   1.031  1.00  0.00    -0.014 A 
BRANCH  38  39
ATOM     39  C   UNL     1      -5.421  -4.239   0.866  1.00  0.00     0.031 A 
ATOM     40  C   UNL     1      -6.275  -4.549   2.063  1.00  0.00     0.074 A 
ATOM     41  C   UNL     1      -6.022  -3.933  -0.300  1.00  0.00     0.049 A 
ATOM     42  N   UNL     1      -7.577  -4.515   2.193  1.00  0.00    -0.248 NA
ATOM     43  C   UNL     1      -5.558  -4.983   3.271  1.00  0.00     0.031 C 
ATOM     44  C   UNL     1      -5.335  -3.686  -1.559  1.00  0.00     0.029 A 
ATOM     45  N   UNL     1      -7.353  -3.759  -0.607  1.00  0.00    -0.354 N 
ATOM     46  C   UNL     1      -7.834  -4.927   3.492  1.00  0.00     0.074 A 
ATOM     47  C   UNL     1      -6.557  -5.224   4.104  1.00  0.00     0.031 C 
ATOM     48  C   UNL     1      -6.235  -3.305  -2.484  1.00  0.00     0.029 A 
ATOM     49  C   UNL     1      -7.577  -3.352  -1.902  1.00  0.00     0.049 A 
ATOM     50  H   UNL     1      -8.078  -3.911   0.042  1.00  0.00     0.167 HD
ATOM     51  C   UNL     1      -9.025  -5.058   4.122  1.00  0.00     0.037 A 
ATOM     52  C   UNL     1      -8.730  -3.065  -2.543  1.00  0.00     0.037 A 
ATOM     53  C   UNL     1     -10.305  -4.816   3.515  1.00  0.00     0.049 A 
ATOM     54  C   UNL     1     -10.048  -3.234  -1.822  1.00  0.00     0.074 A 
ATOM     55  C   UNL     1     -11.563  -4.939   4.078  1.00  0.00     0.029 A 
ATOM     56  N   UNL     1     -10.492  -4.420   2.200  1.00  0.00    -0.354 N 
ATOM     57  N   UNL     1     -10.278  -3.569  -0.576  1.00  0.00    -0.248 NA
ATOM     58  C   UNL     1     -11.272  -3.011  -2.611  1.00  0.00     0.031 C 
ATOM     59  C   UNL     1     -12.514  -4.666   3.090  1.00  0.00     0.029 A 
ATOM     60  C   UNL     1     -11.847  -4.315   1.927  1.00  0.00     0.049 A 
ATOM     61  H   UNL     1      -9.770  -4.240   1.555  1.00  0.00     0.167 HD
ATOM     62  C   UNL     1     -11.661  -3.589  -0.431  1.00  0.00     0.074 A 
ATOM     63  C   UNL     1     -12.222  -3.200  -1.706  1.00  0.00     0.031 C 
ATOM     64  C   UNL     1     -12.399  -3.916   0.658  1.00  0.00     0.037 A 
BRANCH  51  65
ATOM     65  C   UNL     1      -8.986  -5.530   5.543  1.00  0.00     0.064 A 
ATOM     66  C   UNL     1      -8.516  -4.704   6.576  1.00  0.00     0.173 A 
ATOM     67  C   UNL     1      -9.409  -6.825   5.875  1.00  0.00     0.173 A 
ATOM     68  F   UNL     1      -8.078  -3.465   6.303  1.00  0.00    -0.203 F 
ATOM     69  C   UNL     1      -8.443  -5.170   7.885  1.00  0.00     0.198 A 
ATOM     70  C   UNL     1      -9.362  -7.277   7.190  1.00  0.00     0.198 A 
ATOM     71  F   UNL     1      -9.863  -7.653   4.922  1.00  0.00    -0.203 F 
ATOM     72  F   UNL     1      -7.935  -4.385   8.845  1.00  0.00    -0.200 F 
ATOM     73  C   UNL     1      -8.870  -6.453   8.191  1.00  0.00     0.200 A 
ATOM     74  F   UNL     1      -9.781  -8.515   7.486  1.00  0.00    -0.200 F 
ATOM     75  F   UNL     1      -8.794  -6.902   9.452  1.00  0.00    -0.200 F 
ENDBRANCH  51  65
BRANCH  52  76
ATOM     76  C   UNL     1      -8.720  -2.600  -3.960  1.00  0.00     0.064 A 
ATOM     77  C   UNL     1      -9.171  -1.315  -4.301  1.00  0.00     0.173 A 
ATOM     78  C   UNL     1      -8.328  -3.446  -5.008  1.00  0.00     0.173 A 
ATOM     79  F   UNL     1      -9.595  -0.478  -3.341  1.00  0.00    -0.203 F 
ATOM     80  C   UNL     1      -9.252  -0.905  -5.631  1.00  0.00     0.198 A 
ATOM     81  C   UNL     1      -8.377  -3.023  -6.335  1.00  0.00     0.198 A 
ATOM     82  F   UNL     1      -7.906  -4.690  -4.742  1.00  0.00    -0.203 F 
ATOM     83  F   UNL     1      -9.752   0.303  -5.929  1.00  0.00    -0.200 F 
ATOM     84  C   UNL     1      -8.850  -1.757  -6.647  1.00  0.00     0.200 A 
ATOM     85  F   UNL     1      -7.985  -3.850  -7.314  1.00  0.00    -0.200 F 
ATOM     86  F   UNL     1      -8.936  -1.367  -7.926  1.00  0.00    -0.200 F 
ENDBRANCH  52  76
BRANCH  64  87
ATOM     87  C   UNL     1     -13.896  -3.844   0.540  1.00  0.00     0.064 A 
ATOM     88  C   UNL     1     -14.624  -4.780  -0.209  1.00  0.00     0.173 A 
ATOM     89  C   UNL     1     -14.618  -2.865   1.242  1.00  0.00     0.173 A 
ATOM     90  F   UNL     1     -13.984  -5.731  -0.907  1.00  0.00    -0.203 F 
ATOM     91  C   UNL     1     -16.015  -4.727  -0.268  1.00  0.00     0.198 A 
ATOM     92  C   UNL     1     -16.009  -2.832   1.204  1.00  0.00     0.198 A 
ATOM     93  F   UNL     1     -13.973  -1.951   1.982  1.00  0.00    -0.203 F 
ATOM     94  F   UNL     1     -16.687  -5.609  -1.022  1.00  0.00    -0.200 F 
ATOM     95  C   UNL     1     -16.707  -3.759   0.445  1.00  0.00     0.200 A 
ATOM     96  F   UNL     1     -16.676  -1.906   1.907  1.00  0.00    -0.200 F 
ATOM     97  F   UNL     1     -18.046  -3.718   0.398  1.00  0.00    -0.200 F 
ENDBRANCH  64  87
ENDBRANCH  38  39
ENDBRANCH  31  33
ENDBRANCH  30  31
ENDBRANCH  29  30
ENDBRANCH  28  29
ENDBRANCH  27  28
ENDBRANCH  26  27
ENDBRANCH   1  26
TORSDOF 20
