REMARK SMILES CC(C)N1C[C@@]2(CCCN(c3ccc(C(=O)OCCOCCOCCOC(=O)c4ccc(-c5c6nc(c(-c7c(F)c(F)c(F)c(F)c7F)c7ccc([nH]7)c(-c7c(F)c(F)c(F)c(F)c7F)c7nc(c(-c8c(F)c(F)c(F)c(F)c8F)c8ccc5[nH]8)C=C7)C=C6)cc4)cn3)C2)CCC1=O
REMARK SMILES IDX 21 1 20 2 19 3 18 4 17 5 15 6 16 7 14 8 11 9 12 10 93 11
REMARK SMILES IDX 13 12 92 13 10 14 4 15 5 16 97 17 6 18 96 19 98 20 7 21
REMARK SMILES IDX 94 22 95 23 8 24 9 25 2 26 1 27 3 28 22 29 23 30 24 31 25 32
REMARK SMILES IDX 26 33 27 34 28 35 29 36 30 37 91 38 31 39 90 40 32 41 33 42
REMARK SMILES IDX 34 43 84 44 35 45 89 46 83 47 85 48 36 49 88 50 82 51 81 52
REMARK SMILES IDX 37 54 69 55 49 56 68 57 50 58 53 59 67 60 86 61 51 62 52 63
REMARK SMILES IDX 66 65 87 66 54 67 38 68 39 69 47 70 40 71 41 72 45 73 48 74
REMARK SMILES IDX 42 75 43 76 46 77 44 78 70 79 71 80 79 81 72 82 73 83 77 84
REMARK SMILES IDX 80 85 74 86 75 87 78 88 76 89 55 90 56 91 64 92 57 93 58 94
REMARK SMILES IDX 62 95 65 96 59 97 60 98 63 99 61 100
REMARK H PARENT 85 53 53 64
REMARK Flexibility Score: inf
ROOT
ATOM      1  C   UNL     1      -5.136   4.667   2.023  1.00  0.00     0.188 C 
ENDROOT
BRANCH   1   2
ATOM      2  O   UNL     1      -6.281   5.408   2.430  1.00  0.00    -0.376 OA
BRANCH   2   3
ATOM      3  C   UNL     1      -7.523   4.761   2.638  1.00  0.00     0.202 C 
BRANCH   3   4
ATOM      4  C   UNL     1      -8.258   4.226   1.407  1.00  0.00     0.261 C 
BRANCH   4   5
ATOM      5  O   UNL     1      -7.454   3.432   0.527  1.00  0.00    -0.460 OA
BRANCH   5   6
ATOM      6  C   UNL     1      -6.971   4.067  -0.570  1.00  0.00     0.339 C 
ATOM      7  O   UNL     1      -7.113   5.234  -0.886  1.00  0.00    -0.246 OA
BRANCH   6   8
ATOM      8  C   UNL     1      -6.115   3.123  -1.295  1.00  0.00     0.078 A 
ATOM      9  C   UNL     1      -4.377   1.383  -2.562  1.00  0.00     0.128 A 
ATOM     10  C   UNL     1      -5.694   1.001  -2.294  1.00  0.00     0.048 A 
ATOM     11  N   UNL     1      -3.938   2.612  -2.215  1.00  0.00    -0.238 NA
ATOM     12  C   UNL     1      -6.561   1.854  -1.619  1.00  0.00     0.021 A 
ATOM     13  C   UNL     1      -4.821   3.471  -1.640  1.00  0.00     0.129 A 
BRANCH   9  14
ATOM     14  N   UNL     1      -3.484   0.512  -3.150  1.00  0.00    -0.356 N 
ATOM     15  N   UNL     1      -0.766  -1.280  -0.083  1.00  0.00    -0.340 N 
ATOM     16  C   UNL     1      -1.358  -1.983  -1.212  1.00  0.00     0.128 C 
ATOM     17  C   UNL     1      -1.547  -0.707   0.915  1.00  0.00     0.222 C 
ATOM     18  C   UNL     1      -2.651  -1.347  -1.751  1.00  0.00     0.006 C 
ATOM     19  C   UNL     1      -3.005  -0.429   0.588  1.00  0.00     0.101 C 
ATOM     20  O   UNL     1      -1.089  -0.316   1.988  1.00  0.00    -0.275 OA
ATOM     21  C   UNL     1      -3.210  -2.308  -2.845  1.00  0.00     0.012 C 
ATOM     22  C   UNL     1      -2.339   0.047  -2.373  1.00  0.00     0.127 C 
ATOM     23  C   UNL     1      -3.592  -1.276  -0.533  1.00  0.00     0.020 C 
ATOM     24  C   UNL     1      -4.240  -1.708  -3.806  1.00  0.00     0.022 C 
ATOM     25  C   UNL     1      -3.861  -0.311  -4.283  1.00  0.00     0.118 C 
BRANCH  15  26
ATOM     26  C   UNL     1       0.698  -1.373   0.064  1.00  0.00     0.078 C 
ATOM     27  C   UNL     1       1.337   0.015   0.077  1.00  0.00     0.031 C 
ATOM     28  C   UNL     1       1.146  -2.228   1.248  1.00  0.00     0.031 C 
ENDBRANCH  15  26
ENDBRANCH   9  14
ENDBRANCH   6   8
ENDBRANCH   5   6
ENDBRANCH   4   5
ENDBRANCH   3   4
ENDBRANCH   2   3
ENDBRANCH   1   2
BRANCH   1  29
ATOM     29  C   UNL     1      -4.967   3.170   2.359  1.00  0.00     0.188 C 
BRANCH  29  30
ATOM     30  O   UNL     1      -5.707   2.728   3.487  1.00  0.00    -0.376 OA
BRANCH  30  31
ATOM     31  C   UNL     1      -4.948   2.427   4.651  1.00  0.00     0.202 C 
BRANCH  31  32
ATOM     32  C   UNL     1      -4.449   3.660   5.413  1.00  0.00     0.261 C 
BRANCH  32  33
ATOM     33  O   UNL     1      -3.587   4.525   4.655  1.00  0.00    -0.460 OA
BRANCH  33  34
ATOM     34  C   UNL     1      -2.347   4.063   4.377  1.00  0.00     0.338 C 
ATOM     35  O   UNL     1      -1.868   3.000   4.722  1.00  0.00    -0.246 OA
BRANCH  34  36
ATOM     36  C   UNL     1      -1.703   5.017   3.447  1.00  0.00     0.060 A 
ATOM     37  C   UNL     1      -1.268   4.559   2.198  1.00  0.00     0.016 A 
ATOM     38  C   UNL     1      -1.537   6.359   3.802  1.00  0.00     0.016 A 
ATOM     39  C   UNL     1      -0.637   5.441   1.313  1.00  0.00     0.010 A 
ATOM     40  C   UNL     1      -0.894   7.236   2.921  1.00  0.00     0.010 A 
ATOM     41  C   UNL     1      -0.414   6.777   1.682  1.00  0.00    -0.014 A 
BRANCH  41  42
ATOM     42  C   UNL     1       0.451   7.647   0.841  1.00  0.00     0.031 A 
ATOM     43  C   UNL     1       1.902   7.805   1.210  1.00  0.00     0.074 A 
ATOM     44  C   UNL     1      -0.031   8.277  -0.245  1.00  0.00     0.049 A 
ATOM     45  N   UNL     1       2.844   8.496   0.616  1.00  0.00    -0.248 NA
ATOM     46  C   UNL     1       2.351   7.088   2.413  1.00  0.00     0.031 C 
ATOM     47  C   UNL     1      -1.409   8.205  -0.723  1.00  0.00     0.029 A 
ATOM     48  N   UNL     1       0.595   9.110  -1.143  1.00  0.00    -0.354 N 
ATOM     49  C   UNL     1       3.994   8.290   1.367  1.00  0.00     0.074 A 
ATOM     50  C   UNL     1       3.624   7.444   2.482  1.00  0.00     0.031 C 
ATOM     51  C   UNL     1      -1.527   8.963  -1.827  1.00  0.00     0.029 A 
ATOM     52  C   UNL     1      -0.239   9.591  -2.123  1.00  0.00     0.049 A 
ATOM     53  H   UNL     1       1.550   9.339  -1.089  1.00  0.00     0.167 HD
ATOM     54  C   UNL     1       5.248   8.750   1.142  1.00  0.00     0.037 A 
ATOM     55  C   UNL     1       0.007  10.447  -3.135  1.00  0.00     0.037 A 
ATOM     56  C   UNL     1       5.622   9.597   0.040  1.00  0.00     0.049 A 
ATOM     57  C   UNL     1       1.399  10.996  -3.328  1.00  0.00     0.074 A 
ATOM     58  C   UNL     1       6.875  10.089  -0.283  1.00  0.00     0.029 A 
ATOM     59  N   UNL     1       4.742  10.087  -0.913  1.00  0.00    -0.354 N 
ATOM     60  N   UNL     1       2.491  10.753  -2.645  1.00  0.00    -0.248 NA
ATOM     61  C   UNL     1       1.593  11.935  -4.444  1.00  0.00     0.031 C 
ATOM     62  C   UNL     1       6.744  10.919  -1.402  1.00  0.00     0.029 A 
ATOM     63  C   UNL     1       5.420  10.900  -1.808  1.00  0.00     0.049 A 
ATOM     64  H   UNL     1       3.779   9.887  -0.949  1.00  0.00     0.167 HD
ATOM     65  C   UNL     1       3.501  11.482  -3.261  1.00  0.00     0.074 A 
ATOM     66  C   UNL     1       2.897  12.166  -4.384  1.00  0.00     0.031 C 
ATOM     67  C   UNL     1       4.812  11.574  -2.927  1.00  0.00     0.037 A 
BRANCH  54  68
ATOM     68  C   UNL     1       6.313   8.356   2.123  1.00  0.00     0.064 A 
ATOM     69  C   UNL     1       6.809   7.045   2.182  1.00  0.00     0.173 A 
ATOM     70  C   UNL     1       6.869   9.308   2.990  1.00  0.00     0.173 A 
ATOM     71  F   UNL     1       6.303   6.095   1.381  1.00  0.00    -0.203 F 
ATOM     72  C   UNL     1       7.806   6.696   3.090  1.00  0.00     0.198 A 
ATOM     73  C   UNL     1       7.885   8.962   3.877  1.00  0.00     0.198 A 
ATOM     74  F   UNL     1       6.435  10.577   2.970  1.00  0.00    -0.203 F 
ATOM     75  F   UNL     1       8.234   5.428   3.158  1.00  0.00    -0.200 F 
ATOM     76  C   UNL     1       8.347   7.656   3.931  1.00  0.00     0.200 A 
ATOM     77  F   UNL     1       8.417   9.894   4.680  1.00  0.00    -0.200 F 
ATOM     78  F   UNL     1       9.312   7.321   4.799  1.00  0.00    -0.200 F 
ENDBRANCH  54  68
BRANCH  55  79
ATOM     79  C   UNL     1      -1.090  10.846  -4.056  1.00  0.00     0.064 A 
ATOM     80  C   UNL     1      -1.094  10.439  -5.397  1.00  0.00     0.173 A 
ATOM     81  C   UNL     1      -2.139  11.669  -3.621  1.00  0.00     0.173 A 
ATOM     82  F   UNL     1      -0.093   9.681  -5.870  1.00  0.00    -0.203 F 
ATOM     83  C   UNL     1      -2.095  10.855  -6.273  1.00  0.00     0.198 A 
ATOM     84  C   UNL     1      -3.155  12.062  -4.491  1.00  0.00     0.198 A 
ATOM     85  F   UNL     1      -2.176  12.096  -2.350  1.00  0.00    -0.203 F 
ATOM     86  F   UNL     1      -2.045  10.496  -7.564  1.00  0.00    -0.200 F 
ATOM     87  C   UNL     1      -3.127  11.661  -5.818  1.00  0.00     0.200 A 
ATOM     88  F   UNL     1      -4.152  12.838  -4.046  1.00  0.00    -0.200 F 
ATOM     89  F   UNL     1      -4.088  12.064  -6.662  1.00  0.00    -0.200 F 
ENDBRANCH  55  79
BRANCH  67  90
ATOM     90  C   UNL     1       5.693  12.419  -3.802  1.00  0.00     0.064 A 
ATOM     91  C   UNL     1       5.604  13.819  -3.808  1.00  0.00     0.173 A 
ATOM     92  C   UNL     1       6.666  11.822  -4.620  1.00  0.00     0.173 A 
ATOM     93  F   UNL     1       4.683  14.440  -3.055  1.00  0.00    -0.203 F 
ATOM     94  C   UNL     1       6.434  14.588  -4.620  1.00  0.00     0.198 A 
ATOM     95  C   UNL     1       7.515  12.595  -5.408  1.00  0.00     0.198 A 
ATOM     96  F   UNL     1       6.801  10.488  -4.647  1.00  0.00    -0.203 F 
ATOM     97  F   UNL     1       6.297  15.921  -4.646  1.00  0.00    -0.200 F 
ATOM     98  C   UNL     1       7.393  13.976  -5.414  1.00  0.00     0.200 A 
ATOM     99  F   UNL     1       8.450  12.003  -6.163  1.00  0.00    -0.200 F 
ATOM    100  F   UNL     1       8.195  14.717  -6.191  1.00  0.00    -0.200 F 
ENDBRANCH  67  90
ENDBRANCH  41  42
ENDBRANCH  34  36
ENDBRANCH  33  34
ENDBRANCH  32  33
ENDBRANCH  31  32
ENDBRANCH  30  31
ENDBRANCH  29  30
ENDBRANCH   1  29
TORSDOF 19
