REMARK SMILES O=C(OCCOCCOCCOC(=O)[C@H](c1c[nH]c2cc(OCc3ccccc3)ccc12)[NH+]1CC[NH+]([C@H]2CCS(=O)(=O)C2)CC1)c1ccc(-c2c3nc(c(-c4c(F)c(F)c(F)c(F)c4F)c4ccc([nH]4)c(-c4c(F)c(F)c(F)c(F)c4F)c4nc(c(-c5c(F)c(F)c(F)c(F)c5F)c5ccc2[nH]5)C=C4)C=C3)cc1
REMARK SMILES IDX 8 1 7 2 6 3 5 4 4 5 3 6 2 7 1 8 46 9 47 10 108 11 48 12
REMARK SMILES IDX 107 13 49 14 50 15 51 16 101 17 52 18 106 19 100 20 102 21
REMARK SMILES IDX 53 22 105 23 99 24 98 25 54 27 86 28 66 29 85 30 67 31 70 32
REMARK SMILES IDX 84 33 103 34 68 35 69 36 83 38 104 39 71 40 55 41 56 42
REMARK SMILES IDX 64 43 57 44 58 45 62 46 65 47 59 48 60 49 63 50 61 51 87 52
REMARK SMILES IDX 88 53 96 54 89 55 90 56 94 57 97 58 91 59 92 60 95 61 93 62
REMARK SMILES IDX 72 63 73 64 81 65 74 66 75 67 79 68 82 69 76 70 77 71 80 72
REMARK SMILES IDX 78 73 9 74 10 75 11 76 12 77 13 78 14 79 15 80 33 81 34 82
REMARK SMILES IDX 45 83 35 85 44 86 36 87 37 89 38 90 43 91 39 92 40 93 41 94
REMARK SMILES IDX 42 95 16 96 17 97 32 98 18 99 19 100 31 101 20 103 30 104
REMARK SMILES IDX 21 105 22 106 23 107 24 108 25 109 29 110 26 111 28 112
REMARK SMILES IDX 27 113
REMARK H PARENT 102 26 70 37 33 84 36 88 18 102
REMARK Flexibility Score: inf
ROOT
ATOM      1  C   UNL     1       7.371  -0.766  -3.725  1.00  0.00     0.188 C 
ENDROOT
BRANCH   1   2
ATOM      2  C   UNL     1       8.082   0.093  -2.687  1.00  0.00     0.188 C 
BRANCH   2   3
ATOM      3  O   UNL     1       7.293   0.452  -1.551  1.00  0.00    -0.376 OA
BRANCH   3   4
ATOM      4  C   UNL     1       7.410   1.822  -1.163  1.00  0.00     0.202 C 
BRANCH   4   5
ATOM      5  C   UNL     1       8.816   2.332  -0.793  1.00  0.00     0.261 C 
BRANCH   5   6
ATOM      6  O   UNL     1       9.922   1.480  -1.151  1.00  0.00    -0.460 OA
BRANCH   6   7
ATOM      7  C   UNL     1      10.444   0.376  -0.573  1.00  0.00     0.338 C 
ATOM      8  O   UNL     1      11.417  -0.152  -1.113  1.00  0.00    -0.246 OA
BRANCH   7   9
ATOM      9  C   UNL     1       9.915  -0.267   0.669  1.00  0.00     0.060 A 
ATOM     10  C   UNL     1       8.668  -0.025   1.240  1.00  0.00     0.016 A 
ATOM     11  C   UNL     1      10.727  -1.229   1.290  1.00  0.00     0.016 A 
ATOM     12  C   UNL     1       8.253  -0.643   2.421  1.00  0.00     0.010 A 
ATOM     13  C   UNL     1      10.303  -1.887   2.455  1.00  0.00     0.010 A 
ATOM     14  C   UNL     1       9.067  -1.571   3.052  1.00  0.00    -0.014 A 
BRANCH  14  15
ATOM     15  C   UNL     1       8.758  -2.063   4.417  1.00  0.00     0.031 A 
ATOM     16  C   UNL     1       9.601  -1.548   5.535  1.00  0.00     0.074 A 
ATOM     17  C   UNL     1       7.671  -2.779   4.770  1.00  0.00     0.049 A 
ATOM     18  N   UNL     1       9.567  -1.884   6.792  1.00  0.00    -0.248 NA
ATOM     19  C   UNL     1      10.498  -0.420   5.226  1.00  0.00     0.031 C 
ATOM     20  C   UNL     1       6.444  -2.906   4.013  1.00  0.00     0.029 A 
ATOM     21  N   UNL     1       7.429  -3.572   5.872  1.00  0.00    -0.354 N 
ATOM     22  C   UNL     1      10.368  -0.965   7.437  1.00  0.00     0.074 A 
ATOM     23  C   UNL     1      10.953  -0.108   6.430  1.00  0.00     0.031 C 
ATOM     24  C   UNL     1       5.681  -3.874   4.548  1.00  0.00     0.029 A 
ATOM     25  C   UNL     1       6.367  -4.435   5.675  1.00  0.00     0.049 A 
ATOM     26  H   UNL     1       7.953  -3.529   6.704  1.00  0.00     0.167 HD
ATOM     27  C   UNL     1      10.538  -0.832   8.768  1.00  0.00     0.037 A 
ATOM     28  C   UNL     1       6.019  -5.562   6.319  1.00  0.00     0.037 A 
ATOM     29  C   UNL     1       9.937  -1.703   9.739  1.00  0.00     0.049 A 
ATOM     30  C   UNL     1       6.552  -5.667   7.701  1.00  0.00     0.074 A 
ATOM     31  C   UNL     1      10.059  -1.672  11.115  1.00  0.00     0.029 A 
ATOM     32  N   UNL     1       9.120  -2.785   9.433  1.00  0.00    -0.354 N 
ATOM     33  N   UNL     1       7.410  -4.884   8.294  1.00  0.00    -0.248 NA
ATOM     34  C   UNL     1       5.942  -6.691   8.553  1.00  0.00     0.031 C 
ATOM     35  C   UNL     1       9.404  -2.793  11.634  1.00  0.00     0.029 A 
ATOM     36  C   UNL     1       8.814  -3.484  10.590  1.00  0.00     0.049 A 
ATOM     37  H   UNL     1       8.806  -3.019   8.530  1.00  0.00     0.167 HD
ATOM     38  C   UNL     1       7.393  -5.266   9.613  1.00  0.00     0.074 A 
ATOM     39  C   UNL     1       6.481  -6.390   9.722  1.00  0.00     0.031 C 
ATOM     40  C   UNL     1       8.016  -4.677  10.654  1.00  0.00     0.037 A 
BRANCH  27  41
ATOM     41  C   UNL     1      11.475   0.237   9.216  1.00  0.00     0.064 A 
ATOM     42  C   UNL     1      11.150   1.600   9.155  1.00  0.00     0.173 A 
ATOM     43  C   UNL     1      12.742  -0.124   9.690  1.00  0.00     0.173 A 
ATOM     44  F   UNL     1       9.964   1.994   8.665  1.00  0.00    -0.203 F 
ATOM     45  C   UNL     1      12.074   2.567   9.542  1.00  0.00     0.198 A 
ATOM     46  C   UNL     1      13.651   0.842  10.100  1.00  0.00     0.198 A 
ATOM     47  F   UNL     1      13.101  -1.415   9.740  1.00  0.00    -0.203 F 
ATOM     48  F   UNL     1      11.770   3.867   9.427  1.00  0.00    -0.200 F 
ATOM     49  C   UNL     1      13.319   2.186  10.021  1.00  0.00     0.200 A 
ATOM     50  F   UNL     1      14.854   0.472  10.558  1.00  0.00    -0.200 F 
ATOM     51  F   UNL     1      14.209   3.117  10.392  1.00  0.00    -0.200 F 
ENDBRANCH  27  41
BRANCH  28  52
ATOM     52  C   UNL     1       5.136  -6.649   5.815  1.00  0.00     0.064 A 
ATOM     53  C   UNL     1       3.753  -6.542   5.648  1.00  0.00     0.173 A 
ATOM     54  C   UNL     1       5.707  -7.930   5.654  1.00  0.00     0.173 A 
ATOM     55  F   UNL     1       3.142  -5.364   5.832  1.00  0.00    -0.203 F 
ATOM     56  C   UNL     1       2.977  -7.667   5.342  1.00  0.00     0.198 A 
ATOM     57  C   UNL     1       4.930  -9.053   5.374  1.00  0.00     0.198 A 
ATOM     58  F   UNL     1       7.033  -8.085   5.792  1.00  0.00    -0.203 F 
ATOM     59  F   UNL     1       1.649  -7.542   5.213  1.00  0.00    -0.200 F 
ATOM     60  C   UNL     1       3.563  -8.920   5.213  1.00  0.00     0.200 A 
ATOM     61  F   UNL     1       5.508 -10.256   5.269  1.00  0.00    -0.200 F 
ATOM     62  F   UNL     1       2.808  -9.997   4.958  1.00  0.00    -0.200 F 
ENDBRANCH  28  52
BRANCH  40  63
ATOM     63  C   UNL     1       7.754  -5.309  11.975  1.00  0.00     0.064 A 
ATOM     64  C   UNL     1       8.266  -6.577  12.280  1.00  0.00     0.173 A 
ATOM     65  C   UNL     1       6.913  -4.680  12.900  1.00  0.00     0.173 A 
ATOM     66  F   UNL     1       9.023  -7.233  11.387  1.00  0.00    -0.203 F 
ATOM     67  C   UNL     1       7.918  -7.210  13.464  1.00  0.00     0.198 A 
ATOM     68  C   UNL     1       6.600  -5.300  14.101  1.00  0.00     0.198 A 
ATOM     69  F   UNL     1       6.374  -3.482  12.625  1.00  0.00    -0.203 F 
ATOM     70  F   UNL     1       8.344  -8.458  13.702  1.00  0.00    -0.200 F 
ATOM     71  C   UNL     1       7.094  -6.568  14.377  1.00  0.00     0.200 A 
ATOM     72  F   UNL     1       5.800  -4.683  14.981  1.00  0.00    -0.200 F 
ATOM     73  F   UNL     1       6.755  -7.182  15.518  1.00  0.00    -0.200 F 
ENDBRANCH  40  63
ENDBRANCH  14  15
ENDBRANCH   7   9
ENDBRANCH   6   7
ENDBRANCH   5   6
ENDBRANCH   4   5
ENDBRANCH   3   4
ENDBRANCH   2   3
ENDBRANCH   1   2
BRANCH   1  74
ATOM     74  O   UNL     1       6.249  -0.212  -4.403  1.00  0.00    -0.376 OA
BRANCH  74  75
ATOM     75  C   UNL     1       5.253   0.458  -3.643  1.00  0.00     0.202 C 
BRANCH  75  76
ATOM     76  C   UNL     1       4.364  -0.349  -2.689  1.00  0.00     0.261 C 
BRANCH  76  77
ATOM     77  O   UNL     1       5.024  -1.376  -1.957  1.00  0.00    -0.459 OA
BRANCH  77  78
ATOM     78  C   UNL     1       5.071  -2.567  -2.616  1.00  0.00     0.370 C 
ATOM     79  O   UNL     1       4.656  -2.739  -3.762  1.00  0.00    -0.245 OA
BRANCH  78  80
ATOM     80  C   UNL     1       5.644  -3.714  -1.773  1.00  0.00     0.328 C 
BRANCH  80  81
ATOM     81  N   UNL     1       6.374  -3.263  -0.557  1.00  0.00    -0.310 N 
ATOM     82  C   UNL     1       5.592  -3.100   0.656  1.00  0.00     0.325 C 
ATOM     83  C   UNL     1       7.654  -3.928  -0.252  1.00  0.00     0.325 C 
ATOM     84  H   UNL     1       6.608  -2.326  -0.885  1.00  0.00     0.349 HD
ATOM     85  C   UNL     1       5.342  -4.435   1.393  1.00  0.00     0.324 C 
ATOM     86  C   UNL     1       7.744  -4.731   1.079  1.00  0.00     0.324 C 
ATOM     87  N   UNL     1       6.507  -5.322   1.581  1.00  0.00    -0.322 N 
ATOM     88  H   UNL     1       6.700  -5.399   2.579  1.00  0.00     0.348 HD
BRANCH  87  89
ATOM     89  C   UNL     1       6.221  -6.713   1.235  1.00  0.00     0.200 C 
ATOM     90  C   UNL     1       7.214  -7.519   0.387  1.00  0.00     0.082 C 
ATOM     91  C   UNL     1       6.086  -7.540   2.508  1.00  0.00     0.201 C 
ATOM     92  C   UNL     1       6.592  -8.906   0.322  1.00  0.00     0.143 C 
ATOM     93  S   UNL     1       5.943  -9.220   1.939  1.00  0.00     0.156 S 
ATOM     94  O   UNL     1       4.526  -9.534   1.845  1.00  0.00    -0.229 OA
ATOM     95  O   UNL     1       6.872 -10.059   2.652  1.00  0.00    -0.229 OA
ENDBRANCH  87  89
ENDBRANCH  80  81
BRANCH  80  96
ATOM     96  C   UNL     1       4.487  -4.652  -1.538  1.00  0.00     0.046 A 
ATOM     97  C   UNL     1       3.229  -4.353  -1.026  1.00  0.00     0.094 A 
ATOM     98  C   UNL     1       4.447  -6.026  -1.892  1.00  0.00     0.009 A 
ATOM     99  N   UNL     1       2.531  -5.521  -0.885  1.00  0.00    -0.361 N 
ATOM    100  C   UNL     1       3.271  -6.566  -1.376  1.00  0.00     0.050 A 
ATOM    101  C   UNL     1       5.344  -6.866  -2.556  1.00  0.00     0.015 A 
ATOM    102  H   UNL     1       1.632  -5.599  -0.490  1.00  0.00     0.166 HD
ATOM    103  C   UNL     1       3.000  -7.938  -1.385  1.00  0.00     0.073 A 
ATOM    104  C   UNL     1       5.083  -8.233  -2.569  1.00  0.00     0.047 A 
ATOM    105  C   UNL     1       3.954  -8.784  -1.954  1.00  0.00     0.121 A 
BRANCH 105 106
ATOM    106  O   UNL     1       3.683 -10.123  -1.799  1.00  0.00    -0.489 OA
BRANCH 106 107
ATOM    107  C   UNL     1       4.696 -11.106  -2.103  1.00  0.00     0.265 C 
BRANCH 107 108
ATOM    108  C   UNL     1       5.089 -11.083  -3.563  1.00  0.00    -0.011 A 
ATOM    109  C   UNL     1       6.444 -11.112  -3.929  1.00  0.00     0.007 A 
ATOM    110  C   UNL     1       4.116 -10.739  -4.514  1.00  0.00     0.007 A 
ATOM    111  C   UNL     1       6.826 -10.611  -5.173  1.00  0.00     0.000 A 
ATOM    112  C   UNL     1       4.506 -10.220  -5.742  1.00  0.00     0.000 A 
ATOM    113  C   UNL     1       5.860 -10.124  -6.057  1.00  0.00     0.000 A 
ENDBRANCH 107 108
ENDBRANCH 106 107
ENDBRANCH 105 106
ENDBRANCH  80  96
ENDBRANCH  78  80
ENDBRANCH  77  78
ENDBRANCH  76  77
ENDBRANCH  75  76
ENDBRANCH  74  75
ENDBRANCH   1  74
TORSDOF 23
