REMARK SMILES Cc1ccc(Oc2cc(C(=O)OCCOCCOCCOC(=O)c3ccc(-c4c5nc(c(-c6c(F)c(F)c(F)c(F)c6F)c6ccc([nH]6)c(-c6c(F)c(F)c(F)c(F)c6F)c6nc(c(-c7c(F)c(F)c(F)c(F)c7F)c7ccc4[nH]7)C=C6)C=C5)cc3)nc3ccccc23)cc1
REMARK SMILES IDX 16 1 15 2 14 3 13 4 12 5 10 6 11 7 9 8 7 9 8 10 93 11 88 12
REMARK SMILES IDX 92 13 87 14 89 15 91 16 90 17 6 18 5 19 1 20 2 21 3 22 95 23
REMARK SMILES IDX 4 24 94 25 17 26 18 27 19 28 20 29 21 30 22 31 23 32 24 33
REMARK SMILES IDX 25 34 86 35 26 36 85 37 27 38 28 39 29 40 79 41 30 42 84 43
REMARK SMILES IDX 78 44 80 45 31 46 83 47 77 48 76 49 32 51 64 52 44 53 63 54
REMARK SMILES IDX 45 55 48 56 62 57 81 58 46 59 47 60 61 62 82 63 49 64 33 65
REMARK SMILES IDX 34 66 42 67 35 68 36 69 40 70 43 71 37 72 38 73 41 74 39 75
REMARK SMILES IDX 65 76 66 77 74 78 67 79 68 80 72 81 75 82 69 83 70 84 73 85
REMARK SMILES IDX 71 86 50 87 51 88 59 89 52 90 53 91 57 92 60 93 54 94 55 95
REMARK SMILES IDX 58 96 56 97
REMARK H PARENT 80 50 48 61
REMARK Flexibility Score: inf
ROOT
ATOM      1  C   UNL     1     -10.418   2.898   3.135  1.00  0.00     0.188 C 
ENDROOT
BRANCH   1   2
ATOM      2  O   UNL     1      -9.770   4.177   2.926  1.00  0.00    -0.376 OA
BRANCH   2   3
ATOM      3  C   UNL     1     -10.021   5.068   1.831  1.00  0.00     0.202 C 
BRANCH   3   4
ATOM      4  C   UNL     1      -8.874   5.631   0.699  1.00  0.00     0.261 C 
BRANCH   4   5
ATOM      5  O   UNL     1      -7.741   4.828  -0.305  1.00  0.00    -0.459 OA
BRANCH   5   6
ATOM      6  C   UNL     1      -6.408   4.301  -0.222  1.00  0.00     0.357 C 
ATOM      7  O   UNL     1      -5.592   4.436   0.692  1.00  0.00    -0.244 OA
BRANCH   6   8
ATOM      8  C   UNL     1      -5.702   3.408  -1.179  1.00  0.00     0.152 A 
ATOM      9  C   UNL     1      -3.827   1.813  -1.261  1.00  0.00     0.139 A 
ATOM     10  C   UNL     1      -4.964   2.321  -0.623  1.00  0.00     0.084 A 
ATOM     11  C   UNL     1      -3.462   2.393  -2.484  1.00  0.00     0.043 A 
ATOM     12  C   UNL     1      -4.218   3.526  -2.913  1.00  0.00     0.075 A 
ATOM     13  C   UNL     1      -2.416   1.928  -3.308  1.00  0.00     0.014 A 
ATOM     14  N   UNL     1      -5.310   4.013  -2.308  1.00  0.00    -0.240 NA
ATOM     15  C   UNL     1      -3.808   4.217  -4.030  1.00  0.00     0.029 A 
ATOM     16  C   UNL     1      -2.065   2.617  -4.466  1.00  0.00     0.001 A 
ATOM     17  C   UNL     1      -2.740   3.781  -4.808  1.00  0.00     0.002 A 
BRANCH   9  18
ATOM     18  O   UNL     1      -3.229   0.716  -0.659  1.00  0.00    -0.457 OA
BRANCH  18  19
ATOM     19  C   UNL     1      -1.862   0.615  -0.454  1.00  0.00     0.127 A 
ATOM     20  C   UNL     1       2.388  -0.109   0.123  1.00  0.00     0.044 C 
ATOM     21  C   UNL     1       0.915   0.147  -0.049  1.00  0.00    -0.051 A 
ATOM     22  C   UNL     1       0.036  -0.921  -0.249  1.00  0.00     0.007 A 
ATOM     23  C   UNL     1       0.382   1.444  -0.002  1.00  0.00     0.007 A 
ATOM     24  C   UNL     1      -1.336  -0.687  -0.442  1.00  0.00     0.047 A 
ATOM     25  C   UNL     1      -0.996   1.677  -0.194  1.00  0.00     0.047 A 
ENDBRANCH  18  19
ENDBRANCH   9  18
ENDBRANCH   6   8
ENDBRANCH   5   6
ENDBRANCH   4   5
ENDBRANCH   3   4
ENDBRANCH   2   3
ENDBRANCH   1   2
BRANCH   1  26
ATOM     26  C   UNL     1     -11.585   2.392   2.286  1.00  0.00     0.188 C 
BRANCH  26  27
ATOM     27  O   UNL     1     -11.364   2.727   0.931  1.00  0.00    -0.376 OA
BRANCH  27  28
ATOM     28  C   UNL     1     -12.368   2.308   0.024  1.00  0.00     0.202 C 
BRANCH  28  29
ATOM     29  C   UNL     1     -12.179   0.845  -0.418  1.00  0.00     0.261 C 
BRANCH  29  30
ATOM     30  O   UNL     1     -10.814   0.617  -0.852  1.00  0.00    -0.460 OA
BRANCH  30  31
ATOM     31  C   UNL     1     -10.003  -0.158  -0.058  1.00  0.00     0.338 C 
ATOM     32  O   UNL     1     -10.337  -1.220   0.449  1.00  0.00    -0.246 OA
BRANCH  31  33
ATOM     33  C   UNL     1      -8.761   0.609   0.325  1.00  0.00     0.060 A 
ATOM     34  C   UNL     1      -7.888   0.315   1.385  1.00  0.00     0.016 A 
ATOM     35  C   UNL     1      -8.725   1.887  -0.100  1.00  0.00     0.016 A 
ATOM     36  C   UNL     1      -7.157   1.367   2.108  1.00  0.00     0.010 A 
ATOM     37  C   UNL     1      -8.304   2.805   0.862  1.00  0.00     0.010 A 
ATOM     38  C   UNL     1      -7.405   2.732   1.930  1.00  0.00    -0.014 A 
BRANCH  38  39
ATOM     39  C   UNL     1      -7.005   3.978   2.921  1.00  0.00     0.031 A 
ATOM     40  C   UNL     1      -6.271   5.472   2.721  1.00  0.00     0.074 A 
ATOM     41  C   UNL     1      -7.256   3.755   4.232  1.00  0.00     0.049 A 
ATOM     42  N   UNL     1      -5.354   5.982   3.538  1.00  0.00    -0.248 NA
ATOM     43  C   UNL     1      -6.380   6.438   1.584  1.00  0.00     0.031 C 
ATOM     44  C   UNL     1      -7.159   4.700   5.342  1.00  0.00     0.029 A 
ATOM     45  N   UNL     1      -7.536   2.529   4.856  1.00  0.00    -0.354 N 
ATOM     46  C   UNL     1      -4.939   7.233   3.033  1.00  0.00     0.074 A 
ATOM     47  C   UNL     1      -5.364   7.263   1.709  1.00  0.00     0.031 C 
ATOM     48  C   UNL     1      -7.027   4.001   6.480  1.00  0.00     0.029 A 
ATOM     49  C   UNL     1      -6.927   2.599   6.118  1.00  0.00     0.049 A 
ATOM     50  H   UNL     1      -8.052   1.777   4.485  1.00  0.00     0.167 HD
ATOM     51  C   UNL     1      -4.456   8.294   3.740  1.00  0.00     0.037 A 
ATOM     52  C   UNL     1      -5.942   1.730   6.471  1.00  0.00     0.037 A 
ATOM     53  C   UNL     1      -4.249   7.873   5.097  1.00  0.00     0.049 A 
ATOM     54  C   UNL     1      -4.664   2.420   6.885  1.00  0.00     0.074 A 
ATOM     55  C   UNL     1      -5.028   7.937   6.235  1.00  0.00     0.029 A 
ATOM     56  N   UNL     1      -3.282   6.911   5.314  1.00  0.00    -0.354 N 
ATOM     57  N   UNL     1      -4.432   3.693   6.714  1.00  0.00    -0.248 NA
ATOM     58  C   UNL     1      -3.533   1.730   7.497  1.00  0.00     0.031 C 
ATOM     59  C   UNL     1      -4.582   6.907   7.107  1.00  0.00     0.029 A 
ATOM     60  C   UNL     1      -3.499   6.277   6.517  1.00  0.00     0.049 A 
ATOM     61  H   UNL     1      -2.543   6.708   4.697  1.00  0.00     0.167 HD
ATOM     62  C   UNL     1      -3.151   3.981   7.098  1.00  0.00     0.074 A 
ATOM     63  C   UNL     1      -2.643   2.730   7.622  1.00  0.00     0.031 C 
ATOM     64  C   UNL     1      -2.596   5.212   6.910  1.00  0.00     0.037 A 
BRANCH  51  65
ATOM     65  C   UNL     1      -4.502   9.761   3.240  1.00  0.00     0.064 A 
ATOM     66  C   UNL     1      -4.593  10.820   4.169  1.00  0.00     0.173 A 
ATOM     67  C   UNL     1      -4.554  10.207   1.893  1.00  0.00     0.173 A 
ATOM     68  F   UNL     1      -4.424  10.602   5.479  1.00  0.00    -0.203 F 
ATOM     69  C   UNL     1      -4.854  12.151   3.791  1.00  0.00     0.198 A 
ATOM     70  C   UNL     1      -4.897  11.515   1.516  1.00  0.00     0.198 A 
ATOM     71  F   UNL     1      -4.173   9.439   0.868  1.00  0.00    -0.203 F 
ATOM     72  F   UNL     1      -4.919  13.107   4.728  1.00  0.00    -0.200 F 
ATOM     73  C   UNL     1      -5.057  12.489   2.470  1.00  0.00     0.200 A 
ATOM     74  F   UNL     1      -5.046  11.819   0.217  1.00  0.00    -0.200 F 
ATOM     75  F   UNL     1      -5.355  13.747   2.114  1.00  0.00    -0.200 F 
ENDBRANCH  51  65
BRANCH  52  76
ATOM     76  C   UNL     1      -6.078   0.378   5.845  1.00  0.00     0.064 A 
ATOM     77  C   UNL     1      -7.300  -0.312   6.025  1.00  0.00     0.173 A 
ATOM     78  C   UNL     1      -5.224  -0.102   4.845  1.00  0.00     0.173 A 
ATOM     79  F   UNL     1      -8.168   0.098   6.965  1.00  0.00    -0.203 F 
ATOM     80  C   UNL     1      -7.699  -1.341   5.174  1.00  0.00     0.198 A 
ATOM     81  C   UNL     1      -5.617  -1.158   4.008  1.00  0.00     0.198 A 
ATOM     82  F   UNL     1      -4.073   0.529   4.575  1.00  0.00    -0.203 F 
ATOM     83  F   UNL     1      -8.927  -1.869   5.293  1.00  0.00    -0.200 F 
ATOM     84  C   UNL     1      -6.863  -1.754   4.156  1.00  0.00     0.200 A 
ATOM     85  F   UNL     1      -4.845  -1.510   2.968  1.00  0.00    -0.200 F 
ATOM     86  F   UNL     1      -7.286  -2.666   3.268  1.00  0.00    -0.200 F 
ENDBRANCH  52  76
BRANCH  64  87
ATOM     87  C   UNL     1      -1.133   5.552   7.038  1.00  0.00     0.064 A 
ATOM     88  C   UNL     1      -0.097   4.657   6.733  1.00  0.00     0.173 A 
ATOM     89  C   UNL     1      -0.741   6.893   7.278  1.00  0.00     0.173 A 
ATOM     90  F   UNL     1      -0.351   3.389   6.384  1.00  0.00    -0.203 F 
ATOM     91  C   UNL     1       1.239   5.063   6.711  1.00  0.00     0.198 A 
ATOM     92  C   UNL     1       0.585   7.308   7.184  1.00  0.00     0.198 A 
ATOM     93  F   UNL     1      -1.643   7.844   7.565  1.00  0.00    -0.203 F 
ATOM     94  F   UNL     1       2.199   4.165   6.450  1.00  0.00    -0.200 F 
ATOM     95  C   UNL     1       1.577   6.389   6.916  1.00  0.00     0.200 A 
ATOM     96  F   UNL     1       0.890   8.605   7.327  1.00  0.00    -0.200 F 
ATOM     97  F   UNL     1       2.855   6.782   6.832  1.00  0.00    -0.200 F 
ENDBRANCH  64  87
ENDBRANCH  38  39
ENDBRANCH  31  33
ENDBRANCH  30  31
ENDBRANCH  29  30
ENDBRANCH  28  29
ENDBRANCH  27  28
ENDBRANCH  26  27
ENDBRANCH   1  26
TORSDOF 19
