REMARK SMILES CC[NH+]1CC[NH+]([C@@H]2CC(=O)N(c3ccc(C(=O)OCCOCCOCCOC(=O)c4ccc(-c5c6nc(c(-c7c(F)c(F)c(F)c(F)c7F)c7ccc([nH]7)c(-c7c(F)c(F)c(F)c(F)c7F)c7nc(c(-c8c(F)c(F)c(F)c(F)c8F)c8ccc5[nH]8)C=C7)C=C6)cc4)cc3)C2=O)CC1
REMARK SMILES IDX 22 1 21 2 20 3 19 4 18 5 16 6 17 7 15 8 12 9 13 10 94 11
REMARK SMILES IDX 14 12 93 13 11 14 7 15 8 16 95 17 9 18 96 19 10 20 6 21 3 22
REMARK SMILES IDX 4 23 98 24 5 26 97 27 2 29 1 30 23 31 24 32 25 33 26 34
REMARK SMILES IDX 27 35 28 36 29 37 30 38 31 39 92 40 32 41 91 42 33 43 34 44
REMARK SMILES IDX 35 45 85 46 36 47 90 48 84 49 86 50 37 51 89 52 83 53 82 54
REMARK SMILES IDX 38 56 70 57 50 58 69 59 51 60 54 61 68 62 87 63 52 64 53 65
REMARK SMILES IDX 67 67 88 68 55 69 39 70 40 71 48 72 41 73 42 74 46 75 49 76
REMARK SMILES IDX 43 77 44 78 47 79 45 80 71 81 72 82 80 83 73 84 74 85 78 86
REMARK SMILES IDX 81 87 75 88 76 89 79 90 77 91 56 92 57 93 65 94 58 95 59 96
REMARK SMILES IDX 63 97 66 98 60 99 61 100 64 101 62 102
REMARK H PARENT 3 25 6 28 86 55 54 66
REMARK Flexibility Score: inf
ROOT
ATOM      1  C   UNL     1      11.935   4.443  -0.047  1.00  0.00     0.188 C 
ENDROOT
BRANCH   1   2
ATOM      2  O   UNL     1      13.152   3.924  -0.574  1.00  0.00    -0.376 OA
BRANCH   2   3
ATOM      3  C   UNL     1      13.459   4.093  -1.952  1.00  0.00     0.202 C 
BRANCH   3   4
ATOM      4  C   UNL     1      12.480   3.554  -3.004  1.00  0.00     0.261 C 
BRANCH   4   5
ATOM      5  O   UNL     1      11.121   3.982  -2.830  1.00  0.00    -0.460 OA
BRANCH   5   6
ATOM      6  C   UNL     1      10.249   3.003  -2.470  1.00  0.00     0.338 C 
ATOM      7  O   UNL     1      10.481   1.824  -2.331  1.00  0.00    -0.246 OA
BRANCH   6   8
ATOM      8  C   UNL     1       8.959   3.615  -2.071  1.00  0.00     0.060 A 
ATOM      9  C   UNL     1       6.449   4.613  -1.272  1.00  0.00     0.052 A 
ATOM     10  C   UNL     1       7.142   3.697  -0.467  1.00  0.00     0.028 A 
ATOM     11  C   UNL     1       7.071   5.069  -2.448  1.00  0.00     0.028 A 
ATOM     12  C   UNL     1       8.372   3.177  -0.879  1.00  0.00     0.018 A 
ATOM     13  C   UNL     1       8.328   4.590  -2.839  1.00  0.00     0.018 A 
BRANCH   9  14
ATOM     14  N   UNL     1       5.113   4.977  -0.953  1.00  0.00    -0.245 N 
ATOM     15  C   UNL     1       3.087   5.181   0.243  1.00  0.00     0.285 C 
ATOM     16  C   UNL     1       2.824   5.394  -1.238  1.00  0.00     0.176 C 
ATOM     17  C   UNL     1       4.606   5.040   0.327  1.00  0.00     0.292 C 
ATOM     18  C   UNL     1       4.151   5.216  -1.902  1.00  0.00     0.240 C 
ATOM     19  O   UNL     1       5.237   5.005   1.377  1.00  0.00    -0.267 OA
ATOM     20  O   UNL     1       4.268   5.236  -3.121  1.00  0.00    -0.274 OA
BRANCH  15  21
ATOM     21  N   UNL     1       2.384   4.101   0.969  1.00  0.00    -0.315 N 
ATOM     22  N   UNL     1       0.829   1.953  -0.489  1.00  0.00    -0.326 N 
ATOM     23  C   UNL     1       0.261   3.297  -0.248  1.00  0.00     0.324 C 
ATOM     24  C   UNL     1       2.301   2.004  -0.444  1.00  0.00     0.324 C 
ATOM     25  H   UNL     1       0.576   1.644  -1.427  1.00  0.00     0.348 HD
ATOM     26  C   UNL     1       0.914   4.135   0.886  1.00  0.00     0.325 C 
ATOM     27  C   UNL     1       2.875   2.729   0.788  1.00  0.00     0.325 C 
ATOM     28  H   UNL     1       2.651   4.358   1.919  1.00  0.00     0.349 HD
BRANCH  22  29
ATOM     29  C   UNL     1       0.250   0.962   0.430  1.00  0.00     0.259 C 
ATOM     30  C   UNL     1       0.619  -0.474   0.066  1.00  0.00     0.071 C 
ENDBRANCH  22  29
ENDBRANCH  15  21
ENDBRANCH   9  14
ENDBRANCH   6   8
ENDBRANCH   5   6
ENDBRANCH   4   5
ENDBRANCH   3   4
ENDBRANCH   2   3
ENDBRANCH   1   2
BRANCH   1  31
ATOM     31  C   UNL     1      11.422   5.832  -0.485  1.00  0.00     0.188 C 
BRANCH  31  32
ATOM     32  O   UNL     1      12.319   6.532  -1.324  1.00  0.00    -0.376 OA
BRANCH  32  33
ATOM     33  C   UNL     1      12.973   7.663  -0.773  1.00  0.00     0.202 C 
BRANCH  33  34
ATOM     34  C   UNL     1      13.880   7.455   0.452  1.00  0.00     0.261 C 
BRANCH  34  35
ATOM     35  O   UNL     1      13.347   6.647   1.514  1.00  0.00    -0.460 OA
BRANCH  35  36
ATOM     36  C   UNL     1      12.455   7.230   2.342  1.00  0.00     0.338 C 
ATOM     37  O   UNL     1      12.027   8.368   2.277  1.00  0.00    -0.246 OA
BRANCH  36  38
ATOM     38  C   UNL     1      11.942   6.199   3.272  1.00  0.00     0.060 A 
ATOM     39  C   UNL     1      10.567   5.934   3.287  1.00  0.00     0.016 A 
ATOM     40  C   UNL     1      12.800   5.526   4.147  1.00  0.00     0.016 A 
ATOM     41  C   UNL     1      10.040   5.039   4.219  1.00  0.00     0.010 A 
ATOM     42  C   UNL     1      12.268   4.638   5.090  1.00  0.00     0.010 A 
ATOM     43  C   UNL     1      10.880   4.427   5.160  1.00  0.00    -0.014 A 
BRANCH  43  44
ATOM     44  C   UNL     1      10.275   3.755   6.339  1.00  0.00     0.031 A 
ATOM     45  C   UNL     1      10.134   4.538   7.616  1.00  0.00     0.074 A 
ATOM     46  C   UNL     1       9.813   2.494   6.273  1.00  0.00     0.049 A 
ATOM     47  N   UNL     1       9.606   4.186   8.761  1.00  0.00    -0.248 NA
ATOM     48  C   UNL     1      10.668   5.910   7.598  1.00  0.00     0.031 C 
ATOM     49  C   UNL     1       9.875   1.632   5.097  1.00  0.00     0.029 A 
ATOM     50  N   UNL     1       9.200   1.722   7.230  1.00  0.00    -0.354 N 
ATOM     51  C   UNL     1       9.734   5.292   9.591  1.00  0.00     0.074 A 
ATOM     52  C   UNL     1      10.435   6.309   8.838  1.00  0.00     0.031 C 
ATOM     53  C   UNL     1       9.332   0.441   5.404  1.00  0.00     0.029 A 
ATOM     54  C   UNL     1       8.897   0.454   6.801  1.00  0.00     0.049 A 
ATOM     55  H   UNL     1       8.998   2.046   8.137  1.00  0.00     0.167 HD
ATOM     56  C   UNL     1       9.292   5.457  10.861  1.00  0.00     0.037 A 
ATOM     57  C   UNL     1       8.341  -0.579   7.465  1.00  0.00     0.037 A 
ATOM     58  C   UNL     1       8.608   4.442  11.620  1.00  0.00     0.049 A 
ATOM     59  C   UNL     1       7.897  -0.393   8.893  1.00  0.00     0.074 A 
ATOM     60  C   UNL     1       8.118   4.511  12.912  1.00  0.00     0.029 A 
ATOM     61  N   UNL     1       8.329   3.166  11.153  1.00  0.00    -0.354 N 
ATOM     62  N   UNL     1       7.985   0.668   9.659  1.00  0.00    -0.248 NA
ATOM     63  C   UNL     1       7.260  -1.547   9.545  1.00  0.00     0.031 C 
ATOM     64  C   UNL     1       7.585   3.260  13.244  1.00  0.00     0.029 A 
ATOM     65  C   UNL     1       7.690   2.430  12.139  1.00  0.00     0.049 A 
ATOM     66  H   UNL     1       8.551   2.832  10.254  1.00  0.00     0.167 HD
ATOM     67  C   UNL     1       7.394   0.322  10.867  1.00  0.00     0.074 A 
ATOM     68  C   UNL     1       6.937  -1.046  10.729  1.00  0.00     0.031 C 
ATOM     69  C   UNL     1       7.240   1.069  11.989  1.00  0.00     0.037 A 
BRANCH  56  70
ATOM     70  C   UNL     1       9.563   6.783  11.511  1.00  0.00     0.064 A 
ATOM     71  C   UNL     1       8.913   7.955  11.092  1.00  0.00     0.173 A 
ATOM     72  C   UNL     1      10.490   6.887  12.559  1.00  0.00     0.173 A 
ATOM     73  F   UNL     1       8.030   7.914  10.083  1.00  0.00    -0.203 F 
ATOM     74  C   UNL     1       9.211   9.187  11.670  1.00  0.00     0.198 A 
ATOM     75  C   UNL     1      10.761   8.115  13.156  1.00  0.00     0.198 A 
ATOM     76  F   UNL     1      11.136   5.798  13.001  1.00  0.00    -0.203 F 
ATOM     77  F   UNL     1       8.626  10.301  11.209  1.00  0.00    -0.200 F 
ATOM     78  C   UNL     1      10.132   9.265  12.704  1.00  0.00     0.200 A 
ATOM     79  F   UNL     1      11.643   8.188  14.164  1.00  0.00    -0.200 F 
ATOM     80  F   UNL     1      10.421  10.451  13.258  1.00  0.00    -0.200 F 
ENDBRANCH  56  70
BRANCH  57  81
ATOM     81  C   UNL     1       8.170  -1.886   6.778  1.00  0.00     0.064 A 
ATOM     82  C   UNL     1       6.900  -2.366   6.429  1.00  0.00     0.173 A 
ATOM     83  C   UNL     1       9.279  -2.682   6.458  1.00  0.00     0.173 A 
ATOM     84  F   UNL     1       5.806  -1.654   6.739  1.00  0.00    -0.203 F 
ATOM     85  C   UNL     1       6.746  -3.599   5.798  1.00  0.00     0.198 A 
ATOM     86  C   UNL     1       9.126  -3.902   5.803  1.00  0.00     0.198 A 
ATOM     87  F   UNL     1      10.515  -2.269   6.774  1.00  0.00    -0.203 F 
ATOM     88  F   UNL     1       5.518  -4.054   5.512  1.00  0.00    -0.200 F 
ATOM     89  C   UNL     1       7.859  -4.362   5.478  1.00  0.00     0.200 A 
ATOM     90  F   UNL     1      10.205  -4.631   5.487  1.00  0.00    -0.200 F 
ATOM     91  F   UNL     1       7.710  -5.544   4.865  1.00  0.00    -0.200 F 
ENDBRANCH  57  81
BRANCH  69  92
ATOM     92  C   UNL     1       6.517   0.439  13.146  1.00  0.00     0.064 A 
ATOM     93  C   UNL     1       7.092  -0.590  13.907  1.00  0.00     0.173 A 
ATOM     94  C   UNL     1       5.242   0.894  13.518  1.00  0.00     0.173 A 
ATOM     95  F   UNL     1       8.303  -1.070  13.587  1.00  0.00    -0.203 F 
ATOM     96  C   UNL     1       6.404  -1.162  14.975  1.00  0.00     0.198 A 
ATOM     97  C   UNL     1       4.571   0.342  14.606  1.00  0.00     0.198 A 
ATOM     98  F   UNL     1       4.649   1.882  12.831  1.00  0.00    -0.203 F 
ATOM     99  F   UNL     1       6.951  -2.180  15.654  1.00  0.00    -0.200 F 
ATOM    100  C   UNL     1       5.148  -0.691  15.328  1.00  0.00     0.200 A 
ATOM    101  F   UNL     1       3.364   0.808  14.954  1.00  0.00    -0.200 F 
ATOM    102  F   UNL     1       4.490  -1.240  16.358  1.00  0.00    -0.200 F 
ENDBRANCH  69  92
ENDBRANCH  43  44
ENDBRANCH  36  38
ENDBRANCH  35  36
ENDBRANCH  34  35
ENDBRANCH  33  34
ENDBRANCH  32  33
ENDBRANCH  31  32
ENDBRANCH   1  31
TORSDOF 20
