REMARK SMILES O=C(OCCOCCOCCOC(=O)[C@@H]1Cc2ccccc2CN1C(=O)COc1ccccc1)c1ccc(-c2c3nc(c(-c4c(F)c(F)c(F)c(F)c4F)c4ccc([nH]4)c(-c4c(F)c(F)c(F)c(F)c4F)c4nc(c(-c5c(F)c(F)c(F)c(F)c5F)c5ccc2[nH]5)C=C4)C=C3)cc1
REMARK SMILES IDX 8 1 7 2 6 3 5 4 4 5 3 6 2 7 1 8 35 9 36 10 97 11 37 12 96 13
REMARK SMILES IDX 38 14 39 15 40 16 90 17 41 18 95 19 89 20 91 21 42 22 94 23
REMARK SMILES IDX 88 24 87 25 43 27 75 28 55 29 74 30 56 31 59 32 73 33 92 34
REMARK SMILES IDX 57 35 58 36 72 38 93 39 60 40 44 41 45 42 53 43 46 44 47 45
REMARK SMILES IDX 51 46 54 47 48 48 49 49 52 50 50 51 76 52 77 53 85 54 78 55
REMARK SMILES IDX 79 56 83 57 86 58 80 59 81 60 84 61 82 62 61 63 62 64 70 65
REMARK SMILES IDX 63 66 64 67 68 68 71 69 65 70 66 71 69 72 67 73 9 74 10 75
REMARK SMILES IDX 11 76 12 77 13 78 14 79 15 80 16 81 24 82 17 83 23 84 18 85
REMARK SMILES IDX 22 86 19 87 21 88 20 89 25 90 26 91 27 92 28 93 29 94 30 95
REMARK SMILES IDX 34 96 31 97 33 98 32 99
REMARK H PARENT 91 26 59 37
REMARK Flexibility Score: inf
ROOT
ATOM      1  C   UNL     1      -1.016  -6.489  -0.105  1.00  0.00     0.188 C 
ENDROOT
BRANCH   1   2
ATOM      2  C   UNL     1      -1.104  -6.777  -1.599  1.00  0.00     0.188 C 
BRANCH   2   3
ATOM      3  O   UNL     1      -1.069  -5.603  -2.417  1.00  0.00    -0.376 OA
BRANCH   3   4
ATOM      4  C   UNL     1      -1.994  -5.665  -3.506  1.00  0.00     0.202 C 
BRANCH   4   5
ATOM      5  C   UNL     1      -1.596  -6.624  -4.643  1.00  0.00     0.261 C 
BRANCH   5   6
ATOM      6  O   UNL     1      -0.667  -7.655  -4.264  1.00  0.00    -0.460 OA
BRANCH   6   7
ATOM      7  C   UNL     1       0.692  -7.658  -4.279  1.00  0.00     0.338 C 
ATOM      8  O   UNL     1       1.268  -8.725  -4.106  1.00  0.00    -0.246 OA
BRANCH   7   9
ATOM      9  C   UNL     1       1.540  -6.430  -4.453  1.00  0.00     0.060 A 
ATOM     10  C   UNL     1       1.073  -5.117  -4.495  1.00  0.00     0.016 A 
ATOM     11  C   UNL     1       2.930  -6.617  -4.546  1.00  0.00     0.016 A 
ATOM     12  C   UNL     1       1.917  -4.025  -4.661  1.00  0.00     0.010 A 
ATOM     13  C   UNL     1       3.795  -5.525  -4.691  1.00  0.00     0.010 A 
ATOM     14  C   UNL     1       3.281  -4.219  -4.776  1.00  0.00    -0.014 A 
BRANCH  14  15
ATOM     15  C   UNL     1       4.143  -3.099  -5.202  1.00  0.00     0.031 A 
ATOM     16  C   UNL     1       4.686  -3.168  -6.595  1.00  0.00     0.074 A 
ATOM     17  C   UNL     1       4.385  -2.027  -4.422  1.00  0.00     0.049 A 
ATOM     18  N   UNL     1       5.639  -2.473  -7.144  1.00  0.00    -0.248 NA
ATOM     19  C   UNL     1       4.013  -4.106  -7.516  1.00  0.00     0.031 C 
ATOM     20  C   UNL     1       3.694  -1.673  -3.182  1.00  0.00     0.029 A 
ATOM     21  N   UNL     1       5.391  -1.092  -4.502  1.00  0.00    -0.354 N 
ATOM     22  C   UNL     1       5.635  -2.838  -8.482  1.00  0.00     0.074 A 
ATOM     23  C   UNL     1       4.652  -3.880  -8.653  1.00  0.00     0.031 C 
ATOM     24  C   UNL     1       4.424  -0.763  -2.510  1.00  0.00     0.029 A 
ATOM     25  C   UNL     1       5.631  -0.497  -3.276  1.00  0.00     0.049 A 
ATOM     26  H   UNL     1       5.879  -0.873  -5.328  1.00  0.00     0.167 HD
ATOM     27  C   UNL     1       6.363  -2.288  -9.477  1.00  0.00     0.037 A 
ATOM     28  C   UNL     1       6.771   0.054  -2.817  1.00  0.00     0.037 A 
ATOM     29  C   UNL     1       7.338  -1.263  -9.234  1.00  0.00     0.049 A 
ATOM     30  C   UNL     1       7.851   0.304  -3.826  1.00  0.00     0.074 A 
ATOM     31  C   UNL     1       8.112  -0.560 -10.134  1.00  0.00     0.029 A 
ATOM     32  N   UNL     1       7.686  -0.820  -7.964  1.00  0.00    -0.354 N 
ATOM     33  N   UNL     1       7.865  -0.005  -5.099  1.00  0.00    -0.248 NA
ATOM     34  C   UNL     1       9.029   1.044  -3.366  1.00  0.00     0.031 C 
ATOM     35  C   UNL     1       8.982   0.255  -9.401  1.00  0.00     0.029 A 
ATOM     36  C   UNL     1       8.711   0.100  -8.048  1.00  0.00     0.049 A 
ATOM     37  H   UNL     1       7.263  -1.119  -7.127  1.00  0.00     0.167 HD
ATOM     38  C   UNL     1       8.986   0.613  -5.623  1.00  0.00     0.074 A 
ATOM     39  C   UNL     1       9.674   1.236  -4.508  1.00  0.00     0.031 C 
ATOM     40  C   UNL     1       9.362   0.717  -6.920  1.00  0.00     0.037 A 
BRANCH  27  41
ATOM     41  C   UNL     1       6.135  -2.781 -10.871  1.00  0.00     0.064 A 
ATOM     42  C   UNL     1       4.950  -2.497 -11.569  1.00  0.00     0.173 A 
ATOM     43  C   UNL     1       7.121  -3.529 -11.529  1.00  0.00     0.173 A 
ATOM     44  F   UNL     1       3.966  -1.804 -10.977  1.00  0.00    -0.203 F 
ATOM     45  C   UNL     1       4.757  -2.956 -12.870  1.00  0.00     0.198 A 
ATOM     46  C   UNL     1       6.933  -3.968 -12.837  1.00  0.00     0.198 A 
ATOM     47  F   UNL     1       8.266  -3.837 -10.902  1.00  0.00    -0.203 F 
ATOM     48  F   UNL     1       3.603  -2.705 -13.504  1.00  0.00    -0.200 F 
ATOM     49  C   UNL     1       5.751  -3.684 -13.505  1.00  0.00     0.200 A 
ATOM     50  F   UNL     1       7.896  -4.670 -13.451  1.00  0.00    -0.200 F 
ATOM     51  F   UNL     1       5.567  -4.120 -14.759  1.00  0.00    -0.200 F 
ENDBRANCH  27  41
BRANCH  28  52
ATOM     52  C   UNL     1       7.015   0.322  -1.372  1.00  0.00     0.064 A 
ATOM     53  C   UNL     1       6.906   1.600  -0.819  1.00  0.00     0.173 A 
ATOM     54  C   UNL     1       7.512  -0.693  -0.538  1.00  0.00     0.173 A 
ATOM     55  F   UNL     1       6.519   2.627  -1.589  1.00  0.00    -0.203 F 
ATOM     56  C   UNL     1       7.281   1.848   0.505  1.00  0.00     0.198 A 
ATOM     57  C   UNL     1       7.842  -0.460   0.796  1.00  0.00     0.198 A 
ATOM     58  F   UNL     1       7.770  -1.901  -1.045  1.00  0.00    -0.203 F 
ATOM     59  F   UNL     1       7.246   3.099   0.984  1.00  0.00    -0.200 F 
ATOM     60  C   UNL     1       7.737   0.817   1.315  1.00  0.00     0.200 A 
ATOM     61  F   UNL     1       8.313  -1.459   1.556  1.00  0.00    -0.200 F 
ATOM     62  F   UNL     1       8.119   1.063   2.576  1.00  0.00    -0.200 F 
ENDBRANCH  28  52
BRANCH  40  63
ATOM     63  C   UNL     1      10.504   1.632  -7.214  1.00  0.00     0.064 A 
ATOM     64  C   UNL     1      11.826   1.284  -6.922  1.00  0.00     0.173 A 
ATOM     65  C   UNL     1      10.259   2.856  -7.856  1.00  0.00     0.173 A 
ATOM     66  F   UNL     1      12.097   0.138  -6.279  1.00  0.00    -0.203 F 
ATOM     67  C   UNL     1      12.870   2.136  -7.260  1.00  0.00     0.198 A 
ATOM     68  C   UNL     1      11.307   3.686  -8.227  1.00  0.00     0.198 A 
ATOM     69  F   UNL     1       9.003   3.228  -8.148  1.00  0.00    -0.203 F 
ATOM     70  F   UNL     1      14.129   1.809  -6.937  1.00  0.00    -0.200 F 
ATOM     71  C   UNL     1      12.612   3.328  -7.926  1.00  0.00     0.200 A 
ATOM     72  F   UNL     1      11.055   4.827  -8.883  1.00  0.00    -0.200 F 
ATOM     73  F   UNL     1      13.623   4.134  -8.273  1.00  0.00    -0.200 F 
ENDBRANCH  40  63
ENDBRANCH  14  15
ENDBRANCH   7   9
ENDBRANCH   6   7
ENDBRANCH   5   6
ENDBRANCH   4   5
ENDBRANCH   3   4
ENDBRANCH   2   3
ENDBRANCH   1   2
BRANCH   1  74
ATOM     74  O   UNL     1      -1.969  -5.602   0.469  1.00  0.00    -0.376 OA
BRANCH  74  75
ATOM     75  C   UNL     1      -2.055  -4.296  -0.093  1.00  0.00     0.202 C 
BRANCH  75  76
ATOM     76  C   UNL     1      -0.805  -3.397  -0.031  1.00  0.00     0.261 C 
BRANCH  76  77
ATOM     77  O   UNL     1       0.444  -4.089  -0.250  1.00  0.00    -0.462 OA
BRANCH  77  78
ATOM     78  C   UNL     1       1.431  -3.840   0.657  1.00  0.00     0.329 C 
ATOM     79  O   UNL     1       1.365  -2.945   1.495  1.00  0.00    -0.250 OA
BRANCH  78  80
ATOM     80  C   UNL     1       2.729  -4.656   0.423  1.00  0.00     0.200 C 
ATOM     81  C   UNL     1       3.372  -3.999  -0.818  1.00  0.00     0.073 C 
ATOM     82  N   UNL     1       2.685  -6.149   0.293  1.00  0.00    -0.321 N 
ATOM     83  C   UNL     1       4.706  -4.615  -1.130  1.00  0.00    -0.040 A 
ATOM     84  C   UNL     1       3.620  -6.796  -0.640  1.00  0.00     0.156 C 
ATOM     85  C   UNL     1       5.778  -3.888  -1.635  1.00  0.00     0.004 A 
ATOM     86  C   UNL     1       4.851  -5.987  -0.945  1.00  0.00    -0.025 A 
ATOM     87  C   UNL     1       7.000  -4.493  -1.914  1.00  0.00     0.000 A 
ATOM     88  C   UNL     1       6.105  -6.585  -1.148  1.00  0.00     0.006 A 
ATOM     89  C   UNL     1       7.180  -5.835  -1.624  1.00  0.00     0.000 A 
BRANCH  82  90
ATOM     90  C   UNL     1       2.124  -7.035   1.206  1.00  0.00     0.261 C 
ATOM     91  O   UNL     1       2.057  -8.245   0.952  1.00  0.00    -0.271 OA
BRANCH  90  92
ATOM     92  C   UNL     1       1.533  -6.545   2.530  1.00  0.00     0.329 C 
BRANCH  92  93
ATOM     93  O   UNL     1       2.038  -5.373   3.126  1.00  0.00    -0.484 OA
BRANCH  93  94
ATOM     94  C   UNL     1       3.170  -5.535   3.871  1.00  0.00     0.120 A 
ATOM     95  C   UNL     1       3.177  -4.874   5.096  1.00  0.00     0.046 A 
ATOM     96  C   UNL     1       4.314  -6.202   3.430  1.00  0.00     0.046 A 
ATOM     97  C   UNL     1       4.316  -4.898   5.897  1.00  0.00     0.004 A 
ATOM     98  C   UNL     1       5.461  -6.211   4.225  1.00  0.00     0.004 A 
ATOM     99  C   UNL     1       5.460  -5.563   5.458  1.00  0.00     0.000 A 
ENDBRANCH  93  94
ENDBRANCH  92  93
ENDBRANCH  90  92
ENDBRANCH  82  90
ENDBRANCH  78  80
ENDBRANCH  77  78
ENDBRANCH  76  77
ENDBRANCH  75  76
ENDBRANCH  74  75
ENDBRANCH   1  74
TORSDOF 21
