REMARK SMILES C[C@@H]1CC([NH2+][C@@](C)(C(=O)OCCOCCOCCOC(=O)c2ccc(-c3c4nc(c(-c5c(F)c(F)c(F)c(F)c5F)c5ccc([nH]5)c(-c5c(F)c(F)c(F)c(F)c5F)c5nc(c(-c6c(F)c(F)c(F)c(F)c6F)c6ccc3[nH]6)C=C5)C=C4)cc2)C(F)(F)F)C[C@@H](C)C1
REMARK SMILES IDX 14 1 13 2 12 3 11 4 10 5 8 6 9 7 6 8 7 9 5 10 4 13 1 14 2 15
REMARK SMILES IDX 3 16 92 17 90 18 89 19 91 20 85 21 86 22 87 23 88 24 15 25
REMARK SMILES IDX 16 26 17 27 18 28 19 29 20 30 21 31 22 32 23 33 84 34 24 35
REMARK SMILES IDX 83 36 25 37 26 38 27 39 77 40 28 41 82 42 76 43 78 44 29 45
REMARK SMILES IDX 81 46 75 47 74 48 30 50 62 51 42 52 61 53 43 54 46 55 60 56
REMARK SMILES IDX 79 57 44 58 45 59 59 61 80 62 47 63 31 64 32 65 40 66 33 67
REMARK SMILES IDX 34 68 38 69 41 70 35 71 36 72 39 73 37 74 63 75 64 76 72 77
REMARK SMILES IDX 65 78 66 79 70 80 73 81 67 82 68 83 71 84 69 85 48 86 49 87
REMARK SMILES IDX 57 88 50 89 51 90 55 91 58 92 52 93 53 94 56 95 54 96
REMARK H PARENT 5 11 5 12 78 49 46 60
REMARK Flexibility Score: inf
ROOT
ATOM      1  C   UNL     1       4.536  -2.132  -3.347  1.00  0.00     0.188 C 
ENDROOT
BRANCH   1   2
ATOM      2  O   UNL     1       5.875  -1.853  -3.723  1.00  0.00    -0.376 OA
BRANCH   2   3
ATOM      3  C   UNL     1       6.440  -0.577  -3.485  1.00  0.00     0.202 C 
BRANCH   3   4
ATOM      4  C   UNL     1       5.700   0.723  -3.858  1.00  0.00     0.261 C 
BRANCH   4   5
ATOM      5  O   UNL     1       4.276   0.778  -3.650  1.00  0.00    -0.458 OA
BRANCH   5   6
ATOM      6  C   UNL     1       3.516   0.550  -4.763  1.00  0.00     0.377 C 
ATOM      7  O   UNL     1       4.015   0.294  -5.854  1.00  0.00    -0.244 OA
BRANCH   6   8
ATOM      8  C   UNL     1       2.001   0.779  -4.545  1.00  0.00     0.287 C 
ATOM      9  C   UNL     1       1.768   2.181  -5.126  1.00  0.00     0.103 C 
BRANCH   8  10
ATOM     10  N   UNL     1       1.615   0.672  -3.078  1.00  0.00    -0.322 N 
ATOM     11  H   UNL     1       1.881  -0.262  -2.766  1.00  0.00     0.347 HD
ATOM     12  H   UNL     1       2.100   1.455  -2.639  1.00  0.00     0.347 HD
BRANCH  10  13
ATOM     13  C   UNL     1       0.205   0.870  -2.694  1.00  0.00     0.184 C 
ATOM     14  C   UNL     1       1.802   0.732   0.369  1.00  0.00     0.008 C 
ATOM     15  C   UNL     1       0.418   1.201  -0.091  1.00  0.00    -0.008 C 
ATOM     16  C   UNL     1      -0.107   0.347  -1.267  1.00  0.00     0.068 C 
ATOM     17  C   UNL     1       0.331   2.730  -0.319  1.00  0.00     0.007 C 
ATOM     18  C   UNL     1       0.592   3.179  -1.761  1.00  0.00    -0.008 C 
ATOM     19  C   UNL     1      -0.250   2.330  -2.717  1.00  0.00     0.068 C 
ATOM     20  C   UNL     1       0.291   4.657  -1.989  1.00  0.00     0.008 C 
ENDBRANCH  10  13
ENDBRANCH   8  10
BRANCH   8  21
ATOM     21  C   UNL     1       1.337  -0.297  -5.442  1.00  0.00     0.455 C 
ATOM     22  F   UNL     1       1.590  -1.551  -4.988  1.00  0.00    -0.164 F 
ATOM     23  F   UNL     1      -0.014  -0.156  -5.455  1.00  0.00    -0.164 F 
ATOM     24  F   UNL     1       1.717  -0.241  -6.736  1.00  0.00    -0.164 F 
ENDBRANCH   8  21
ENDBRANCH   6   8
ENDBRANCH   5   6
ENDBRANCH   4   5
ENDBRANCH   3   4
ENDBRANCH   2   3
ENDBRANCH   1   2
BRANCH   1  25
ATOM     25  C   UNL     1       3.963  -1.569  -2.034  1.00  0.00     0.188 C 
BRANCH  25  26
ATOM     26  O   UNL     1       4.874  -0.844  -1.248  1.00  0.00    -0.376 OA
BRANCH  26  27
ATOM     27  C   UNL     1       5.518  -1.480  -0.162  1.00  0.00     0.202 C 
BRANCH  27  28
ATOM     28  C   UNL     1       5.764  -3.000  -0.055  1.00  0.00     0.261 C 
BRANCH  28  29
ATOM     29  O   UNL     1       5.076  -3.873  -0.957  1.00  0.00    -0.460 OA
BRANCH  29  30
ATOM     30  C   UNL     1       3.889  -4.380  -0.546  1.00  0.00     0.338 C 
ATOM     31  O   UNL     1       3.313  -4.157   0.506  1.00  0.00    -0.246 OA
BRANCH  30  32
ATOM     32  C   UNL     1       3.296  -5.108  -1.687  1.00  0.00     0.060 A 
ATOM     33  C   UNL     1       2.130  -4.616  -2.296  1.00  0.00     0.016 A 
ATOM     34  C   UNL     1       3.908  -6.267  -2.163  1.00  0.00     0.016 A 
ATOM     35  C   UNL     1       1.561  -5.297  -3.376  1.00  0.00     0.010 A 
ATOM     36  C   UNL     1       3.321  -6.963  -3.219  1.00  0.00     0.010 A 
ATOM     37  C   UNL     1       2.129  -6.500  -3.810  1.00  0.00    -0.014 A 
BRANCH  37  38
ATOM     38  C   UNL     1       1.383  -7.420  -4.700  1.00  0.00     0.031 A 
ATOM     39  C   UNL     1       0.624  -8.544  -4.055  1.00  0.00     0.074 A 
ATOM     40  C   UNL     1       1.434  -7.319  -6.038  1.00  0.00     0.049 A 
ATOM     41  N   UNL     1       0.086  -9.608  -4.591  1.00  0.00    -0.248 NA
ATOM     42  C   UNL     1       0.473  -8.459  -2.594  1.00  0.00     0.031 C 
ATOM     43  C   UNL     1       2.082  -6.245  -6.782  1.00  0.00     0.029 A 
ATOM     44  N   UNL     1       0.955  -8.167  -7.007  1.00  0.00    -0.354 N 
ATOM     45  C   UNL     1      -0.436 -10.335  -3.530  1.00  0.00     0.074 A 
ATOM     46  C   UNL     1      -0.137  -9.600  -2.320  1.00  0.00     0.031 C 
ATOM     47  C   UNL     1       1.997  -6.518  -8.096  1.00  0.00     0.029 A 
ATOM     48  C   UNL     1       1.334  -7.810  -8.277  1.00  0.00     0.049 A 
ATOM     49  H   UNL     1       0.395  -8.953  -6.811  1.00  0.00     0.167 HD
ATOM     50  C   UNL     1      -1.098 -11.515  -3.563  1.00  0.00     0.037 A 
ATOM     51  C   UNL     1       1.204  -8.477  -9.442  1.00  0.00     0.037 A 
ATOM     52  C   UNL     1      -1.382 -12.241  -4.771  1.00  0.00     0.049 A 
ATOM     53  C   UNL     1       0.531  -9.827  -9.456  1.00  0.00     0.074 A 
ATOM     54  C   UNL     1      -2.064 -13.435  -4.919  1.00  0.00     0.029 A 
ATOM     55  N   UNL     1      -0.983 -11.845  -6.040  1.00  0.00    -0.354 N 
ATOM     56  N   UNL     1       0.030 -10.514  -8.456  1.00  0.00    -0.248 NA
ATOM     57  C   UNL     1       0.407 -10.498 -10.758  1.00  0.00     0.031 C 
ATOM     58  C   UNL     1      -2.018 -13.796  -6.269  1.00  0.00     0.029 A 
ATOM     59  C   UNL     1      -1.379 -12.788  -6.974  1.00  0.00     0.049 A 
ATOM     60  H   UNL     1      -0.492 -11.017  -6.246  1.00  0.00     0.167 HD
ATOM     61  C   UNL     1      -0.502 -11.672  -9.011  1.00  0.00     0.074 A 
ATOM     62  C   UNL     1      -0.256 -11.602 -10.436  1.00  0.00     0.031 C 
ATOM     63  C   UNL     1      -1.146 -12.694  -8.395  1.00  0.00     0.037 A 
BRANCH  50  64
ATOM     64  C   UNL     1      -1.499 -12.114  -2.246  1.00  0.00     0.064 A 
ATOM     65  C   UNL     1      -2.472 -11.526  -1.423  1.00  0.00     0.173 A 
ATOM     66  C   UNL     1      -0.885 -13.292  -1.792  1.00  0.00     0.173 A 
ATOM     67  F   UNL     1      -3.080 -10.391  -1.801  1.00  0.00    -0.203 F 
ATOM     68  C   UNL     1      -2.780 -12.067  -0.177  1.00  0.00     0.198 A 
ATOM     69  C   UNL     1      -1.224 -13.852  -0.564  1.00  0.00     0.198 A 
ATOM     70  F   UNL     1       0.049 -13.900  -2.539  1.00  0.00    -0.203 F 
ATOM     71  F   UNL     1      -3.658 -11.445   0.622  1.00  0.00    -0.200 F 
ATOM     72  C   UNL     1      -2.160 -13.231   0.249  1.00  0.00     0.200 A 
ATOM     73  F   UNL     1      -0.634 -14.986  -0.161  1.00  0.00    -0.200 F 
ATOM     74  F   UNL     1      -2.454 -13.749   1.449  1.00  0.00    -0.200 F 
ENDBRANCH  50  64
BRANCH  51  75
ATOM     75  C   UNL     1       1.748  -7.881 -10.691  1.00  0.00     0.064 A 
ATOM     76  C   UNL     1       0.895  -7.415 -11.701  1.00  0.00     0.173 A 
ATOM     77  C   UNL     1       3.130  -7.751 -10.894  1.00  0.00     0.173 A 
ATOM     78  F   UNL     1      -0.433  -7.546 -11.568  1.00  0.00    -0.203 F 
ATOM     79  C   UNL     1       1.403  -6.846 -12.867  1.00  0.00     0.198 A 
ATOM     80  C   UNL     1       3.637  -7.155 -12.047  1.00  0.00     0.198 A 
ATOM     81  F   UNL     1       3.990  -8.188  -9.962  1.00  0.00    -0.203 F 
ATOM     82  F   UNL     1       0.567  -6.442 -13.832  1.00  0.00    -0.200 F 
ATOM     83  C   UNL     1       2.773  -6.707 -13.034  1.00  0.00     0.200 A 
ATOM     84  F   UNL     1       4.961  -7.015 -12.201  1.00  0.00    -0.200 F 
ATOM     85  F   UNL     1       3.260  -6.148 -14.151  1.00  0.00    -0.200 F 
ENDBRANCH  51  75
BRANCH  63  86
ATOM     86  C   UNL     1      -1.703 -13.798  -9.249  1.00  0.00     0.064 A 
ATOM     87  C   UNL     1      -0.883 -14.758  -9.856  1.00  0.00     0.173 A 
ATOM     88  C   UNL     1      -3.094 -13.949  -9.376  1.00  0.00     0.173 A 
ATOM     89  F   UNL     1       0.452 -14.655  -9.776  1.00  0.00    -0.203 F 
ATOM     90  C   UNL     1      -1.434 -15.825 -10.564  1.00  0.00     0.198 A 
ATOM     91  C   UNL     1      -3.641 -15.033 -10.056  1.00  0.00     0.198 A 
ATOM     92  F   UNL     1      -3.925 -13.062  -8.806  1.00  0.00    -0.203 F 
ATOM     93  F   UNL     1      -0.631 -16.718 -11.159  1.00  0.00    -0.200 F 
ATOM     94  C   UNL     1      -2.811 -15.968 -10.652  1.00  0.00     0.200 A 
ATOM     95  F   UNL     1      -4.972 -15.178 -10.122  1.00  0.00    -0.200 F 
ATOM     96  F   UNL     1      -3.338 -17.010 -11.310  1.00  0.00    -0.200 F 
ENDBRANCH  63  86
ENDBRANCH  37  38
ENDBRANCH  30  32
ENDBRANCH  29  30
ENDBRANCH  28  29
ENDBRANCH  27  28
ENDBRANCH  26  27
ENDBRANCH  25  26
ENDBRANCH   1  25
TORSDOF 20
