REMARK SMILES CC[C@@]1(CC(=O)OCCOCCOCCOC(=O)c2ccc(-c3c4nc(c(-c5c(F)c(F)c(F)c(F)c5F)c5ccc([nH]5)c(-c5c(F)c(F)c(F)c(F)c5F)c5nc(c(-c6c(F)c(F)c(F)c(F)c6F)c6ccc3[nH]6)C=C5)C=C4)cc2)OC[C@H](Cc2ccccc2)c2c1[nH]c1ccccc21
REMARK SMILES IDX 11 1 10 2 9 3 8 4 7 5 5 6 6 7 4 8 3 9 82 10 93 11 83 12
REMARK SMILES IDX 92 13 94 14 84 15 100 16 95 17 99 19 96 20 98 21 97 22 2 23
REMARK SMILES IDX 1 24 85 25 86 26 87 27 91 28 88 29 90 30 89 31 12 32 13 33
REMARK SMILES IDX 14 34 15 35 16 36 17 37 18 38 19 39 20 40 81 41 21 42 80 43
REMARK SMILES IDX 22 44 23 45 24 46 74 47 25 48 79 49 73 50 75 51 26 52 78 53
REMARK SMILES IDX 72 54 71 55 27 57 59 58 39 59 58 60 40 61 43 62 57 63 76 64
REMARK SMILES IDX 41 65 42 66 56 68 77 69 44 70 28 71 29 72 37 73 30 74 31 75
REMARK SMILES IDX 35 76 38 77 32 78 33 79 36 80 34 81 60 82 61 83 69 84 62 85
REMARK SMILES IDX 63 86 67 87 70 88 64 89 65 90 68 91 66 92 45 93 46 94 54 95
REMARK SMILES IDX 47 96 48 97 52 98 55 99 49 100 50 101 53 102 51 103
REMARK H PARENT 94 18 75 56 43 67
REMARK Flexibility Score: inf
ROOT
ATOM      1  C   UNL     1      -1.248  -1.410  -1.772  1.00  0.00     0.188 C 
ENDROOT
BRANCH   1   2
ATOM      2  O   UNL     1      -2.636  -1.679  -1.617  1.00  0.00    -0.376 OA
BRANCH   2   3
ATOM      3  C   UNL     1      -3.592  -0.652  -1.838  1.00  0.00     0.202 C 
BRANCH   3   4
ATOM      4  C   UNL     1      -3.496   0.562  -0.903  1.00  0.00     0.261 C 
BRANCH   4   5
ATOM      5  O   UNL     1      -2.403   1.473  -1.220  1.00  0.00    -0.463 OA
BRANCH   5   6
ATOM      6  C   UNL     1      -1.701   1.945  -0.163  1.00  0.00     0.309 C 
ATOM      7  O   UNL     1      -2.065   1.752   0.999  1.00  0.00    -0.252 OA
BRANCH   6   8
ATOM      8  C   UNL     1      -0.282   2.490  -0.409  1.00  0.00     0.164 C 
BRANCH   8   9
ATOM      9  C   UNL     1       0.457   3.335  -1.468  1.00  0.00     0.118 C 
ATOM     10  O   UNL     1       1.598   2.590  -2.006  1.00  0.00    -0.368 OA
ATOM     11  C   UNL     1       1.111   4.550  -0.813  1.00  0.00     0.053 A 
ATOM     12  C   UNL     1       2.776   2.425  -1.207  1.00  0.00     0.170 C 
ATOM     13  C   UNL     1       2.449   4.717  -0.467  1.00  0.00    -0.011 A 
ATOM     14  N   UNL     1       0.442   5.661  -0.365  1.00  0.00    -0.356 N 
ATOM     15  C   UNL     1       3.500   3.675  -0.705  1.00  0.00     0.052 C 
ATOM     16  C   UNL     1       2.607   6.023   0.065  1.00  0.00     0.003 A 
ATOM     17  C   UNL     1       1.332   6.577   0.158  1.00  0.00     0.046 A 
ATOM     18  H   UNL     1      -0.533   5.787  -0.409  1.00  0.00     0.166 HD
ATOM     19  C   UNL     1       3.715   6.783   0.487  1.00  0.00     0.010 A 
ATOM     20  C   UNL     1       1.112   7.851   0.692  1.00  0.00     0.026 A 
ATOM     21  C   UNL     1       3.514   8.063   1.001  1.00  0.00     0.001 A 
ATOM     22  C   UNL     1       2.229   8.583   1.111  1.00  0.00     0.002 A 
BRANCH   9  23
ATOM     23  C   UNL     1      -0.414   3.684  -2.693  1.00  0.00     0.039 C 
ATOM     24  C   UNL     1       0.192   3.257  -4.034  1.00  0.00     0.007 C 
ENDBRANCH   9  23
BRANCH  15  25
ATOM     25  C   UNL     1       4.342   3.350   0.570  1.00  0.00     0.046 C 
BRANCH  25  26
ATOM     26  C   UNL     1       5.463   2.327   0.585  1.00  0.00    -0.047 A 
ATOM     27  C   UNL     1       6.404   2.200  -0.436  1.00  0.00     0.004 A 
ATOM     28  C   UNL     1       5.661   1.567   1.753  1.00  0.00     0.004 A 
ATOM     29  C   UNL     1       7.463   1.285  -0.320  1.00  0.00     0.000 A 
ATOM     30  C   UNL     1       6.708   0.656   1.870  1.00  0.00     0.000 A 
ATOM     31  C   UNL     1       7.605   0.500   0.823  1.00  0.00     0.000 A 
ENDBRANCH  25  26
ENDBRANCH  15  25
ENDBRANCH   8   9
ENDBRANCH   6   8
ENDBRANCH   5   6
ENDBRANCH   4   5
ENDBRANCH   3   4
ENDBRANCH   2   3
ENDBRANCH   1   2
BRANCH   1  32
ATOM     32  C   UNL     1      -0.763  -0.275  -2.682  1.00  0.00     0.188 C 
BRANCH  32  33
ATOM     33  O   UNL     1      -1.659  -0.014  -3.731  1.00  0.00    -0.376 OA
BRANCH  33  34
ATOM     34  C   UNL     1      -1.301  -0.329  -5.057  1.00  0.00     0.202 C 
BRANCH  34  35
ATOM     35  C   UNL     1      -0.487  -1.591  -5.417  1.00  0.00     0.261 C 
BRANCH  35  36
ATOM     36  O   UNL     1       0.348  -2.123  -4.374  1.00  0.00    -0.460 OA
BRANCH  36  37
ATOM     37  C   UNL     1       1.682  -1.889  -4.425  1.00  0.00     0.338 C 
ATOM     38  O   UNL     1       2.311  -1.471  -5.393  1.00  0.00    -0.246 OA
BRANCH  37  39
ATOM     39  C   UNL     1       2.197  -1.889  -3.022  1.00  0.00     0.060 A 
ATOM     40  C   UNL     1       1.676  -2.713  -2.014  1.00  0.00     0.016 A 
ATOM     41  C   UNL     1       3.047  -0.852  -2.654  1.00  0.00     0.016 A 
ATOM     42  C   UNL     1       1.822  -2.364  -0.652  1.00  0.00     0.010 A 
ATOM     43  C   UNL     1       3.245  -0.573  -1.297  1.00  0.00     0.010 A 
ATOM     44  C   UNL     1       2.535  -1.221  -0.278  1.00  0.00    -0.014 A 
BRANCH  44  45
ATOM     45  C   UNL     1       2.863  -0.901   1.144  1.00  0.00     0.031 A 
ATOM     46  C   UNL     1       3.961  -1.748   1.647  1.00  0.00     0.074 A 
ATOM     47  C   UNL     1       2.398   0.080   1.978  1.00  0.00     0.049 A 
ATOM     48  N   UNL     1       3.924  -2.359   2.778  1.00  0.00    -0.248 NA
ATOM     49  C   UNL     1       5.143  -2.060   0.834  1.00  0.00     0.031 C 
ATOM     50  C   UNL     1       1.306   0.988   1.722  1.00  0.00     0.029 A 
ATOM     51  N   UNL     1       2.809   0.549   3.221  1.00  0.00    -0.354 N 
ATOM     52  C   UNL     1       5.135  -3.009   2.908  1.00  0.00     0.074 A 
ATOM     53  C   UNL     1       5.830  -2.849   1.661  1.00  0.00     0.031 C 
ATOM     54  C   UNL     1       1.356   2.089   2.511  1.00  0.00     0.029 A 
ATOM     55  C   UNL     1       2.335   1.839   3.550  1.00  0.00     0.049 A 
ATOM     56  H   UNL     1       3.384   0.025   3.824  1.00  0.00     0.167 HD
ATOM     57  C   UNL     1       5.499  -3.462   4.130  1.00  0.00     0.037 A 
ATOM     58  C   UNL     1       2.507   2.607   4.666  1.00  0.00     0.037 A 
ATOM     59  C   UNL     1       4.340  -3.614   4.980  1.00  0.00     0.049 A 
ATOM     60  C   UNL     1       2.648   1.659   5.780  1.00  0.00     0.074 A 
ATOM     61  C   UNL     1       3.349  -4.566   5.081  1.00  0.00     0.029 A 
ATOM     62  N   UNL     1       3.875  -2.479   5.596  1.00  0.00    -0.354 N 
ATOM     63  N   UNL     1       1.666   0.917   6.204  1.00  0.00    -0.248 NA
ATOM     64  C   UNL     1       3.970   1.317   6.282  1.00  0.00     0.031 C 
ATOM     65  C   UNL     1       2.222  -3.930   5.671  1.00  0.00     0.029 A 
ATOM     66  C   UNL     1       2.550  -2.609   5.952  1.00  0.00     0.049 A 
ATOM     67  H   UNL     1       4.418  -1.674   5.761  1.00  0.00     0.167 HD
ATOM     68  C   UNL     1       2.299  -0.244   6.573  1.00  0.00     0.074 A 
ATOM     69  C   UNL     1       3.686   0.127   6.816  1.00  0.00     0.031 C 
ATOM     70  C   UNL     1       1.746  -1.449   6.270  1.00  0.00     0.037 A 
BRANCH  57  71
ATOM     71  C   UNL     1       6.898  -3.429   4.671  1.00  0.00     0.064 A 
ATOM     72  C   UNL     1       7.143  -3.997   5.934  1.00  0.00     0.173 A 
ATOM     73  C   UNL     1       7.910  -2.585   4.172  1.00  0.00     0.173 A 
ATOM     74  F   UNL     1       6.266  -4.851   6.481  1.00  0.00    -0.203 F 
ATOM     75  C   UNL     1       8.257  -3.640   6.696  1.00  0.00     0.198 A 
ATOM     76  C   UNL     1       9.024  -2.235   4.930  1.00  0.00     0.198 A 
ATOM     77  F   UNL     1       7.824  -2.005   2.971  1.00  0.00    -0.203 F 
ATOM     78  F   UNL     1       8.396  -4.127   7.936  1.00  0.00    -0.200 F 
ATOM     79  C   UNL     1       9.180  -2.734   6.206  1.00  0.00     0.200 A 
ATOM     80  F   UNL     1       9.906  -1.352   4.438  1.00  0.00    -0.200 F 
ATOM     81  F   UNL     1      10.199  -2.321   6.969  1.00  0.00    -0.200 F 
ENDBRANCH  57  71
BRANCH  58  82
ATOM     82  C   UNL     1       2.477   4.076   4.953  1.00  0.00     0.064 A 
ATOM     83  C   UNL     1       2.172   4.592   6.229  1.00  0.00     0.173 A 
ATOM     84  C   UNL     1       3.111   4.976   4.081  1.00  0.00     0.173 A 
ATOM     85  F   UNL     1       1.594   3.813   7.154  1.00  0.00    -0.203 F 
ATOM     86  C   UNL     1       2.534   5.892   6.618  1.00  0.00     0.198 A 
ATOM     87  C   UNL     1       3.491   6.266   4.472  1.00  0.00     0.198 A 
ATOM     88  F   UNL     1       3.488   4.568   2.870  1.00  0.00    -0.203 F 
ATOM     89  F   UNL     1       2.299   6.308   7.871  1.00  0.00    -0.200 F 
ATOM     90  C   UNL     1       3.214   6.721   5.745  1.00  0.00     0.200 A 
ATOM     91  F   UNL     1       4.225   7.029   3.650  1.00  0.00    -0.200 F 
ATOM     92  F   UNL     1       3.652   7.923   6.145  1.00  0.00    -0.200 F 
ENDBRANCH  58  82
BRANCH  70  93
ATOM     93  C   UNL     1       0.250  -1.514   6.101  1.00  0.00     0.064 A 
ATOM     94  C   UNL     1      -0.485  -0.844   5.107  1.00  0.00     0.173 A 
ATOM     95  C   UNL     1      -0.474  -2.344   6.967  1.00  0.00     0.173 A 
ATOM     96  F   UNL     1       0.122  -0.074   4.200  1.00  0.00    -0.203 F 
ATOM     97  C   UNL     1      -1.870  -0.982   5.001  1.00  0.00     0.198 A 
ATOM     98  C   UNL     1      -1.851  -2.512   6.837  1.00  0.00     0.198 A 
ATOM     99  F   UNL     1       0.164  -3.026   7.932  1.00  0.00    -0.203 F 
ATOM    100  F   UNL     1      -2.543  -0.316   4.052  1.00  0.00    -0.200 F 
ATOM    101  C   UNL     1      -2.550  -1.825   5.860  1.00  0.00     0.200 A 
ATOM    102  F   UNL     1      -2.497  -3.357   7.652  1.00  0.00    -0.200 F 
ATOM    103  F   UNL     1      -3.875  -1.990   5.737  1.00  0.00    -0.200 F 
ENDBRANCH  70  93
ENDBRANCH  44  45
ENDBRANCH  37  39
ENDBRANCH  36  37
ENDBRANCH  35  36
ENDBRANCH  34  35
ENDBRANCH  33  34
ENDBRANCH  32  33
ENDBRANCH   1  32
TORSDOF 21
