REMARK SMILES C[C@H](NC(=O)N1CC[C@H](C(=O)OCCOCCOCCOC(=O)c2ccc(-c3c4nc(c(-c5c(F)c(F)c(F)c(F)c5F)c5ccc([nH]5)c(-c5c(F)c(F)c(F)c(F)c5F)c5nc(c(-c6c(F)c(F)c(F)c(F)c6F)c6ccc3[nH]6)C=C5)C=C4)cc2)[C@@H]1C)[C@@H]1CCCO1
REMARK SMILES IDX 16 1 15 2 14 3 13 4 12 5 10 6 11 7 9 8 6 9 7 10 87 11 8 12
REMARK SMILES IDX 88 13 4 14 3 15 5 17 2 18 1 19 89 20 90 21 93 22 91 23 92 24
REMARK SMILES IDX 17 25 18 26 19 27 20 28 21 29 22 30 23 31 24 32 25 33 86 34
REMARK SMILES IDX 26 35 85 36 27 37 28 38 29 39 79 40 30 41 84 42 78 43 80 44
REMARK SMILES IDX 31 45 83 46 77 47 76 48 32 50 64 51 44 52 63 53 45 54 48 55
REMARK SMILES IDX 62 56 81 57 46 58 47 59 61 61 82 62 49 63 33 64 34 65 42 66
REMARK SMILES IDX 35 67 36 68 40 69 43 70 37 71 38 72 41 73 39 74 65 75 66 76
REMARK SMILES IDX 74 77 67 78 68 79 72 80 75 81 69 82 70 83 73 84 71 85 50 86
REMARK SMILES IDX 51 87 59 88 52 89 53 90 57 91 60 92 54 93 55 94 58 95 56 96
REMARK H PARENT 3 16 80 49 48 60
REMARK Flexibility Score: inf
ROOT
ATOM      1  C   UNL     1       5.642   4.219   4.926  1.00  0.00     0.188 C 
ENDROOT
BRANCH   1   2
ATOM      2  O   UNL     1       6.888   3.633   5.281  1.00  0.00    -0.376 OA
BRANCH   2   3
ATOM      3  C   UNL     1       7.686   3.131   4.213  1.00  0.00     0.202 C 
BRANCH   3   4
ATOM      4  C   UNL     1       7.164   1.887   3.484  1.00  0.00     0.261 C 
BRANCH   4   5
ATOM      5  O   UNL     1       5.816   2.002   2.997  1.00  0.00    -0.463 OA
BRANCH   5   6
ATOM      6  C   UNL     1       4.894   1.239   3.642  1.00  0.00     0.311 C 
ATOM      7  O   UNL     1       5.127   0.484   4.579  1.00  0.00    -0.252 OA
BRANCH   6   8
ATOM      8  C   UNL     1       3.510   1.375   3.061  1.00  0.00     0.123 C 
ATOM      9  N   UNL     1       2.487   1.205   0.961  1.00  0.00    -0.321 N 
ATOM     10  C   UNL     1       2.930   2.575   1.036  1.00  0.00     0.122 C 
ATOM     11  C   UNL     1       3.220   0.384   1.920  1.00  0.00     0.098 C 
ATOM     12  C   UNL     1       3.101   2.764   2.530  1.00  0.00     0.039 C 
ATOM     13  C   UNL     1       4.457  -0.227   1.252  1.00  0.00     0.032 C 
BRANCH   9  14
ATOM     14  C   UNL     1       1.664   0.795  -0.028  1.00  0.00     0.317 C 
ATOM     15  N   UNL     1       0.723  -0.137   0.229  1.00  0.00    -0.333 N 
ATOM     16  H   UNL     1       0.477  -0.678  -0.555  1.00  0.00     0.165 HD
ATOM     17  O   UNL     1       1.693   1.292  -1.154  1.00  0.00    -0.249 OA
BRANCH  15  18
ATOM     18  C   UNL     1      -0.012  -0.505   1.460  1.00  0.00     0.109 C 
ATOM     19  C   UNL     1       0.009   0.559   2.568  1.00  0.00     0.034 C 
BRANCH  18  20
ATOM     20  C   UNL     1      -1.505  -0.770   1.131  1.00  0.00     0.140 C 
ATOM     21  C   UNL     1      -1.803  -1.904   0.160  1.00  0.00     0.036 C 
ATOM     22  O   UNL     1      -2.106   0.421   0.576  1.00  0.00    -0.376 OA
ATOM     23  C   UNL     1      -3.106  -1.440  -0.448  1.00  0.00     0.031 C 
ATOM     24  C   UNL     1      -2.877   0.049  -0.570  1.00  0.00     0.160 C 
ENDBRANCH  18  20
ENDBRANCH  15  18
ENDBRANCH   9  14
ENDBRANCH   6   8
ENDBRANCH   5   6
ENDBRANCH   4   5
ENDBRANCH   3   4
ENDBRANCH   2   3
ENDBRANCH   1   2
BRANCH   1  25
ATOM     25  C   UNL     1       5.682   5.369   3.921  1.00  0.00     0.188 C 
BRANCH  25  26
ATOM     26  O   UNL     1       6.292   5.096   2.664  1.00  0.00    -0.376 OA
BRANCH  26  27
ATOM     27  C   UNL     1       6.160   6.145   1.690  1.00  0.00     0.202 C 
BRANCH  27  28
ATOM     28  C   UNL     1       6.590   7.559   2.143  1.00  0.00     0.261 C 
BRANCH  28  29
ATOM     29  O   UNL     1       5.828   8.098   3.249  1.00  0.00    -0.460 OA
BRANCH  29  30
ATOM     30  C   UNL     1       4.484   8.167   3.103  1.00  0.00     0.338 C 
ATOM     31  O   UNL     1       3.866   8.074   2.056  1.00  0.00    -0.246 OA
BRANCH  30  32
ATOM     32  C   UNL     1       3.851   8.095   4.452  1.00  0.00     0.060 A 
ATOM     33  C   UNL     1       2.653   7.375   4.579  1.00  0.00     0.016 A 
ATOM     34  C   UNL     1       4.448   8.643   5.593  1.00  0.00     0.016 A 
ATOM     35  C   UNL     1       2.023   7.254   5.822  1.00  0.00     0.010 A 
ATOM     36  C   UNL     1       3.812   8.530   6.837  1.00  0.00     0.010 A 
ATOM     37  C   UNL     1       2.575   7.872   6.952  1.00  0.00    -0.014 A 
BRANCH  37  38
ATOM     38  C   UNL     1       1.745   8.044   8.176  1.00  0.00     0.031 A 
ATOM     39  C   UNL     1       0.990   9.339   8.337  1.00  0.00     0.074 A 
ATOM     40  C   UNL     1       1.613   7.085   9.110  1.00  0.00     0.049 A 
ATOM     41  N   UNL     1       0.212   9.741   9.310  1.00  0.00    -0.248 NA
ATOM     42  C   UNL     1       1.134  10.312   7.242  1.00  0.00     0.031 C 
ATOM     43  C   UNL     1       2.236   5.766   9.070  1.00  0.00     0.029 A 
ATOM     44  N   UNL     1       0.897   7.085  10.286  1.00  0.00    -0.354 N 
ATOM     45  C   UNL     1      -0.226  11.007   8.944  1.00  0.00     0.074 A 
ATOM     46  C   UNL     1       0.403  11.324   7.680  1.00  0.00     0.031 C 
ATOM     47  C   UNL     1       1.878   5.083  10.173  1.00  0.00     0.029 A 
ATOM     48  C   UNL     1       1.024   5.926  11.011  1.00  0.00     0.049 A 
ATOM     49  H   UNL     1       0.346   7.846  10.580  1.00  0.00     0.167 HD
ATOM     50  C   UNL     1      -1.085  11.831   9.588  1.00  0.00     0.037 A 
ATOM     51  C   UNL     1       0.519   5.592  12.217  1.00  0.00     0.037 A 
ATOM     52  C   UNL     1      -1.709  11.537  10.850  1.00  0.00     0.049 A 
ATOM     53  C   UNL     1      -0.354   6.570  12.968  1.00  0.00     0.074 A 
ATOM     54  C   UNL     1      -2.592  12.317  11.577  1.00  0.00     0.029 A 
ATOM     55  N   UNL     1      -1.510  10.375  11.577  1.00  0.00    -0.354 N 
ATOM     56  N   UNL     1      -0.778   7.755  12.605  1.00  0.00    -0.248 NA
ATOM     57  C   UNL     1      -0.818   6.156  14.303  1.00  0.00     0.031 C 
ATOM     58  C   UNL     1      -2.887  11.648  12.770  1.00  0.00     0.029 A 
ATOM     59  C   UNL     1      -2.233  10.427  12.758  1.00  0.00     0.049 A 
ATOM     60  H   UNL     1      -0.939   9.623  11.296  1.00  0.00     0.167 HD
ATOM     61  C   UNL     1      -1.585   8.210  13.644  1.00  0.00     0.074 A 
ATOM     62  C   UNL     1      -1.597   7.170  14.650  1.00  0.00     0.031 C 
ATOM     63  C   UNL     1      -2.256   9.383  13.750  1.00  0.00     0.037 A 
BRANCH  50  64
ATOM     64  C   UNL     1      -1.376  13.152   8.941  1.00  0.00     0.064 A 
ATOM     65  C   UNL     1      -2.149  13.244   7.773  1.00  0.00     0.173 A 
ATOM     66  C   UNL     1      -0.882  14.340   9.498  1.00  0.00     0.173 A 
ATOM     67  F   UNL     1      -2.627  12.134   7.190  1.00  0.00    -0.203 F 
ATOM     68  C   UNL     1      -2.389  14.476   7.170  1.00  0.00     0.198 A 
ATOM     69  C   UNL     1      -1.150  15.572   8.910  1.00  0.00     0.198 A 
ATOM     70  F   UNL     1      -0.139  14.306  10.615  1.00  0.00    -0.203 F 
ATOM     71  F   UNL     1      -3.081  14.535   6.024  1.00  0.00    -0.200 F 
ATOM     72  C   UNL     1      -1.895  15.639   7.742  1.00  0.00     0.200 A 
ATOM     73  F   UNL     1      -0.681  16.696   9.469  1.00  0.00    -0.200 F 
ATOM     74  F   UNL     1      -2.127  16.824   7.161  1.00  0.00    -0.200 F 
ENDBRANCH  50  64
BRANCH  51  75
ATOM     75  C   UNL     1       0.825   4.264  12.815  1.00  0.00     0.064 A 
ATOM     76  C   UNL     1      -0.179   3.300  12.985  1.00  0.00     0.173 A 
ATOM     77  C   UNL     1       2.112   3.952  13.276  1.00  0.00     0.173 A 
ATOM     78  F   UNL     1      -1.435   3.565  12.596  1.00  0.00    -0.203 F 
ATOM     79  C   UNL     1       0.089   2.082  13.609  1.00  0.00     0.198 A 
ATOM     80  C   UNL     1       2.385   2.723  13.874  1.00  0.00     0.198 A 
ATOM     81  F   UNL     1       3.105   4.845  13.151  1.00  0.00    -0.203 F 
ATOM     82  F   UNL     1      -0.901   1.202  13.808  1.00  0.00    -0.200 F 
ATOM     83  C   UNL     1       1.372   1.793  14.048  1.00  0.00     0.200 A 
ATOM     84  F   UNL     1       3.627   2.447  14.296  1.00  0.00    -0.200 F 
ATOM     85  F   UNL     1       1.628   0.625  14.652  1.00  0.00    -0.200 F 
ENDBRANCH  51  75
BRANCH  63  86
ATOM     86  C   UNL     1      -3.106   9.596  14.972  1.00  0.00     0.064 A 
ATOM     87  C   UNL     1      -2.544   9.823  16.236  1.00  0.00     0.173 A 
ATOM     88  C   UNL     1      -4.506   9.620  14.865  1.00  0.00     0.173 A 
ATOM     89  F   UNL     1      -1.212   9.800  16.397  1.00  0.00    -0.203 F 
ATOM     90  C   UNL     1      -3.350  10.042  17.352  1.00  0.00     0.198 A 
ATOM     91  C   UNL     1      -5.309   9.869  15.976  1.00  0.00     0.198 A 
ATOM     92  F   UNL     1      -5.098   9.418  13.678  1.00  0.00    -0.203 F 
ATOM     93  F   UNL     1      -2.791  10.211  18.558  1.00  0.00    -0.200 F 
ATOM     94  C   UNL     1      -4.731  10.072  17.219  1.00  0.00     0.200 A 
ATOM     95  F   UNL     1      -6.641   9.912  15.842  1.00  0.00    -0.200 F 
ATOM     96  F   UNL     1      -5.504  10.290  18.292  1.00  0.00    -0.200 F 
ENDBRANCH  63  86
ENDBRANCH  37  38
ENDBRANCH  30  32
ENDBRANCH  29  30
ENDBRANCH  28  29
ENDBRANCH  27  28
ENDBRANCH  26  27
ENDBRANCH  25  26
ENDBRANCH   1  25
TORSDOF 20
