REMARK SMILES Cc1cc(NC(=O)c2ccc(Br)cc2N)ccc1C(=O)OCCOCCOCCOC(=O)c1ccc(-c2c3nc(c(-c4c(F)c(F)c(F)c(F)c4F)c4ccc([nH]4)c(-c4c(F)c(F)c(F)c(F)c4F)c4nc(c(-c5c(F)c(F)c(F)c(F)c5F)c5ccc2[nH]5)C=C4)C=C3)cc1
REMARK SMILES IDX 25 1 24 2 23 3 22 4 21 5 19 6 20 7 18 8 1 9 2 10 3 11 4 12
REMARK SMILES IDX 17 13 16 14 5 15 6 16 7 18 8 19 9 20 14 21 10 22 13 23 11 24
REMARK SMILES IDX 12 25 15 26 26 29 27 30 28 31 29 32 30 33 31 34 32 35 33 36
REMARK SMILES IDX 34 37 95 38 35 39 94 40 36 41 37 42 38 43 88 44 39 45 93 46
REMARK SMILES IDX 87 47 89 48 40 49 92 50 86 51 85 52 41 54 73 55 53 56 72 57
REMARK SMILES IDX 54 58 57 59 71 60 90 61 55 62 56 63 70 65 91 66 58 67 42 68
REMARK SMILES IDX 43 69 51 70 44 71 45 72 49 73 52 74 46 75 47 76 50 77 48 78
REMARK SMILES IDX 74 79 75 80 83 81 76 82 77 83 81 84 84 85 78 86 79 87 82 88
REMARK SMILES IDX 80 89 59 90 60 91 68 92 61 93 62 94 66 95 69 96 63 97 64 98
REMARK SMILES IDX 67 99 65 100
REMARK H PARENT 5 17 15 27 15 28 89 53 57 64
REMARK Flexibility Score: inf
ROOT
ATOM      1  C   UNL     1       2.855   5.440  -2.034  1.00  0.00     0.188 C 
ENDROOT
BRANCH   1   2
ATOM      2  O   UNL     1       3.670   4.662  -1.121  1.00  0.00    -0.376 OA
BRANCH   2   3
ATOM      3  C   UNL     1       4.546   3.567  -1.504  1.00  0.00     0.202 C 
BRANCH   3   4
ATOM      4  C   UNL     1       4.327   2.014  -0.898  1.00  0.00     0.261 C 
BRANCH   4   5
ATOM      5  O   UNL     1       3.237   0.882  -1.417  1.00  0.00    -0.460 OA
BRANCH   5   6
ATOM      6  C   UNL     1       2.036   0.359  -0.871  1.00  0.00     0.338 C 
ATOM      7  O   UNL     1       1.533   0.605   0.224  1.00  0.00    -0.246 OA
BRANCH   6   8
ATOM      8  C   UNL     1       1.054  -0.569  -1.480  1.00  0.00     0.063 A 
ATOM      9  C   UNL     1       2.865  -2.268  -1.740  1.00  0.00     0.045 C 
ATOM     10  C   UNL     1       1.424  -1.897  -1.607  1.00  0.00    -0.035 A 
ATOM     11  C   UNL     1       0.454  -2.889  -1.347  1.00  0.00     0.030 A 
ATOM     12  C   UNL     1      -0.864  -2.573  -0.964  1.00  0.00     0.041 A 
ATOM     13  C   UNL     1      -0.329  -0.278  -1.207  1.00  0.00     0.018 A 
ATOM     14  C   UNL     1      -1.292  -1.262  -0.991  1.00  0.00     0.027 A 
BRANCH  12  15
ATOM     15  N   UNL     1      -1.742  -3.527  -0.425  1.00  0.00    -0.322 N 
ATOM     16  C   UNL     1      -1.426  -4.537   0.465  1.00  0.00     0.257 C 
ATOM     17  H   UNL     1      -2.682  -3.472  -0.711  1.00  0.00     0.170 HD
ATOM     18  O   UNL     1      -2.205  -5.463   0.673  1.00  0.00    -0.269 OA
BRANCH  16  19
ATOM     19  C   UNL     1      -0.165  -4.452   1.249  1.00  0.00     0.063 A 
ATOM     20  C   UNL     1       0.738  -5.514   1.100  1.00  0.00     0.017 A 
ATOM     21  C   UNL     1       0.131  -3.362   2.098  1.00  0.00     0.045 A 
ATOM     22  C   UNL     1       1.957  -5.494   1.777  1.00  0.00     0.016 A 
ATOM     23  C   UNL     1       1.345  -3.384   2.799  1.00  0.00     0.042 A 
ATOM     24  C   UNL     1       2.253  -4.429   2.623  1.00  0.00     0.020 A 
ATOM     25  Br  UNL     1       3.895  -4.402   3.562  1.00  0.00    -0.051 Br
BRANCH  21  26
ATOM     26  N   UNL     1      -0.778  -2.348   2.401  1.00  0.00    -0.398 N 
ATOM     27  H   UNL     1      -1.641  -2.303   1.927  1.00  0.00     0.156 HD
ATOM     28  H   UNL     1      -0.558  -1.678   3.087  1.00  0.00     0.156 HD
ENDBRANCH  21  26
ENDBRANCH  16  19
ENDBRANCH  12  15
ENDBRANCH   6   8
ENDBRANCH   5   6
ENDBRANCH   4   5
ENDBRANCH   3   4
ENDBRANCH   2   3
ENDBRANCH   1   2
BRANCH   1  29
ATOM     29  C   UNL     1       3.051   5.471  -3.555  1.00  0.00     0.188 C 
BRANCH  29  30
ATOM     30  O   UNL     1       3.266   4.166  -4.058  1.00  0.00    -0.376 OA
BRANCH  30  31
ATOM     31  C   UNL     1       3.337   4.044  -5.472  1.00  0.00     0.202 C 
BRANCH  31  32
ATOM     32  C   UNL     1       1.953   3.950  -6.155  1.00  0.00     0.261 C 
BRANCH  32  33
ATOM     33  O   UNL     1       1.154   2.880  -5.583  1.00  0.00    -0.460 OA
BRANCH  33  34
ATOM     34  C   UNL     1      -0.021   3.222  -4.959  1.00  0.00     0.338 C 
ATOM     35  O   UNL     1      -0.909   3.890  -5.470  1.00  0.00    -0.246 OA
BRANCH  34  36
ATOM     36  C   UNL     1       0.036   2.860  -3.500  1.00  0.00     0.060 A 
ATOM     37  C   UNL     1      -0.865   3.188  -2.471  1.00  0.00     0.016 A 
ATOM     38  C   UNL     1       1.244   2.436  -3.073  1.00  0.00     0.016 A 
ATOM     39  C   UNL     1      -0.465   3.188  -1.050  1.00  0.00     0.010 A 
ATOM     40  C   UNL     1       1.593   2.747  -1.763  1.00  0.00     0.010 A 
ATOM     41  C   UNL     1       0.851   2.995  -0.628  1.00  0.00    -0.014 A 
BRANCH  41  42
ATOM     42  C   UNL     1       1.586   3.241   0.760  1.00  0.00     0.031 A 
ATOM     43  C   UNL     1       2.413   2.292   1.849  1.00  0.00     0.074 A 
ATOM     44  C   UNL     1       1.572   4.549   1.102  1.00  0.00     0.049 A 
ATOM     45  N   UNL     1       2.463   2.553   3.146  1.00  0.00    -0.248 NA
ATOM     46  C   UNL     1       3.200   1.013   1.683  1.00  0.00     0.031 C 
ATOM     47  C   UNL     1       2.291   5.223   2.176  1.00  0.00     0.029 A 
ATOM     48  N   UNL     1       0.704   5.538   0.606  1.00  0.00    -0.354 N 
ATOM     49  C   UNL     1       3.355   1.651   3.744  1.00  0.00     0.074 A 
ATOM     50  C   UNL     1       3.452   0.546   2.891  1.00  0.00     0.031 C 
ATOM     51  C   UNL     1       1.615   6.338   2.498  1.00  0.00     0.029 A 
ATOM     52  C   UNL     1       0.393   6.341   1.713  1.00  0.00     0.049 A 
ATOM     53  H   UNL     1       0.383   5.644  -0.319  1.00  0.00     0.167 HD
ATOM     54  C   UNL     1       4.153   1.926   4.811  1.00  0.00     0.037 A 
ATOM     55  C   UNL     1      -0.883   6.389   2.184  1.00  0.00     0.037 A 
ATOM     56  C   UNL     1       3.616   3.061   5.506  1.00  0.00     0.049 A 
ATOM     57  C   UNL     1      -0.984   5.949   3.626  1.00  0.00     0.074 A 
ATOM     58  C   UNL     1       3.942   4.397   5.565  1.00  0.00     0.029 A 
ATOM     59  N   UNL     1       2.315   2.935   5.968  1.00  0.00    -0.354 N 
ATOM     60  N   UNL     1      -0.020   5.359   4.282  1.00  0.00    -0.248 NA
ATOM     61  C   UNL     1      -2.176   6.133   4.446  1.00  0.00     0.031 C 
ATOM     62  C   UNL     1       2.736   5.095   5.882  1.00  0.00     0.029 A 
ATOM     63  C   UNL     1       1.720   4.171   6.086  1.00  0.00     0.049 A 
ATOM     64  H   UNL     1       1.877   2.080   6.183  1.00  0.00     0.167 HD
ATOM     65  C   UNL     1      -0.456   5.010   5.530  1.00  0.00     0.074 A 
ATOM     66  C   UNL     1      -1.795   5.561   5.600  1.00  0.00     0.031 C 
ATOM     67  C   UNL     1       0.293   4.250   6.383  1.00  0.00     0.037 A 
BRANCH  54  68
ATOM     68  C   UNL     1       5.443   1.168   5.153  1.00  0.00     0.064 A 
ATOM     69  C   UNL     1       6.051   1.315   6.414  1.00  0.00     0.173 A 
ATOM     70  C   UNL     1       6.181   0.345   4.257  1.00  0.00     0.173 A 
ATOM     71  F   UNL     1       5.520   2.130   7.336  1.00  0.00    -0.203 F 
ATOM     72  C   UNL     1       7.242   0.649   6.764  1.00  0.00     0.198 A 
ATOM     73  C   UNL     1       7.316  -0.385   4.633  1.00  0.00     0.198 A 
ATOM     74  F   UNL     1       5.892   0.268   2.951  1.00  0.00    -0.203 F 
ATOM     75  F   UNL     1       7.804   0.872   7.960  1.00  0.00    -0.200 F 
ATOM     76  C   UNL     1       7.853  -0.228   5.887  1.00  0.00     0.200 A 
ATOM     77  F   UNL     1       7.900  -1.211   3.750  1.00  0.00    -0.200 F 
ATOM     78  F   UNL     1       8.971  -0.882   6.231  1.00  0.00    -0.200 F 
ENDBRANCH  54  68
BRANCH  55  79
ATOM     79  C   UNL     1      -1.917   6.265   1.106  1.00  0.00     0.064 A 
ATOM     80  C   UNL     1      -1.843   7.177   0.025  1.00  0.00     0.173 A 
ATOM     81  C   UNL     1      -2.718   5.133   0.914  1.00  0.00     0.173 A 
ATOM     82  F   UNL     1      -1.096   8.287   0.140  1.00  0.00    -0.203 F 
ATOM     83  C   UNL     1      -2.418   6.907  -1.216  1.00  0.00     0.198 A 
ATOM     84  C   UNL     1      -3.328   4.882  -0.328  1.00  0.00     0.198 A 
ATOM     85  F   UNL     1      -2.800   4.189   1.862  1.00  0.00    -0.203 F 
ATOM     86  F   UNL     1      -2.192   7.729  -2.251  1.00  0.00    -0.200 F 
ATOM     87  C   UNL     1      -3.145   5.748  -1.398  1.00  0.00     0.200 A 
ATOM     88  F   UNL     1      -3.970   3.721  -0.533  1.00  0.00    -0.200 F 
ATOM     89  F   UNL     1      -3.605   5.426  -2.616  1.00  0.00    -0.200 F 
ENDBRANCH  55  79
BRANCH  67  90
ATOM     90  C   UNL     1      -0.273   3.491   7.567  1.00  0.00     0.064 A 
ATOM     91  C   UNL     1      -1.608   3.054   7.645  1.00  0.00     0.173 A 
ATOM     92  C   UNL     1       0.575   3.022   8.599  1.00  0.00     0.173 A 
ATOM     93  F   UNL     1      -2.485   3.296   6.662  1.00  0.00    -0.203 F 
ATOM     94  C   UNL     1      -2.079   2.288   8.714  1.00  0.00     0.198 A 
ATOM     95  C   UNL     1       0.119   2.188   9.621  1.00  0.00     0.198 A 
ATOM     96  F   UNL     1       1.881   3.327   8.624  1.00  0.00    -0.203 F 
ATOM     97  F   UNL     1      -3.377   1.956   8.768  1.00  0.00    -0.200 F 
ATOM     98  C   UNL     1      -1.214   1.843   9.693  1.00  0.00     0.200 A 
ATOM     99  F   UNL     1       0.986   1.702  10.520  1.00  0.00    -0.200 F 
ATOM    100  F   UNL     1      -1.659   1.063  10.687  1.00  0.00    -0.200 F 
ENDBRANCH  67  90
ENDBRANCH  41  42
ENDBRANCH  34  36
ENDBRANCH  33  34
ENDBRANCH  32  33
ENDBRANCH  31  32
ENDBRANCH  30  31
ENDBRANCH  29  30
ENDBRANCH   1  29
TORSDOF 20
