REMARK SMILES C[NH+](C)CCc1nc(Nc2ccc(O)c(C(=O)OCCOCCOCCOC(=O)c3ccc(-c4c5nc(c(-c6c(F)c(F)c(F)c(F)c6F)c6ccc([nH]6)c(-c6c(F)c(F)c(F)c(F)c6F)c6nc(c(-c7c(F)c(F)c(F)c(F)c7F)c7ccc4[nH]7)C=C6)C=C5)cc3)c2)c2ccccc2n1
REMARK SMILES IDX 21 1 20 2 19 3 18 4 16 5 17 6 15 7 10 8 11 9 93 10 12 11
REMARK SMILES IDX 13 12 9 13 8 15 6 16 7 17 100 18 99 19 94 20 98 21 95 22
REMARK SMILES IDX 97 23 96 24 5 25 4 26 2 27 1 28 3 29 14 31 22 33 23 34 24 35
REMARK SMILES IDX 25 36 26 37 27 38 28 39 29 40 30 41 31 42 92 43 32 44 91 45
REMARK SMILES IDX 33 46 34 47 35 48 85 49 36 50 90 51 84 52 86 53 37 54 89 55
REMARK SMILES IDX 83 56 82 57 38 59 70 60 50 61 69 62 51 63 54 64 68 65 87 66
REMARK SMILES IDX 52 67 53 68 67 70 88 71 55 72 39 73 40 74 48 75 41 76 42 77
REMARK SMILES IDX 46 78 49 79 43 80 44 81 47 82 45 83 71 84 72 85 80 86 73 87
REMARK SMILES IDX 74 88 78 89 81 90 75 91 76 92 79 93 77 94 56 95 57 96 65 97
REMARK SMILES IDX 58 98 59 99 63 100 66 101 60 102 61 103 64 104 62 105
REMARK H PARENT 9 14 2 30 14 32 86 58 54 69
REMARK Flexibility Score: inf
ROOT
ATOM      1  O   UNL     1      -6.876   5.098  -1.641  1.00  0.00    -0.376 OA
ENDROOT
BRANCH   1   2
ATOM      2  C   UNL     1      -7.783   4.072  -1.266  1.00  0.00     0.202 C 
BRANCH   2   3
ATOM      3  C   UNL     1      -7.381   2.611  -1.015  1.00  0.00     0.261 C 
BRANCH   3   4
ATOM      4  O   UNL     1      -6.098   2.420  -0.421  1.00  0.00    -0.460 OA
BRANCH   4   5
ATOM      5  C   UNL     1      -5.218   1.674  -1.139  1.00  0.00     0.342 C 
ATOM      6  O   UNL     1      -5.421   1.151  -2.223  1.00  0.00    -0.246 OA
BRANCH   5   7
ATOM      7  C   UNL     1      -3.866   1.821  -0.563  1.00  0.00     0.103 A 
ATOM      8  C   UNL     1      -1.552   2.444  -0.984  1.00  0.00     0.041 A 
ATOM      9  C   UNL     1      -1.289   2.281   0.382  1.00  0.00     0.030 A 
ATOM     10  C   UNL     1      -2.845   2.201  -1.450  1.00  0.00     0.045 A 
ATOM     11  C   UNL     1      -2.302   1.908   1.274  1.00  0.00     0.049 A 
ATOM     12  C   UNL     1      -3.591   1.674   0.798  1.00  0.00     0.130 A 
BRANCH   8  13
ATOM     13  N   UNL     1      -0.500   2.687  -1.894  1.00  0.00    -0.340 N 
ATOM     14  H   UNL     1      -0.336   3.610  -2.193  1.00  0.00     0.168 HD
BRANCH  13  15
ATOM     15  C   UNL     1       0.328   1.649  -2.394  1.00  0.00     0.142 A 
ATOM     16  C   UNL     1       0.768  -0.608  -2.481  1.00  0.00     0.137 A 
ATOM     17  N   UNL     1      -0.034   0.390  -2.099  1.00  0.00    -0.215 NA
ATOM     18  N   UNL     1       1.882  -0.445  -3.207  1.00  0.00    -0.233 NA
ATOM     19  C   UNL     1       2.224   0.806  -3.532  1.00  0.00     0.076 A 
ATOM     20  C   UNL     1       1.487   1.932  -3.130  1.00  0.00     0.043 A 
ATOM     21  C   UNL     1       3.374   0.999  -4.285  1.00  0.00     0.029 A 
ATOM     22  C   UNL     1       1.953   3.228  -3.469  1.00  0.00     0.014 A 
ATOM     23  C   UNL     1       3.825   2.274  -4.634  1.00  0.00     0.002 A 
ATOM     24  C   UNL     1       3.116   3.393  -4.218  1.00  0.00     0.001 A 
BRANCH  16  25
ATOM     25  C   UNL     1       0.414  -1.982  -1.997  1.00  0.00     0.138 C 
BRANCH  25  26
ATOM     26  C   UNL     1       1.046  -2.342  -0.638  1.00  0.00     0.269 C 
BRANCH  26  27
ATOM     27  N   UNL     1       0.641  -1.651   0.602  1.00  0.00    -0.339 N 
ATOM     28  C   UNL     1       1.358  -0.399   0.823  1.00  0.00     0.332 C 
ATOM     29  C   UNL     1      -0.802  -1.470   0.725  1.00  0.00     0.332 C 
ATOM     30  H   UNL     1       0.918  -2.286   1.351  1.00  0.00     0.347 HD
ENDBRANCH  26  27
ENDBRANCH  25  26
ENDBRANCH  16  25
ENDBRANCH  13  15
ENDBRANCH   8  13
BRANCH  12  31
ATOM     31  O   UNL     1      -4.573   1.293   1.665  1.00  0.00    -0.507 OA
ATOM     32  H   UNL     1      -4.381   1.196   2.577  1.00  0.00     0.293 HD
ENDBRANCH  12  31
ENDBRANCH   5   7
ENDBRANCH   4   5
ENDBRANCH   3   4
ENDBRANCH   2   3
ENDBRANCH   1   2
BRANCH   1  33
ATOM     33  C   UNL     1      -5.511   5.017  -1.296  1.00  0.00     0.188 C 
BRANCH  33  34
ATOM     34  C   UNL     1      -5.072   5.132   0.179  1.00  0.00     0.188 C 
BRANCH  34  35
ATOM     35  O   UNL     1      -6.015   5.205   1.226  1.00  0.00    -0.376 OA
BRANCH  35  36
ATOM     36  C   UNL     1      -6.968   6.252   1.255  1.00  0.00     0.202 C 
BRANCH  36  37
ATOM     37  C   UNL     1      -6.643   7.696   0.845  1.00  0.00     0.261 C 
BRANCH  37  38
ATOM     38  O   UNL     1      -5.795   7.858  -0.298  1.00  0.00    -0.460 OA
BRANCH  38  39
ATOM     39  C   UNL     1      -4.568   8.361  -0.040  1.00  0.00     0.338 C 
ATOM     40  O   UNL     1      -4.104   8.686   1.050  1.00  0.00    -0.246 OA
BRANCH  39  41
ATOM     41  C   UNL     1      -3.755   8.319  -1.263  1.00  0.00     0.060 A 
ATOM     42  C   UNL     1      -2.636   7.473  -1.300  1.00  0.00     0.016 A 
ATOM     43  C   UNL     1      -4.060   9.145  -2.344  1.00  0.00     0.016 A 
ATOM     44  C   UNL     1      -1.806   7.464  -2.418  1.00  0.00     0.010 A 
ATOM     45  C   UNL     1      -3.214   9.151  -3.455  1.00  0.00     0.010 A 
ATOM     46  C   UNL     1      -2.071   8.331  -3.485  1.00  0.00    -0.014 A 
BRANCH  46  47
ATOM     47  C   UNL     1      -1.064   8.511  -4.557  1.00  0.00     0.031 A 
ATOM     48  C   UNL     1      -0.139   9.691  -4.483  1.00  0.00     0.074 A 
ATOM     49  C   UNL     1      -0.984   7.651  -5.585  1.00  0.00     0.049 A 
ATOM     50  N   UNL     1       0.755  10.104  -5.344  1.00  0.00    -0.248 NA
ATOM     51  C   UNL     1      -0.246  10.524  -3.275  1.00  0.00     0.031 C 
ATOM     52  C   UNL     1      -1.808   6.457  -5.752  1.00  0.00     0.029 A 
ATOM     53  N   UNL     1      -0.182   7.671  -6.699  1.00  0.00    -0.354 N 
ATOM     54  C   UNL     1       1.304  11.254  -4.792  1.00  0.00     0.074 A 
ATOM     55  C   UNL     1       0.625  11.486  -3.534  1.00  0.00     0.031 C 
ATOM     56  C   UNL     1      -1.494   5.876  -6.923  1.00  0.00     0.029 A 
ATOM     57  C   UNL     1      -0.475   6.678  -7.599  1.00  0.00     0.049 A 
ATOM     58  H   UNL     1       0.533   8.333  -6.838  1.00  0.00     0.167 HD
ATOM     59  C   UNL     1       2.285  12.044  -5.289  1.00  0.00     0.037 A 
ATOM     60  C   UNL     1      -0.005   6.468  -8.845  1.00  0.00     0.037 A 
ATOM     61  C   UNL     1       2.949  11.812  -6.545  1.00  0.00     0.049 A 
ATOM     62  C   UNL     1       1.044   7.393  -9.409  1.00  0.00     0.074 A 
ATOM     63  C   UNL     1       3.987  12.525  -7.117  1.00  0.00     0.029 A 
ATOM     64  N   UNL     1       2.622  10.799  -7.436  1.00  0.00    -0.354 N 
ATOM     65  N   UNL     1       1.597   8.449  -8.863  1.00  0.00    -0.248 NA
ATOM     66  C   UNL     1       1.536   7.092 -10.761  1.00  0.00     0.031 C 
ATOM     67  C   UNL     1       4.242  11.986  -8.383  1.00  0.00     0.029 A 
ATOM     68  C   UNL     1       3.412  10.892  -8.570  1.00  0.00     0.049 A 
ATOM     69  H   UNL     1       1.930  10.115  -7.284  1.00  0.00     0.167 HD
ATOM     70  C   UNL     1       2.517   8.925  -9.790  1.00  0.00     0.074 A 
ATOM     71  C   UNL     1       2.455   8.034 -10.930  1.00  0.00     0.031 C 
ATOM     72  C   UNL     1       3.341   9.999  -9.701  1.00  0.00     0.037 A 
BRANCH  59  73
ATOM     73  C   UNL     1       2.659  13.260  -4.491  1.00  0.00     0.064 A 
ATOM     74  C   UNL     1       3.301  13.166  -3.247  1.00  0.00     0.173 A 
ATOM     75  C   UNL     1       2.365  14.542  -4.980  1.00  0.00     0.173 A 
ATOM     76  F   UNL     1       3.594  11.964  -2.727  1.00  0.00    -0.203 F 
ATOM     77  C   UNL     1       3.594  14.306  -2.503  1.00  0.00     0.198 A 
ATOM     78  C   UNL     1       2.692  15.682  -4.250  1.00  0.00     0.198 A 
ATOM     79  F   UNL     1       1.757  14.691  -6.166  1.00  0.00    -0.203 F 
ATOM     80  F   UNL     1       4.145  14.187  -1.287  1.00  0.00    -0.200 F 
ATOM     81  C   UNL     1       3.293  15.563  -3.007  1.00  0.00     0.200 A 
ATOM     82  F   UNL     1       2.413  16.895  -4.745  1.00  0.00    -0.200 F 
ATOM     83  F   UNL     1       3.573  16.659  -2.288  1.00  0.00    -0.200 F 
ENDBRANCH  59  73
BRANCH  60  84
ATOM     84  C   UNL     1      -0.549   5.344  -9.649  1.00  0.00     0.064 A 
ATOM     85  C   UNL     1       0.229   4.218  -9.944  1.00  0.00     0.173 A 
ATOM     86  C   UNL     1      -1.869   5.369 -10.125  1.00  0.00     0.173 A 
ATOM     87  F   UNL     1       1.505   4.160  -9.533  1.00  0.00    -0.203 F 
ATOM     88  C   UNL     1      -0.290   3.160 -10.689  1.00  0.00     0.198 A 
ATOM     89  C   UNL     1      -2.396   4.300 -10.845  1.00  0.00     0.198 A 
ATOM     90  F   UNL     1      -2.653   6.427  -9.872  1.00  0.00    -0.203 F 
ATOM     91  F   UNL     1       0.486   2.110 -10.987  1.00  0.00    -0.200 F 
ATOM     92  C   UNL     1      -1.605   3.198 -11.131  1.00  0.00     0.200 A 
ATOM     93  F   UNL     1      -3.670   4.337 -11.259  1.00  0.00    -0.200 F 
ATOM     94  F   UNL     1      -2.106   2.175 -11.836  1.00  0.00    -0.200 F 
ENDBRANCH  60  84
BRANCH  72  95
ATOM     95  C   UNL     1       4.274  10.259 -10.852  1.00  0.00     0.064 A 
ATOM     96  C   UNL     1       3.811  10.730 -12.089  1.00  0.00     0.173 A 
ATOM     97  C   UNL     1       5.658  10.090 -10.692  1.00  0.00     0.173 A 
ATOM     98  F   UNL     1       2.497  10.896 -12.301  1.00  0.00    -0.203 F 
ATOM     99  C   UNL     1       4.698  11.002 -13.129  1.00  0.00     0.198 A 
ATOM    100  C   UNL     1       6.544  10.395 -11.722  1.00  0.00     0.198 A 
ATOM    101  F   UNL     1       6.155   9.649  -9.526  1.00  0.00    -0.203 F 
ATOM    102  F   UNL     1       4.230  11.410 -14.317  1.00  0.00    -0.200 F 
ATOM    103  C   UNL     1       6.063  10.844 -12.941  1.00  0.00     0.200 A 
ATOM    104  F   UNL     1       7.864  10.257 -11.531  1.00  0.00    -0.200 F 
ATOM    105  F   UNL     1       6.915  11.120 -13.938  1.00  0.00    -0.200 F 
ENDBRANCH  72  95
ENDBRANCH  46  47
ENDBRANCH  39  41
ENDBRANCH  38  39
ENDBRANCH  37  38
ENDBRANCH  36  37
ENDBRANCH  35  36
ENDBRANCH  34  35
ENDBRANCH  33  34
ENDBRANCH   1  33
TORSDOF 23
