REMARK SMILES C[C@H](C(=O)OCCOCCOCCOC(=O)c1ccc(-c2c3nc(c(-c4c(F)c(F)c(F)c(F)c4F)c4ccc([nH]4)c(-c4c(F)c(F)c(F)c(F)c4F)c4nc(c(-c5c(F)c(F)c(F)c(F)c5F)c5ccc2[nH]5)C=C4)C=C3)cc1)[C@H](C)[N@@H+]1CC[C@H]([NH+]2CCCCC2)C1
REMARK SMILES IDX 9 1 8 2 7 3 6 4 5 5 3 6 4 7 2 8 1 9 80 10 81 11 82 12 83 13
REMARK SMILES IDX 92 14 84 16 85 17 86 18 87 19 91 20 88 22 90 23 89 24 10 25
REMARK SMILES IDX 11 26 12 27 13 28 14 29 15 30 16 31 17 32 18 33 79 34 19 35
REMARK SMILES IDX 78 36 20 37 21 38 22 39 72 40 23 41 77 42 71 43 73 44 24 45
REMARK SMILES IDX 76 46 70 47 69 48 25 50 57 51 37 52 56 53 38 54 41 55 55 56
REMARK SMILES IDX 74 57 39 58 40 59 54 61 75 62 42 63 26 64 27 65 35 66 28 67
REMARK SMILES IDX 29 68 33 69 36 70 30 71 31 72 34 73 32 74 58 75 59 76 67 77
REMARK SMILES IDX 60 78 61 79 65 80 68 81 62 82 63 83 66 84 64 85 43 86 44 87
REMARK SMILES IDX 52 88 45 89 46 90 50 91 53 92 47 93 48 94 51 95 49 96
REMARK H PARENT 82 15 86 21 73 49 41 60
REMARK Flexibility Score: inf
ROOT
ATOM      1  C   UNL     1      -2.698   1.729   1.736  1.00  0.00     0.188 C 
ENDROOT
BRANCH   1   2
ATOM      2  O   UNL     1      -4.082   1.835   2.013  1.00  0.00    -0.376 OA
BRANCH   2   3
ATOM      3  C   UNL     1      -4.993   1.012   1.296  1.00  0.00     0.202 C 
BRANCH   3   4
ATOM      4  C   UNL     1      -4.847   0.835  -0.222  1.00  0.00     0.261 C 
BRANCH   4   5
ATOM      5  O   UNL     1      -3.535   0.419  -0.644  1.00  0.00    -0.463 OA
BRANCH   5   6
ATOM      6  C   UNL     1      -2.983   1.087  -1.689  1.00  0.00     0.314 C 
ATOM      7  O   UNL     1      -3.523   2.033  -2.255  1.00  0.00    -0.252 OA
BRANCH   6   8
ATOM      8  C   UNL     1      -1.569   0.622  -2.055  1.00  0.00     0.154 C 
ATOM      9  C   UNL     1      -0.628   1.729  -1.539  1.00  0.00     0.026 C 
BRANCH   8  10
ATOM     10  C   UNL     1      -1.181  -0.852  -1.640  1.00  0.00     0.195 C 
ATOM     11  C   UNL     1       0.349  -0.988  -1.430  1.00  0.00     0.076 C 
BRANCH  10  12
ATOM     12  N   UNL     1      -1.613  -1.885  -2.636  1.00  0.00    -0.327 N 
ATOM     13  C   UNL     1      -3.053  -1.865  -2.943  1.00  0.00     0.269 C 
ATOM     14  C   UNL     1      -1.400  -3.284  -2.155  1.00  0.00     0.328 C 
ATOM     15  H   UNL     1      -1.042  -1.642  -3.446  1.00  0.00     0.348 HD
ATOM     16  C   UNL     1      -3.707  -2.650  -1.822  1.00  0.00     0.132 C 
ATOM     17  C   UNL     1      -2.767  -3.844  -1.669  1.00  0.00     0.245 C 
BRANCH  17  18
ATOM     18  N   UNL     1      -2.830  -4.592  -0.392  1.00  0.00    -0.328 N 
ATOM     19  C   UNL     1      -2.169  -3.922   0.736  1.00  0.00     0.262 C 
ATOM     20  C   UNL     1      -4.224  -4.930  -0.048  1.00  0.00     0.262 C 
ATOM     21  H   UNL     1      -2.300  -5.448  -0.556  1.00  0.00     0.348 HD
ATOM     22  C   UNL     1      -2.197  -4.785   2.003  1.00  0.00     0.062 C 
ATOM     23  C   UNL     1      -4.318  -5.816   1.194  1.00  0.00     0.062 C 
ATOM     24  C   UNL     1      -3.620  -5.172   2.383  1.00  0.00     0.012 C 
ENDBRANCH  17  18
ENDBRANCH  10  12
ENDBRANCH   8  10
ENDBRANCH   6   8
ENDBRANCH   5   6
ENDBRANCH   4   5
ENDBRANCH   3   4
ENDBRANCH   2   3
ENDBRANCH   1   2
BRANCH   1  25
ATOM     25  C   UNL     1      -2.016   0.352   1.781  1.00  0.00     0.188 C 
BRANCH  25  26
ATOM     26  O   UNL     1      -2.777  -0.796   2.047  1.00  0.00    -0.376 OA
BRANCH  26  27
ATOM     27  C   UNL     1      -3.184  -1.120   3.364  1.00  0.00     0.202 C 
BRANCH  27  28
ATOM     28  C   UNL     1      -2.617  -0.510   4.657  1.00  0.00     0.261 C 
BRANCH  28  29
ATOM     29  O   UNL     1      -1.903   0.721   4.557  1.00  0.00    -0.460 OA
BRANCH  29  30
ATOM     30  C   UNL     1      -0.551   0.615   4.606  1.00  0.00     0.338 C 
ATOM     31  O   UNL     1       0.113  -0.404   4.710  1.00  0.00    -0.246 OA
BRANCH  30  32
ATOM     32  C   UNL     1       0.017   1.932   4.268  1.00  0.00     0.060 A 
ATOM     33  C   UNL     1       0.792   2.059   3.105  1.00  0.00     0.016 A 
ATOM     34  C   UNL     1      -0.232   3.035   5.084  1.00  0.00     0.016 A 
ATOM     35  C   UNL     1       1.331   3.295   2.758  1.00  0.00     0.010 A 
ATOM     36  C   UNL     1       0.335   4.265   4.753  1.00  0.00     0.010 A 
ATOM     37  C   UNL     1       1.138   4.393   3.604  1.00  0.00    -0.014 A 
BRANCH  37  38
ATOM     38  C   UNL     1       1.939   5.623   3.410  1.00  0.00     0.031 A 
ATOM     39  C   UNL     1       3.182   5.791   4.236  1.00  0.00     0.074 A 
ATOM     40  C   UNL     1       1.572   6.567   2.528  1.00  0.00     0.049 A 
ATOM     41  N   UNL     1       3.991   6.814   4.326  1.00  0.00    -0.248 NA
ATOM     42  C   UNL     1       3.560   4.646   5.081  1.00  0.00     0.031 C 
ATOM     43  C   UNL     1       0.420   6.487   1.633  1.00  0.00     0.029 A 
ATOM     44  N   UNL     1       2.132   7.789   2.254  1.00  0.00    -0.354 N 
ATOM     45  C   UNL     1       4.961   6.443   5.248  1.00  0.00     0.074 A 
ATOM     46  C   UNL     1       4.628   5.113   5.707  1.00  0.00     0.031 C 
ATOM     47  C   UNL     1       0.348   7.624   0.918  1.00  0.00     0.029 A 
ATOM     48  C   UNL     1       1.422   8.524   1.337  1.00  0.00     0.049 A 
ATOM     49  H   UNL     1       2.962   8.109   2.675  1.00  0.00     0.167 HD
ATOM     50  C   UNL     1       6.035   7.151   5.671  1.00  0.00     0.037 A 
ATOM     51  C   UNL     1       1.607   9.789   0.912  1.00  0.00     0.037 A 
ATOM     52  C   UNL     1       6.356   8.476   5.212  1.00  0.00     0.049 A 
ATOM     53  C   UNL     1       2.760  10.591   1.466  1.00  0.00     0.074 A 
ATOM     54  C   UNL     1       7.429   9.274   5.564  1.00  0.00     0.029 A 
ATOM     55  N   UNL     1       5.595   9.203   4.307  1.00  0.00    -0.354 N 
ATOM     56  N   UNL     1       3.687  10.232   2.323  1.00  0.00    -0.248 NA
ATOM     57  C   UNL     1       2.892  11.976   0.992  1.00  0.00     0.031 C 
ATOM     58  C   UNL     1       7.281  10.509   4.925  1.00  0.00     0.029 A 
ATOM     59  C   UNL     1       6.157  10.455   4.115  1.00  0.00     0.049 A 
ATOM     60  H   UNL     1       4.776   8.878   3.867  1.00  0.00     0.167 HD
ATOM     61  C   UNL     1       4.528  11.330   2.461  1.00  0.00     0.074 A 
ATOM     62  C   UNL     1       4.008  12.364   1.591  1.00  0.00     0.031 C 
ATOM     63  C   UNL     1       5.633  11.469   3.236  1.00  0.00     0.037 A 
BRANCH  50  64
ATOM     64  C   UNL     1       6.912   6.522   6.714  1.00  0.00     0.064 A 
ATOM     65  C   UNL     1       7.722   5.411   6.433  1.00  0.00     0.173 A 
ATOM     66  C   UNL     1       6.956   7.053   8.012  1.00  0.00     0.173 A 
ATOM     67  F   UNL     1       7.705   4.854   5.213  1.00  0.00    -0.203 F 
ATOM     68  C   UNL     1       8.520   4.838   7.420  1.00  0.00     0.198 A 
ATOM     69  C   UNL     1       7.780   6.499   8.987  1.00  0.00     0.198 A 
ATOM     70  F   UNL     1       6.201   8.114   8.335  1.00  0.00    -0.203 F 
ATOM     71  F   UNL     1       9.243   3.744   7.144  1.00  0.00    -0.200 F 
ATOM     72  C   UNL     1       8.555   5.387   8.693  1.00  0.00     0.200 A 
ATOM     73  F   UNL     1       7.822   7.040  10.213  1.00  0.00    -0.200 F 
ATOM     74  F   UNL     1       9.328   4.839   9.640  1.00  0.00    -0.200 F 
ENDBRANCH  50  64
BRANCH  51  75
ATOM     75  C   UNL     1       0.673  10.391  -0.076  1.00  0.00     0.064 A 
ATOM     76  C   UNL     1       1.108  10.738  -1.363  1.00  0.00     0.173 A 
ATOM     77  C   UNL     1      -0.664  10.663   0.253  1.00  0.00     0.173 A 
ATOM     78  F   UNL     1       2.384  10.526  -1.718  1.00  0.00    -0.203 F 
ATOM     79  C   UNL     1       0.250  11.352  -2.274  1.00  0.00     0.198 A 
ATOM     80  C   UNL     1      -1.530  11.247  -0.670  1.00  0.00     0.198 A 
ATOM     81  F   UNL     1      -1.131  10.358   1.472  1.00  0.00    -0.203 F 
ATOM     82  F   UNL     1       0.709  11.724  -3.477  1.00  0.00    -0.200 F 
ATOM     83  C   UNL     1      -1.069  11.600  -1.929  1.00  0.00     0.200 A 
ATOM     84  F   UNL     1      -2.807  11.476  -0.335  1.00  0.00    -0.200 F 
ATOM     85  F   UNL     1      -1.894  12.192  -2.804  1.00  0.00    -0.200 F 
ENDBRANCH  51  75
BRANCH  63  86
ATOM     86  C   UNL     1       6.389  12.766   3.142  1.00  0.00     0.064 A 
ATOM     87  C   UNL     1       5.872  13.967   3.648  1.00  0.00     0.173 A 
ATOM     88  C   UNL     1       7.675  12.794   2.577  1.00  0.00     0.173 A 
ATOM     89  F   UNL     1       4.644  13.998   4.188  1.00  0.00    -0.203 F 
ATOM     90  C   UNL     1       6.599  15.152   3.567  1.00  0.00     0.198 A 
ATOM     91  C   UNL     1       8.414  13.973   2.530  1.00  0.00     0.198 A 
ATOM     92  F   UNL     1       8.223  11.672   2.086  1.00  0.00    -0.203 F 
ATOM     93  F   UNL     1       6.062  16.297   4.009  1.00  0.00    -0.200 F 
ATOM     94  C   UNL     1       7.872  15.152   3.016  1.00  0.00     0.200 A 
ATOM     95  F   UNL     1       9.652  13.966   2.016  1.00  0.00    -0.200 F 
ATOM     96  F   UNL     1       8.575  16.291   2.949  1.00  0.00    -0.200 F 
ENDBRANCH  63  86
ENDBRANCH  37  38
ENDBRANCH  30  32
ENDBRANCH  29  30
ENDBRANCH  28  29
ENDBRANCH  27  28
ENDBRANCH  26  27
ENDBRANCH  25  26
ENDBRANCH   1  25
TORSDOF 20
