REMARK SMILES NC(=O)[C@@H]1CCC[N@@H+]1[C@@H](C(=O)OCCOCCOCCOC(=O)c1ccc(-c2c3nc(c(-c4c(F)c(F)c(F)c(F)c4F)c4ccc([nH]4)c(-c4c(F)c(F)c(F)c(F)c4F)c4nc(c(-c5c(F)c(F)c(F)c(F)c5F)c5ccc2[nH]5)C=C4)C=C3)cc1)c1c[nH]c2cc(OCc3ccccc3)ccc12
REMARK SMILES IDX 16 1 15 2 14 3 13 4 12 5 10 6 11 7 9 8 8 9 4 10 5 11 6 12
REMARK SMILES IDX 7 13 2 15 1 16 3 19 87 20 88 21 103 22 89 23 90 24 102 25
REMARK SMILES IDX 91 27 101 28 92 29 93 30 94 31 95 32 96 33 100 34 97 35
REMARK SMILES IDX 99 36 98 37 17 38 18 39 19 40 20 41 21 42 22 43 23 44 24 45
REMARK SMILES IDX 25 46 86 47 26 48 85 49 27 50 28 51 29 52 79 53 30 54 84 55
REMARK SMILES IDX 78 56 80 57 31 58 83 59 77 60 76 61 32 63 64 64 44 65 63 66
REMARK SMILES IDX 45 67 48 68 62 69 81 70 46 71 47 72 61 74 82 75 49 76 33 77
REMARK SMILES IDX 34 78 42 79 35 80 36 81 40 82 43 83 37 84 38 85 41 86 39 87
REMARK SMILES IDX 65 88 66 89 74 90 67 91 68 92 72 93 75 94 69 95 70 96 73 97
REMARK SMILES IDX 71 98 50 99 51 100 59 101 52 102 53 103 57 104 60 105 54 106
REMARK SMILES IDX 55 107 58 108 56 109
REMARK H PARENT 8 14 1 17 1 18 89 26 80 62 48 73
REMARK Flexibility Score: inf
ROOT
ATOM      1  C   UNL     1       2.859   3.509   3.798  1.00  0.00     0.188 C 
ENDROOT
BRANCH   1   2
ATOM      2  O   UNL     1       2.738   2.461   4.744  1.00  0.00    -0.376 OA
BRANCH   2   3
ATOM      3  C   UNL     1       2.658   1.152   4.213  1.00  0.00     0.202 C 
BRANCH   3   4
ATOM      4  C   UNL     1       1.351   0.825   3.465  1.00  0.00     0.261 C 
BRANCH   4   5
ATOM      5  O   UNL     1       1.105   1.623   2.275  1.00  0.00    -0.459 OA
BRANCH   5   6
ATOM      6  C   UNL     1       0.206   2.649   2.329  1.00  0.00     0.370 C 
ATOM      7  O   UNL     1      -0.526   2.824   3.302  1.00  0.00    -0.245 OA
BRANCH   6   8
ATOM      8  C   UNL     1       0.271   3.657   1.119  1.00  0.00     0.329 C 
BRANCH   8   9
ATOM      9  N   UNL     1       0.307   3.209  -0.348  1.00  0.00    -0.309 N 
ATOM     10  C   UNL     1       0.482   1.783  -0.717  1.00  0.00     0.275 C 
ATOM     11  C   UNL     1       1.986   1.627  -0.939  1.00  0.00     0.081 C 
ATOM     12  C   UNL     1       2.421   2.990  -1.425  1.00  0.00     0.068 C 
ATOM     13  C   UNL     1       1.145   3.788  -1.401  1.00  0.00     0.264 C 
ATOM     14  H   UNL     1      -0.636   3.597  -0.332  1.00  0.00     0.349 HD
BRANCH  10  15
ATOM     15  C   UNL     1      -0.274   0.726   0.052  1.00  0.00     0.275 C 
ATOM     16  N   UNL     1       0.388  -0.456   0.219  1.00  0.00    -0.365 N 
ATOM     17  H   UNL     1      -0.040  -1.195   0.710  1.00  0.00     0.159 HD
ATOM     18  H   UNL     1       1.292  -0.570  -0.152  1.00  0.00     0.159 HD
ATOM     19  O   UNL     1      -1.433   0.856   0.433  1.00  0.00    -0.268 OA
ENDBRANCH  10  15
ENDBRANCH   8   9
BRANCH   8  20
ATOM     20  C   UNL     1       0.696   5.177   1.540  1.00  0.00     0.046 A 
ATOM     21  C   UNL     1      -0.019   6.192   0.897  1.00  0.00     0.094 A 
ATOM     22  C   UNL     1       1.970   5.898   1.609  1.00  0.00     0.009 A 
ATOM     23  N   UNL     1       0.652   6.369  -0.321  1.00  0.00    -0.361 N 
ATOM     24  C   UNL     1       2.062   6.368  -0.062  1.00  0.00     0.050 A 
ATOM     25  C   UNL     1       3.274   6.474   2.743  1.00  0.00     0.015 A 
ATOM     26  H   UNL     1       0.228   6.475  -1.203  1.00  0.00     0.166 HD
ATOM     27  C   UNL     1       3.503   7.291  -0.745  1.00  0.00     0.073 A 
ATOM     28  C   UNL     1       4.721   7.491   2.117  1.00  0.00     0.047 A 
ATOM     29  C   UNL     1       4.805   7.872   0.368  1.00  0.00     0.121 A 
BRANCH  29  30
ATOM     30  O   UNL     1       5.814   8.541  -0.249  1.00  0.00    -0.489 OA
BRANCH  30  31
ATOM     31  C   UNL     1       6.509   9.496   0.544  1.00  0.00     0.265 C 
BRANCH  31  32
ATOM     32  C   UNL     1       6.159  10.914   0.144  1.00  0.00    -0.011 A 
ATOM     33  C   UNL     1       6.833  11.983   0.755  1.00  0.00     0.007 A 
ATOM     34  C   UNL     1       5.186  11.200  -0.823  1.00  0.00     0.007 A 
ATOM     35  C   UNL     1       6.528  13.303   0.421  1.00  0.00     0.000 A 
ATOM     36  C   UNL     1       4.908  12.517  -1.182  1.00  0.00     0.000 A 
ATOM     37  C   UNL     1       5.567  13.569  -0.549  1.00  0.00     0.000 A 
ENDBRANCH  31  32
ENDBRANCH  30  31
ENDBRANCH  29  30
ENDBRANCH   8  20
ENDBRANCH   6   8
ENDBRANCH   5   6
ENDBRANCH   4   5
ENDBRANCH   3   4
ENDBRANCH   2   3
ENDBRANCH   1   2
BRANCH   1  38
ATOM     38  C   UNL     1       3.377   3.172   2.399  1.00  0.00     0.188 C 
BRANCH  38  39
ATOM     39  O   UNL     1       4.654   2.567   2.419  1.00  0.00    -0.376 OA
BRANCH  39  40
ATOM     40  C   UNL     1       5.454   3.008   1.328  1.00  0.00     0.202 C 
BRANCH  40  41
ATOM     41  C   UNL     1       5.946   4.435   1.542  1.00  0.00     0.261 C 
BRANCH  41  42
ATOM     42  O   UNL     1       4.943   5.439   1.843  1.00  0.00    -0.460 OA
BRANCH  42  43
ATOM     43  C   UNL     1       3.945   6.088   0.862  1.00  0.00     0.338 C 
ATOM     44  O   UNL     1       4.071   5.298  -0.115  1.00  0.00    -0.246 OA
BRANCH  43  45
ATOM     45  C   UNL     1       2.853   7.896   1.242  1.00  0.00     0.060 A 
ATOM     46  C   UNL     1       1.920   8.703   0.324  1.00  0.00     0.016 A 
ATOM     47  C   UNL     1       2.791   8.755   2.511  1.00  0.00     0.016 A 
ATOM     48  C   UNL     1       0.950   9.627   0.647  1.00  0.00     0.010 A 
ATOM     49  C   UNL     1       1.971   9.813   2.812  1.00  0.00     0.010 A 
ATOM     50  C   UNL     1       1.016  10.159   1.896  1.00  0.00    -0.014 A 
BRANCH  50  51
ATOM     51  C   UNL     1       0.251  11.322   2.202  1.00  0.00     0.031 A 
ATOM     52  C   UNL     1       0.758  12.575   1.609  1.00  0.00     0.074 A 
ATOM     53  C   UNL     1      -0.686  11.129   3.128  1.00  0.00     0.049 A 
ATOM     54  N   UNL     1       0.306  13.779   1.734  1.00  0.00    -0.248 NA
ATOM     55  C   UNL     1       1.946  12.456   0.737  1.00  0.00     0.031 C 
ATOM     56  C   UNL     1      -1.061   9.836   3.724  1.00  0.00     0.029 A 
ATOM     57  N   UNL     1      -1.424  12.041   3.785  1.00  0.00    -0.354 N 
ATOM     58  C   UNL     1       1.143  14.553   0.949  1.00  0.00     0.074 A 
ATOM     59  C   UNL     1       2.098  13.696   0.323  1.00  0.00     0.031 C 
ATOM     60  C   UNL     1      -1.951  10.058   4.701  1.00  0.00     0.029 A 
ATOM     61  C   UNL     1      -2.199  11.490   4.761  1.00  0.00     0.049 A 
ATOM     62  H   UNL     1      -1.406  13.004   3.582  1.00  0.00     0.167 HD
ATOM     63  C   UNL     1       1.117  15.890   0.818  1.00  0.00     0.037 A 
ATOM     64  C   UNL     1      -3.023  12.146   5.582  1.00  0.00     0.037 A 
ATOM     65  C   UNL     1       0.175  16.654   1.572  1.00  0.00     0.049 A 
ATOM     66  C   UNL     1      -3.125  13.625   5.329  1.00  0.00     0.074 A 
ATOM     67  C   UNL     1      -0.060  18.007   1.566  1.00  0.00     0.029 A 
ATOM     68  N   UNL     1      -0.690  16.079   2.501  1.00  0.00    -0.354 N 
ATOM     69  N   UNL     1      -2.405  14.380   4.522  1.00  0.00    -0.248 NA
ATOM     70  C   UNL     1      -4.177  14.336   6.044  1.00  0.00     0.031 C 
ATOM     71  C   UNL     1      -1.054  18.253   2.520  1.00  0.00     0.029 A 
ATOM     72  C   UNL     1      -1.481  17.045   3.068  1.00  0.00     0.049 A 
ATOM     73  H   UNL     1      -0.727  15.120   2.719  1.00  0.00     0.167 HD
ATOM     74  C   UNL     1      -2.937  15.653   4.603  1.00  0.00     0.074 A 
ATOM     75  C   UNL     1      -4.058  15.550   5.527  1.00  0.00     0.031 C 
ATOM     76  C   UNL     1      -2.558  16.810   3.998  1.00  0.00     0.037 A 
BRANCH  63  77
ATOM     77  C   UNL     1       2.142  16.532  -0.064  1.00  0.00     0.064 A 
ATOM     78  C   UNL     1       2.195  16.284  -1.448  1.00  0.00     0.173 A 
ATOM     79  C   UNL     1       3.122  17.371   0.483  1.00  0.00     0.173 A 
ATOM     80  F   UNL     1       1.324  15.437  -2.018  1.00  0.00    -0.203 F 
ATOM     81  C   UNL     1       3.193  16.843  -2.242  1.00  0.00     0.198 A 
ATOM     82  C   UNL     1       4.094  17.961  -0.322  1.00  0.00     0.198 A 
ATOM     83  F   UNL     1       3.156  17.601   1.804  1.00  0.00    -0.203 F 
ATOM     84  F   UNL     1       3.264  16.530  -3.544  1.00  0.00    -0.200 F 
ATOM     85  C   UNL     1       4.131  17.695  -1.682  1.00  0.00     0.200 A 
ATOM     86  F   UNL     1       5.007  18.776   0.224  1.00  0.00    -0.200 F 
ATOM     87  F   UNL     1       5.083  18.243  -2.449  1.00  0.00    -0.200 F 
ENDBRANCH  63  77
BRANCH  64  88
ATOM     88  C   UNL     1      -3.840  11.388   6.547  1.00  0.00     0.064 A 
ATOM     89  C   UNL     1      -5.221  11.252   6.364  1.00  0.00     0.173 A 
ATOM     90  C   UNL     1      -3.252  10.710   7.625  1.00  0.00     0.173 A 
ATOM     91  F   UNL     1      -5.819  11.839   5.316  1.00  0.00    -0.203 F 
ATOM     92  C   UNL     1      -5.995  10.523   7.262  1.00  0.00     0.198 A 
ATOM     93  C   UNL     1      -4.022   9.954   8.504  1.00  0.00     0.198 A 
ATOM     94  F   UNL     1      -1.923  10.755   7.804  1.00  0.00    -0.203 F 
ATOM     95  F   UNL     1      -7.322  10.454   7.093  1.00  0.00    -0.200 F 
ATOM     96  C   UNL     1      -5.395   9.877   8.333  1.00  0.00     0.200 A 
ATOM     97  F   UNL     1      -3.433   9.297   9.513  1.00  0.00    -0.200 F 
ATOM     98  F   UNL     1      -6.143   9.183   9.202  1.00  0.00    -0.200 F 
ENDBRANCH  64  88
BRANCH  76  99
ATOM     99  C   UNL     1      -3.373  18.011   4.332  1.00  0.00     0.064 A 
ATOM    100  C   UNL     1      -3.297  18.600   5.599  1.00  0.00     0.173 A 
ATOM    101  C   UNL     1      -4.163  18.617   3.346  1.00  0.00     0.173 A 
ATOM    102  F   UNL     1      -2.546  18.042   6.562  1.00  0.00    -0.203 F 
ATOM    103  C   UNL     1      -4.028  19.741   5.885  1.00  0.00     0.198 A 
ATOM    104  C   UNL     1      -4.850  19.788   3.622  1.00  0.00     0.198 A 
ATOM    105  F   UNL     1      -4.232  18.094   2.113  1.00  0.00    -0.203 F 
ATOM    106  F   UNL     1      -3.998  20.256   7.121  1.00  0.00    -0.200 F 
ATOM    107  C   UNL     1      -4.794  20.340   4.894  1.00  0.00     0.200 A 
ATOM    108  F   UNL     1      -5.559  20.387   2.657  1.00  0.00    -0.200 F 
ATOM    109  F   UNL     1      -5.483  21.455   5.168  1.00  0.00    -0.200 F 
ENDBRANCH  76  99
ENDBRANCH  50  51
ENDBRANCH  43  45
ENDBRANCH  42  43
ENDBRANCH  41  42
ENDBRANCH  40  41
ENDBRANCH  39  40
ENDBRANCH  38  39
ENDBRANCH   1  38
TORSDOF 23
