REMARK SMILES N#CCCn1cc(C(=O)OCCOCCOCCOC(=O)c2ccc(-c3c4nc(c(-c5c(F)c(F)c(F)c(F)c5F)c5ccc([nH]5)c(-c5c(F)c(F)c(F)c(F)c5F)c5nc(c(-c6c(F)c(F)c(F)c(F)c6F)c6ccc3[nH]6)C=C5)C=C4)cc2)c(-c2cccc([N+](=O)[O-])c2)n1
REMARK SMILES IDX 14 1 13 2 12 3 11 4 10 5 8 6 9 7 7 8 5 9 6 10 95 11 85 12
REMARK SMILES IDX 4 13 3 14 2 15 1 16 86 17 87 18 94 19 88 20 90 21 89 22
REMARK SMILES IDX 91 23 92 24 93 25 15 26 16 27 17 28 18 29 19 30 20 31 21 32
REMARK SMILES IDX 22 33 23 34 84 35 24 36 83 37 25 38 26 39 27 40 77 41 28 42
REMARK SMILES IDX 82 43 76 44 78 45 29 46 81 47 75 48 74 49 30 51 62 52 42 53
REMARK SMILES IDX 61 54 43 55 46 56 60 57 79 58 44 59 45 60 59 62 80 63 47 64
REMARK SMILES IDX 31 65 32 66 40 67 33 68 34 69 38 70 41 71 35 72 36 73 39 74
REMARK SMILES IDX 37 75 63 76 64 77 72 78 65 79 66 80 70 81 73 82 67 83 68 84
REMARK SMILES IDX 71 85 69 86 48 87 49 88 57 89 50 90 51 91 55 92 58 93 52 94
REMARK SMILES IDX 53 95 56 96 54 97
REMARK H PARENT 78 50 46 61
REMARK Flexibility Score: inf
ROOT
ATOM      1  C   UNL     1       3.715   3.253   6.368  1.00  0.00     0.188 C 
ENDROOT
BRANCH   1   2
ATOM      2  O   UNL     1       2.996   2.605   7.396  1.00  0.00    -0.376 OA
BRANCH   2   3
ATOM      3  C   UNL     1       1.581   2.637   7.290  1.00  0.00     0.202 C 
BRANCH   3   4
ATOM      4  C   UNL     1       0.907   1.945   6.087  1.00  0.00     0.261 C 
BRANCH   4   5
ATOM      5  O   UNL     1       1.612   1.971   4.839  1.00  0.00    -0.460 OA
BRANCH   5   6
ATOM      6  C   UNL     1       1.486   3.063   4.036  1.00  0.00     0.342 C 
ATOM      7  O   UNL     1       0.806   4.048   4.314  1.00  0.00    -0.246 OA
BRANCH   6   8
ATOM      8  C   UNL     1       2.369   2.983   2.884  1.00  0.00     0.106 A 
ATOM      9  N   UNL     1       3.626   2.213   1.242  1.00  0.00    -0.270 N 
ATOM     10  C   UNL     1       2.817   1.827   2.268  1.00  0.00     0.125 A 
ATOM     11  N   UNL     1       3.877   3.536   1.252  1.00  0.00    -0.172 NA
ATOM     12  C   UNL     1       3.126   4.012   2.257  1.00  0.00     0.107 A 
BRANCH   9  13
ATOM     13  C   UNL     1       4.197   1.411   0.168  1.00  0.00     0.159 C 
BRANCH  13  14
ATOM     14  C   UNL     1       3.700  -0.030   0.050  1.00  0.00     0.144 C 
BRANCH  14  15
ATOM     15  C   UNL     1       2.180  -0.030   0.050  1.00  0.00     0.064 C 
ATOM     16  N   UNL     1       0.919  -0.030   0.050  1.00  0.00    -0.198 NA
ENDBRANCH  14  15
ENDBRANCH  13  14
ENDBRANCH   9  13
BRANCH  12  17
ATOM     17  C   UNL     1       3.266   5.388   2.700  1.00  0.00     0.010 A 
ATOM     18  C   UNL     1       4.188   5.693   3.715  1.00  0.00     0.011 A 
ATOM     19  C   UNL     1       2.470   6.393   2.153  1.00  0.00     0.096 A 
ATOM     20  C   UNL     1       4.270   6.983   4.237  1.00  0.00     0.008 A 
ATOM     21  C   UNL     1       2.576   7.692   2.664  1.00  0.00     0.270 A 
ATOM     22  C   UNL     1       3.456   7.987   3.718  1.00  0.00     0.085 A 
BRANCH  21  23
ATOM     23  N   UNL     1       1.761   8.763   2.084  1.00  0.00     0.062 N 
ATOM     24  O   UNL     1       1.763   9.862   2.659  1.00  0.00    -0.258 OA
ATOM     25  O   UNL     1       1.126   8.511   1.051  1.00  0.00    -0.258 OA
ENDBRANCH  21  23
ENDBRANCH  12  17
ENDBRANCH   6   8
ENDBRANCH   5   6
ENDBRANCH   4   5
ENDBRANCH   3   4
ENDBRANCH   2   3
ENDBRANCH   1   2
BRANCH   1  26
ATOM     26  C   UNL     1       4.512   2.291   5.463  1.00  0.00     0.188 C 
BRANCH  26  27
ATOM     27  O   UNL     1       4.520   0.882   5.662  1.00  0.00    -0.376 OA
BRANCH  27  28
ATOM     28  C   UNL     1       4.463   0.325   6.967  1.00  0.00     0.202 C 
BRANCH  28  29
ATOM     29  C   UNL     1       5.543   0.691   7.977  1.00  0.00     0.261 C 
BRANCH  29  30
ATOM     30  O   UNL     1       5.976   2.033   7.883  1.00  0.00    -0.460 OA
BRANCH  30  31
ATOM     31  C   UNL     1       7.022   2.234   7.053  1.00  0.00     0.338 C 
ATOM     32  O   UNL     1       7.546   1.434   6.300  1.00  0.00    -0.246 OA
BRANCH  31  33
ATOM     33  C   UNL     1       7.516   3.595   7.287  1.00  0.00     0.060 A 
ATOM     34  C   UNL     1       8.635   3.987   6.549  1.00  0.00     0.016 A 
ATOM     35  C   UNL     1       7.120   4.247   8.461  1.00  0.00     0.016 A 
ATOM     36  C   UNL     1       9.533   4.834   7.153  1.00  0.00     0.010 A 
ATOM     37  C   UNL     1       8.040   5.036   9.088  1.00  0.00     0.010 A 
ATOM     38  C   UNL     1       9.268   5.238   8.462  1.00  0.00    -0.014 A 
BRANCH  38  39
ATOM     39  C   UNL     1      10.304   5.912   9.205  1.00  0.00     0.031 A 
ATOM     40  C   UNL     1      10.294   7.368   8.979  1.00  0.00     0.074 A 
ATOM     41  C   UNL     1      11.047   5.245  10.108  1.00  0.00     0.049 A 
ATOM     42  N   UNL     1      11.180   8.076   8.364  1.00  0.00    -0.248 NA
ATOM     43  C   UNL     1       9.056   8.101   9.301  1.00  0.00     0.031 C 
ATOM     44  C   UNL     1      10.848   3.865  10.572  1.00  0.00     0.029 A 
ATOM     45  N   UNL     1      12.060   5.692  10.898  1.00  0.00    -0.354 N 
ATOM     46  C   UNL     1      10.706   9.381   8.441  1.00  0.00     0.074 A 
ATOM     47  C   UNL     1       9.313   9.297   8.774  1.00  0.00     0.031 C 
ATOM     48  C   UNL     1      11.559   3.670  11.704  1.00  0.00     0.029 A 
ATOM     49  C   UNL     1      12.347   4.861  11.974  1.00  0.00     0.049 A 
ATOM     50  H   UNL     1      12.547   6.530  10.723  1.00  0.00     0.167 HD
ATOM     51  C   UNL     1      11.576  10.411   8.607  1.00  0.00     0.037 A 
ATOM     52  C   UNL     1      13.114   5.181  13.043  1.00  0.00     0.037 A 
ATOM     53  C   UNL     1      12.919   9.997   8.296  1.00  0.00     0.049 A 
ATOM     54  C   UNL     1      13.951   6.344  12.659  1.00  0.00     0.074 A 
ATOM     55  C   UNL     1      13.633   9.702   7.156  1.00  0.00     0.029 A 
ATOM     56  N   UNL     1      13.598   9.460   9.358  1.00  0.00    -0.354 N 
ATOM     57  N   UNL     1      14.905   6.286  11.771  1.00  0.00    -0.248 NA
ATOM     58  C   UNL     1      13.503   7.691  13.001  1.00  0.00     0.031 C 
ATOM     59  C   UNL     1      14.683   8.825   7.562  1.00  0.00     0.029 A 
ATOM     60  C   UNL     1      14.596   8.625   8.939  1.00  0.00     0.049 A 
ATOM     61  H   UNL     1      13.393   9.651  10.302  1.00  0.00     0.167 HD
ATOM     62  C   UNL     1      14.875   7.521  11.150  1.00  0.00     0.074 A 
ATOM     63  C   UNL     1      14.136   8.390  12.054  1.00  0.00     0.031 C 
ATOM     64  C   UNL     1      15.160   7.630   9.822  1.00  0.00     0.037 A 
BRANCH  51  65
ATOM     65  C   UNL     1      11.326  11.589   9.527  1.00  0.00     0.064 A 
ATOM     66  C   UNL     1      12.267  12.637   9.537  1.00  0.00     0.173 A 
ATOM     67  C   UNL     1      10.413  11.588  10.607  1.00  0.00     0.173 A 
ATOM     68  F   UNL     1      13.195  12.728   8.572  1.00  0.00    -0.203 F 
ATOM     69  C   UNL     1      12.335  13.560  10.585  1.00  0.00     0.198 A 
ATOM     70  C   UNL     1      10.449  12.542  11.621  1.00  0.00     0.198 A 
ATOM     71  F   UNL     1       9.524  10.608  10.804  1.00  0.00    -0.203 F 
ATOM     72  F   UNL     1      13.327  14.459  10.614  1.00  0.00    -0.200 F 
ATOM     73  C   UNL     1      11.430  13.508  11.628  1.00  0.00     0.200 A 
ATOM     74  F   UNL     1       9.575  12.457  12.634  1.00  0.00    -0.200 F 
ATOM     75  F   UNL     1      11.531  14.350  12.664  1.00  0.00    -0.200 F 
ENDBRANCH  51  65
BRANCH  52  76
ATOM     76  C   UNL     1      12.986   4.728  14.448  1.00  0.00     0.064 A 
ATOM     77  C   UNL     1      14.041   4.896  15.360  1.00  0.00     0.173 A 
ATOM     78  C   UNL     1      11.737   4.375  14.995  1.00  0.00     0.173 A 
ATOM     79  F   UNL     1      15.254   5.269  14.927  1.00  0.00    -0.203 F 
ATOM     80  C   UNL     1      13.850   4.755  16.739  1.00  0.00     0.198 A 
ATOM     81  C   UNL     1      11.550   4.225  16.370  1.00  0.00     0.198 A 
ATOM     82  F   UNL     1      10.651   4.263  14.218  1.00  0.00    -0.203 F 
ATOM     83  F   UNL     1      14.864   4.993  17.582  1.00  0.00    -0.200 F 
ATOM     84  C   UNL     1      12.601   4.432  17.243  1.00  0.00     0.200 A 
ATOM     85  F   UNL     1      10.328   3.945  16.846  1.00  0.00    -0.200 F 
ATOM     86  F   UNL     1      12.400   4.363  18.566  1.00  0.00    -0.200 F 
ENDBRANCH  52  76
BRANCH  64  87
ATOM     87  C   UNL     1      15.975   6.534   9.210  1.00  0.00     0.064 A 
ATOM     88  C   UNL     1      15.523   5.217   9.036  1.00  0.00     0.173 A 
ATOM     89  C   UNL     1      17.242   6.861   8.711  1.00  0.00     0.173 A 
ATOM     90  F   UNL     1      14.290   4.855   9.415  1.00  0.00    -0.203 F 
ATOM     91  C   UNL     1      16.329   4.258   8.425  1.00  0.00     0.198 A 
ATOM     92  C   UNL     1      18.028   5.912   8.066  1.00  0.00     0.198 A 
ATOM     93  F   UNL     1      17.701   8.118   8.813  1.00  0.00    -0.203 F 
ATOM     94  F   UNL     1      15.888   2.999   8.287  1.00  0.00    -0.200 F 
ATOM     95  C   UNL     1      17.577   4.609   7.935  1.00  0.00     0.200 A 
ATOM     96  F   UNL     1      19.214   6.268   7.555  1.00  0.00    -0.200 F 
ATOM     97  F   UNL     1      18.337   3.696   7.314  1.00  0.00    -0.200 F 
ENDBRANCH  64  87
ENDBRANCH  38  39
ENDBRANCH  31  33
ENDBRANCH  30  31
ENDBRANCH  29  30
ENDBRANCH  28  29
ENDBRANCH  27  28
ENDBRANCH  26  27
ENDBRANCH   1  26
TORSDOF 22
