REMARK SMILES CCCCCCNC(=O)Oc1cccc(-c2ccc([C@@H](C)C(=O)OCCOCCOCCOC(=O)c3ccc(-c4c5nc(c(-c6c(F)c(F)c(F)c(F)c6F)c6ccc([nH]6)c(-c6c(F)c(F)c(F)c(F)c6F)c6nc(c(-c7c(F)c(F)c(F)c(F)c7F)c7ccc4[nH]7)C=C6)C=C5)cc3)cc2O)c1
REMARK SMILES IDX 25 1 24 2 22 3 23 4 20 5 21 6 19 7 16 8 17 9 100 10 18 11
REMARK SMILES IDX 99 12 15 13 11 14 12 15 102 16 13 17 14 18 10 19 8 20 7 21
REMARK SMILES IDX 9 23 6 24 5 25 4 26 3 27 2 28 1 29 101 30 26 32 27 33 28 34
REMARK SMILES IDX 29 35 30 36 31 37 32 38 33 39 34 40 35 41 36 42 37 43 98 44
REMARK SMILES IDX 38 45 97 46 39 47 40 48 41 49 91 50 42 51 96 52 90 53 92 54
REMARK SMILES IDX 43 55 95 56 89 57 88 58 44 60 76 61 56 62 75 63 57 64 60 65
REMARK SMILES IDX 74 66 93 67 58 68 59 69 73 71 94 72 61 73 45 74 46 75 54 76
REMARK SMILES IDX 47 77 48 78 52 79 55 80 49 81 50 82 53 83 51 84 77 85 78 86
REMARK SMILES IDX 86 87 79 88 80 89 84 90 87 91 81 92 82 93 85 94 83 95 62 96
REMARK SMILES IDX 63 97 71 98 64 99 65 100 69 101 72 102 66 103 67 104 70 105
REMARK SMILES IDX 68 106
REMARK H PARENT 7 22 101 31 92 59 60 70
REMARK Flexibility Score: inf
ROOT
ATOM      1  C   UNL     1      -3.102 -15.334   5.412  1.00  0.00     0.261 C 
ENDROOT
BRANCH   1   2
ATOM      2  O   UNL     1      -3.986 -14.219   5.163  1.00  0.00    -0.463 OA
BRANCH   2   3
ATOM      3  C   UNL     1      -4.762 -13.824   6.202  1.00  0.00     0.313 C 
ATOM      4  O   UNL     1      -4.775 -14.396   7.292  1.00  0.00    -0.252 OA
BRANCH   3   5
ATOM      5  C   UNL     1      -5.653 -12.607   5.958  1.00  0.00     0.126 C 
ATOM      6  C   UNL     1      -7.114 -13.035   6.091  1.00  0.00     0.025 C 
BRANCH   5   7
ATOM      7  C   UNL     1      -5.468 -11.716   4.731  1.00  0.00    -0.030 A 
ATOM      8  C   UNL     1      -5.244  -9.906   2.504  1.00  0.00     0.024 A 
ATOM      9  C   UNL     1      -5.438 -11.291   2.326  1.00  0.00     0.013 A 
ATOM     10  C   UNL     1      -5.149  -9.456   3.830  1.00  0.00     0.123 A 
ATOM     11  C   UNL     1      -5.562 -12.179   3.413  1.00  0.00     0.005 A 
ATOM     12  C   UNL     1      -5.256 -10.337   4.916  1.00  0.00     0.051 A 
BRANCH   8  13
ATOM     13  C   UNL     1      -5.237  -8.993   1.335  1.00  0.00    -0.011 A 
ATOM     14  C   UNL     1      -4.296  -7.165   0.031  1.00  0.00     0.133 A 
ATOM     15  C   UNL     1      -5.404  -7.155  -0.814  1.00  0.00     0.047 A 
ATOM     16  C   UNL     1      -4.195  -8.076   1.091  1.00  0.00     0.056 A 
ATOM     17  C   UNL     1      -6.424  -8.076  -0.607  1.00  0.00     0.004 A 
ATOM     18  C   UNL     1      -6.343  -8.978   0.460  1.00  0.00     0.009 A 
BRANCH  14  19
ATOM     19  O   UNL     1      -3.380  -6.109  -0.137  1.00  0.00    -0.410 OA
BRANCH  19  20
ATOM     20  C   UNL     1      -2.046  -6.412  -0.362  1.00  0.00     0.412 C 
ATOM     21  N   UNL     1      -1.264  -5.298  -0.541  1.00  0.00    -0.321 N 
ATOM     22  H   UNL     1      -0.296  -5.454  -0.630  1.00  0.00     0.167 HD
ATOM     23  O   UNL     1      -1.568  -7.536  -0.425  1.00  0.00    -0.224 OA
BRANCH  21  24
ATOM     24  C   UNL     1      -1.703  -3.918  -0.613  1.00  0.00     0.119 C 
BRANCH  24  25
ATOM     25  C   UNL     1      -1.091  -3.046   0.484  1.00  0.00     0.021 C 
BRANCH  25  26
ATOM     26  C   UNL     1       0.437  -2.915   0.436  1.00  0.00     0.002 C 
BRANCH  26  27
ATOM     27  C   UNL     1       1.015  -2.307  -0.847  1.00  0.00    -0.000 C 
BRANCH  27  28
ATOM     28  C   UNL     1       0.544  -0.889  -1.180  1.00  0.00    -0.003 C 
ATOM     29  C   UNL     1       0.946   0.143  -0.138  1.00  0.00     0.004 C 
ENDBRANCH  27  28
ENDBRANCH  26  27
ENDBRANCH  25  26
ENDBRANCH  24  25
ENDBRANCH  21  24
ENDBRANCH  19  20
ENDBRANCH  14  19
ENDBRANCH   8  13
BRANCH  10  30
ATOM     30  O   UNL     1      -4.993  -8.136   4.166  1.00  0.00    -0.507 OA
ATOM     31  H   UNL     1      -4.915  -7.488   3.494  1.00  0.00     0.293 HD
ENDBRANCH  10  30
ENDBRANCH   5   7
ENDBRANCH   3   5
ENDBRANCH   2   3
ENDBRANCH   1   2
BRANCH   1  32
ATOM     32  C   UNL     1      -1.609 -15.025   5.244  1.00  0.00     0.202 C 
BRANCH  32  33
ATOM     33  O   UNL     1      -1.072 -13.965   6.022  1.00  0.00    -0.376 OA
BRANCH  33  34
ATOM     34  C   UNL     1      -1.544 -12.637   5.820  1.00  0.00     0.188 C 
BRANCH  34  35
ATOM     35  C   UNL     1      -2.030 -12.195   4.432  1.00  0.00     0.188 C 
BRANCH  35  36
ATOM     36  O   UNL     1      -1.511 -12.963   3.363  1.00  0.00    -0.376 OA
BRANCH  36  37
ATOM     37  C   UNL     1      -0.937 -12.216   2.304  1.00  0.00     0.202 C 
BRANCH  37  38
ATOM     38  C   UNL     1       0.494 -11.796   2.649  1.00  0.00     0.261 C 
BRANCH  38  39
ATOM     39  O   UNL     1       0.601 -10.985   3.837  1.00  0.00    -0.460 OA
BRANCH  39  40
ATOM     40  C   UNL     1       0.069  -9.744   3.759  1.00  0.00     0.338 C 
ATOM     41  O   UNL     1      -0.431  -9.220   2.782  1.00  0.00    -0.246 OA
BRANCH  40  42
ATOM     42  C   UNL     1       0.005  -9.169   5.120  1.00  0.00     0.060 A 
ATOM     43  C   UNL     1      -1.223  -8.673   5.579  1.00  0.00     0.016 A 
ATOM     44  C   UNL     1       1.145  -9.084   5.922  1.00  0.00     0.016 A 
ATOM     45  C   UNL     1      -1.300  -8.039   6.820  1.00  0.00     0.010 A 
ATOM     46  C   UNL     1       1.069  -8.433   7.159  1.00  0.00     0.010 A 
ATOM     47  C   UNL     1      -0.144  -7.869   7.594  1.00  0.00    -0.014 A 
BRANCH  47  48
ATOM     48  C   UNL     1      -0.163  -6.923   8.740  1.00  0.00     0.031 A 
ATOM     49  C   UNL     1       0.336  -5.520   8.515  1.00  0.00     0.074 A 
ATOM     50  C   UNL     1      -0.634  -7.283   9.948  1.00  0.00     0.049 A 
ATOM     51  N   UNL     1       0.430  -4.523   9.358  1.00  0.00    -0.248 NA
ATOM     52  C   UNL     1       0.794  -5.197   7.153  1.00  0.00     0.031 C 
ATOM     53  C   UNL     1      -1.164  -8.599  10.294  1.00  0.00     0.029 A 
ATOM     54  N   UNL     1      -0.731  -6.563  11.115  1.00  0.00    -0.354 N 
ATOM     55  C   UNL     1       0.967  -3.466   8.635  1.00  0.00     0.074 A 
ATOM     56  C   UNL     1       1.201  -3.944   7.290  1.00  0.00     0.031 C 
ATOM     57  C   UNL     1      -1.516  -8.599  11.592  1.00  0.00     0.029 A 
ATOM     58  C   UNL     1      -1.214  -7.292  12.175  1.00  0.00     0.049 A 
ATOM     59  H   UNL     1      -0.477  -5.614  11.185  1.00  0.00     0.167 HD
ATOM     60  C   UNL     1       1.233  -2.206   9.051  1.00  0.00     0.037 A 
ATOM     61  C   UNL     1      -1.372  -6.946  13.469  1.00  0.00     0.037 A 
ATOM     62  C   UNL     1       0.981  -1.717  10.380  1.00  0.00     0.049 A 
ATOM     63  C   UNL     1      -1.027  -5.543  13.912  1.00  0.00     0.074 A 
ATOM     64  C   UNL     1       1.163  -0.438  10.875  1.00  0.00     0.029 A 
ATOM     65  N   UNL     1       0.501  -2.488  11.426  1.00  0.00    -0.354 N 
ATOM     66  N   UNL     1      -0.584  -4.532  13.205  1.00  0.00    -0.248 NA
ATOM     67  C   UNL     1      -1.214  -5.233  15.339  1.00  0.00     0.031 C 
ATOM     68  C   UNL     1       0.851  -0.448  12.237  1.00  0.00     0.029 A 
ATOM     69  C   UNL     1       0.416  -1.719  12.576  1.00  0.00     0.049 A 
ATOM     70  H   UNL     1       0.257  -3.440  11.363  1.00  0.00     0.167 HD
ATOM     71  C   UNL     1      -0.470  -3.466  14.089  1.00  0.00     0.074 A 
ATOM     72  C   UNL     1      -0.909  -3.944  15.381  1.00  0.00     0.031 C 
ATOM     73  C   UNL     1      -0.037  -2.203  13.853  1.00  0.00     0.037 A 
BRANCH  60  74
ATOM     74  C   UNL     1       1.851  -1.257   8.067  1.00  0.00     0.064 A 
ATOM     75  C   UNL     1       1.114  -0.703   7.011  1.00  0.00     0.173 A 
ATOM     76  C   UNL     1       3.180  -0.839   8.234  1.00  0.00     0.173 A 
ATOM     77  F   UNL     1      -0.155  -1.081   6.801  1.00  0.00    -0.203 F 
ATOM     78  C   UNL     1       1.689   0.229   6.151  1.00  0.00     0.198 A 
ATOM     79  C   UNL     1       3.743   0.114   7.390  1.00  0.00     0.198 A 
ATOM     80  F   UNL     1       3.926  -1.338   9.232  1.00  0.00    -0.203 F 
ATOM     81  F   UNL     1       0.977   0.725   5.130  1.00  0.00    -0.200 F 
ATOM     82  C   UNL     1       2.998   0.645   6.348  1.00  0.00     0.200 A 
ATOM     83  F   UNL     1       5.003   0.524   7.590  1.00  0.00    -0.200 F 
ATOM     84  F   UNL     1       3.542   1.558   5.532  1.00  0.00    -0.200 F 
ENDBRANCH  60  74
BRANCH  61  85
ATOM     85  C   UNL     1      -1.854  -7.944  14.463  1.00  0.00     0.064 A 
ATOM     86  C   UNL     1      -3.083  -7.785  15.118  1.00  0.00     0.173 A 
ATOM     87  C   UNL     1      -1.058  -9.039  14.831  1.00  0.00     0.173 A 
ATOM     88  F   UNL     1      -3.868  -6.737  14.826  1.00  0.00    -0.203 F 
ATOM     89  C   UNL     1      -3.480  -8.660  16.129  1.00  0.00     0.198 A 
ATOM     90  C   UNL     1      -1.471  -9.933  15.817  1.00  0.00     0.198 A 
ATOM     91  F   UNL     1       0.131  -9.234  14.242  1.00  0.00    -0.203 F 
ATOM     92  F   UNL     1      -4.625  -8.441  16.790  1.00  0.00    -0.200 F 
ATOM     93  C   UNL     1      -2.675  -9.735  16.475  1.00  0.00     0.200 A 
ATOM     94  F   UNL     1      -0.693 -10.973  16.144  1.00  0.00    -0.200 F 
ATOM     95  F   UNL     1      -3.051 -10.568  17.456  1.00  0.00    -0.200 F 
ENDBRANCH  61  85
BRANCH  73  96
ATOM     96  C   UNL     1      -0.054  -1.234  15.002  1.00  0.00     0.064 A 
ATOM     97  C   UNL     1       0.846  -1.342  16.072  1.00  0.00     0.173 A 
ATOM     98  C   UNL     1      -0.952  -0.155  15.008  1.00  0.00     0.173 A 
ATOM     99  F   UNL     1       1.718  -2.361  16.120  1.00  0.00    -0.203 F 
ATOM    100  C   UNL     1       0.828  -0.424  17.120  1.00  0.00     0.198 A 
ATOM    101  C   UNL     1      -0.945   0.780  16.040  1.00  0.00     0.198 A 
ATOM    102  F   UNL     1      -1.827   0.003  14.003  1.00  0.00    -0.203 F 
ATOM    103  F   UNL     1       1.664  -0.577  18.156  1.00  0.00    -0.200 F 
ATOM    104  C   UNL     1      -0.061   0.639  17.099  1.00  0.00     0.200 A 
ATOM    105  F   UNL     1      -1.793   1.817  16.008  1.00  0.00    -0.200 F 
ATOM    106  F   UNL     1      -0.071   1.527  18.103  1.00  0.00    -0.200 F 
ENDBRANCH  73  96
ENDBRANCH  47  48
ENDBRANCH  40  42
ENDBRANCH  39  40
ENDBRANCH  38  39
ENDBRANCH  37  38
ENDBRANCH  36  37
ENDBRANCH  35  36
ENDBRANCH  34  35
ENDBRANCH  33  34
ENDBRANCH  32  33
ENDBRANCH   1  32
TORSDOF 27
