REMARK SMILES O=C(OCCOCCOCCOC(=O)c1c(F)cccc1NS(=O)(=O)C(F)(F)F)c1ccc(-c2c3nc(c(-c4c(F)c(F)c(F)c(F)c4F)c4ccc([nH]4)c(-c4c(F)c(F)c(F)c(F)c4F)c4nc(c(-c5c(F)c(F)c(F)c(F)c5F)c5ccc2[nH]5)C=C4)C=C3)cc1
REMARK SMILES IDX 8 1 7 2 6 3 5 4 4 5 3 6 2 7 1 8 30 9 31 10 92 11 32 12 91 13
REMARK SMILES IDX 33 14 34 15 35 16 85 17 36 18 90 19 84 20 86 21 37 22 89 23
REMARK SMILES IDX 83 24 82 25 38 27 70 28 50 29 69 30 51 31 54 32 68 33 87 34
REMARK SMILES IDX 52 35 53 36 67 38 88 39 55 40 39 41 40 42 48 43 41 44 42 45
REMARK SMILES IDX 46 46 49 47 43 48 44 49 47 50 45 51 71 52 72 53 80 54 73 55
REMARK SMILES IDX 74 56 78 57 81 58 75 59 76 60 79 61 77 62 56 63 57 64 65 65
REMARK SMILES IDX 58 66 59 67 63 68 66 69 60 70 61 71 64 72 62 73 9 74 10 75
REMARK SMILES IDX 11 76 12 77 13 78 14 79 15 80 16 81 21 82 17 83 18 84 20 85
REMARK SMILES IDX 19 86 22 87 23 89 24 90 25 91 26 92 27 93 28 94 29 95
REMARK H PARENT 86 26 54 37 22 88
REMARK Flexibility Score: inf
ROOT
ATOM      1  C   UNL     1       2.104  -1.065  -3.017  1.00  0.00     0.188 C 
ENDROOT
BRANCH   1   2
ATOM      2  C   UNL     1       2.677  -1.451  -1.653  1.00  0.00     0.188 C 
BRANCH   2   3
ATOM      3  O   UNL     1       3.950  -0.827  -1.442  1.00  0.00    -0.376 OA
BRANCH   3   4
ATOM      4  C   UNL     1       4.858  -1.634  -0.689  1.00  0.00     0.202 C 
BRANCH   4   5
ATOM      5  C   UNL     1       4.734  -1.460   0.830  1.00  0.00     0.261 C 
BRANCH   5   6
ATOM      6  O   UNL     1       3.375  -1.253   1.244  1.00  0.00    -0.460 OA
BRANCH   6   7
ATOM      7  C   UNL     1       2.752  -0.082   1.532  1.00  0.00     0.338 C 
ATOM      8  O   UNL     1       1.622  -0.131   2.019  1.00  0.00    -0.246 OA
BRANCH   7   9
ATOM      9  C   UNL     1       3.376   1.270   1.348  1.00  0.00     0.060 A 
ATOM     10  C   UNL     1       4.450   1.564   0.507  1.00  0.00     0.016 A 
ATOM     11  C   UNL     1       2.789   2.341   2.048  1.00  0.00     0.016 A 
ATOM     12  C   UNL     1       5.015   2.836   0.466  1.00  0.00     0.010 A 
ATOM     13  C   UNL     1       3.297   3.642   1.948  1.00  0.00     0.010 A 
ATOM     14  C   UNL     1       4.455   3.880   1.200  1.00  0.00    -0.014 A 
BRANCH  14  15
ATOM     15  C   UNL     1       5.195   5.156   1.306  1.00  0.00     0.031 A 
ATOM     16  C   UNL     1       5.881   5.473   2.600  1.00  0.00     0.074 A 
ATOM     17  C   UNL     1       5.385   5.940   0.229  1.00  0.00     0.049 A 
ATOM     18  N   UNL     1       6.596   6.518   2.926  1.00  0.00    -0.248 NA
ATOM     19  C   UNL     1       5.774   4.461   3.664  1.00  0.00     0.031 C 
ATOM     20  C   UNL     1       4.898   5.643  -1.115  1.00  0.00     0.029 A 
ATOM     21  N   UNL     1       6.076   7.116   0.084  1.00  0.00    -0.354 N 
ATOM     22  C   UNL     1       7.019   6.287   4.226  1.00  0.00     0.074 A 
ATOM     23  C   UNL     1       6.453   5.027   4.648  1.00  0.00     0.031 C 
ATOM     24  C   UNL     1       5.338   6.595  -1.953  1.00  0.00     0.029 A 
ATOM     25  C   UNL     1       6.056   7.609  -1.196  1.00  0.00     0.049 A 
ATOM     26  H   UNL     1       6.542   7.564   0.828  1.00  0.00     0.167 HD
ATOM     27  C   UNL     1       7.828   7.053   4.993  1.00  0.00     0.037 A 
ATOM     28  C   UNL     1       6.537   8.758  -1.705  1.00  0.00     0.037 A 
ATOM     29  C   UNL     1       8.386   8.304   4.564  1.00  0.00     0.049 A 
ATOM     30  C   UNL     1       7.299   9.674  -0.793  1.00  0.00     0.074 A 
ATOM     31  C   UNL     1       9.159   9.197   5.280  1.00  0.00     0.029 A 
ATOM     32  N   UNL     1       8.228   8.835   3.291  1.00  0.00    -0.354 N 
ATOM     33  N   UNL     1       7.632   9.488   0.461  1.00  0.00    -0.248 NA
ATOM     34  C   UNL     1       7.755  10.951  -1.356  1.00  0.00     0.031 C 
ATOM     35  C   UNL     1       9.438  10.289   4.452  1.00  0.00     0.029 A 
ATOM     36  C   UNL     1       8.874  10.056   3.206  1.00  0.00     0.049 A 
ATOM     37  H   UNL     1       7.730   8.408   2.557  1.00  0.00     0.167 HD
ATOM     38  C   UNL     1       8.355  10.608   0.835  1.00  0.00     0.074 A 
ATOM     39  C   UNL     1       8.417  11.471  -0.329  1.00  0.00     0.031 C 
ATOM     40  C   UNL     1       8.922  10.891   2.032  1.00  0.00     0.037 A 
BRANCH  27  41
ATOM     41  C   UNL     1       8.103   6.561   6.380  1.00  0.00     0.064 A 
ATOM     42  C   UNL     1       7.481   7.167   7.481  1.00  0.00     0.173 A 
ATOM     43  C   UNL     1       8.946   5.465   6.620  1.00  0.00     0.173 A 
ATOM     44  F   UNL     1       6.658   8.211   7.302  1.00  0.00    -0.203 F 
ATOM     45  C   UNL     1       7.690   6.690   8.772  1.00  0.00     0.198 A 
ATOM     46  C   UNL     1       9.133   4.976   7.910  1.00  0.00     0.198 A 
ATOM     47  F   UNL     1       9.538   4.832   5.595  1.00  0.00    -0.203 F 
ATOM     48  F   UNL     1       7.085   7.285   9.810  1.00  0.00    -0.200 F 
ATOM     49  C   UNL     1       8.507   5.590   8.985  1.00  0.00     0.200 A 
ATOM     50  F   UNL     1       9.894   3.891   8.110  1.00  0.00    -0.200 F 
ATOM     51  F   UNL     1       8.680   5.112  10.224  1.00  0.00    -0.200 F 
ENDBRANCH  27  41
BRANCH  28  52
ATOM     52  C   UNL     1       6.285   9.098  -3.131  1.00  0.00     0.064 A 
ATOM     53  C   UNL     1       4.986   9.377  -3.587  1.00  0.00     0.173 A 
ATOM     54  C   UNL     1       7.319   9.106  -4.075  1.00  0.00     0.173 A 
ATOM     55  F   UNL     1       3.955   9.370  -2.729  1.00  0.00    -0.203 F 
ATOM     56  C   UNL     1       4.730   9.627  -4.934  1.00  0.00     0.198 A 
ATOM     57  C   UNL     1       7.065   9.378  -5.420  1.00  0.00     0.198 A 
ATOM     58  F   UNL     1       8.579   8.859  -3.689  1.00  0.00    -0.203 F 
ATOM     59  F   UNL     1       3.473   9.843  -5.345  1.00  0.00    -0.200 F 
ATOM     60  C   UNL     1       5.770   9.630  -5.849  1.00  0.00     0.200 A 
ATOM     61  F   UNL     1       8.074   9.393  -6.301  1.00  0.00    -0.200 F 
ATOM     62  F   UNL     1       5.524   9.869  -7.145  1.00  0.00    -0.200 F 
ENDBRANCH  28  52
BRANCH  40  63
ATOM     63  C   UNL     1       9.677  12.178   2.145  1.00  0.00     0.064 A 
ATOM     64  C   UNL     1      11.077  12.170   2.220  1.00  0.00     0.173 A 
ATOM     65  C   UNL     1       9.011  13.405   2.268  1.00  0.00     0.173 A 
ATOM     66  F   UNL     1      11.754  11.017   2.110  1.00  0.00    -0.203 F 
ATOM     67  C   UNL     1      11.785  13.347   2.436  1.00  0.00     0.198 A 
ATOM     68  C   UNL     1       9.725  14.583   2.462  1.00  0.00     0.198 A 
ATOM     69  F   UNL     1       7.674  13.458   2.187  1.00  0.00    -0.203 F 
ATOM     70  F   UNL     1      13.121  13.315   2.540  1.00  0.00    -0.200 F 
ATOM     71  C   UNL     1      11.109  14.552   2.556  1.00  0.00     0.200 A 
ATOM     72  F   UNL     1       9.073  15.750   2.556  1.00  0.00    -0.200 F 
ATOM     73  F   UNL     1      11.792  15.686   2.763  1.00  0.00    -0.200 F 
ENDBRANCH  40  63
ENDBRANCH  14  15
ENDBRANCH   7   9
ENDBRANCH   6   7
ENDBRANCH   5   6
ENDBRANCH   4   5
ENDBRANCH   3   4
ENDBRANCH   2   3
ENDBRANCH   1   2
BRANCH   1  74
ATOM     74  O   UNL     1       2.816  -1.591  -4.138  1.00  0.00    -0.376 OA
BRANCH  74  75
ATOM     75  C   UNL     1       4.107  -1.050  -4.397  1.00  0.00     0.202 C 
BRANCH  75  76
ATOM     76  C   UNL     1       4.139   0.321  -5.082  1.00  0.00     0.261 C 
BRANCH  76  77
ATOM     77  O   UNL     1       3.694   1.432  -4.283  1.00  0.00    -0.460 OA
BRANCH  77  78
ATOM     78  C   UNL     1       2.470   1.923  -4.597  1.00  0.00     0.343 C 
ATOM     79  O   UNL     1       1.584   1.373  -5.234  1.00  0.00    -0.246 OA
BRANCH  78  80
ATOM     80  C   UNL     1       2.307   3.272  -4.058  1.00  0.00     0.119 A 
ATOM     81  C   UNL     1       3.156   4.257  -4.560  1.00  0.00     0.139 A 
ATOM     82  C   UNL     1       1.243   3.626  -3.213  1.00  0.00     0.066 A 
ATOM     83  F   UNL     1       4.131   3.950  -5.429  1.00  0.00    -0.206 F 
ATOM     84  C   UNL     1       2.972   5.592  -4.225  1.00  0.00     0.040 A 
ATOM     85  C   UNL     1       1.120   4.965  -2.815  1.00  0.00     0.028 A 
ATOM     86  C   UNL     1       1.977   5.944  -3.321  1.00  0.00     0.005 A 
BRANCH  82  87
ATOM     87  N   UNL     1       0.207   2.695  -2.866  1.00  0.00    -0.275 N 
ATOM     88  H   UNL     1      -0.300   2.242  -3.578  1.00  0.00     0.180 HD
BRANCH  87  89
ATOM     89  S   UNL     1      -0.151   2.369  -1.241  1.00  0.00     0.333 S 
ATOM     90  O   UNL     1      -0.873   1.107  -1.306  1.00  0.00    -0.197 OA
ATOM     91  O   UNL     1       1.108   2.434  -0.530  1.00  0.00    -0.197 OA
BRANCH  89  92
ATOM     92  C   UNL     1      -1.315   3.736  -0.693  1.00  0.00     0.516 C 
ATOM     93  F   UNL     1      -0.644   4.747  -0.064  1.00  0.00    -0.155 F 
ATOM     94  F   UNL     1      -1.962   4.310  -1.750  1.00  0.00    -0.155 F 
ATOM     95  F   UNL     1      -2.272   3.304   0.172  1.00  0.00    -0.155 F 
ENDBRANCH  89  92
ENDBRANCH  87  89
ENDBRANCH  82  87
ENDBRANCH  78  80
ENDBRANCH  77  78
ENDBRANCH  76  77
ENDBRANCH  75  76
ENDBRANCH  74  75
ENDBRANCH   1  74
TORSDOF 20
