REMARK SMILES Cc1[nH]c2c(C(=O)N3CC[C@H](O)C[C@@H]3C(=O)OCCOCCOCCOC(=O)c3ccc(-c4c5nc(c(-c6c(F)c(F)c(F)c(F)c6F)c6ccc([nH]6)c(-c6c(F)c(F)c(F)c(F)c6F)c6nc(c(-c7c(F)c(F)c(F)c(F)c7F)c7ccc4[nH]7)C=C6)C=C5)cc3)cccc2c1C
REMARK SMILES IDX 21 1 20 2 19 3 18 4 17 5 15 6 16 7 14 8 8 9 9 10 10 11 13 12
REMARK SMILES IDX 11 13 6 14 7 15 5 16 1 17 2 18 3 19 96 20 4 21 95 23 97 24
REMARK SMILES IDX 94 25 92 26 93 27 12 28 22 30 23 31 24 32 25 33 26 34 27 35
REMARK SMILES IDX 28 36 29 37 30 38 91 39 31 40 90 41 32 42 33 43 34 44 84 45
REMARK SMILES IDX 35 46 89 47 83 48 85 49 36 50 88 51 82 52 81 53 37 55 69 56
REMARK SMILES IDX 49 57 68 58 50 59 53 60 67 61 86 62 51 63 52 64 66 66 87 67
REMARK SMILES IDX 54 68 38 69 39 70 47 71 40 72 41 73 45 74 48 75 42 76 43 77
REMARK SMILES IDX 46 78 44 79 70 80 71 81 79 82 72 83 73 84 77 85 80 86 74 87
REMARK SMILES IDX 75 88 78 89 76 90 55 91 56 92 64 93 57 94 58 95 62 96 65 97
REMARK SMILES IDX 59 98 60 99 63 100 61 101
REMARK H PARENT 3 22 12 29 85 54 53 65
REMARK Flexibility Score: inf
ROOT
ATOM      1  C   UNL     1      -2.370  -5.686   3.580  1.00  0.00     0.188 C 
ENDROOT
BRANCH   1   2
ATOM      2  O   UNL     1      -3.254  -4.624   3.899  1.00  0.00    -0.376 OA
BRANCH   2   3
ATOM      3  C   UNL     1      -3.802  -3.900   2.804  1.00  0.00     0.202 C 
BRANCH   3   4
ATOM      4  C   UNL     1      -2.815  -3.159   1.892  1.00  0.00     0.261 C 
BRANCH   4   5
ATOM      5  O   UNL     1      -1.788  -3.964   1.264  1.00  0.00    -0.462 OA
BRANCH   5   6
ATOM      6  C   UNL     1      -0.511  -3.697   1.669  1.00  0.00     0.329 C 
ATOM      7  O   UNL     1      -0.232  -2.904   2.562  1.00  0.00    -0.250 OA
BRANCH   6   8
ATOM      8  C   UNL     1       0.559  -4.330   0.769  1.00  0.00     0.198 C 
ATOM      9  N   UNL     1       0.870  -3.366  -0.290  1.00  0.00    -0.325 N 
ATOM     10  C   UNL     1       0.249  -3.520  -1.603  1.00  0.00     0.123 C 
ATOM     11  C   UNL     1       0.385  -4.957  -2.090  1.00  0.00     0.053 C 
ATOM     12  C   UNL     1       0.351  -5.768   0.300  1.00  0.00     0.069 C 
ATOM     13  C   UNL     1      -0.273  -5.902  -1.087  1.00  0.00     0.118 C 
BRANCH   9  14
ATOM     14  C   UNL     1       1.911  -2.481  -0.054  1.00  0.00     0.256 C 
ATOM     15  O   UNL     1       2.985  -2.879   0.394  1.00  0.00    -0.269 OA
BRANCH  14  16
ATOM     16  C   UNL     1       1.676  -1.019  -0.209  1.00  0.00     0.064 A 
ATOM     17  C   UNL     1      -3.265  -0.276  -0.276  1.00  0.00     0.064 C 
ATOM     18  C   UNL     1      -1.819   0.055  -0.204  1.00  0.00     0.016 A 
ATOM     19  N   UNL     1      -0.865  -0.923  -0.134  1.00  0.00    -0.358 N 
ATOM     20  C   UNL     1      -1.161   1.269  -0.154  1.00  0.00    -0.023 A 
ATOM     21  C   UNL     1       0.406  -0.403  -0.197  1.00  0.00     0.059 A 
ATOM     22  H   UNL     1      -1.064  -1.884  -0.049  1.00  0.00     0.166 HD
ATOM     23  C   UNL     1       0.245   0.985  -0.178  1.00  0.00     0.003 A 
ATOM     24  C   UNL     1      -1.783   2.618  -0.095  1.00  0.00     0.047 C 
ATOM     25  C   UNL     1       1.395   1.801  -0.165  1.00  0.00     0.010 A 
ATOM     26  C   UNL     1       2.798  -0.170  -0.203  1.00  0.00     0.016 A 
ATOM     27  C   UNL     1       2.663   1.214  -0.182  1.00  0.00     0.002 A 
ENDBRANCH  14  16
ENDBRANCH   9  14
BRANCH  13  28
ATOM     28  O   UNL     1      -1.671  -5.631  -1.069  1.00  0.00    -0.393 OA
ATOM     29  H   UNL     1      -1.819  -4.712  -0.798  1.00  0.00     0.210 HD
ENDBRANCH  13  28
ENDBRANCH   6   8
ENDBRANCH   5   6
ENDBRANCH   4   5
ENDBRANCH   3   4
ENDBRANCH   2   3
ENDBRANCH   1   2
BRANCH   1  30
ATOM     30  C   UNL     1      -2.910  -6.782   2.658  1.00  0.00     0.188 C 
BRANCH  30  31
ATOM     31  O   UNL     1      -3.503  -6.344   1.440  1.00  0.00    -0.376 OA
BRANCH  31  32
ATOM     32  C   UNL     1      -3.869  -7.385   0.516  1.00  0.00     0.202 C 
BRANCH  32  33
ATOM     33  C   UNL     1      -4.649  -8.586   1.086  1.00  0.00     0.261 C 
BRANCH  33  34
ATOM     34  O   UNL     1      -3.906  -9.351   2.059  1.00  0.00    -0.460 OA
BRANCH  34  35
ATOM     35  C   UNL     1      -2.705  -9.843   1.673  1.00  0.00     0.338 C 
ATOM     36  O   UNL     1      -2.294  -9.948   0.530  1.00  0.00    -0.246 OA
BRANCH  35  37
ATOM     37  C   UNL     1      -1.845  -9.962   2.880  1.00  0.00     0.060 A 
ATOM     38  C   UNL     1      -0.490  -9.616   2.763  1.00  0.00     0.016 A 
ATOM     39  C   UNL     1      -2.371 -10.306   4.130  1.00  0.00     0.016 A 
ATOM     40  C   UNL     1       0.349  -9.666   3.879  1.00  0.00     0.010 A 
ATOM     41  C   UNL     1      -1.530 -10.364   5.244  1.00  0.00     0.010 A 
ATOM     42  C   UNL     1      -0.158 -10.086   5.115  1.00  0.00    -0.014 A 
BRANCH  42  43
ATOM     43  C   UNL     1       0.773 -10.473   6.204  1.00  0.00     0.031 A 
ATOM     44  C   UNL     1       1.127 -11.930   6.336  1.00  0.00     0.074 A 
ATOM     45  C   UNL     1       1.306  -9.575   7.051  1.00  0.00     0.049 A 
ATOM     46  N   UNL     1       1.873 -12.532   7.227  1.00  0.00    -0.248 NA
ATOM     47  C   UNL     1       0.554 -12.832   5.323  1.00  0.00     0.031 C 
ATOM     48  C   UNL     1       1.081  -8.133   7.014  1.00  0.00     0.029 A 
ATOM     49  N   UNL     1       2.149  -9.758   8.121  1.00  0.00    -0.354 N 
ATOM     50  C   UNL     1       1.851 -13.878   6.886  1.00  0.00     0.074 A 
ATOM     51  C   UNL     1       0.995 -14.012   5.728  1.00  0.00     0.031 C 
ATOM     52  C   UNL     1       1.764  -7.560   8.022  1.00  0.00     0.029 A 
ATOM     53  C   UNL     1       2.450  -8.599   8.792  1.00  0.00     0.049 A 
ATOM     54  H   UNL     1       2.503 -10.639   8.382  1.00  0.00     0.167 HD
ATOM     55  C   UNL     1       2.495 -14.911   7.476  1.00  0.00     0.037 A 
ATOM     56  C   UNL     1       3.180  -8.406   9.910  1.00  0.00     0.037 A 
ATOM     57  C   UNL     1       3.352 -14.787   8.622  1.00  0.00     0.049 A 
ATOM     58  C   UNL     1       3.824  -9.588  10.595  1.00  0.00     0.074 A 
ATOM     59  C   UNL     1       4.068 -15.776   9.273  1.00  0.00     0.029 A 
ATOM     60  N   UNL     1       3.603 -13.601   9.293  1.00  0.00    -0.354 N 
ATOM     61  N   UNL     1       3.827 -10.851  10.248  1.00  0.00    -0.248 NA
ATOM     62  C   UNL     1       4.569  -9.310  11.834  1.00  0.00     0.031 C 
ATOM     63  C   UNL     1       4.712 -15.197  10.371  1.00  0.00     0.029 A 
ATOM     64  C   UNL     1       4.440 -13.839  10.371  1.00  0.00     0.049 A 
ATOM     65  H   UNL     1       3.240 -12.721   9.042  1.00  0.00     0.167 HD
ATOM     66  C   UNL     1       4.598 -11.510  11.199  1.00  0.00     0.074 A 
ATOM     67  C   UNL     1       5.054 -10.506  12.136  1.00  0.00     0.031 C 
ATOM     68  C   UNL     1       4.902 -12.829  11.288  1.00  0.00     0.037 A 
BRANCH  55  69
ATOM     69  C   UNL     1       2.273 -16.277   6.900  1.00  0.00     0.064 A 
ATOM     70  C   UNL     1       2.825 -16.656   5.667  1.00  0.00     0.173 A 
ATOM     71  C   UNL     1       1.517 -17.226   7.604  1.00  0.00     0.173 A 
ATOM     72  F   UNL     1       3.537 -15.776   4.947  1.00  0.00    -0.203 F 
ATOM     73  C   UNL     1       2.608 -17.930   5.149  1.00  0.00     0.198 A 
ATOM     74  C   UNL     1       1.326 -18.507   7.096  1.00  0.00     0.198 A 
ATOM     75  F   UNL     1       0.966 -16.910   8.786  1.00  0.00    -0.203 F 
ATOM     76  F   UNL     1       3.104 -18.256   3.948  1.00  0.00    -0.200 F 
ATOM     77  C   UNL     1       1.866 -18.856   5.867  1.00  0.00     0.200 A 
ATOM     78  F   UNL     1       0.616 -19.404   7.794  1.00  0.00    -0.200 F 
ATOM     79  F   UNL     1       1.663 -20.084   5.370  1.00  0.00    -0.200 F 
ENDBRANCH  55  69
BRANCH  56  80
ATOM     80  C   UNL     1       3.341  -7.040  10.473  1.00  0.00     0.064 A 
ATOM     81  C   UNL     1       4.590  -6.402  10.474  1.00  0.00     0.173 A 
ATOM     82  C   UNL     1       2.265  -6.367  11.070  1.00  0.00     0.173 A 
ATOM     83  F   UNL     1       5.657  -7.020   9.947  1.00  0.00    -0.203 F 
ATOM     84  C   UNL     1       4.761  -5.153  11.069  1.00  0.00     0.198 A 
ATOM     85  C   UNL     1       2.431  -5.106  11.640  1.00  0.00     0.198 A 
ATOM     86  F   UNL     1       1.053  -6.939  11.107  1.00  0.00    -0.203 F 
ATOM     87  F   UNL     1       5.977  -4.593  11.107  1.00  0.00    -0.200 F 
ATOM     88  C   UNL     1       3.680  -4.504  11.648  1.00  0.00     0.200 A 
ATOM     89  F   UNL     1       1.384  -4.482  12.197  1.00  0.00    -0.200 F 
ATOM     90  F   UNL     1       3.847  -3.308  12.228  1.00  0.00    -0.200 F 
ENDBRANCH  56  80
BRANCH  68  91
ATOM     91  C   UNL     1       5.804 -13.264  12.406  1.00  0.00     0.064 A 
ATOM     92  C   UNL     1       5.364 -13.305  13.737  1.00  0.00     0.173 A 
ATOM     93  C   UNL     1       7.111 -13.698  12.134  1.00  0.00     0.173 A 
ATOM     94  F   UNL     1       4.128 -12.890  14.052  1.00  0.00    -0.203 F 
ATOM     95  C   UNL     1       6.207 -13.742  14.757  1.00  0.00     0.198 A 
ATOM     96  C   UNL     1       7.941 -14.163  13.151  1.00  0.00     0.198 A 
ATOM     97  F   UNL     1       7.578 -13.689  10.876  1.00  0.00    -0.203 F 
ATOM     98  F   UNL     1       5.779 -13.733  16.027  1.00  0.00    -0.200 F 
ATOM     99  C   UNL     1       7.490 -14.178  14.462  1.00  0.00     0.200 A 
ATOM    100  F   UNL     1       9.174 -14.599  12.861  1.00  0.00    -0.200 F 
ATOM    101  F   UNL     1       8.295 -14.609  15.443  1.00  0.00    -0.200 F 
ENDBRANCH  68  91
ENDBRANCH  42  43
ENDBRANCH  35  37
ENDBRANCH  34  35
ENDBRANCH  33  34
ENDBRANCH  32  33
ENDBRANCH  31  32
ENDBRANCH  30  31
ENDBRANCH   1  30
TORSDOF 20
