REMARK SMILES COC(=O)c1ccc([C@H]2CC(=O)Nc3c(C(=O)OCCOCCOCCOC(=O)c4ccc(-c5c6nc(c(-c7c(F)c(F)c(F)c(F)c7F)c7ccc([nH]7)c(-c7c(F)c(F)c(F)c(F)c7F)c7nc(c(-c8c(F)c(F)c(F)c(F)c8F)c8ccc5[nH]8)C=C7)C=C6)cc4)cn(-c4ccccc4)c32)cc1
REMARK SMILES IDX 22 1 21 2 20 3 19 4 18 5 16 6 17 7 15 8 9 9 10 10 101 11
REMARK SMILES IDX 11 12 14 13 94 14 12 15 13 16 93 17 8 19 5 20 6 21 103 22
REMARK SMILES IDX 7 23 102 24 3 25 4 26 2 27 1 28 95 29 96 30 100 31 97 32
REMARK SMILES IDX 99 33 98 34 23 35 24 36 25 37 26 38 27 39 28 40 29 41 30 42
REMARK SMILES IDX 31 43 92 44 32 45 91 46 33 47 34 48 35 49 85 50 36 51 90 52
REMARK SMILES IDX 84 53 86 54 37 55 89 56 83 57 82 58 38 60 70 61 50 62 69 63
REMARK SMILES IDX 51 64 54 65 68 66 87 67 52 68 53 69 67 71 88 72 55 73 39 74
REMARK SMILES IDX 40 75 48 76 41 77 42 78 46 79 49 80 43 81 44 82 47 83 45 84
REMARK SMILES IDX 71 85 72 86 80 87 73 88 74 89 78 90 81 91 75 92 76 93 79 94
REMARK SMILES IDX 77 95 56 96 57 97 65 98 58 99 59 100 63 101 66 102 60 103
REMARK SMILES IDX 61 104 64 105 62 106
REMARK H PARENT 13 18 86 59 54 70
REMARK Flexibility Score: inf
ROOT
ATOM      1  C   UNL     1      -3.843   3.079 -10.692  1.00  0.00     0.188 C 
ENDROOT
BRANCH   1   2
ATOM      2  O   UNL     1      -5.042   2.404 -11.030  1.00  0.00    -0.376 OA
BRANCH   2   3
ATOM      3  C   UNL     1      -6.124   2.321 -10.116  1.00  0.00     0.202 C 
BRANCH   3   4
ATOM      4  C   UNL     1      -5.952   2.057  -8.604  1.00  0.00     0.261 C 
BRANCH   4   5
ATOM      5  O   UNL     1      -4.870   2.721  -7.940  1.00  0.00    -0.460 OA
BRANCH   5   6
ATOM      6  C   UNL     1      -3.765   1.956  -7.702  1.00  0.00     0.341 C 
ATOM      7  O   UNL     1      -3.690   0.759  -7.926  1.00  0.00    -0.246 OA
BRANCH   6   8
ATOM      8  C   UNL     1      -2.613   2.755  -7.295  1.00  0.00     0.102 A 
ATOM      9  C   UNL     1      -0.716   5.494  -5.618  1.00  0.00     0.078 C 
ATOM     10  C   UNL     1      -1.887   6.465  -5.386  1.00  0.00     0.115 C 
ATOM     11  C   UNL     1      -1.190   4.303  -6.415  1.00  0.00     0.055 A 
ATOM     12  C   UNL     1      -3.244   5.810  -5.195  1.00  0.00     0.225 C 
ATOM     13  C   UNL     1      -2.517   3.939  -6.526  1.00  0.00     0.078 A 
ATOM     14  N   UNL     1      -0.443   3.344  -7.077  1.00  0.00    -0.317 N 
ATOM     15  O   UNL     1      -4.125   6.343  -4.522  1.00  0.00    -0.275 OA
ATOM     16  N   UNL     1      -3.501   4.659  -5.893  1.00  0.00    -0.324 N 
ATOM     17  C   UNL     1      -1.314   2.468  -7.687  1.00  0.00     0.109 A 
ATOM     18  H   UNL     1      -4.429   4.335  -5.942  1.00  0.00     0.170 HD
BRANCH   9  19
ATOM     19  C   UNL     1       0.480   6.297  -6.136  1.00  0.00    -0.038 A 
ATOM     20  C   UNL     1       2.804   7.701  -6.943  1.00  0.00     0.060 A 
ATOM     21  C   UNL     1       2.419   7.683  -5.599  1.00  0.00     0.016 A 
ATOM     22  C   UNL     1       1.992   7.069  -7.891  1.00  0.00     0.016 A 
ATOM     23  C   UNL     1       1.274   6.987  -5.202  1.00  0.00     0.005 A 
ATOM     24  C   UNL     1       0.822   6.404  -7.493  1.00  0.00     0.005 A 
BRANCH  20  25
ATOM     25  C   UNL     1       4.082   8.378  -7.296  1.00  0.00     0.337 C 
ATOM     26  O   UNL     1       4.889   8.762  -6.463  1.00  0.00    -0.246 OA
BRANCH  25  27
ATOM     27  O   UNL     1       4.208   8.509  -8.640  1.00  0.00    -0.465 OA
ATOM     28  C   UNL     1       5.408   9.170  -9.047  1.00  0.00     0.282 C 
ENDBRANCH  25  27
ENDBRANCH  20  25
ENDBRANCH   9  19
BRANCH  14  29
ATOM     29  C   UNL     1       0.961   3.224  -7.144  1.00  0.00     0.045 A 
ATOM     30  C   UNL     1       1.710   3.235  -5.965  1.00  0.00     0.026 A 
ATOM     31  C   UNL     1       1.587   3.151  -8.394  1.00  0.00     0.026 A 
ATOM     32  C   UNL     1       3.100   3.206  -6.039  1.00  0.00     0.002 A 
ATOM     33  C   UNL     1       2.981   3.166  -8.458  1.00  0.00     0.002 A 
ATOM     34  C   UNL     1       3.734   3.194  -7.283  1.00  0.00     0.000 A 
ENDBRANCH  14  29
ENDBRANCH   6   8
ENDBRANCH   5   6
ENDBRANCH   4   5
ENDBRANCH   3   4
ENDBRANCH   2   3
ENDBRANCH   1   2
BRANCH   1  35
ATOM     35  C   UNL     1      -3.869   4.501 -10.091  1.00  0.00     0.188 C 
BRANCH  35  36
ATOM     36  O   UNL     1      -5.102   4.922  -9.555  1.00  0.00    -0.376 OA
BRANCH  36  37
ATOM     37  C   UNL     1      -6.026   5.707 -10.290  1.00  0.00     0.202 C 
BRANCH  37  38
ATOM     38  C   UNL     1      -6.073   5.833 -11.813  1.00  0.00     0.261 C 
BRANCH  38  39
ATOM     39  O   UNL     1      -5.106   5.109 -12.541  1.00  0.00    -0.460 OA
BRANCH  39  40
ATOM     40  C   UNL     1      -4.011   5.832 -12.852  1.00  0.00     0.338 C 
ATOM     41  O   UNL     1      -3.675   6.905 -12.383  1.00  0.00    -0.246 OA
BRANCH  40  42
ATOM     42  C   UNL     1      -3.297   5.163 -13.938  1.00  0.00     0.060 A 
ATOM     43  C   UNL     1      -2.019   5.642 -14.228  1.00  0.00     0.016 A 
ATOM     44  C   UNL     1      -4.019   4.350 -14.825  1.00  0.00     0.016 A 
ATOM     45  C   UNL     1      -1.564   5.514 -15.518  1.00  0.00     0.010 A 
ATOM     46  C   UNL     1      -3.570   4.237 -16.117  1.00  0.00     0.010 A 
ATOM     47  C   UNL     1      -2.402   4.910 -16.461  1.00  0.00    -0.014 A 
BRANCH  47  48
ATOM     48  C   UNL     1      -2.027   5.039 -17.849  1.00  0.00     0.031 A 
ATOM     49  C   UNL     1      -0.933   4.143 -18.263  1.00  0.00     0.074 A 
ATOM     50  C   UNL     1      -2.678   5.873 -18.679  1.00  0.00     0.049 A 
ATOM     51  N   UNL     1       0.245   4.474 -18.671  1.00  0.00    -0.248 NA
ATOM     52  C   UNL     1      -1.134   2.699 -18.077  1.00  0.00     0.031 C 
ATOM     53  C   UNL     1      -3.935   6.590 -18.450  1.00  0.00     0.029 A 
ATOM     54  N   UNL     1      -2.384   6.171 -19.970  1.00  0.00    -0.354 N 
ATOM     55  C   UNL     1       0.888   3.277 -18.956  1.00  0.00     0.074 A 
ATOM     56  C   UNL     1       0.058   2.223 -18.432  1.00  0.00     0.031 C 
ATOM     57  C   UNL     1      -4.405   7.043 -19.634  1.00  0.00     0.029 A 
ATOM     58  C   UNL     1      -3.427   6.753 -20.671  1.00  0.00     0.049 A 
ATOM     59  H   UNL     1      -1.504   5.990 -20.374  1.00  0.00     0.167 HD
ATOM     60  C   UNL     1       1.943   3.231 -19.809  1.00  0.00     0.037 A 
ATOM     61  C   UNL     1      -3.501   6.878 -22.018  1.00  0.00     0.037 A 
ATOM     62  C   UNL     1       2.543   4.526 -19.989  1.00  0.00     0.049 A 
ATOM     63  C   UNL     1      -2.121   6.740 -22.558  1.00  0.00     0.074 A 
ATOM     64  C   UNL     1       3.152   5.432 -19.142  1.00  0.00     0.029 A 
ATOM     65  N   UNL     1       2.253   5.225 -21.135  1.00  0.00    -0.354 N 
ATOM     66  N   UNL     1      -1.177   7.623 -22.383  1.00  0.00    -0.248 NA
ATOM     67  C   UNL     1      -1.664   5.406 -22.920  1.00  0.00     0.031 C 
ATOM     68  C   UNL     1       2.765   6.715 -19.629  1.00  0.00     0.029 A 
ATOM     69  C   UNL     1       1.980   6.517 -20.764  1.00  0.00     0.049 A 
ATOM     70  H   UNL     1       2.243   4.865 -22.051  1.00  0.00     0.167 HD
ATOM     71  C   UNL     1      -0.025   6.874 -22.188  1.00  0.00     0.074 A 
ATOM     72  C   UNL     1      -0.366   5.525 -22.627  1.00  0.00     0.031 C 
ATOM     73  C   UNL     1       1.002   7.349 -21.424  1.00  0.00     0.037 A 
BRANCH  60  74
ATOM     74  C   UNL     1       2.195   2.081 -20.742  1.00  0.00     0.064 A 
ATOM     75  C   UNL     1       3.423   2.002 -21.424  1.00  0.00     0.173 A 
ATOM     76  C   UNL     1       1.175   1.224 -21.210  1.00  0.00     0.173 A 
ATOM     77  F   UNL     1       4.446   2.798 -21.079  1.00  0.00    -0.203 F 
ATOM     78  C   UNL     1       3.593   1.169 -22.531  1.00  0.00     0.198 A 
ATOM     79  C   UNL     1       1.367   0.351 -22.276  1.00  0.00     0.198 A 
ATOM     80  F   UNL     1      -0.076   1.279 -20.733  1.00  0.00    -0.203 F 
ATOM     81  F   UNL     1       4.737   1.216 -23.227  1.00  0.00    -0.200 F 
ATOM     82  C   UNL     1       2.565   0.346 -22.957  1.00  0.00     0.200 A 
ATOM     83  F   UNL     1       0.351  -0.421 -22.687  1.00  0.00    -0.200 F 
ATOM     84  F   UNL     1       2.708  -0.410 -24.053  1.00  0.00    -0.200 F 
ENDBRANCH  60  74
BRANCH  61  85
ATOM     85  C   UNL     1      -4.706   6.760 -22.874  1.00  0.00     0.064 A 
ATOM     86  C   UNL     1      -4.678   7.170 -24.217  1.00  0.00     0.173 A 
ATOM     87  C   UNL     1      -5.823   5.996 -22.478  1.00  0.00     0.173 A 
ATOM     88  F   UNL     1      -3.630   7.860 -24.689  1.00  0.00    -0.203 F 
ATOM     89  C   UNL     1      -5.691   6.814 -25.114  1.00  0.00     0.198 A 
ATOM     90  C   UNL     1      -6.839   5.653 -23.370  1.00  0.00     0.198 A 
ATOM     91  F   UNL     1      -5.907   5.482 -21.243  1.00  0.00    -0.203 F 
ATOM     92  F   UNL     1      -5.596   7.167 -26.403  1.00  0.00    -0.200 F 
ATOM     93  C   UNL     1      -6.766   6.049 -24.691  1.00  0.00     0.200 A 
ATOM     94  F   UNL     1      -7.854   4.883 -22.954  1.00  0.00    -0.200 F 
ATOM     95  F   UNL     1      -7.705   5.657 -25.563  1.00  0.00    -0.200 F 
ENDBRANCH  61  85
BRANCH  73  96
ATOM     96  C   UNL     1       0.969   8.799 -21.032  1.00  0.00     0.064 A 
ATOM     97  C   UNL     1      -0.036   9.371 -20.233  1.00  0.00     0.173 A 
ATOM     98  C   UNL     1       2.066   9.605 -21.364  1.00  0.00     0.173 A 
ATOM     99  F   UNL     1      -1.061   8.637 -19.782  1.00  0.00    -0.203 F 
ATOM    100  C   UNL     1       0.030  10.705 -19.834  1.00  0.00     0.198 A 
ATOM    101  C   UNL     1       2.149  10.925 -20.931  1.00  0.00     0.198 A 
ATOM    102  F   UNL     1       3.085   9.095 -22.074  1.00  0.00    -0.203 F 
ATOM    103  F   UNL     1      -0.950  11.232 -19.086  1.00  0.00    -0.200 F 
ATOM    104  C   UNL     1       1.126  11.479 -20.178  1.00  0.00     0.200 A 
ATOM    105  F   UNL     1       3.235  11.654 -21.222  1.00  0.00    -0.200 F 
ATOM    106  F   UNL     1       1.211  12.749 -19.759  1.00  0.00    -0.200 F 
ENDBRANCH  73  96
ENDBRANCH  47  48
ENDBRANCH  40  42
ENDBRANCH  39  40
ENDBRANCH  38  39
ENDBRANCH  37  38
ENDBRANCH  36  37
ENDBRANCH  35  36
ENDBRANCH   1  35
TORSDOF 21
