REMARK SMILES C=C1C(=O)O[C@H]2[C@@H]1[C@@H](OC(=O)[C@]1(C)O[C@@H]1C)[C@@H](OC(C)=O)/C(C(=O)OCCOCCOCCOC(=O)c1ccc(-c3c4nc(c(-c5c(F)c(F)c(F)c(F)c5F)c5ccc([nH]5)c(-c5c(F)c(F)c(F)c(F)c5F)c5nc(c(-c6c(F)c(F)c(F)c(F)c6F)c6ccc3[nH]6)C=C5)C=C4)cc1)=C/[C@@H]1O[C@@H]1[C@]1(C)O[C@H]21
REMARK SMILES IDX 28 1 27 2 26 3 25 4 23 5 24 6 22 7 100 8 17 9 8 10 7 11 1 12
REMARK SMILES IDX 2 13 3 14 5 15 4 16 6 17 107 18 104 19 106 20 105 21 9 23
REMARK SMILES IDX 10 24 11 25 12 26 14 27 15 28 13 29 16 30 18 31 19 32 20 33
REMARK SMILES IDX 21 34 101 35 102 36 103 37 29 39 30 40 31 41 32 42 33 43
REMARK SMILES IDX 34 44 35 45 36 46 37 47 38 48 99 49 39 50 98 51 40 52 41 53
REMARK SMILES IDX 42 54 92 55 43 56 97 57 91 58 93 59 44 60 96 61 90 62 89 63
REMARK SMILES IDX 45 65 77 66 57 67 76 68 58 69 61 70 75 71 94 72 59 73 60 74
REMARK SMILES IDX 74 76 95 77 62 78 46 79 47 80 55 81 48 82 49 83 53 84 56 85
REMARK SMILES IDX 50 86 51 87 54 88 52 89 78 90 79 91 87 92 80 93 81 94 85 95
REMARK SMILES IDX 88 96 82 97 83 98 86 99 84 100 63 101 64 102 72 103 65 104
REMARK SMILES IDX 66 105 70 106 73 107 67 108 68 109 71 110 69 111
REMARK H PARENT 93 64 61 75
REMARK Flexibility Score: 90.00
ROOT
ATOM      1  O   UNL     1      -0.070  -0.259   3.563  1.00  0.00    -0.376 OA
ENDROOT
BRANCH   1   2
ATOM      2  C   UNL     1       0.166  -0.687   2.231  1.00  0.00     0.202 C 
BRANCH   2   3
ATOM      3  C   UNL     1      -0.235  -2.108   1.732  1.00  0.00     0.261 C 
BRANCH   3   4
ATOM      4  O   UNL     1      -1.542  -2.766   1.853  1.00  0.00    -0.460 OA
BRANCH   4   5
ATOM      5  C   UNL     1      -1.716  -3.478   3.002  1.00  0.00     0.337 C 
ATOM      6  O   UNL     1      -1.002  -3.195   3.955  1.00  0.00    -0.246 OA
BRANCH   5   7
ATOM      7  C   UNL     1      -2.932  -4.508   3.157  1.00  0.00     0.080 C 
ATOM      8  C   UNL     1      -2.862  -5.765   2.701  1.00  0.00     0.022 C 
BRANCH   7   9
ATOM      9  C   UNL     1      -4.074  -4.274   4.252  1.00  0.00     0.255 C 
BRANCH   9  10
ATOM     10  C   UNL     1      -3.578  -3.053   4.885  1.00  0.00     0.234 C 
BRANCH  10  11
ATOM     11  C   UNL     1      -2.427  -3.772   5.917  1.00  0.00     0.115 C 
ATOM     12  C   UNL     1      -1.024  -2.024   7.237  1.00  0.00     0.021 C 
ATOM     13  C   UNL     1      -1.568  -3.215   6.996  1.00  0.00     0.041 C 
ATOM     14  C   UNL     1      -1.238  -4.388   7.880  1.00  0.00     0.334 C 
ATOM     15  O   UNL     1      -1.385  -5.521   7.123  1.00  0.00    -0.455 OA
ATOM     16  O   UNL     1      -0.983  -4.348   9.058  1.00  0.00    -0.247 OA
ATOM     17  C   UNL     1      -1.623  -5.171   5.728  1.00  0.00     0.220 C 
BRANCH  17  18
ATOM     18  C   UNL     1      -0.246  -5.203   5.065  1.00  0.00     0.195 C 
ATOM     19  C   UNL     1       0.154  -5.713   3.619  1.00  0.00     0.125 CG0
ATOM     20  O   UNL     1       0.320  -6.487   4.820  1.00  0.00    -0.359 OA
ATOM     21  C   UNL     1       1.420  -5.015   3.135  1.00  0.00     0.048 C 
ATOM     22  G   UNL     1      -0.383  -6.535   2.429  1.00  0.00     0.000 G0
ENDBRANCH  17  18
ENDBRANCH  10  11
BRANCH  10  23
ATOM     23  O   UNL     1      -3.640  -2.118   3.611  1.00  0.00    -0.455 OA
BRANCH  23  24
ATOM     24  C   UNL     1      -4.391  -2.076   2.340  1.00  0.00     0.341 C 
ATOM     25  O   UNL     1      -4.774  -0.973   1.957  1.00  0.00    -0.249 OA
BRANCH  24  26
ATOM     26  C   UNL     1      -4.713  -3.286   1.331  1.00  0.00     0.188 C 
ATOM     27  O   UNL     1      -3.617  -3.989   0.730  1.00  0.00    -0.354 OA
ATOM     28  C   UNL     1      -4.302  -3.180  -0.199  1.00  0.00     0.160 C 
ATOM     29  C   UNL     1      -5.963  -4.152   1.414  1.00  0.00     0.058 C 
ATOM     30  C   UNL     1      -3.345  -2.329  -0.933  1.00  0.00     0.042 C 
ENDBRANCH  24  26
ENDBRANCH  23  24
ENDBRANCH  10  23
ENDBRANCH   9  10
BRANCH   9  31
ATOM     31  O   UNL     1      -5.484  -4.224   3.932  1.00  0.00    -0.453 OA
BRANCH  31  32
ATOM     32  C   UNL     1      -6.385  -3.397   4.555  1.00  0.00     0.303 C 
ATOM     33  C   UNL     1      -7.680  -4.111   4.764  1.00  0.00     0.139 C 
ATOM     34  O   UNL     1      -6.195  -2.250   4.929  1.00  0.00    -0.253 OA
ENDBRANCH  31  32
ENDBRANCH   9  31
ENDBRANCH   7   9
BRANCH   8  35
ATOM     35  C   UNL     1      -1.816  -6.456   1.987  1.00  0.00     0.174 C 
ATOM     36  O   UNL     1      -1.280  -7.620   2.646  1.00  0.00    -0.362 OA
ATOM     37  C   UNL     1      -0.383  -6.535   2.429  1.00  0.00     0.186 CG0
ATOM     38  G   UNL     1       0.154  -5.713   3.619  1.00  0.00     0.000 G0
ENDBRANCH   8  35
ENDBRANCH   5   7
ENDBRANCH   4   5
ENDBRANCH   3   4
ENDBRANCH   2   3
ENDBRANCH   1   2
BRANCH   1  39
ATOM     39  C   UNL     1      -1.423  -0.065   3.913  1.00  0.00     0.188 C 
BRANCH  39  40
ATOM     40  C   UNL     1      -2.261   0.878   3.061  1.00  0.00     0.188 C 
BRANCH  40  41
ATOM     41  O   UNL     1      -2.034   0.856   1.662  1.00  0.00    -0.376 OA
BRANCH  41  42
ATOM     42  C   UNL     1      -2.832   1.775   0.908  1.00  0.00     0.202 C 
BRANCH  42  43
ATOM     43  C   UNL     1      -2.779   3.245   1.380  1.00  0.00     0.261 C 
BRANCH  43  44
ATOM     44  O   UNL     1      -3.299   3.492   2.712  1.00  0.00    -0.460 OA
BRANCH  44  45
ATOM     45  C   UNL     1      -4.543   3.038   3.002  1.00  0.00     0.338 C 
ATOM     46  O   UNL     1      -5.397   2.718   2.196  1.00  0.00    -0.246 OA
BRANCH  45  47
ATOM     47  C   UNL     1      -4.630   2.770   4.471  1.00  0.00     0.060 A 
ATOM     48  C   UNL     1      -5.213   1.568   4.902  1.00  0.00     0.016 A 
ATOM     49  C   UNL     1      -4.100   3.649   5.420  1.00  0.00     0.016 A 
ATOM     50  C   UNL     1      -5.301   1.262   6.269  1.00  0.00     0.010 A 
ATOM     51  C   UNL     1      -4.208   3.351   6.790  1.00  0.00     0.010 A 
ATOM     52  C   UNL     1      -4.835   2.169   7.230  1.00  0.00    -0.014 A 
BRANCH  52  53
ATOM     53  C   UNL     1      -5.136   1.975   8.681  1.00  0.00     0.031 A 
ATOM     54  C   UNL     1      -6.284   2.739   9.292  1.00  0.00     0.074 A 
ATOM     55  C   UNL     1      -4.423   1.145   9.467  1.00  0.00     0.049 A 
ATOM     56  N   UNL     1      -6.674   2.809  10.542  1.00  0.00    -0.248 NA
ATOM     57  C   UNL     1      -7.102   3.530   8.362  1.00  0.00     0.031 C 
ATOM     58  C   UNL     1      -3.324   0.296   9.022  1.00  0.00     0.029 A 
ATOM     59  N   UNL     1      -4.515   0.894  10.819  1.00  0.00    -0.354 N 
ATOM     60  C   UNL     1      -7.773   3.658  10.549  1.00  0.00     0.074 A 
ATOM     61  C   UNL     1      -7.972   4.099   9.184  1.00  0.00     0.031 C 
ATOM     62  C   UNL     1      -2.832  -0.372  10.081  1.00  0.00     0.029 A 
ATOM     63  C   UNL     1      -3.549   0.036  11.289  1.00  0.00     0.049 A 
ATOM     64  H   UNL     1      -5.207   1.292  11.394  1.00  0.00     0.167 HD
ATOM     65  C   UNL     1      -8.552   4.036  11.593  1.00  0.00     0.037 A 
ATOM     66  C   UNL     1      -3.252  -0.353  12.548  1.00  0.00     0.037 A 
ATOM     67  C   UNL     1      -8.366   3.608  12.956  1.00  0.00     0.049 A 
ATOM     68  C   UNL     1      -4.067   0.165  13.711  1.00  0.00     0.074 A 
ATOM     69  C   UNL     1      -9.123   3.928  14.070  1.00  0.00     0.029 A 
ATOM     70  N   UNL     1      -7.344   2.781  13.396  1.00  0.00    -0.354 N 
ATOM     71  N   UNL     1      -5.116   0.952  13.707  1.00  0.00    -0.248 NA
ATOM     72  C   UNL     1      -3.652  -0.259  15.059  1.00  0.00     0.031 C 
ATOM     73  C   UNL     1      -8.523   3.350  15.193  1.00  0.00     0.029 A 
ATOM     74  C   UNL     1      -7.431   2.611  14.771  1.00  0.00     0.049 A 
ATOM     75  H   UNL     1      -6.658   2.374  12.819  1.00  0.00     0.167 HD
ATOM     76  C   UNL     1      -5.500   1.091  15.037  1.00  0.00     0.074 A 
ATOM     77  C   UNL     1      -4.584   0.294  15.822  1.00  0.00     0.031 C 
ATOM     78  C   UNL     1      -6.523   1.814  15.557  1.00  0.00     0.037 A 
BRANCH  65  79
ATOM     79  C   UNL     1      -9.671   4.998  11.309  1.00  0.00     0.064 A 
ATOM     80  C   UNL     1     -10.810   4.615  10.585  1.00  0.00     0.173 A 
ATOM     81  C   UNL     1      -9.620   6.309  11.807  1.00  0.00     0.173 A 
ATOM     82  F   UNL     1     -10.906   3.377  10.079  1.00  0.00    -0.203 F 
ATOM     83  C   UNL     1     -11.842   5.519  10.344  1.00  0.00     0.198 A 
ATOM     84  C   UNL     1     -10.669   7.199  11.594  1.00  0.00     0.198 A 
ATOM     85  F   UNL     1      -8.559   6.723  12.515  1.00  0.00    -0.203 F 
ATOM     86  F   UNL     1     -12.898   5.147   9.607  1.00  0.00    -0.200 F 
ATOM     87  C   UNL     1     -11.775   6.807  10.855  1.00  0.00     0.200 A 
ATOM     88  F   UNL     1     -10.610   8.437  12.105  1.00  0.00    -0.200 F 
ATOM     89  F   UNL     1     -12.773   7.672  10.631  1.00  0.00    -0.200 F 
ENDBRANCH  65  79
BRANCH  66  90
ATOM     90  C   UNL     1      -2.098  -1.263  12.797  1.00  0.00     0.064 A 
ATOM     91  C   UNL     1      -2.285  -2.554  13.313  1.00  0.00     0.173 A 
ATOM     92  C   UNL     1      -0.778  -0.839  12.577  1.00  0.00     0.173 A 
ATOM     93  F   UNL     1      -3.524  -2.990  13.588  1.00  0.00    -0.203 F 
ATOM     94  C   UNL     1      -1.200  -3.375  13.619  1.00  0.00     0.198 A 
ATOM     95  C   UNL     1       0.305  -1.673  12.851  1.00  0.00     0.198 A 
ATOM     96  F   UNL     1      -0.538   0.394  12.107  1.00  0.00    -0.203 F 
ATOM     97  F   UNL     1      -1.408  -4.572  14.185  1.00  0.00    -0.200 F 
ATOM     98  C   UNL     1       0.094  -2.937  13.381  1.00  0.00     0.200 A 
ATOM     99  F   UNL     1       1.553  -1.241  12.624  1.00  0.00    -0.200 F 
ATOM    100  F   UNL     1       1.137  -3.718  13.692  1.00  0.00    -0.200 F 
ENDBRANCH  66  90
BRANCH  78 101
ATOM    101  C   UNL     1      -6.742   1.756  17.045  1.00  0.00     0.064 A 
ATOM    102  C   UNL     1      -5.850   2.352  17.950  1.00  0.00     0.173 A 
ATOM    103  C   UNL     1      -7.886   1.136  17.573  1.00  0.00     0.173 A 
ATOM    104  F   UNL     1      -4.735   2.949  17.504  1.00  0.00    -0.203 F 
ATOM    105  C   UNL     1      -6.080   2.304  19.324  1.00  0.00     0.198 A 
ATOM    106  C   UNL     1      -8.130   1.119  18.945  1.00  0.00     0.198 A 
ATOM    107  F   UNL     1      -8.780   0.558  16.757  1.00  0.00    -0.203 F 
ATOM    108  F   UNL     1      -5.188   2.837  20.170  1.00  0.00    -0.200 F 
ATOM    109  C   UNL     1      -7.223   1.696  19.820  1.00  0.00     0.200 A 
ATOM    110  F   UNL     1      -9.246   0.547  19.419  1.00  0.00    -0.200 F 
ATOM    111  F   UNL     1      -7.448   1.660  21.140  1.00  0.00    -0.200 F 
ENDBRANCH  78 101
ENDBRANCH  52  53
ENDBRANCH  45  47
ENDBRANCH  44  45
ENDBRANCH  43  44
ENDBRANCH  42  43
ENDBRANCH  41  42
ENDBRANCH  40  41
ENDBRANCH  39  40
ENDBRANCH   1  39
TORSDOF 22
