REMARK SMILES O=C(OCCOCCOCCOC(=O)c1ccc2c(=O)n(CCC[NH+]3CCOCC3)c(=O)[nH]c2c1)c1ccc(-c2c3nc(c(-c4c(F)c(F)c(F)c(F)c4F)c4ccc([nH]4)c(-c4c(F)c(F)c(F)c(F)c4F)c4nc(c(-c5c(F)c(F)c(F)c(F)c5F)c5ccc2[nH]5)C=C4)C=C3)cc1
REMARK SMILES IDX 8 1 7 2 6 3 5 4 4 5 3 6 2 7 1 8 36 9 37 10 98 11 38 12 97 13
REMARK SMILES IDX 39 14 40 15 41 16 91 17 42 18 96 19 90 20 92 21 43 22 95 23
REMARK SMILES IDX 89 24 88 25 44 27 76 28 56 29 75 30 57 31 60 32 74 33 93 34
REMARK SMILES IDX 58 35 59 36 73 38 94 39 61 40 45 41 46 42 54 43 47 44 48 45
REMARK SMILES IDX 52 46 55 47 49 48 50 49 53 50 51 51 77 52 78 53 86 54 79 55
REMARK SMILES IDX 80 56 84 57 87 58 81 59 82 60 85 61 83 62 62 63 63 64 71 65
REMARK SMILES IDX 64 66 65 67 69 68 72 69 66 70 67 71 70 72 68 73 9 74 10 75
REMARK SMILES IDX 11 76 12 77 13 78 14 79 15 80 16 81 35 82 17 83 34 84 18 85
REMARK SMILES IDX 33 86 19 87 31 88 20 90 21 91 32 92 22 93 23 94 24 95 25 96
REMARK SMILES IDX 26 97 30 98 27 100 29 101 28 102
REMARK H PARENT 92 26 60 37 33 89 25 99
REMARK Flexibility Score: inf
ROOT
ATOM      1  C   UNL     1       1.933  -1.328  -2.668  1.00  0.00     0.188 C 
ENDROOT
BRANCH   1   2
ATOM      2  C   UNL     1       2.476  -1.431  -1.240  1.00  0.00     0.188 C 
BRANCH   2   3
ATOM      3  O   UNL     1       3.717  -0.717  -1.095  1.00  0.00    -0.376 OA
BRANCH   3   4
ATOM      4  C   UNL     1       4.674  -1.425  -0.301  1.00  0.00     0.202 C 
BRANCH   4   5
ATOM      5  C   UNL     1       4.545  -1.205   1.210  1.00  0.00     0.261 C 
BRANCH   5   6
ATOM      6  O   UNL     1       3.217  -0.866   1.631  1.00  0.00    -0.460 OA
BRANCH   6   7
ATOM      7  C   UNL     1       2.591   0.335   1.640  1.00  0.00     0.338 C 
ATOM      8  O   UNL     1       1.440   0.367   2.077  1.00  0.00    -0.246 OA
BRANCH   7   9
ATOM      9  C   UNL     1       3.168   1.631   1.139  1.00  0.00     0.060 A 
ATOM     10  C   UNL     1       2.345   2.771   1.261  1.00  0.00     0.016 A 
ATOM     11  C   UNL     1       4.429   1.816   0.570  1.00  0.00     0.016 A 
ATOM     12  C   UNL     1       2.772   4.038   0.845  1.00  0.00     0.010 A 
ATOM     13  C   UNL     1       4.873   3.079   0.177  1.00  0.00     0.010 A 
ATOM     14  C   UNL     1       4.050   4.197   0.308  1.00  0.00    -0.014 A 
BRANCH  14  15
ATOM     15  C   UNL     1       4.616   5.527   0.008  1.00  0.00     0.031 A 
ATOM     16  C   UNL     1       4.867   5.966  -1.402  1.00  0.00     0.074 A 
ATOM     17  C   UNL     1       5.092   6.245   1.041  1.00  0.00     0.049 A 
ATOM     18  N   UNL     1       5.284   7.124  -1.844  1.00  0.00    -0.248 NA
ATOM     19  C   UNL     1       4.666   4.961  -2.455  1.00  0.00     0.031 C 
ATOM     20  C   UNL     1       5.068   5.814   2.440  1.00  0.00     0.029 A 
ATOM     21  N   UNL     1       5.745   7.447   1.071  1.00  0.00    -0.354 N 
ATOM     22  C   UNL     1       5.358   7.001  -3.225  1.00  0.00     0.074 A 
ATOM     23  C   UNL     1       5.034   5.627  -3.541  1.00  0.00     0.031 C 
ATOM     24  C   UNL     1       5.715   6.720   3.188  1.00  0.00     0.029 A 
ATOM     25  C   UNL     1       6.177   7.800   2.324  1.00  0.00     0.049 A 
ATOM     26  H   UNL     1       5.891   8.004   0.272  1.00  0.00     0.167 HD
ATOM     27  C   UNL     1       5.629   7.973  -4.131  1.00  0.00     0.037 A 
ATOM     28  C   UNL     1       6.866   8.882   2.729  1.00  0.00     0.037 A 
ATOM     29  C   UNL     1       5.964   9.322  -3.739  1.00  0.00     0.049 A 
ATOM     30  C   UNL     1       7.179   9.947   1.722  1.00  0.00     0.074 A 
ATOM     31  C   UNL     1       5.991  10.477  -4.499  1.00  0.00     0.029 A 
ATOM     32  N   UNL     1       6.386   9.678  -2.462  1.00  0.00    -0.354 N 
ATOM     33  N   UNL     1       6.925   9.959   0.435  1.00  0.00    -0.248 NA
ATOM     34  C   UNL     1       7.840  11.159   2.219  1.00  0.00     0.031 C 
ATOM     35  C   UNL     1       6.497  11.513  -3.701  1.00  0.00     0.029 A 
ATOM     36  C   UNL     1       6.753  11.013  -2.434  1.00  0.00     0.049 A 
ATOM     37  H   UNL     1       6.419   9.068  -1.690  1.00  0.00     0.167 HD
ATOM     38  C   UNL     1       7.369  11.186  -0.031  1.00  0.00     0.074 A 
ATOM     39  C   UNL     1       7.907  11.894   1.116  1.00  0.00     0.031 C 
ATOM     40  C   UNL     1       7.321  11.686  -1.291  1.00  0.00     0.037 A 
BRANCH  27  41
ATOM     41  C   UNL     1       5.501   7.651  -5.601  1.00  0.00     0.064 A 
ATOM     42  C   UNL     1       4.286   7.203  -6.145  1.00  0.00     0.173 A 
ATOM     43  C   UNL     1       6.549   7.886  -6.503  1.00  0.00     0.173 A 
ATOM     44  F   UNL     1       3.240   6.969  -5.343  1.00  0.00    -0.203 F 
ATOM     45  C   UNL     1       4.121   6.996  -7.511  1.00  0.00     0.198 A 
ATOM     46  C   UNL     1       6.377   7.704  -7.877  1.00  0.00     0.198 A 
ATOM     47  F   UNL     1       7.741   8.311  -6.060  1.00  0.00    -0.203 F 
ATOM     48  F   UNL     1       2.944   6.561  -7.981  1.00  0.00    -0.200 F 
ATOM     49  C   UNL     1       5.164   7.259  -8.380  1.00  0.00     0.200 A 
ATOM     50  F   UNL     1       7.386   7.969  -8.719  1.00  0.00    -0.200 F 
ATOM     51  F   UNL     1       4.997   7.088  -9.698  1.00  0.00    -0.200 F 
ENDBRANCH  27  41
BRANCH  28  52
ATOM     52  C   UNL     1       7.220   9.013   4.162  1.00  0.00     0.064 A 
ATOM     53  C   UNL     1       6.503   9.876   5.000  1.00  0.00     0.173 A 
ATOM     54  C   UNL     1       8.210   8.207   4.743  1.00  0.00     0.173 A 
ATOM     55  F   UNL     1       5.552  10.669   4.486  1.00  0.00    -0.203 F 
ATOM     56  C   UNL     1       6.761   9.927   6.368  1.00  0.00     0.198 A 
ATOM     57  C   UNL     1       8.455   8.245   6.114  1.00  0.00     0.198 A 
ATOM     58  F   UNL     1       8.912   7.353   3.983  1.00  0.00    -0.203 F 
ATOM     59  F   UNL     1       6.065  10.766   7.147  1.00  0.00    -0.200 F 
ATOM     60  C   UNL     1       7.729   9.104   6.926  1.00  0.00     0.200 A 
ATOM     61  F   UNL     1       9.378   7.436   6.652  1.00  0.00    -0.200 F 
ATOM     62  F   UNL     1       7.958   9.136   8.245  1.00  0.00    -0.200 F 
ENDBRANCH  28  52
BRANCH  40  63
ATOM     63  C   UNL     1       7.891  13.057  -1.494  1.00  0.00     0.064 A 
ATOM     64  C   UNL     1       9.276  13.273  -1.487  1.00  0.00     0.173 A 
ATOM     65  C   UNL     1       7.052  14.157  -1.720  1.00  0.00     0.173 A 
ATOM     66  F   UNL     1      10.116  12.254  -1.250  1.00  0.00    -0.203 F 
ATOM     67  C   UNL     1       9.801  14.546  -1.683  1.00  0.00     0.198 A 
ATOM     68  C   UNL     1       7.581  15.425  -1.942  1.00  0.00     0.198 A 
ATOM     69  F   UNL     1       5.720  14.001  -1.735  1.00  0.00    -0.203 F 
ATOM     70  F   UNL     1      11.127  14.738  -1.628  1.00  0.00    -0.200 F 
ATOM     71  C   UNL     1       8.954  15.620  -1.917  1.00  0.00     0.200 A 
ATOM     72  F   UNL     1       6.763  16.460  -2.177  1.00  0.00    -0.200 F 
ATOM     73  F   UNL     1       9.462  16.845  -2.110  1.00  0.00    -0.200 F 
ENDBRANCH  40  63
ENDBRANCH  14  15
ENDBRANCH   7   9
ENDBRANCH   6   7
ENDBRANCH   5   6
ENDBRANCH   4   5
ENDBRANCH   3   4
ENDBRANCH   2   3
ENDBRANCH   1   2
BRANCH   1  74
ATOM     74  O   UNL     1       2.636  -2.069  -3.665  1.00  0.00    -0.376 OA
BRANCH  74  75
ATOM     75  C   UNL     1       4.027  -1.819  -3.814  1.00  0.00     0.202 C 
BRANCH  75  76
ATOM     76  C   UNL     1       4.450  -0.500  -4.473  1.00  0.00     0.261 C 
BRANCH  76  77
ATOM     77  O   UNL     1       3.724   0.668  -4.052  1.00  0.00    -0.460 OA
BRANCH  77  78
ATOM     78  C   UNL     1       2.799   1.072  -4.953  1.00  0.00     0.338 C 
ATOM     79  O   UNL     1       2.500   0.505  -5.998  1.00  0.00    -0.246 OA
BRANCH  78  80
ATOM     80  C   UNL     1       2.244   2.400  -4.626  1.00  0.00     0.062 A 
ATOM     81  C   UNL     1       2.121   3.280  -5.711  1.00  0.00     0.016 A 
ATOM     82  C   UNL     1       1.772   2.765  -3.354  1.00  0.00     0.042 A 
ATOM     83  C   UNL     1       1.483   4.500  -5.548  1.00  0.00     0.017 A 
ATOM     84  C   UNL     1       1.148   4.011  -3.198  1.00  0.00     0.056 A 
ATOM     85  C   UNL     1       0.982   4.849  -4.295  1.00  0.00     0.064 A 
ATOM     86  N   UNL     1       0.682   4.443  -1.957  1.00  0.00    -0.307 N 
ATOM     87  C   UNL     1       0.240   6.104  -4.125  1.00  0.00     0.264 A 
ATOM     88  C   UNL     1       0.170   5.698  -1.723  1.00  0.00     0.328 A 
ATOM     89  H   UNL     1       0.722   3.812  -1.202  1.00  0.00     0.171 HD
ATOM     90  O   UNL     1      -0.171   6.673  -5.131  1.00  0.00    -0.268 OA
ATOM     91  N   UNL     1       0.033   6.534  -2.822  1.00  0.00    -0.260 N 
ATOM     92  O   UNL     1      -0.140   6.004  -0.572  1.00  0.00    -0.248 OA
BRANCH  91  93
ATOM     93  C   UNL     1      -0.485   7.894  -2.635  1.00  0.00     0.137 C 
BRANCH  93  94
ATOM     94  C   UNL     1       0.626   8.946  -2.453  1.00  0.00     0.083 C 
BRANCH  94  95
ATOM     95  C   UNL     1       1.476   9.225  -3.706  1.00  0.00     0.264 C 
BRANCH  95  96
ATOM     96  N   UNL     1       0.687   9.807  -4.801  1.00  0.00    -0.331 N 
ATOM     97  C   UNL     1       1.201   9.426  -6.135  1.00  0.00     0.291 C 
ATOM     98  C   UNL     1       0.616  11.283  -4.745  1.00  0.00     0.291 C 
ATOM     99  H   UNL     1      -0.248   9.422  -4.667  1.00  0.00     0.348 HD
ATOM    100  C   UNL     1       2.487  10.161  -6.535  1.00  0.00     0.221 C 
ATOM    101  C   UNL     1       1.901  12.003  -5.205  1.00  0.00     0.221 C 
ATOM    102  O   UNL     1       2.309  11.579  -6.512  1.00  0.00    -0.370 OA
ENDBRANCH  95  96
ENDBRANCH  94  95
ENDBRANCH  93  94
ENDBRANCH  91  93
ENDBRANCH  78  80
ENDBRANCH  77  78
ENDBRANCH  76  77
ENDBRANCH  75  76
ENDBRANCH  74  75
ENDBRANCH   1  74
TORSDOF 21
