REMARK SMILES O=C(OCCOCCOCCOC(=O)[C@@H]1C=C[C@@H](NC(=O)c2c[nH]c(=O)[nH]2)C1)c1ccc(-c2c3nc(c(-c4c(F)c(F)c(F)c(F)c4F)c4ccc([nH]4)c(-c4c(F)c(F)c(F)c(F)c4F)c4nc(c(-c5c(F)c(F)c(F)c(F)c5F)c5ccc2[nH]5)C=C4)C=C3)cc1
REMARK SMILES IDX 7 1 6 2 5 3 4 4 3 5 2 6 1 7 29 8 30 9 91 10 31 11 90 12
REMARK SMILES IDX 32 13 33 14 34 15 84 16 35 17 89 18 83 19 85 20 36 21 88 22
REMARK SMILES IDX 82 23 81 24 37 26 69 27 49 28 68 29 50 30 53 31 67 32 86 33
REMARK SMILES IDX 51 34 52 35 66 37 87 38 54 39 38 40 39 41 47 42 40 43 41 44
REMARK SMILES IDX 45 45 48 46 42 47 43 48 46 49 44 50 70 51 71 52 79 53 72 54
REMARK SMILES IDX 73 55 77 56 80 57 74 58 75 59 78 60 76 61 55 62 56 63 64 64
REMARK SMILES IDX 57 65 58 66 62 67 65 68 59 69 60 70 63 71 61 72 8 73 9 74
REMARK SMILES IDX 10 75 11 76 12 77 13 78 14 79 15 80 16 81 28 82 17 83 18 84
REMARK SMILES IDX 19 85 20 86 21 88 22 89 23 90 27 91 24 92 25 93 26 96
REMARK H PARENT 85 25 53 36 19 87 27 94 24 95
REMARK Flexibility Score: inf
ROOT
ATOM      1  C   UNL     1      -1.544   5.244   3.034  1.00  0.00     0.188 C 
ENDROOT
BRANCH   1   2
ATOM      2  O   UNL     1      -1.177   3.948   3.517  1.00  0.00    -0.376 OA
BRANCH   2   3
ATOM      3  C   UNL     1      -2.052   3.433   4.530  1.00  0.00     0.202 C 
BRANCH   3   4
ATOM      4  C   UNL     1      -1.867   4.043   5.927  1.00  0.00     0.261 C 
BRANCH   4   5
ATOM      5  O   UNL     1      -1.328   5.368   5.891  1.00  0.00    -0.460 OA
BRANCH   5   6
ATOM      6  C   UNL     1      -0.019   5.706   5.859  1.00  0.00     0.338 C 
ATOM      7  O   UNL     1       0.284   6.889   5.739  1.00  0.00    -0.246 OA
BRANCH   6   8
ATOM      8  C   UNL     1       1.092   4.728   6.008  1.00  0.00     0.060 A 
ATOM      9  C   UNL     1       1.128   3.453   5.449  1.00  0.00     0.016 A 
ATOM     10  C   UNL     1       2.235   5.183   6.675  1.00  0.00     0.016 A 
ATOM     11  C   UNL     1       2.216   2.611   5.641  1.00  0.00     0.010 A 
ATOM     12  C   UNL     1       3.385   4.398   6.746  1.00  0.00     0.010 A 
ATOM     13  C   UNL     1       3.362   3.077   6.280  1.00  0.00    -0.014 A 
BRANCH  13  14
ATOM     14  C   UNL     1       4.467   2.139   6.586  1.00  0.00     0.031 A 
ATOM     15  C   UNL     1       4.808   1.905   8.028  1.00  0.00     0.074 A 
ATOM     16  C   UNL     1       5.104   1.475   5.603  1.00  0.00     0.049 A 
ATOM     17  N   UNL     1       5.780   1.209   8.549  1.00  0.00    -0.248 NA
ATOM     18  C   UNL     1       3.943   2.564   9.023  1.00  0.00     0.031 C 
ATOM     19  C   UNL     1       4.784   1.577   4.182  1.00  0.00     0.029 A 
ATOM     20  N   UNL     1       6.135   0.573   5.632  1.00  0.00    -0.354 N 
ATOM     21  C   UNL     1       5.661   1.380   9.921  1.00  0.00     0.074 A 
ATOM     22  C   UNL     1       4.582   2.310  10.151  1.00  0.00     0.031 C 
ATOM     23  C   UNL     1       5.591   0.778   3.471  1.00  0.00     0.029 A 
ATOM     24  C   UNL     1       6.508   0.121   4.387  1.00  0.00     0.049 A 
ATOM     25  H   UNL     1       6.567   0.277   6.465  1.00  0.00     0.167 HD
ATOM     26  C   UNL     1       6.361   0.770  10.904  1.00  0.00     0.037 A 
ATOM     27  C   UNL     1       7.483  -0.736   4.032  1.00  0.00     0.037 A 
ATOM     28  C   UNL     1       7.387  -0.199  10.642  1.00  0.00     0.049 A 
ATOM     29  C   UNL     1       8.281  -1.363   5.139  1.00  0.00     0.074 A 
ATOM     30  C   UNL     1       8.174  -0.895  11.537  1.00  0.00     0.029 A 
ATOM     31  N   UNL     1       7.754  -0.617   9.366  1.00  0.00    -0.354 N 
ATOM     32  N   UNL     1       8.166  -1.189   6.436  1.00  0.00    -0.248 NA
ATOM     33  C   UNL     1       9.325  -2.314   4.746  1.00  0.00     0.031 C 
ATOM     34  C   UNL     1       9.043  -1.708  10.801  1.00  0.00     0.029 A 
ATOM     35  C   UNL     1       8.765  -1.557   9.450  1.00  0.00     0.049 A 
ATOM     36  H   UNL     1       7.353  -0.292   8.528  1.00  0.00     0.167 HD
ATOM     37  C   UNL     1       9.094  -2.036   7.018  1.00  0.00     0.074 A 
ATOM     38  C   UNL     1       9.756  -2.731   5.928  1.00  0.00     0.031 C 
ATOM     39  C   UNL     1       9.378  -2.228   8.330  1.00  0.00     0.037 A 
BRANCH  26  40
ATOM     40  C   UNL     1       6.032   1.167  12.314  1.00  0.00     0.064 A 
ATOM     41  C   UNL     1       4.789   0.868  12.898  1.00  0.00     0.173 A 
ATOM     42  C   UNL     1       6.936   1.933  13.063  1.00  0.00     0.173 A 
ATOM     43  F   UNL     1       3.872   0.166  12.214  1.00  0.00    -0.203 F 
ATOM     44  C   UNL     1       4.442   1.373  14.149  1.00  0.00     0.198 A 
ATOM     45  C   UNL     1       6.601   2.405  14.330  1.00  0.00     0.198 A 
ATOM     46  F   UNL     1       8.134   2.254  12.553  1.00  0.00    -0.203 F 
ATOM     47  F   UNL     1       3.214   1.157  14.640  1.00  0.00    -0.200 F 
ATOM     48  C   UNL     1       5.349   2.140  14.864  1.00  0.00     0.200 A 
ATOM     49  F   UNL     1       7.479   3.144  15.021  1.00  0.00    -0.200 F 
ATOM     50  F   UNL     1       5.007   2.644  16.058  1.00  0.00    -0.200 F 
ENDBRANCH  26  40
BRANCH  27  51
ATOM     51  C   UNL     1       7.719  -1.068   2.600  1.00  0.00     0.064 A 
ATOM     52  C   UNL     1       7.461  -2.353   2.100  1.00  0.00     0.173 A 
ATOM     53  C   UNL     1       8.198  -0.108   1.695  1.00  0.00     0.173 A 
ATOM     54  F   UNL     1       7.005  -3.310   2.921  1.00  0.00    -0.203 F 
ATOM     55  C   UNL     1       7.697  -2.671   0.762  1.00  0.00     0.198 A 
ATOM     56  C   UNL     1       8.409  -0.419   0.351  1.00  0.00     0.198 A 
ATOM     57  F   UNL     1       8.447   1.142   2.111  1.00  0.00    -0.203 F 
ATOM     58  F   UNL     1       7.479  -3.918   0.325  1.00  0.00    -0.200 F 
ATOM     59  C   UNL     1       8.167  -1.703  -0.112  1.00  0.00     0.200 A 
ATOM     60  F   UNL     1       8.843   0.526  -0.494  1.00  0.00    -0.200 F 
ATOM     61  F   UNL     1       8.390  -2.008  -1.397  1.00  0.00    -0.200 F 
ENDBRANCH  27  51
BRANCH  39  62
ATOM     62  C   UNL     1      10.416  -3.260   8.643  1.00  0.00     0.064 A 
ATOM     63  C   UNL     1      11.776  -3.034   8.390  1.00  0.00     0.173 A 
ATOM     64  C   UNL     1      10.043  -4.471   9.243  1.00  0.00     0.173 A 
ATOM     65  F   UNL     1      12.173  -1.896   7.800  1.00  0.00    -0.203 F 
ATOM     66  C   UNL     1      12.726  -3.998   8.704  1.00  0.00     0.198 A 
ATOM     67  C   UNL     1      11.000  -5.418   9.587  1.00  0.00     0.198 A 
ATOM     68  F   UNL     1       8.753  -4.727   9.508  1.00  0.00    -0.203 F 
ATOM     69  F   UNL     1      14.015  -3.786   8.406  1.00  0.00    -0.200 F 
ATOM     70  C   UNL     1      12.339  -5.185   9.310  1.00  0.00     0.200 A 
ATOM     71  F   UNL     1      10.627  -6.557  10.187  1.00  0.00    -0.200 F 
ATOM     72  F   UNL     1      13.258  -6.109   9.622  1.00  0.00    -0.200 F 
ENDBRANCH  39  62
ENDBRANCH  13  14
ENDBRANCH   6   8
ENDBRANCH   5   6
ENDBRANCH   4   5
ENDBRANCH   3   4
ENDBRANCH   2   3
ENDBRANCH   1   2
BRANCH   1  73
ATOM     73  C   UNL     1      -1.369   5.393   1.523  1.00  0.00     0.188 C 
BRANCH  73  74
ATOM     74  O   UNL     1      -2.077   4.489   0.687  1.00  0.00    -0.376 OA
BRANCH  74  75
ATOM     75  C   UNL     1      -1.849   3.101   0.892  1.00  0.00     0.202 C 
BRANCH  75  76
ATOM     76  C   UNL     1      -0.446   2.521   0.625  1.00  0.00     0.261 C 
BRANCH  76  77
ATOM     77  O   UNL     1       0.694   3.274   1.092  1.00  0.00    -0.463 OA
BRANCH  77  78
ATOM     78  C   UNL     1       1.403   3.915   0.117  1.00  0.00     0.312 C 
ATOM     79  O   UNL     1       1.053   3.983  -1.058  1.00  0.00    -0.252 OA
BRANCH  78  80
ATOM     80  C   UNL     1       2.699   4.574   0.598  1.00  0.00     0.124 C 
ATOM     81  C   UNL     1       3.411   3.932   1.740  1.00  0.00    -0.014 C 
ATOM     82  C   UNL     1       2.541   6.035   1.048  1.00  0.00     0.048 C 
ATOM     83  C   UNL     1       3.668   4.793   2.731  1.00  0.00    -0.006 C 
ATOM     84  C   UNL     1       3.121   6.154   2.474  1.00  0.00     0.106 C 
BRANCH  84  85
ATOM     85  N   UNL     1       4.223   7.096   2.510  1.00  0.00    -0.344 N 
ATOM     86  C   UNL     1       4.296   8.325   3.093  1.00  0.00     0.269 C 
ATOM     87  H   UNL     1       5.040   6.803   2.045  1.00  0.00     0.164 HD
ATOM     88  O   UNL     1       5.163   9.121   2.740  1.00  0.00    -0.268 OA
BRANCH  86  89
ATOM     89  C   UNL     1       3.351   8.688   4.162  1.00  0.00     0.124 A 
ATOM     90  C   UNL     1       3.289   8.140   5.382  1.00  0.00     0.119 A 
ATOM     91  N   UNL     1       2.499   9.765   4.118  1.00  0.00    -0.302 N 
ATOM     92  N   UNL     1       2.365   8.833   6.122  1.00  0.00    -0.312 N 
ATOM     93  C   UNL     1       1.836   9.873   5.346  1.00  0.00     0.323 A 
ATOM     94  H   UNL     1       2.375  10.364   3.347  1.00  0.00     0.172 HD
ATOM     95  H   UNL     1       2.113   8.632   7.053  1.00  0.00     0.171 HD
ATOM     96  O   UNL     1       1.006  10.699   5.678  1.00  0.00    -0.248 OA
ENDBRANCH  86  89
ENDBRANCH  84  85
ENDBRANCH  78  80
ENDBRANCH  77  78
ENDBRANCH  76  77
ENDBRANCH  75  76
ENDBRANCH  74  75
ENDBRANCH  73  74
ENDBRANCH   1  73
TORSDOF 19
