REMARK SMILES Cc1c[nH]c(C[N@H+]2C[C@@H]3CN(S(C)(=O)=O)C[C@@]3(C(=O)OCCOCCOCCOC(=O)c3ccc(-c4c5nc(c(-c6c(F)c(F)c(F)c(F)c6F)c6ccc([nH]6)c(-c6c(F)c(F)c(F)c(F)c6F)c6nc(c(-c7c(F)c(F)c(F)c(F)c7F)c7ccc4[nH]7)C=C6)C=C5)cc3)C2)n1
REMARK SMILES IDX 24 1 23 2 22 3 21 4 20 5 18 6 19 7 17 8 7 9 8 10 95 11 9 13
REMARK SMILES IDX 10 14 16 15 11 16 6 17 5 18 1 19 2 20 3 21 96 22 4 23 12 25
REMARK SMILES IDX 13 26 14 27 15 28 25 29 26 30 27 31 28 32 29 33 30 34 31 35
REMARK SMILES IDX 32 36 33 37 94 38 34 39 93 40 35 41 36 42 37 43 87 44 38 45
REMARK SMILES IDX 92 46 86 47 88 48 39 49 91 50 85 51 84 52 40 54 72 55 52 56
REMARK SMILES IDX 71 57 53 58 56 59 70 60 89 61 54 62 55 63 69 65 90 66 57 67
REMARK SMILES IDX 41 68 42 69 50 70 43 71 44 72 48 73 51 74 45 75 46 76 49 77
REMARK SMILES IDX 47 78 73 79 74 80 82 81 75 82 76 83 80 84 83 85 77 86 78 87
REMARK SMILES IDX 81 88 79 89 58 90 59 91 67 92 60 93 61 94 65 95 68 96 62 97
REMARK SMILES IDX 63 98 66 99 64 100
REMARK H PARENT 7 12 4 24 88 53 56 64
REMARK Flexibility Score: inf
ROOT
ATOM      1  C   UNL     1       1.820   5.676   1.160  1.00  0.00     0.188 C 
ENDROOT
BRANCH   1   2
ATOM      2  O   UNL     1       1.711   7.031   0.760  1.00  0.00    -0.376 OA
BRANCH   2   3
ATOM      3  C   UNL     1       0.661   7.857   1.268  1.00  0.00     0.202 C 
BRANCH   3   4
ATOM      4  C   UNL     1      -0.731   7.285   1.615  1.00  0.00     0.261 C 
BRANCH   4   5
ATOM      5  O   UNL     1      -0.585   5.998   2.212  1.00  0.00    -0.463 OA
BRANCH   5   6
ATOM      6  C   UNL     1      -1.615   5.107   2.357  1.00  0.00     0.319 C 
ATOM      7  O   UNL     1      -2.796   5.361   2.206  1.00  0.00    -0.251 OA
BRANCH   6   8
ATOM      8  C   UNL     1      -0.907   3.767   2.752  1.00  0.00     0.140 C 
ATOM      9  N   UNL     1      -2.364   2.377   1.236  1.00  0.00    -0.327 N 
ATOM     10  C   UNL     1      -2.434   1.752   2.533  1.00  0.00     0.268 C 
ATOM     11  C   UNL     1      -1.220   3.301   1.274  1.00  0.00     0.283 C 
ATOM     12  H   UNL     1      -3.219   2.904   1.057  1.00  0.00     0.348 HD
ATOM     13  C   UNL     1      -1.207   2.298   3.220  1.00  0.00     0.084 C 
ATOM     14  C   UNL     1      -1.241   2.079   4.710  1.00  0.00     0.113 C 
ATOM     15  C   UNL     1      -0.890   4.368   4.204  1.00  0.00     0.127 C 
ATOM     16  N   UNL     1      -1.230   3.403   5.245  1.00  0.00    -0.200 NA
BRANCH   9  17
ATOM     17  C   UNL     1      -2.394   1.452   0.095  1.00  0.00     0.338 C 
BRANCH  17  18
ATOM     18  C   UNL     1      -1.312   0.405   0.050  1.00  0.00     0.161 A 
ATOM     19  C   UNL     1       2.025  -0.842  -0.009  1.00  0.00     0.068 C 
ATOM     20  C   UNL     1       0.559  -0.666  -0.007  1.00  0.00     0.056 A 
ATOM     21  C   UNL     1      -0.423  -1.627  -0.046  1.00  0.00     0.107 A 
ATOM     22  N   UNL     1      -0.003   0.588   0.049  1.00  0.00    -0.233 NA
ATOM     23  N   UNL     1      -1.602  -0.939  -0.019  1.00  0.00    -0.344 N 
ATOM     24  H   UNL     1      -2.503  -1.335  -0.045  1.00  0.00     0.167 HD
ENDBRANCH  17  18
ENDBRANCH   9  17
BRANCH  16  25
ATOM     25  S   UNL     1      -2.219   3.865   6.509  1.00  0.00     0.211 S 
ATOM     26  C   UNL     1      -3.767   4.145   5.673  1.00  0.00     0.176 C 
ATOM     27  O   UNL     1      -2.375   2.725   7.390  1.00  0.00    -0.213 OA
ATOM     28  O   UNL     1      -1.742   5.137   6.998  1.00  0.00    -0.213 OA
ENDBRANCH  16  25
ENDBRANCH   6   8
ENDBRANCH   5   6
ENDBRANCH   4   5
ENDBRANCH   3   4
ENDBRANCH   2   3
ENDBRANCH   1   2
BRANCH   1  29
ATOM     29  C   UNL     1       2.107   5.321   2.632  1.00  0.00     0.188 C 
BRANCH  29  30
ATOM     30  O   UNL     1       1.929   6.287   3.636  1.00  0.00    -0.376 OA
BRANCH  30  31
ATOM     31  C   UNL     1       2.938   7.271   3.827  1.00  0.00     0.202 C 
BRANCH  31  32
ATOM     32  C   UNL     1       4.415   7.127   3.380  1.00  0.00     0.261 C 
BRANCH  32  33
ATOM     33  O   UNL     1       4.702   6.251   2.279  1.00  0.00    -0.460 OA
BRANCH  33  34
ATOM     34  C   UNL     1       5.380   5.111   2.591  1.00  0.00     0.338 C 
ATOM     35  O   UNL     1       5.820   4.782   3.677  1.00  0.00    -0.246 OA
BRANCH  34  36
ATOM     36  C   UNL     1       5.309   4.188   1.438  1.00  0.00     0.060 A 
ATOM     37  C   UNL     1       4.404   3.117   1.479  1.00  0.00     0.016 A 
ATOM     38  C   UNL     1       6.129   4.369   0.329  1.00  0.00     0.016 A 
ATOM     39  C   UNL     1       4.270   2.266   0.384  1.00  0.00     0.010 A 
ATOM     40  C   UNL     1       6.037   3.472  -0.743  1.00  0.00     0.010 A 
ATOM     41  C   UNL     1       5.107   2.416  -0.724  1.00  0.00    -0.014 A 
BRANCH  41  42
ATOM     42  C   UNL     1       5.130   1.384  -1.790  1.00  0.00     0.031 A 
ATOM     43  C   UNL     1       6.229   0.362  -1.775  1.00  0.00     0.074 A 
ATOM     44  C   UNL     1       4.188   1.329  -2.748  1.00  0.00     0.049 A 
ATOM     45  N   UNL     1       6.571  -0.510  -2.688  1.00  0.00    -0.248 NA
ATOM     46  C   UNL     1       7.051   0.316  -0.556  1.00  0.00     0.031 C 
ATOM     47  C   UNL     1       2.993   2.165  -2.812  1.00  0.00     0.029 A 
ATOM     48  N   UNL     1       4.101   0.529  -3.863  1.00  0.00    -0.354 N 
ATOM     49  C   UNL     1       7.669  -1.183  -2.171  1.00  0.00     0.074 A 
ATOM     50  C   UNL     1       7.935  -0.620  -0.864  1.00  0.00     0.031 C 
ATOM     51  C   UNL     1       2.302   1.851  -3.922  1.00  0.00     0.029 A 
ATOM     52  C   UNL     1       3.042   0.842  -4.680  1.00  0.00     0.049 A 
ATOM     53  H   UNL     1       4.736  -0.198  -4.057  1.00  0.00     0.167 HD
ATOM     54  C   UNL     1       8.393  -2.176  -2.740  1.00  0.00     0.037 A 
ATOM     55  C   UNL     1       2.738   0.405  -5.919  1.00  0.00     0.037 A 
ATOM     56  C   UNL     1       8.120  -2.737  -4.037  1.00  0.00     0.049 A 
ATOM     57  C   UNL     1       3.641  -0.599  -6.595  1.00  0.00     0.074 A 
ATOM     58  C   UNL     1       8.798  -3.744  -4.701  1.00  0.00     0.029 A 
ATOM     59  N   UNL     1       7.088  -2.334  -4.872  1.00  0.00    -0.354 N 
ATOM     60  N   UNL     1       4.699  -1.213  -6.125  1.00  0.00    -0.248 NA
ATOM     61  C   UNL     1       3.316  -0.955  -7.986  1.00  0.00     0.031 C 
ATOM     62  C   UNL     1       8.220  -3.904  -5.964  1.00  0.00     0.029 A 
ATOM     63  C   UNL     1       7.138  -3.043  -6.062  1.00  0.00     0.049 A 
ATOM     64  H   UNL     1       6.420  -1.645  -4.652  1.00  0.00     0.167 HD
ATOM     65  C   UNL     1       5.151  -2.040  -7.148  1.00  0.00     0.074 A 
ATOM     66  C   UNL     1       4.241  -1.865  -8.259  1.00  0.00     0.031 C 
ATOM     67  C   UNL     1       6.225  -2.867  -7.164  1.00  0.00     0.037 A 
BRANCH  54  68
ATOM     68  C   UNL     1       9.592  -2.676  -1.989  1.00  0.00     0.064 A 
ATOM     69  C   UNL     1       9.474  -3.432  -0.814  1.00  0.00     0.173 A 
ATOM     70  C   UNL     1      10.883  -2.411  -2.472  1.00  0.00     0.173 A 
ATOM     71  F   UNL     1       8.263  -3.700  -0.302  1.00  0.00    -0.203 F 
ATOM     72  C   UNL     1      10.604  -3.877  -0.133  1.00  0.00     0.198 A 
ATOM     73  C   UNL     1      12.010  -2.888  -1.808  1.00  0.00     0.198 A 
ATOM     74  F   UNL     1      11.053  -1.697  -3.595  1.00  0.00    -0.203 F 
ATOM     75  F   UNL     1      10.469  -4.551   1.018  1.00  0.00    -0.200 F 
ATOM     76  C   UNL     1      11.870  -3.612  -0.635  1.00  0.00     0.200 A 
ATOM     77  F   UNL     1      13.230  -2.644  -2.304  1.00  0.00    -0.200 F 
ATOM     78  F   UNL     1      12.956  -4.048   0.018  1.00  0.00    -0.200 F 
ENDBRANCH  54  68
BRANCH  55  79
ATOM     79  C   UNL     1       1.557   0.957  -6.637  1.00  0.00     0.064 A 
ATOM     80  C   UNL     1       0.469   0.142  -6.976  1.00  0.00     0.173 A 
ATOM     81  C   UNL     1       1.509   2.303  -7.033  1.00  0.00     0.173 A 
ATOM     82  F   UNL     1       0.482  -1.160  -6.654  1.00  0.00    -0.203 F 
ATOM     83  C   UNL     1      -0.615   0.647  -7.693  1.00  0.00     0.198 A 
ATOM     84  C   UNL     1       0.410   2.815  -7.720  1.00  0.00     0.198 A 
ATOM     85  F   UNL     1       2.530   3.125  -6.750  1.00  0.00    -0.203 F 
ATOM     86  F   UNL     1      -1.617  -0.168  -8.050  1.00  0.00    -0.200 F 
ATOM     87  C   UNL     1      -0.647   1.985  -8.057  1.00  0.00     0.200 A 
ATOM     88  F   UNL     1       0.380   4.110  -8.062  1.00  0.00    -0.200 F 
ATOM     89  F   UNL     1      -1.690   2.470  -8.743  1.00  0.00    -0.200 F 
ENDBRANCH  55  79
BRANCH  67  90
ATOM     90  C   UNL     1       6.473  -3.672  -8.409  1.00  0.00     0.064 A 
ATOM     91  C   UNL     1       6.932  -3.075  -9.593  1.00  0.00     0.173 A 
ATOM     92  C   UNL     1       6.317  -5.067  -8.398  1.00  0.00     0.173 A 
ATOM     93  F   UNL     1       7.085  -1.744  -9.662  1.00  0.00    -0.203 F 
ATOM     94  C   UNL     1       7.211  -3.842 -10.722  1.00  0.00     0.198 A 
ATOM     95  C   UNL     1       6.628  -5.834  -9.518  1.00  0.00     0.198 A 
ATOM     96  F   UNL     1       5.888  -5.691  -7.291  1.00  0.00    -0.203 F 
ATOM     97  F   UNL     1       7.612  -3.246 -11.853  1.00  0.00    -0.200 F 
ATOM     98  C   UNL     1       7.070  -5.221 -10.680  1.00  0.00     0.200 A 
ATOM     99  F   UNL     1       6.507  -7.168  -9.469  1.00  0.00    -0.200 F 
ATOM    100  F   UNL     1       7.356  -5.959 -11.761  1.00  0.00    -0.200 F 
ENDBRANCH  67  90
ENDBRANCH  41  42
ENDBRANCH  34  36
ENDBRANCH  33  34
ENDBRANCH  32  33
ENDBRANCH  31  32
ENDBRANCH  30  31
ENDBRANCH  29  30
ENDBRANCH   1  29
TORSDOF 20
