REMARK SMILES O=C(OCCOCCOCCOC(=O)c1cccnc1C(=O)Nc1ccc([N+](=O)[O-])cc1)c1ccc(-c2c3nc(c(-c4c(F)c(F)c(F)c(F)c4F)c4ccc([nH]4)c(-c4c(F)c(F)c(F)c(F)c4F)c4nc(c(-c5c(F)c(F)c(F)c(F)c5F)c5ccc2[nH]5)C=C4)C=C3)cc1
REMARK SMILES IDX 8 1 7 2 6 3 5 4 4 5 3 6 2 7 1 8 33 9 34 10 95 11 35 12 94 13
REMARK SMILES IDX 36 14 37 15 38 16 88 17 39 18 93 19 87 20 89 21 40 22 92 23
REMARK SMILES IDX 86 24 85 25 41 27 73 28 53 29 72 30 54 31 57 32 71 33 90 34
REMARK SMILES IDX 55 35 56 36 70 38 91 39 58 40 42 41 43 42 51 43 44 44 45 45
REMARK SMILES IDX 49 46 52 47 46 48 47 49 50 50 48 51 74 52 75 53 83 54 76 55
REMARK SMILES IDX 77 56 81 57 84 58 78 59 79 60 82 61 80 62 59 63 60 64 68 65
REMARK SMILES IDX 61 66 62 67 66 68 69 69 63 70 64 71 67 72 65 73 9 74 10 75
REMARK SMILES IDX 11 76 12 77 13 78 14 79 15 80 16 81 20 82 17 83 19 84 18 85
REMARK SMILES IDX 21 86 22 87 23 88 24 90 25 91 32 92 26 93 31 94 27 95 28 96
REMARK SMILES IDX 29 97 30 98
REMARK H PARENT 89 26 57 37 23 89
REMARK Flexibility Score: inf
ROOT
ATOM      1  C   UNL     1       2.418  -1.667  -1.914  1.00  0.00     0.188 C 
ENDROOT
BRANCH   1   2
ATOM      2  C   UNL     1       2.621  -0.696  -0.747  1.00  0.00     0.188 C 
BRANCH   2   3
ATOM      3  O   UNL     1       3.947  -0.237  -0.541  1.00  0.00    -0.376 OA
BRANCH   3   4
ATOM      4  C   UNL     1       4.909  -1.196  -0.145  1.00  0.00     0.202 C 
BRANCH   4   5
ATOM      5  C   UNL     1       4.670  -1.894   1.190  1.00  0.00     0.261 C 
BRANCH   5   6
ATOM      6  O   UNL     1       3.622  -1.466   2.096  1.00  0.00    -0.460 OA
BRANCH   6   7
ATOM      7  C   UNL     1       3.013  -0.328   2.475  1.00  0.00     0.338 C 
ATOM      8  O   UNL     1       1.996  -0.413   3.162  1.00  0.00    -0.246 OA
BRANCH   7   9
ATOM      9  C   UNL     1       3.484   1.035   2.117  1.00  0.00     0.060 A 
ATOM     10  C   UNL     1       4.783   1.315   1.702  1.00  0.00     0.016 A 
ATOM     11  C   UNL     1       2.589   2.110   2.315  1.00  0.00     0.016 A 
ATOM     12  C   UNL     1       5.182   2.621   1.446  1.00  0.00     0.010 A 
ATOM     13  C   UNL     1       3.011   3.433   2.164  1.00  0.00     0.010 A 
ATOM     14  C   UNL     1       4.331   3.681   1.775  1.00  0.00    -0.014 A 
BRANCH  14  15
ATOM     15  C   UNL     1       5.006   4.952   2.109  1.00  0.00     0.031 A 
ATOM     16  C   UNL     1       5.627   5.034   3.478  1.00  0.00     0.074 A 
ATOM     17  C   UNL     1       5.242   5.884   1.175  1.00  0.00     0.049 A 
ATOM     18  N   UNL     1       6.447   5.922   3.972  1.00  0.00    -0.248 NA
ATOM     19  C   UNL     1       5.325   3.921   4.397  1.00  0.00     0.031 C 
ATOM     20  C   UNL     1       4.796   5.814  -0.213  1.00  0.00     0.029 A 
ATOM     21  N   UNL     1       5.960   7.047   1.246  1.00  0.00    -0.354 N 
ATOM     22  C   UNL     1       6.774   5.460   5.241  1.00  0.00     0.074 A 
ATOM     23  C   UNL     1       6.063   4.222   5.450  1.00  0.00     0.031 C 
ATOM     24  C   UNL     1       5.269   6.886  -0.873  1.00  0.00     0.029 A 
ATOM     25  C   UNL     1       6.009   7.733   0.059  1.00  0.00     0.049 A 
ATOM     26  H   UNL     1       6.398   7.362   2.070  1.00  0.00     0.167 HD
ATOM     27  C   UNL     1       7.591   6.026   6.158  1.00  0.00     0.037 A 
ATOM     28  C   UNL     1       6.580   8.920  -0.223  1.00  0.00     0.037 A 
ATOM     29  C   UNL     1       8.233   7.294   5.957  1.00  0.00     0.049 A 
ATOM     30  C   UNL     1       7.348   9.618   0.872  1.00  0.00     0.074 A 
ATOM     31  C   UNL     1       9.011   8.021   6.835  1.00  0.00     0.029 A 
ATOM     32  N   UNL     1       8.137   8.038   4.787  1.00  0.00    -0.354 N 
ATOM     33  N   UNL     1       7.630   9.198   2.083  1.00  0.00    -0.248 NA
ATOM     34  C   UNL     1       7.877  10.952   0.562  1.00  0.00     0.031 C 
ATOM     35  C   UNL     1       9.328   9.238   6.221  1.00  0.00     0.029 A 
ATOM     36  C   UNL     1       8.815   9.235   4.931  1.00  0.00     0.049 A 
ATOM     37  H   UNL     1       7.658   7.755   3.975  1.00  0.00     0.167 HD
ATOM     38  C   UNL     1       8.397  10.197   2.669  1.00  0.00     0.074 A 
ATOM     39  C   UNL     1       8.540  11.241   1.673  1.00  0.00     0.031 C 
ATOM     40  C   UNL     1       8.940  10.248   3.912  1.00  0.00     0.037 A 
BRANCH  27  41
ATOM     41  C   UNL     1       7.720   5.320   7.476  1.00  0.00     0.064 A 
ATOM     42  C   UNL     1       8.382   4.088   7.604  1.00  0.00     0.173 A 
ATOM     43  C   UNL     1       7.101   5.850   8.618  1.00  0.00     0.173 A 
ATOM     44  F   UNL     1       8.961   3.519   6.535  1.00  0.00    -0.203 F 
ATOM     45  C   UNL     1       8.381   3.395   8.813  1.00  0.00     0.198 A 
ATOM     46  C   UNL     1       7.130   5.171   9.833  1.00  0.00     0.198 A 
ATOM     47  F   UNL     1       6.444   7.018   8.550  1.00  0.00    -0.203 F 
ATOM     48  F   UNL     1       8.950   2.184   8.891  1.00  0.00    -0.200 F 
ATOM     49  C   UNL     1       7.757   3.938   9.926  1.00  0.00     0.200 A 
ATOM     50  F   UNL     1       6.528   5.699  10.908  1.00  0.00    -0.200 F 
ATOM     51  F   UNL     1       7.742   3.263  11.084  1.00  0.00    -0.200 F 
ENDBRANCH  27  41
BRANCH  28  52
ATOM     52  C   UNL     1       6.423   9.525  -1.573  1.00  0.00     0.064 A 
ATOM     53  C   UNL     1       7.522   9.742  -2.416  1.00  0.00     0.173 A 
ATOM     54  C   UNL     1       5.158   9.909  -2.049  1.00  0.00     0.173 A 
ATOM     55  F   UNL     1       8.755   9.410  -2.006  1.00  0.00    -0.203 F 
ATOM     56  C   UNL     1       7.365  10.332  -3.671  1.00  0.00     0.198 A 
ATOM     57  C   UNL     1       4.998  10.469  -3.314  1.00  0.00     0.198 A 
ATOM     58  F   UNL     1       4.067   9.717  -1.292  1.00  0.00    -0.203 F 
ATOM     59  F   UNL     1       8.438  10.562  -4.439  1.00  0.00    -0.200 F 
ATOM     60  C   UNL     1       6.103  10.689  -4.121  1.00  0.00     0.200 A 
ATOM     61  F   UNL     1       3.772  10.787  -3.752  1.00  0.00    -0.200 F 
ATOM     62  F   UNL     1       5.951  11.244  -5.331  1.00  0.00    -0.200 F 
ENDBRANCH  28  52
BRANCH  40  63
ATOM     63  C   UNL     1       9.780  11.447   4.244  1.00  0.00     0.064 A 
ATOM     64  C   UNL     1       9.218  12.716   4.436  1.00  0.00     0.173 A 
ATOM     65  C   UNL     1      11.165  11.303   4.427  1.00  0.00     0.173 A 
ATOM     66  F   UNL     1       7.902  12.906   4.262  1.00  0.00    -0.203 F 
ATOM     67  C   UNL     1      10.017  13.807   4.769  1.00  0.00     0.198 A 
ATOM     68  C   UNL     1      11.954  12.387   4.796  1.00  0.00     0.198 A 
ATOM     69  F   UNL     1      11.748  10.106   4.266  1.00  0.00    -0.203 F 
ATOM     70  F   UNL     1       9.468  15.023   4.894  1.00  0.00    -0.200 F 
ATOM     71  C   UNL     1      11.381  13.639   4.957  1.00  0.00     0.200 A 
ATOM     72  F   UNL     1      13.268  12.219   4.998  1.00  0.00    -0.200 F 
ATOM     73  F   UNL     1      12.147  14.688   5.289  1.00  0.00    -0.200 F 
ENDBRANCH  40  63
ENDBRANCH  14  15
ENDBRANCH   7   9
ENDBRANCH   6   7
ENDBRANCH   5   6
ENDBRANCH   4   5
ENDBRANCH   3   4
ENDBRANCH   2   3
ENDBRANCH   1   2
BRANCH   1  74
ATOM     74  O   UNL     1       3.611  -1.977  -2.622  1.00  0.00    -0.376 OA
BRANCH  74  75
ATOM     75  C   UNL     1       3.817  -1.329  -3.884  1.00  0.00     0.202 C 
BRANCH  75  76
ATOM     76  C   UNL     1       4.253   0.245  -3.782  1.00  0.00     0.261 C 
BRANCH  76  77
ATOM     77  O   UNL     1       3.429   1.859  -4.670  1.00  0.00    -0.460 OA
BRANCH  77  78
ATOM     78  C   UNL     1       2.731   3.065  -4.984  1.00  0.00     0.340 C 
ATOM     79  O   UNL     1       2.593   3.385  -6.166  1.00  0.00    -0.246 OA
BRANCH  78  80
ATOM     80  C   UNL     1       2.260   4.065  -3.955  1.00  0.00     0.091 A 
ATOM     81  C   UNL     1       2.799   5.354  -4.135  1.00  0.00     0.020 A 
ATOM     82  C   UNL     1       1.374   3.901  -2.876  1.00  0.00     0.142 A 
ATOM     83  C   UNL     1       2.480   6.395  -3.265  1.00  0.00     0.021 A 
ATOM     84  N   UNL     1       1.092   4.917  -1.998  1.00  0.00    -0.250 NA
ATOM     85  C   UNL     1       1.635   6.128  -2.210  1.00  0.00     0.112 A 
BRANCH  82  86
ATOM     86  C   UNL     1       0.579   2.667  -2.520  1.00  0.00     0.275 C 
ATOM     87  O   UNL     1      -0.522   2.754  -1.976  1.00  0.00    -0.267 OA
ATOM     88  N   UNL     1       1.025   1.418  -2.851  1.00  0.00    -0.321 N 
ATOM     89  H   UNL     1       0.408   0.659  -2.734  1.00  0.00     0.170 HD
BRANCH  88  90
ATOM     90  C   UNL     1       2.288   1.158  -3.338  1.00  0.00     0.042 A 
ATOM     91  C   UNL     1       2.301   0.349  -4.952  1.00  0.00     0.033 A 
ATOM     92  C   UNL     1       3.711   2.151  -2.776  1.00  0.00     0.033 A 
ATOM     93  C   UNL     1       3.758   0.501  -6.003  1.00  0.00     0.088 A 
ATOM     94  C   UNL     1       5.141   2.322  -3.863  1.00  0.00     0.088 A 
ATOM     95  C   UNL     1       5.141   1.517  -5.476  1.00  0.00     0.269 A 
BRANCH  95  96
ATOM     96  N   UNL     1       6.351   1.518  -6.263  1.00  0.00     0.062 N 
ATOM     97  O   UNL     1       6.425   0.692  -7.180  1.00  0.00    -0.258 OA
ATOM     98  O   UNL     1       7.246   2.297  -5.915  1.00  0.00    -0.258 OA
ENDBRANCH  95  96
ENDBRANCH  88  90
ENDBRANCH  82  86
ENDBRANCH  78  80
ENDBRANCH  77  78
ENDBRANCH  76  77
ENDBRANCH  75  76
ENDBRANCH  74  75
ENDBRANCH   1  74
TORSDOF 20
