REMARK SMILES Nc1c(N2CCCC2)ncnc1N1CCC(C(=O)OCCOCCOCCOC(=O)c2ccc(-c3c4nc(c(-c5c(F)c(F)c(F)c(F)c5F)c5ccc([nH]5)c(-c5c(F)c(F)c(F)c(F)c5F)c5nc(c(-c6c(F)c(F)c(F)c(F)c6F)c6ccc3[nH]6)C=C5)C=C4)cc2)CC1
REMARK SMILES IDX 23 1 22 2 21 3 20 4 19 5 17 6 18 7 16 8 13 9 14 10 95 11
REMARK SMILES IDX 15 12 94 13 12 14 2 15 3 16 9 17 11 18 10 19 1 20 4 23 5 24
REMARK SMILES IDX 8 25 6 26 7 27 24 28 25 29 26 30 27 31 28 32 29 33 30 34
REMARK SMILES IDX 31 35 32 36 93 37 33 38 92 39 34 40 35 41 36 42 86 43 37 44
REMARK SMILES IDX 91 45 85 46 87 47 38 48 90 49 84 50 83 51 39 53 71 54 51 55
REMARK SMILES IDX 70 56 52 57 55 58 69 59 88 60 53 61 54 62 68 64 89 65 56 66
REMARK SMILES IDX 40 67 41 68 49 69 42 70 43 71 47 72 50 73 44 74 45 75 48 76
REMARK SMILES IDX 46 77 72 78 73 79 81 80 74 81 75 82 79 83 82 84 76 85 77 86
REMARK SMILES IDX 80 87 78 88 57 89 58 90 66 91 59 92 60 93 64 94 67 95 61 96
REMARK SMILES IDX 62 97 65 98 63 99
REMARK H PARENT 1 21 1 22 87 52 55 63
REMARK Flexibility Score: inf
ROOT
ATOM      1  C   UNL     1       5.142  -7.746  -1.546  1.00  0.00     0.188 C 
ENDROOT
BRANCH   1   2
ATOM      2  O   UNL     1       4.708  -9.063  -1.253  1.00  0.00    -0.376 OA
BRANCH   2   3
ATOM      3  C   UNL     1       3.339  -9.381  -1.488  1.00  0.00     0.202 C 
BRANCH   3   4
ATOM      4  C   UNL     1       2.260  -8.481  -0.864  1.00  0.00     0.261 C 
BRANCH   4   5
ATOM      5  O   UNL     1       2.353  -7.065  -1.157  1.00  0.00    -0.463 OA
BRANCH   5   6
ATOM      6  C   UNL     1       2.604  -6.263  -0.092  1.00  0.00     0.309 C 
ATOM      7  O   UNL     1       2.807  -6.676   1.048  1.00  0.00    -0.252 OA
BRANCH   6   8
ATOM      8  C   UNL     1       2.639  -4.771  -0.388  1.00  0.00     0.103 C 
ATOM      9  N   UNL     1       1.605  -2.187  -1.041  1.00  0.00    -0.355 N 
ATOM     10  C   UNL     1       2.556  -2.769  -1.957  1.00  0.00     0.119 C 
ATOM     11  C   UNL     1       1.576  -2.624   0.345  1.00  0.00     0.119 C 
ATOM     12  C   UNL     1       2.583  -4.290  -1.842  1.00  0.00     0.037 C 
ATOM     13  C   UNL     1       1.499  -4.138   0.412  1.00  0.00     0.037 C 
BRANCH   9  14
ATOM     14  C   UNL     1       0.509  -1.514  -1.569  1.00  0.00     0.157 A 
ATOM     15  C   UNL     1       0.145  -0.270  -1.027  1.00  0.00     0.118 A 
ATOM     16  C   UNL     1      -0.987   0.343  -1.581  1.00  0.00     0.157 A 
ATOM     17  N   UNL     1      -1.720  -0.263  -2.532  1.00  0.00    -0.217 NA
ATOM     18  N   UNL     1      -0.169  -2.090  -2.575  1.00  0.00    -0.217 NA
ATOM     19  C   UNL     1      -1.258  -1.433  -2.994  1.00  0.00     0.226 A 
BRANCH  15  20
ATOM     20  N   UNL     1       0.934   0.332  -0.032  1.00  0.00    -0.393 N 
ATOM     21  H   UNL     1       0.673   1.204   0.343  1.00  0.00     0.156 HD
ATOM     22  H   UNL     1       1.749  -0.118   0.289  1.00  0.00     0.156 HD
ENDBRANCH  15  20
BRANCH  16  23
ATOM     23  N   UNL     1      -1.429   1.579  -1.164  1.00  0.00    -0.355 N 
ATOM     24  C   UNL     1      -0.575   2.744  -1.023  1.00  0.00     0.118 C 
ATOM     25  C   UNL     1      -2.588   1.623  -0.290  1.00  0.00     0.118 C 
ATOM     26  C   UNL     1      -0.969   3.289   0.346  1.00  0.00     0.023 C 
ATOM     27  C   UNL     1      -2.458   2.974   0.419  1.00  0.00     0.023 C 
ENDBRANCH  16  23
ENDBRANCH   9  14
ENDBRANCH   6   8
ENDBRANCH   5   6
ENDBRANCH   4   5
ENDBRANCH   3   4
ENDBRANCH   2   3
ENDBRANCH   1   2
BRANCH   1  28
ATOM     28  C   UNL     1       4.722  -7.123  -2.880  1.00  0.00     0.188 C 
BRANCH  28  29
ATOM     29  O   UNL     1       3.856  -7.904  -3.664  1.00  0.00    -0.376 OA
BRANCH  29  30
ATOM     30  C   UNL     1       4.005  -7.856  -5.072  1.00  0.00     0.202 C 
BRANCH  30  31
ATOM     31  C   UNL     1       5.311  -8.460  -5.629  1.00  0.00     0.261 C 
BRANCH  31  32
ATOM     32  O   UNL     1       6.547  -8.006  -5.035  1.00  0.00    -0.460 OA
BRANCH  32  33
ATOM     33  C   UNL     1       6.920  -6.722  -5.258  1.00  0.00     0.338 C 
ATOM     34  O   UNL     1       6.372  -5.928  -6.007  1.00  0.00    -0.246 OA
BRANCH  33  35
ATOM     35  C   UNL     1       7.910  -6.339  -4.210  1.00  0.00     0.060 A 
ATOM     36  C   UNL     1       7.644  -5.210  -3.416  1.00  0.00     0.016 A 
ATOM     37  C   UNL     1       9.043  -7.113  -3.951  1.00  0.00     0.016 A 
ATOM     38  C   UNL     1       8.521  -4.836  -2.391  1.00  0.00     0.010 A 
ATOM     39  C   UNL     1       9.938  -6.720  -2.946  1.00  0.00     0.010 A 
ATOM     40  C   UNL     1       9.700  -5.561  -2.181  1.00  0.00    -0.014 A 
BRANCH  40  41
ATOM     41  C   UNL     1      10.789  -4.984  -1.346  1.00  0.00     0.031 A 
ATOM     42  C   UNL     1      11.872  -4.205  -2.044  1.00  0.00     0.074 A 
ATOM     43  C   UNL     1      10.823  -5.107  -0.007  1.00  0.00     0.049 A 
ATOM     44  N   UNL     1      12.946  -3.640  -1.554  1.00  0.00    -0.248 NA
ATOM     45  C   UNL     1      11.717  -4.044  -3.498  1.00  0.00     0.031 C 
ATOM     46  C   UNL     1       9.816  -5.777   0.809  1.00  0.00     0.029 A 
ATOM     47  N   UNL     1      11.757  -4.666   0.903  1.00  0.00    -0.354 N 
ATOM     48  C   UNL     1      13.589  -3.055  -2.637  1.00  0.00     0.074 A 
ATOM     49  C   UNL     1      12.812  -3.373  -3.815  1.00  0.00     0.031 C 
ATOM     50  C   UNL     1      10.184  -5.704   2.101  1.00  0.00     0.029 A 
ATOM     51  C   UNL     1      11.471  -5.012   2.201  1.00  0.00     0.049 A 
ATOM     52  H   UNL     1      12.556  -4.151   0.647  1.00  0.00     0.167 HD
ATOM     53  C   UNL     1      14.716  -2.304  -2.653  1.00  0.00     0.037 A 
ATOM     54  C   UNL     1      12.173  -4.806   3.336  1.00  0.00     0.037 A 
ATOM     55  C   UNL     1      15.504  -1.998  -1.490  1.00  0.00     0.049 A 
ATOM     56  C   UNL     1      13.492  -4.074   3.283  1.00  0.00     0.074 A 
ATOM     57  C   UNL     1      16.665  -1.249  -1.410  1.00  0.00     0.029 A 
ATOM     58  N   UNL     1      15.219  -2.433  -0.204  1.00  0.00    -0.354 N 
ATOM     59  N   UNL     1      14.088  -3.513   2.259  1.00  0.00    -0.248 NA
ATOM     60  C   UNL     1      14.238  -3.951   4.546  1.00  0.00     0.031 C 
ATOM     61  C   UNL     1      17.115  -1.281  -0.087  1.00  0.00     0.029 A 
ATOM     62  C   UNL     1      16.202  -1.997   0.671  1.00  0.00     0.049 A 
ATOM     63  H   UNL     1      14.435  -2.971   0.050  1.00  0.00     0.167 HD
ATOM     64  C   UNL     1      15.261  -2.954   2.753  1.00  0.00     0.074 A 
ATOM     65  C   UNL     1      15.289  -3.230   4.174  1.00  0.00     0.031 C 
ATOM     66  C   UNL     1      16.227  -2.274   2.086  1.00  0.00     0.037 A 
BRANCH  53  67
ATOM     67  C   UNL     1      15.172  -1.779  -3.983  1.00  0.00     0.064 A 
ATOM     68  C   UNL     1      14.455  -0.785  -4.666  1.00  0.00     0.173 A 
ATOM     69  C   UNL     1      16.350  -2.261  -4.574  1.00  0.00     0.173 A 
ATOM     70  F   UNL     1      13.313  -0.302  -4.152  1.00  0.00    -0.203 F 
ATOM     71  C   UNL     1      14.882  -0.317  -5.906  1.00  0.00     0.198 A 
ATOM     72  C   UNL     1      16.792  -1.765  -5.798  1.00  0.00     0.198 A 
ATOM     73  F   UNL     1      17.076  -3.209  -3.963  1.00  0.00    -0.203 F 
ATOM     74  F   UNL     1      14.149   0.591  -6.565  1.00  0.00    -0.200 F 
ATOM     75  C   UNL     1      16.053  -0.801  -6.467  1.00  0.00     0.200 A 
ATOM     76  F   UNL     1      17.933  -2.224  -6.332  1.00  0.00    -0.200 F 
ATOM     77  F   UNL     1      16.466  -0.345  -7.657  1.00  0.00    -0.200 F 
ENDBRANCH  53  67
BRANCH  54  78
ATOM     78  C   UNL     1      11.628  -5.289   4.634  1.00  0.00     0.064 A 
ATOM     79  C   UNL     1      11.175  -4.384   5.604  1.00  0.00     0.173 A 
ATOM     80  C   UNL     1      11.531  -6.658   4.925  1.00  0.00     0.173 A 
ATOM     81  F   UNL     1      11.280  -3.064   5.388  1.00  0.00    -0.203 F 
ATOM     82  C   UNL     1      10.637  -4.829   6.810  1.00  0.00     0.198 A 
ATOM     83  C   UNL     1      10.969  -7.103   6.120  1.00  0.00     0.198 A 
ATOM     84  F   UNL     1      11.964  -7.565   4.037  1.00  0.00    -0.203 F 
ATOM     85  F   UNL     1      10.235  -3.942   7.730  1.00  0.00    -0.200 F 
ATOM     86  C   UNL     1      10.524  -6.188   7.062  1.00  0.00     0.200 A 
ATOM     87  F   UNL     1      10.855  -8.417   6.357  1.00  0.00    -0.200 F 
ATOM     88  F   UNL     1       9.989  -6.615   8.214  1.00  0.00    -0.200 F 
ENDBRANCH  54  78
BRANCH  66  89
ATOM     89  C   UNL     1      17.404  -1.759   2.868  1.00  0.00     0.064 A 
ATOM     90  C   UNL     1      18.391  -2.624   3.362  1.00  0.00     0.173 A 
ATOM     91  C   UNL     1      17.599  -0.379   3.039  1.00  0.00     0.173 A 
ATOM     92  F   UNL     1      18.250  -3.952   3.235  1.00  0.00    -0.203 F 
ATOM     93  C   UNL     1      19.524  -2.128   4.003  1.00  0.00     0.198 A 
ATOM     94  C   UNL     1      18.747   0.115   3.653  1.00  0.00     0.198 A 
ATOM     95  F   UNL     1      16.691   0.494   2.577  1.00  0.00    -0.203 F 
ATOM     96  F   UNL     1      20.441  -2.976   4.491  1.00  0.00    -0.200 F 
ATOM     97  C   UNL     1      19.707  -0.760   4.137  1.00  0.00     0.200 A 
ATOM     98  F   UNL     1      18.931   1.438   3.763  1.00  0.00    -0.200 F 
ATOM     99  F   UNL     1      20.810  -0.284   4.732  1.00  0.00    -0.200 F 
ENDBRANCH  66  89
ENDBRANCH  40  41
ENDBRANCH  33  35
ENDBRANCH  32  33
ENDBRANCH  31  32
ENDBRANCH  30  31
ENDBRANCH  29  30
ENDBRANCH  28  29
ENDBRANCH   1  28
TORSDOF 20
