REMARK SMILES O=C(OCCOCCOCCOC(=O)[C@@H](Cc1ccc(O)cc1)Nc1c2ccccc2nc2ccccc12)c1ccc(-c2c3nc(c(-c4c(F)c(F)c(F)c(F)c4F)c4ccc([nH]4)c(-c4c(F)c(F)c(F)c(F)c4F)c4nc(c(-c5c(F)c(F)c(F)c(F)c5F)c5ccc2[nH]5)C=C4)C=C3)cc1
REMARK SMILES IDX 8 1 7 2 6 3 5 4 4 5 3 6 2 7 1 8 39 9 40 10 101 11 41 12
REMARK SMILES IDX 100 13 42 14 43 15 44 16 94 17 45 18 99 19 93 20 95 21 46 22
REMARK SMILES IDX 98 23 92 24 91 25 47 27 79 28 59 29 78 30 60 31 63 32 77 33
REMARK SMILES IDX 96 34 61 35 62 36 76 38 97 39 64 40 48 41 49 42 57 43 50 44
REMARK SMILES IDX 51 45 55 46 58 47 52 48 53 49 56 50 54 51 80 52 81 53 89 54
REMARK SMILES IDX 82 55 83 56 87 57 90 58 84 59 85 60 88 61 86 62 65 63 66 64
REMARK SMILES IDX 74 65 67 66 68 67 72 68 75 69 69 70 70 71 73 72 71 73 9 74
REMARK SMILES IDX 10 75 11 76 12 77 13 78 14 79 15 80 16 81 17 82 18 83 23 84
REMARK SMILES IDX 19 85 22 86 20 87 21 88 24 90 25 92 26 93 38 94 27 95 31 96
REMARK SMILES IDX 33 97 37 98 28 99 30 100 32 101 34 102 36 103 29 104 35 105
REMARK H PARENT 95 26 63 37 21 89 24 91
REMARK Flexibility Score: inf
ROOT
ATOM      1  C   UNL     1       1.933   0.368   3.066  1.00  0.00     0.188 C 
ENDROOT
BRANCH   1   2
ATOM      2  C   UNL     1       2.365   0.787   1.659  1.00  0.00     0.188 C 
BRANCH   2   3
ATOM      3  O   UNL     1       3.679   0.292   1.351  1.00  0.00    -0.376 OA
BRANCH   3   4
ATOM      4  C   UNL     1       4.501   1.260   0.691  1.00  0.00     0.202 C 
BRANCH   4   5
ATOM      5  C   UNL     1       4.297   1.348  -0.827  1.00  0.00     0.261 C 
BRANCH   5   6
ATOM      6  O   UNL     1       2.945   1.075  -1.226  1.00  0.00    -0.460 OA
BRANCH   6   7
ATOM      7  C   UNL     1       2.374  -0.093  -1.606  1.00  0.00     0.338 C 
ATOM      8  O   UNL     1       1.202  -0.056  -1.981  1.00  0.00    -0.246 OA
BRANCH   7   9
ATOM      9  C   UNL     1       3.047  -1.438  -1.601  1.00  0.00     0.060 A 
ATOM     10  C   UNL     1       4.271  -1.747  -1.010  1.00  0.00     0.016 A 
ATOM     11  C   UNL     1       2.350  -2.496  -2.225  1.00  0.00     0.016 A 
ATOM     12  C   UNL     1       4.809  -3.034  -1.087  1.00  0.00     0.010 A 
ATOM     13  C   UNL     1       2.872  -3.797  -2.286  1.00  0.00     0.010 A 
ATOM     14  C   UNL     1       4.121  -4.064  -1.731  1.00  0.00    -0.014 A 
BRANCH  14  15
ATOM     15  C   UNL     1       4.825  -5.352  -1.909  1.00  0.00     0.031 A 
ATOM     16  C   UNL     1       5.776  -5.476  -3.058  1.00  0.00     0.074 A 
ATOM     17  C   UNL     1       4.721  -6.323  -0.984  1.00  0.00     0.049 A 
ATOM     18  N   UNL     1       6.605  -6.443  -3.345  1.00  0.00    -0.248 NA
ATOM     19  C   UNL     1       5.779  -4.367  -4.026  1.00  0.00     0.031 C 
ATOM     20  C   UNL     1       3.805  -6.295   0.147  1.00  0.00     0.029 A 
ATOM     21  N   UNL     1       5.436  -7.481  -0.803  1.00  0.00    -0.354 N 
ATOM     22  C   UNL     1       7.171  -6.095  -4.562  1.00  0.00     0.074 A 
ATOM     23  C   UNL     1       6.648  -4.798  -4.928  1.00  0.00     0.031 C 
ATOM     24  C   UNL     1       4.108  -7.301   0.985  1.00  0.00     0.029 A 
ATOM     25  C   UNL     1       5.204  -8.078   0.417  1.00  0.00     0.049 A 
ATOM     26  H   UNL     1       6.053  -7.848  -1.477  1.00  0.00     0.167 HD
ATOM     27  C   UNL     1       8.001  -6.837  -5.330  1.00  0.00     0.037 A 
ATOM     28  C   UNL     1       5.836  -9.115   1.002  1.00  0.00     0.037 A 
ATOM     29  C   UNL     1       8.486  -8.135  -4.947  1.00  0.00     0.049 A 
ATOM     30  C   UNL     1       6.860  -9.859   0.178  1.00  0.00     0.074 A 
ATOM     31  C   UNL     1       9.248  -9.027  -5.677  1.00  0.00     0.029 A 
ATOM     32  N   UNL     1       8.247  -8.723  -3.712  1.00  0.00    -0.354 N 
ATOM     33  N   UNL     1       7.359  -9.554  -0.996  1.00  0.00    -0.248 NA
ATOM     34  C   UNL     1       7.361 -11.126   0.731  1.00  0.00     0.031 C 
ATOM     35  C   UNL     1       9.437 -10.173  -4.896  1.00  0.00     0.029 A 
ATOM     36  C   UNL     1       8.840  -9.972  -3.661  1.00  0.00     0.049 A 
ATOM     37  H   UNL     1       7.731  -8.312  -2.981  1.00  0.00     0.167 HD
ATOM     38  C   UNL     1       8.183 -10.613  -1.347  1.00  0.00     0.074 A 
ATOM     39  C   UNL     1       8.197 -11.521  -0.219  1.00  0.00     0.031 C 
ATOM     40  C   UNL     1       8.824 -10.849  -2.519  1.00  0.00     0.037 A 
BRANCH  27  41
ATOM     41  C   UNL     1       8.312  -6.314  -6.698  1.00  0.00     0.064 A 
ATOM     42  C   UNL     1       9.184  -5.238  -6.912  1.00  0.00     0.173 A 
ATOM     43  C   UNL     1       7.692  -6.892  -7.818  1.00  0.00     0.173 A 
ATOM     44  F   UNL     1       9.771  -4.628  -5.872  1.00  0.00    -0.203 F 
ATOM     45  C   UNL     1       9.409  -4.747  -8.197  1.00  0.00     0.198 A 
ATOM     46  C   UNL     1       7.939  -6.415  -9.101  1.00  0.00     0.198 A 
ATOM     47  F   UNL     1       6.838  -7.915  -7.664  1.00  0.00    -0.203 F 
ATOM     48  F   UNL     1      10.205  -3.684  -8.376  1.00  0.00    -0.200 F 
ATOM     49  C   UNL     1       8.792  -5.339  -9.290  1.00  0.00     0.200 A 
ATOM     50  F   UNL     1       7.341  -6.990 -10.154  1.00  0.00    -0.200 F 
ATOM     51  F   UNL     1       9.007  -4.862 -10.523  1.00  0.00    -0.200 F 
ENDBRANCH  27  41
BRANCH  28  52
ATOM     52  C   UNL     1       5.543  -9.532   2.406  1.00  0.00     0.064 A 
ATOM     53  C   UNL     1       6.564  -9.540   3.373  1.00  0.00     0.173 A 
ATOM     54  C   UNL     1       4.277  -9.978   2.812  1.00  0.00     0.173 A 
ATOM     55  F   UNL     1       7.802  -9.142   3.042  1.00  0.00    -0.203 F 
ATOM     56  C   UNL     1       6.338 -10.007   4.669  1.00  0.00     0.198 A 
ATOM     57  C   UNL     1       4.040 -10.402   4.121  1.00  0.00     0.198 A 
ATOM     58  F   UNL     1       3.265 -10.015   1.934  1.00  0.00    -0.203 F 
ATOM     59  F   UNL     1       7.353 -10.072   5.541  1.00  0.00    -0.200 F 
ATOM     60  C   UNL     1       5.073 -10.431   5.044  1.00  0.00     0.200 A 
ATOM     61  F   UNL     1       2.814 -10.806   4.479  1.00  0.00    -0.200 F 
ATOM     62  F   UNL     1       4.858 -10.887   6.285  1.00  0.00    -0.200 F 
ENDBRANCH  28  52
BRANCH  40  63
ATOM     63  C   UNL     1       9.552 -12.153  -2.644  1.00  0.00     0.064 A 
ATOM     64  C   UNL     1       8.851 -13.363  -2.775  1.00  0.00     0.173 A 
ATOM     65  C   UNL     1      10.952 -12.191  -2.699  1.00  0.00     0.173 A 
ATOM     66  F   UNL     1       7.511 -13.376  -2.720  1.00  0.00    -0.203 F 
ATOM     67  C   UNL     1       9.529 -14.567  -2.934  1.00  0.00     0.198 A 
ATOM     68  C   UNL     1      11.625 -13.394  -2.886  1.00  0.00     0.198 A 
ATOM     69  F   UNL     1      11.664 -11.059  -2.588  1.00  0.00    -0.203 F 
ATOM     70  F   UNL     1       8.842 -15.714  -3.017  1.00  0.00    -0.200 F 
ATOM     71  C   UNL     1      10.915 -14.581  -2.997  1.00  0.00     0.200 A 
ATOM     72  F   UNL     1      12.963 -13.405  -2.962  1.00  0.00    -0.200 F 
ATOM     73  F   UNL     1      11.566 -15.740  -3.161  1.00  0.00    -0.200 F 
ENDBRANCH  40  63
ENDBRANCH  14  15
ENDBRANCH   7   9
ENDBRANCH   6   7
ENDBRANCH   5   6
ENDBRANCH   4   5
ENDBRANCH   3   4
ENDBRANCH   2   3
ENDBRANCH   1   2
BRANCH   1  74
ATOM     74  O   UNL     1       2.521   1.134   4.118  1.00  0.00    -0.376 OA
BRANCH  74  75
ATOM     75  C   UNL     1       3.915   0.952   4.365  1.00  0.00     0.202 C 
BRANCH  75  76
ATOM     76  C   UNL     1       4.260  -0.306   5.165  1.00  0.00     0.261 C 
BRANCH  76  77
ATOM     77  O   UNL     1       4.061  -1.477   4.361  1.00  0.00    -0.462 OA
BRANCH  77  78
ATOM     78  C   UNL     1       3.157  -2.392   4.806  1.00  0.00     0.328 C 
ATOM     79  O   UNL     1       2.573  -2.310   5.872  1.00  0.00    -0.250 OA
BRANCH  78  80
ATOM     80  C   UNL     1       2.904  -3.507   3.767  1.00  0.00     0.194 C 
BRANCH  80  81
ATOM     81  C   UNL     1       3.689  -3.331   2.451  1.00  0.00     0.072 C 
BRANCH  81  82
ATOM     82  C   UNL     1       5.198  -3.500   2.444  1.00  0.00    -0.045 A 
ATOM     83  C   UNL     1       5.795  -4.761   2.574  1.00  0.00     0.007 A 
ATOM     84  C   UNL     1       6.026  -2.401   2.170  1.00  0.00     0.007 A 
ATOM     85  C   UNL     1       7.165  -4.938   2.360  1.00  0.00     0.046 A 
ATOM     86  C   UNL     1       7.397  -2.569   1.967  1.00  0.00     0.046 A 
ATOM     87  C   UNL     1       7.950  -3.840   2.036  1.00  0.00     0.115 A 
BRANCH  87  88
ATOM     88  O   UNL     1       9.276  -3.972   1.755  1.00  0.00    -0.508 OA
ATOM     89  H   UNL     1       9.681  -4.816   1.792  1.00  0.00     0.293 HD
ENDBRANCH  87  88
ENDBRANCH  81  82
ENDBRANCH  80  81
BRANCH  80  90
ATOM     90  N   UNL     1       3.127  -4.864   4.317  1.00  0.00    -0.371 N 
ATOM     91  H   UNL     1       3.979  -5.330   4.161  1.00  0.00     0.161 HD
BRANCH  90  92
ATOM     92  C   UNL     1       2.102  -5.482   5.067  1.00  0.00     0.054 A 
ATOM     93  C   UNL     1       0.941  -6.015   4.435  1.00  0.00     0.024 A 
ATOM     94  C   UNL     1       2.212  -5.546   6.486  1.00  0.00     0.024 A 
ATOM     95  C   UNL     1       0.700  -5.995   3.037  1.00  0.00     0.012 A 
ATOM     96  C   UNL     1      -0.017  -6.636   5.261  1.00  0.00     0.073 A 
ATOM     97  C   UNL     1       1.177  -6.190   7.189  1.00  0.00     0.073 A 
ATOM     98  C   UNL     1       3.281  -4.986   7.233  1.00  0.00     0.012 A 
ATOM     99  C   UNL     1      -0.456  -6.550   2.483  1.00  0.00     0.001 A 
ATOM    100  C   UNL     1      -1.153  -7.194   4.688  1.00  0.00     0.029 A 
ATOM    101  N   UNL     1       0.110  -6.729   6.589  1.00  0.00    -0.248 NA
ATOM    102  C   UNL     1       1.248  -6.270   8.574  1.00  0.00     0.029 A 
ATOM    103  C   UNL     1       3.317  -5.054   8.624  1.00  0.00     0.001 A 
ATOM    104  C   UNL     1      -1.386  -7.154   3.314  1.00  0.00     0.002 A 
ATOM    105  C   UNL     1       2.300  -5.707   9.298  1.00  0.00     0.002 A 
ENDBRANCH  90  92
ENDBRANCH  80  90
ENDBRANCH  78  80
ENDBRANCH  77  78
ENDBRANCH  76  77
ENDBRANCH  75  76
ENDBRANCH  74  75
ENDBRANCH   1  74
TORSDOF 22
