REMARK SMILES CCN(Cc1c(C)nn(CC)c1C)C(=O)Cn1ccc(C(=O)OCCOCCOCCOC(=O)c2ccc(-c3c4nc(c(-c5c(F)c(F)c(F)c(F)c5F)c5ccc([nH]5)c(-c5c(F)c(F)c(F)c(F)c5F)c5nc(c(-c6c(F)c(F)c(F)c(F)c6F)c6ccc3[nH]6)C=C5)C=C4)cc2)n1
REMARK SMILES IDX 25 1 24 2 23 3 21 4 22 5 20 6 17 7 18 8 98 9 19 10 16 11
REMARK SMILES IDX 14 12 15 13 3 14 2 15 1 16 4 17 5 18 6 19 12 20 7 21 8 22
REMARK SMILES IDX 9 23 13 24 10 25 11 26 26 27 27 28 28 29 29 30 30 31 31 32
REMARK SMILES IDX 32 33 33 34 34 35 35 36 36 37 97 38 37 39 96 40 38 41 39 42
REMARK SMILES IDX 40 43 90 44 41 45 95 46 89 47 91 48 42 49 94 50 88 51 87 52
REMARK SMILES IDX 43 54 75 55 55 56 74 57 56 58 59 59 73 60 92 61 57 62 58 63
REMARK SMILES IDX 72 65 93 66 60 67 44 68 45 69 53 70 46 71 47 72 51 73 54 74
REMARK SMILES IDX 48 75 49 76 52 77 50 78 76 79 77 80 85 81 78 82 79 83 83 84
REMARK SMILES IDX 86 85 80 86 81 87 84 88 82 89 61 90 62 91 70 92 63 93 64 94
REMARK SMILES IDX 68 95 71 96 65 97 66 98 69 99 67 100
REMARK H PARENT 91 53 59 64
REMARK Flexibility Score: inf
ROOT
ATOM      1  C   UNL     1       2.720   5.903   5.140  1.00  0.00     0.202 C 
ENDROOT
BRANCH   1   2
ATOM      2  C   UNL     1       3.948   5.115   4.624  1.00  0.00     0.261 C 
BRANCH   2   3
ATOM      3  O   UNL     1       3.772   3.699   4.450  1.00  0.00    -0.458 OA
BRANCH   3   4
ATOM      4  C   UNL     1       4.015   2.905   5.532  1.00  0.00     0.358 C 
ATOM      5  O   UNL     1       4.392   3.344   6.614  1.00  0.00    -0.244 OA
BRANCH   4   6
ATOM      6  C   UNL     1       3.609   1.494   5.349  1.00  0.00     0.170 A 
ATOM      7  N   UNL     1       3.137  -0.420   4.498  1.00  0.00    -0.262 N 
ATOM      8  C   UNL     1       2.898  -0.555   5.839  1.00  0.00     0.110 A 
ATOM      9  N   UNL     1       3.575   0.821   4.175  1.00  0.00    -0.165 NA
ATOM     10  C   UNL     1       3.166   0.659   6.410  1.00  0.00     0.057 A 
BRANCH   7  11
ATOM     11  C   UNL     1       3.180  -1.544   3.569  1.00  0.00     0.244 C 
BRANCH  11  12
ATOM     12  C   UNL     1       2.473  -1.373   2.244  1.00  0.00     0.244 C 
ATOM     13  O   UNL     1       3.159  -1.321   1.214  1.00  0.00    -0.273 OA
BRANCH  12  14
ATOM     14  N   UNL     1       1.080  -1.405   2.163  1.00  0.00    -0.337 N 
BRANCH  14  15
ATOM     15  C   UNL     1       0.484  -1.210   0.836  1.00  0.00     0.116 C 
ATOM     16  C   UNL     1       0.675   0.195   0.281  1.00  0.00     0.027 C 
ENDBRANCH  14  15
BRANCH  14  17
ATOM     17  C   UNL     1       0.159  -1.563   3.294  1.00  0.00     0.159 C 
BRANCH  17  18
ATOM     18  C   UNL     1       0.047  -2.988   3.770  1.00  0.00     0.015 A 
ATOM     19  C   UNL     1       0.029  -3.416   5.136  1.00  0.00     0.065 A 
ATOM     20  C   UNL     1      -0.192  -4.167   3.063  1.00  0.00     0.041 A 
ATOM     21  C   UNL     1       0.032  -2.620   6.389  1.00  0.00     0.069 C 
ATOM     22  N   UNL     1      -0.030  -4.744   5.247  1.00  0.00    -0.178 NA
ATOM     23  N   UNL     1      -0.142  -5.184   3.987  1.00  0.00    -0.270 N 
ATOM     24  C   UNL     1      -0.488  -4.433   1.632  1.00  0.00     0.067 C 
BRANCH  23  25
ATOM     25  C   UNL     1      -0.254  -6.617   3.774  1.00  0.00     0.141 C 
ATOM     26  C   UNL     1       1.080  -7.331   3.912  1.00  0.00     0.029 C 
ENDBRANCH  23  25
ENDBRANCH  17  18
ENDBRANCH  14  17
ENDBRANCH  12  14
ENDBRANCH  11  12
ENDBRANCH   7  11
ENDBRANCH   4   6
ENDBRANCH   3   4
ENDBRANCH   2   3
ENDBRANCH   1   2
BRANCH   1  27
ATOM     27  O   UNL     1       1.425   5.519   4.689  1.00  0.00    -0.376 OA
BRANCH  27  28
ATOM     28  C   UNL     1       1.018   4.208   5.038  1.00  0.00     0.188 C 
BRANCH  28  29
ATOM     29  C   UNL     1       0.829   3.256   3.839  1.00  0.00     0.188 C 
BRANCH  29  30
ATOM     30  O   UNL     1       1.380   3.524   2.555  1.00  0.00    -0.376 OA
BRANCH  30  31
ATOM     31  C   UNL     1       1.422   4.833   2.005  1.00  0.00     0.202 C 
BRANCH  31  32
ATOM     32  C   UNL     1       0.119   5.577   1.727  1.00  0.00     0.261 C 
BRANCH  32  33
ATOM     33  O   UNL     1      -0.762   5.612   2.840  1.00  0.00    -0.460 OA
BRANCH  33  34
ATOM     34  C   UNL     1      -1.693   4.637   2.831  1.00  0.00     0.338 C 
ATOM     35  O   UNL     1      -1.825   3.746   2.011  1.00  0.00    -0.246 OA
BRANCH  34  36
ATOM     36  C   UNL     1      -2.613   4.831   3.962  1.00  0.00     0.060 A 
ATOM     37  C   UNL     1      -3.640   3.891   4.077  1.00  0.00     0.016 A 
ATOM     38  C   UNL     1      -2.624   6.031   4.686  1.00  0.00     0.016 A 
ATOM     39  C   UNL     1      -4.810   4.274   4.691  1.00  0.00     0.010 A 
ATOM     40  C   UNL     1      -3.798   6.418   5.299  1.00  0.00     0.010 A 
ATOM     41  C   UNL     1      -4.906   5.580   5.179  1.00  0.00    -0.014 A 
BRANCH  41  42
ATOM     42  C   UNL     1      -6.247   6.103   5.350  1.00  0.00     0.031 A 
ATOM     43  C   UNL     1      -6.943   5.772   6.606  1.00  0.00     0.074 A 
ATOM     44  C   UNL     1      -6.795   6.890   4.404  1.00  0.00     0.049 A 
ATOM     45  N   UNL     1      -8.080   5.176   6.754  1.00  0.00    -0.248 NA
ATOM     46  C   UNL     1      -6.262   6.112   7.861  1.00  0.00     0.031 C 
ATOM     47  C   UNL     1      -6.124   7.525   3.264  1.00  0.00     0.029 A 
ATOM     48  N   UNL     1      -8.065   7.376   4.332  1.00  0.00    -0.354 N 
ATOM     49  C   UNL     1      -8.338   5.194   8.119  1.00  0.00     0.074 A 
ATOM     50  C   UNL     1      -7.147   5.689   8.762  1.00  0.00     0.031 C 
ATOM     51  C   UNL     1      -6.935   8.475   2.750  1.00  0.00     0.029 A 
ATOM     52  C   UNL     1      -8.210   8.430   3.447  1.00  0.00     0.049 A 
ATOM     53  H   UNL     1      -8.811   7.012   4.861  1.00  0.00     0.167 HD
ATOM     54  C   UNL     1      -9.584   4.981   8.617  1.00  0.00     0.037 A 
ATOM     55  C   UNL     1      -9.270   9.267   3.362  1.00  0.00     0.037 A 
ATOM     56  C   UNL     1     -10.436   4.298   7.683  1.00  0.00     0.049 A 
ATOM     57  C   UNL     1     -10.426   8.617   4.026  1.00  0.00     0.074 A 
ATOM     58  C   UNL     1     -10.390   3.070   7.053  1.00  0.00     0.029 A 
ATOM     59  N   UNL     1     -11.412   5.010   7.035  1.00  0.00    -0.354 N 
ATOM     60  N   UNL     1     -11.071   7.588   3.552  1.00  0.00    -0.248 NA
ATOM     61  C   UNL     1     -10.637   8.884   5.442  1.00  0.00     0.031 C 
ATOM     62  C   UNL     1     -11.011   3.270   5.787  1.00  0.00     0.029 A 
ATOM     63  C   UNL     1     -11.396   4.609   5.724  1.00  0.00     0.049 A 
ATOM     64  H   UNL     1     -12.011   5.682   7.435  1.00  0.00     0.167 HD
ATOM     65  C   UNL     1     -11.441   6.854   4.670  1.00  0.00     0.074 A 
ATOM     66  C   UNL     1     -11.250   7.754   5.800  1.00  0.00     0.031 C 
ATOM     67  C   UNL     1     -11.597   5.500   4.607  1.00  0.00     0.037 A 
BRANCH  54  68
ATOM     68  C   UNL     1     -10.111   5.656   9.851  1.00  0.00     0.064 A 
ATOM     69  C   UNL     1     -11.300   5.194  10.445  1.00  0.00     0.173 A 
ATOM     70  C   UNL     1      -9.643   6.909  10.304  1.00  0.00     0.173 A 
ATOM     71  F   UNL     1     -11.849   4.032  10.059  1.00  0.00    -0.203 F 
ATOM     72  C   UNL     1     -11.995   5.956  11.386  1.00  0.00     0.198 A 
ATOM     73  C   UNL     1     -10.308   7.640  11.285  1.00  0.00     0.198 A 
ATOM     74  F   UNL     1      -8.592   7.518   9.739  1.00  0.00    -0.203 F 
ATOM     75  F   UNL     1     -13.182   5.531  11.839  1.00  0.00    -0.200 F 
ATOM     76  C   UNL     1     -11.499   7.178  11.805  1.00  0.00     0.200 A 
ATOM     77  F   UNL     1      -9.822   8.831  11.663  1.00  0.00    -0.200 F 
ATOM     78  F   UNL     1     -12.190   7.933  12.668  1.00  0.00    -0.200 F 
ENDBRANCH  54  68
BRANCH  55  79
ATOM     79  C   UNL     1      -9.253  10.698   2.987  1.00  0.00     0.064 A 
ATOM     80  C   UNL     1     -10.418  11.356   2.567  1.00  0.00     0.173 A 
ATOM     81  C   UNL     1      -8.134  11.514   3.254  1.00  0.00     0.173 A 
ATOM     82  F   UNL     1     -11.544  10.661   2.351  1.00  0.00    -0.203 F 
ATOM     83  C   UNL     1     -10.460  12.746   2.420  1.00  0.00     0.198 A 
ATOM     84  C   UNL     1      -8.171  12.897   3.089  1.00  0.00     0.198 A 
ATOM     85  F   UNL     1      -7.007  10.995   3.763  1.00  0.00    -0.203 F 
ATOM     86  F   UNL     1     -11.605  13.346   2.067  1.00  0.00    -0.200 F 
ATOM     87  C   UNL     1      -9.337  13.515   2.681  1.00  0.00     0.200 A 
ATOM     88  F   UNL     1      -7.087  13.630   3.382  1.00  0.00    -0.200 F 
ATOM     89  F   UNL     1      -9.389  14.850   2.580  1.00  0.00    -0.200 F 
ENDBRANCH  55  79
BRANCH  67  90
ATOM     90  C   UNL     1     -11.670   4.867   3.251  1.00  0.00     0.064 A 
ATOM     91  C   UNL     1     -10.588   4.843   2.355  1.00  0.00     0.173 A 
ATOM     92  C   UNL     1     -12.808   4.120   2.918  1.00  0.00     0.173 A 
ATOM     93  F   UNL     1      -9.432   5.448   2.658  1.00  0.00    -0.203 F 
ATOM     94  C   UNL     1     -10.662   4.132   1.159  1.00  0.00     0.198 A 
ATOM     95  C   UNL     1     -12.866   3.385   1.738  1.00  0.00     0.198 A 
ATOM     96  F   UNL     1     -13.845   4.059   3.769  1.00  0.00    -0.203 F 
ATOM     97  F   UNL     1      -9.618   4.124   0.317  1.00  0.00    -0.200 F 
ATOM     98  C   UNL     1     -11.797   3.398   0.855  1.00  0.00     0.200 A 
ATOM     99  F   UNL     1     -13.945   2.635   1.471  1.00  0.00    -0.200 F 
ATOM    100  F   UNL     1     -11.850   2.677  -0.274  1.00  0.00    -0.200 F 
ENDBRANCH  67  90
ENDBRANCH  41  42
ENDBRANCH  34  36
ENDBRANCH  33  34
ENDBRANCH  32  33
ENDBRANCH  31  32
ENDBRANCH  30  31
ENDBRANCH  29  30
ENDBRANCH  28  29
ENDBRANCH  27  28
ENDBRANCH   1  27
TORSDOF 24
