REMARK SMILES O=C(OCCOCCOCCOC(=O)c1ccc(-c2c3nc(c(-c4c(F)c(F)c(F)c(F)c4F)c4ccc([nH]4)c(-c4c(F)c(F)c(F)c(F)c4F)c4nc(c(-c5c(F)c(F)c(F)c(F)c5F)c5ccc2[nH]5)C=C4)C=C3)cc1)C1=Cc2cc(C(F)(F)F)ccc2O[C@@H]1C(F)(F)F
REMARK SMILES IDX 8 1 7 2 6 3 5 4 4 5 3 6 2 7 1 8 78 9 79 10 91 11 80 12 90 13
REMARK SMILES IDX 81 14 89 15 82 16 88 17 87 18 92 19 93 20 94 21 95 22 83 23
REMARK SMILES IDX 84 24 85 25 86 26 9 27 10 28 11 29 12 30 13 31 14 32 15 33
REMARK SMILES IDX 16 34 77 35 17 36 76 37 18 38 19 39 20 40 70 41 21 42 75 43
REMARK SMILES IDX 69 44 71 45 22 46 74 47 68 48 67 49 23 51 55 52 35 53 54 54
REMARK SMILES IDX 36 55 39 56 53 57 72 58 37 59 38 60 52 62 73 63 40 64 24 65
REMARK SMILES IDX 25 66 33 67 26 68 27 69 31 70 34 71 28 72 29 73 32 74 30 75
REMARK SMILES IDX 56 76 57 77 65 78 58 79 59 80 63 81 66 82 60 83 61 84 64 85
REMARK SMILES IDX 62 86 41 87 42 88 50 89 43 90 44 91 48 92 51 93 45 94 46 95
REMARK SMILES IDX 49 96 47 97
REMARK H PARENT 71 50 39 61
REMARK Flexibility Score: inf
ROOT
ATOM      1  C   UNL     1       2.194   0.373   3.465  1.00  0.00     0.188 C 
ENDROOT
BRANCH   1   2
ATOM      2  C   UNL     1       2.429  -0.556   2.264  1.00  0.00     0.188 C 
BRANCH   2   3
ATOM      3  O   UNL     1       3.773  -0.997   1.785  1.00  0.00    -0.376 OA
BRANCH   3   4
ATOM      4  C   UNL     1       4.496  -0.736   0.238  1.00  0.00     0.202 C 
BRANCH   4   5
ATOM      5  C   UNL     1       3.748   0.648  -1.262  1.00  0.00     0.261 C 
BRANCH   5   6
ATOM      6  O   UNL     1       2.740   0.334  -2.358  1.00  0.00    -0.460 OA
BRANCH   6   7
ATOM      7  C   UNL     1       2.896  -0.908  -2.837  1.00  0.00     0.338 C 
ATOM      8  O   UNL     1       2.167  -1.520  -3.579  1.00  0.00    -0.246 OA
BRANCH   7   9
ATOM      9  C   UNL     1       3.818  -1.377  -1.816  1.00  0.00     0.087 C 
ATOM     10  C   UNL     1       5.200  -0.941  -1.960  1.00  0.00     0.027 C 
ATOM     11  C   UNL     1       2.654  -0.859  -0.385  1.00  0.00     0.316 C 
ATOM     12  C   UNL     1       5.949   0.369  -0.997  1.00  0.00     0.018 A 
ATOM     13  O   UNL     1       3.373   0.687   0.574  1.00  0.00    -0.475 OA
ATOM     14  C   UNL     1       7.237   0.729  -1.264  1.00  0.00     0.025 A 
ATOM     15  C   UNL     1       5.078   1.251   0.207  1.00  0.00     0.128 A 
ATOM     16  C   UNL     1       7.758   1.782  -0.475  1.00  0.00     0.056 A 
ATOM     17  C   UNL     1       5.639   2.248   0.953  1.00  0.00     0.048 A 
ATOM     18  C   UNL     1       6.995   2.482   0.581  1.00  0.00     0.017 A 
BRANCH  11  19
ATOM     19  C   UNL     1       2.412  -2.463   0.066  1.00  0.00     0.430 C 
ATOM     20  F   UNL     1       2.275  -2.822   1.340  1.00  0.00    -0.167 F 
ATOM     21  F   UNL     1       1.276  -2.897  -0.551  1.00  0.00    -0.167 F 
ATOM     22  F   UNL     1       3.388  -3.296  -0.412  1.00  0.00    -0.167 F 
ENDBRANCH  11  19
BRANCH  16  23
ATOM     23  C   UNL     1       9.205   2.157  -0.781  1.00  0.00     0.416 C 
ATOM     24  F   UNL     1      10.064   1.131  -0.519  1.00  0.00    -0.166 F 
ATOM     25  F   UNL     1       9.386   2.456  -2.099  1.00  0.00    -0.166 F 
ATOM     26  F   UNL     1       9.665   3.227  -0.083  1.00  0.00    -0.166 F 
ENDBRANCH  16  23
ENDBRANCH   7   9
ENDBRANCH   6   7
ENDBRANCH   5   6
ENDBRANCH   4   5
ENDBRANCH   3   4
ENDBRANCH   2   3
ENDBRANCH   1   2
BRANCH   1  27
ATOM     27  O   UNL     1       3.175   1.318   3.799  1.00  0.00    -0.376 OA
BRANCH  27  28
ATOM     28  C   UNL     1       4.463   0.781   4.066  1.00  0.00     0.202 C 
BRANCH  28  29
ATOM     29  C   UNL     1       4.570  -0.379   5.072  1.00  0.00     0.261 C 
BRANCH  29  30
ATOM     30  O   UNL     1       4.087  -1.646   4.564  1.00  0.00    -0.460 OA
BRANCH  30  31
ATOM     31  C   UNL     1       3.043  -2.227   5.209  1.00  0.00     0.338 C 
ATOM     32  O   UNL     1       2.442  -1.799   6.179  1.00  0.00    -0.246 OA
BRANCH  31  33
ATOM     33  C   UNL     1       2.616  -3.438   4.475  1.00  0.00     0.060 A 
ATOM     34  C   UNL     1       1.314  -3.514   3.952  1.00  0.00     0.016 A 
ATOM     35  C   UNL     1       3.486  -4.520   4.353  1.00  0.00     0.016 A 
ATOM     36  C   UNL     1       0.895  -4.659   3.268  1.00  0.00     0.010 A 
ATOM     37  C   UNL     1       3.046  -5.687   3.721  1.00  0.00     0.010 A 
ATOM     38  C   UNL     1       1.745  -5.768   3.191  1.00  0.00    -0.014 A 
BRANCH  38  39
ATOM     39  C   UNL     1       1.192  -7.096   2.829  1.00  0.00     0.031 A 
ATOM     40  C   UNL     1       0.660  -7.945   3.950  1.00  0.00     0.074 A 
ATOM     41  C   UNL     1       1.175  -7.552   1.565  1.00  0.00     0.049 A 
ATOM     42  N   UNL     1       0.202  -9.169   3.930  1.00  0.00    -0.248 NA
ATOM     43  C   UNL     1       0.659  -7.322   5.285  1.00  0.00     0.031 C 
ATOM     44  C   UNL     1       1.620  -6.809   0.390  1.00  0.00     0.029 A 
ATOM     45  N   UNL     1       0.775  -8.769   1.066  1.00  0.00    -0.354 N 
ATOM     46  C   UNL     1      -0.136  -9.461   5.245  1.00  0.00     0.074 A 
ATOM     47  C   UNL     1       0.204  -8.305   6.043  1.00  0.00     0.031 C 
ATOM     48  C   UNL     1       1.486  -7.594  -0.695  1.00  0.00     0.029 A 
ATOM     49  C   UNL     1       0.980  -8.904  -0.286  1.00  0.00     0.049 A 
ATOM     50  H   UNL     1       0.380  -9.476   1.624  1.00  0.00     0.167 HD
ATOM     51  C   UNL     1      -0.685 -10.593   5.744  1.00  0.00     0.037 A 
ATOM     52  C   UNL     1       0.802  -9.975  -1.087  1.00  0.00     0.037 A 
ATOM     53  C   UNL     1      -0.992 -11.752   4.949  1.00  0.00     0.049 A 
ATOM     54  C   UNL     1       0.277 -11.262  -0.492  1.00  0.00     0.074 A 
ATOM     55  C   UNL     1      -1.554 -12.948   5.352  1.00  0.00     0.029 A 
ATOM     56  N   UNL     1      -0.739 -11.864   3.589  1.00  0.00    -0.354 N 
ATOM     57  N   UNL     1      -0.073 -11.525   0.745  1.00  0.00    -0.248 NA
ATOM     58  C   UNL     1       0.118 -12.402  -1.408  1.00  0.00     0.031 C 
ATOM     59  C   UNL     1      -1.568 -13.813   4.254  1.00  0.00     0.029 A 
ATOM     60  C   UNL     1      -1.101 -13.125   3.145  1.00  0.00     0.049 A 
ATOM     61  H   UNL     1      -0.359 -11.153   3.024  1.00  0.00     0.167 HD
ATOM     62  C   UNL     1      -0.528 -12.840   0.747  1.00  0.00     0.074 A 
ATOM     63  C   UNL     1      -0.421 -13.317  -0.615  1.00  0.00     0.031 C 
ATOM     64  C   UNL     1      -0.997 -13.583   1.782  1.00  0.00     0.037 A 
BRANCH  51  65
ATOM     65  C   UNL     1      -0.938 -10.643   7.223  1.00  0.00     0.064 A 
ATOM     66  C   UNL     1      -1.898  -9.826   7.841  1.00  0.00     0.173 A 
ATOM     67  C   UNL     1      -0.210 -11.527   8.036  1.00  0.00     0.173 A 
ATOM     68  F   UNL     1      -2.610  -8.951   7.114  1.00  0.00    -0.203 F 
ATOM     69  C   UNL     1      -2.091  -9.864   9.219  1.00  0.00     0.198 A 
ATOM     70  C   UNL     1      -0.436 -11.591   9.408  1.00  0.00     0.198 A 
ATOM     71  F   UNL     1       0.720 -12.331   7.499  1.00  0.00    -0.203 F 
ATOM     72  F   UNL     1      -2.965  -9.026   9.795  1.00  0.00    -0.200 F 
ATOM     73  C   UNL     1      -1.367 -10.752  10.000  1.00  0.00     0.200 A 
ATOM     74  F   UNL     1       0.253 -12.462  10.157  1.00  0.00    -0.200 F 
ATOM     75  F   UNL     1      -1.559 -10.792  11.325  1.00  0.00    -0.200 F 
ENDBRANCH  51  65
BRANCH  52  76
ATOM     76  C   UNL     1       1.134  -9.893  -2.537  1.00  0.00     0.064 A 
ATOM     77  C   UNL     1       0.140 -10.018  -3.519  1.00  0.00     0.173 A 
ATOM     78  C   UNL     1       2.457  -9.725  -2.974  1.00  0.00     0.173 A 
ATOM     79  F   UNL     1      -1.137 -10.213  -3.158  1.00  0.00    -0.203 F 
ATOM     80  C   UNL     1       0.458 -10.002  -4.876  1.00  0.00     0.198 A 
ATOM     81  C   UNL     1       2.769  -9.672  -4.332  1.00  0.00     0.198 A 
ATOM     82  F   UNL     1       3.451  -9.611  -2.081  1.00  0.00    -0.203 F 
ATOM     83  F   UNL     1      -0.505 -10.188  -5.790  1.00  0.00    -0.200 F 
ATOM     84  C   UNL     1       1.771  -9.822  -5.282  1.00  0.00     0.200 A 
ATOM     85  F   UNL     1       4.039  -9.488  -4.718  1.00  0.00    -0.200 F 
ATOM     86  F   UNL     1       2.077  -9.806  -6.587  1.00  0.00    -0.200 F 
ENDBRANCH  52  76
BRANCH  64  87
ATOM     87  C   UNL     1      -1.486 -14.974   1.479  1.00  0.00     0.064 A 
ATOM     88  C   UNL     1      -0.617 -16.005   1.095  1.00  0.00     0.173 A 
ATOM     89  C   UNL     1      -2.847 -15.289   1.631  1.00  0.00     0.173 A 
ATOM     90  F   UNL     1       0.692 -15.759   0.928  1.00  0.00    -0.203 F 
ATOM     91  C   UNL     1      -1.095 -17.288   0.839  1.00  0.00     0.198 A 
ATOM     92  C   UNL     1      -3.314 -16.583   1.417  1.00  0.00     0.198 A 
ATOM     93  F   UNL     1      -3.723 -14.346   2.010  1.00  0.00    -0.203 F 
ATOM     94  F   UNL     1      -0.255 -18.242   0.415  1.00  0.00    -0.200 F 
ATOM     95  C   UNL     1      -2.441 -17.578   1.010  1.00  0.00     0.200 A 
ATOM     96  F   UNL     1      -4.611 -16.865   1.608  1.00  0.00    -0.200 F 
ATOM     97  F   UNL     1      -2.896 -18.817   0.777  1.00  0.00    -0.200 F 
ENDBRANCH  64  87
ENDBRANCH  38  39
ENDBRANCH  31  33
ENDBRANCH  30  31
ENDBRANCH  29  30
ENDBRANCH  28  29
ENDBRANCH  27  28
ENDBRANCH   1  27
TORSDOF 19
