REMARK SMILES NS(=O)(=O)c1ccc(/N=C/c2ccc(O)c(C(=O)OCCOCCOCCOC(=O)c3ccc(-c4c5nc(c(-c6c(F)c(F)c(F)c(F)c6F)c6ccc([nH]6)c(-c6c(F)c(F)c(F)c(F)c6F)c6nc(c(-c7c(F)c(F)c(F)c(F)c7F)c7ccc4[nH]7)C=C6)C=C5)cc3)c2)cc1
REMARK SMILES IDX 23 1 22 2 21 3 20 4 19 5 17 6 18 7 16 8 11 9 12 10 94 11
REMARK SMILES IDX 13 12 14 13 10 14 9 15 8 16 5 17 6 18 96 19 7 20 95 21 2 22
REMARK SMILES IDX 3 23 4 24 1 25 15 28 24 30 25 31 26 32 27 33 28 34 29 35
REMARK SMILES IDX 30 36 31 37 32 38 93 39 33 40 92 41 34 42 35 43 36 44 86 45
REMARK SMILES IDX 37 46 91 47 85 48 87 49 38 50 90 51 84 52 83 53 39 55 71 56
REMARK SMILES IDX 51 57 70 58 52 59 55 60 69 61 88 62 53 63 54 64 68 66 89 67
REMARK SMILES IDX 56 68 40 69 41 70 49 71 42 72 43 73 47 74 50 75 44 76 45 77
REMARK SMILES IDX 48 78 46 79 72 80 73 81 81 82 74 83 75 84 79 85 82 86 76 87
REMARK SMILES IDX 77 88 80 89 78 90 57 91 58 92 66 93 59 94 60 95 64 96 67 97
REMARK SMILES IDX 61 98 62 99 65 100 63 101
REMARK H PARENT 1 26 1 27 15 29 87 54 55 65
REMARK Flexibility Score: inf
ROOT
ATOM      1  C   UNL     1       6.826 -10.737   3.502  1.00  0.00     0.188 C 
ENDROOT
BRANCH   1   2
ATOM      2  O   UNL     1       6.993 -11.649   2.434  1.00  0.00    -0.376 OA
BRANCH   2   3
ATOM      3  C   UNL     1       6.123 -11.619   1.313  1.00  0.00     0.202 C 
BRANCH   3   4
ATOM      4  C   UNL     1       4.605 -11.388   1.433  1.00  0.00     0.261 C 
BRANCH   4   5
ATOM      5  O   UNL     1       4.176 -10.371   2.348  1.00  0.00    -0.460 OA
BRANCH   5   6
ATOM      6  C   UNL     1       3.594 -10.817   3.487  1.00  0.00     0.342 C 
ATOM      7  O   UNL     1       3.407 -11.981   3.811  1.00  0.00    -0.246 OA
BRANCH   6   8
ATOM      8  C   UNL     1       3.466  -9.719   4.468  1.00  0.00     0.102 A 
ATOM      9  C   UNL     1       3.022  -7.416   5.044  1.00  0.00    -0.006 A 
ATOM     10  C   UNL     1       3.431  -7.659   6.362  1.00  0.00     0.013 A 
ATOM     11  C   UNL     1       3.048  -8.439   4.088  1.00  0.00     0.029 A 
ATOM     12  C   UNL     1       3.857  -8.933   6.734  1.00  0.00     0.048 A 
ATOM     13  C   UNL     1       3.862  -9.960   5.795  1.00  0.00     0.130 A 
BRANCH   9  14
ATOM     14  C   UNL     1       2.570  -6.053   4.695  1.00  0.00     0.119 C 
ATOM     15  N   UNL     1       2.200  -5.751   3.494  1.00  0.00    -0.256 NA
BRANCH  15  16
ATOM     16  C   UNL     1       1.771  -4.450   3.175  1.00  0.00     0.063 A 
ATOM     17  C   UNL     1       0.926  -1.917   2.299  1.00  0.00     0.082 A 
ATOM     18  C   UNL     1       0.510  -3.059   1.615  1.00  0.00     0.024 A 
ATOM     19  C   UNL     1       1.743  -2.025   3.425  1.00  0.00     0.024 A 
ATOM     20  C   UNL     1       0.937  -4.315   2.057  1.00  0.00     0.030 A 
ATOM     21  C   UNL     1       2.171  -3.288   3.850  1.00  0.00     0.030 A 
BRANCH  17  22
ATOM     22  S   UNL     1       0.430  -0.321   1.724  1.00  0.00     0.238 S 
ATOM     23  O   UNL     1       1.042   0.696   2.543  1.00  0.00    -0.207 OA
ATOM     24  O   UNL     1      -0.988  -0.348   1.442  1.00  0.00    -0.207 OA
BRANCH  22  25
ATOM     25  N   UNL     1       1.205  -0.223   0.237  1.00  0.00    -0.225 NA
ATOM     26  H   UNL     1       0.990   0.673  -0.200  1.00  0.00     0.137 HD
ATOM     27  H   UNL     1       0.883  -0.981  -0.365  1.00  0.00     0.137 HD
ENDBRANCH  22  25
ENDBRANCH  17  22
ENDBRANCH  15  16
ENDBRANCH   9  14
BRANCH  13  28
ATOM     28  O   UNL     1       4.318 -11.176   6.232  1.00  0.00    -0.507 OA
ATOM     29  H   UNL     1       4.571 -11.287   7.128  1.00  0.00     0.293 HD
ENDBRANCH  13  28
ENDBRANCH   6   8
ENDBRANCH   5   6
ENDBRANCH   4   5
ENDBRANCH   3   4
ENDBRANCH   2   3
ENDBRANCH   1   2
BRANCH   1  30
ATOM     30  C   UNL     1       6.778  -9.219   3.234  1.00  0.00     0.188 C 
BRANCH  30  31
ATOM     31  O   UNL     1       6.743  -8.827   1.886  1.00  0.00    -0.376 OA
BRANCH  31  32
ATOM     32  C   UNL     1       7.946  -8.694   1.150  1.00  0.00     0.202 C 
BRANCH  32  33
ATOM     33  C   UNL     1       9.364  -9.062   1.639  1.00  0.00     0.261 C 
BRANCH  33  34
ATOM     34  O   UNL     1       9.517  -9.692   2.914  1.00  0.00    -0.460 OA
BRANCH  34  35
ATOM     35  C   UNL     1       9.935  -8.892   3.925  1.00  0.00     0.338 C 
ATOM     36  O   UNL     1      10.153  -7.694   3.883  1.00  0.00    -0.246 OA
BRANCH  35  37
ATOM     37  C   UNL     1       9.928  -9.671   5.178  1.00  0.00     0.060 A 
ATOM     38  C   UNL     1       8.977  -9.363   6.161  1.00  0.00     0.016 A 
ATOM     39  C   UNL     1      10.878 -10.668   5.398  1.00  0.00     0.016 A 
ATOM     40  C   UNL     1       8.988 -10.039   7.380  1.00  0.00     0.010 A 
ATOM     41  C   UNL     1      10.900 -11.331   6.628  1.00  0.00     0.010 A 
ATOM     42  C   UNL     1       9.976 -10.998   7.637  1.00  0.00    -0.014 A 
BRANCH  42  43
ATOM     43  C   UNL     1      10.152 -11.528   9.011  1.00  0.00     0.031 A 
ATOM     44  C   UNL     1      11.254 -10.969   9.866  1.00  0.00     0.074 A 
ATOM     45  C   UNL     1       9.347 -12.488   9.498  1.00  0.00     0.049 A 
ATOM     46  N   UNL     1      11.640 -11.319  11.067  1.00  0.00    -0.248 NA
ATOM     47  C   UNL     1      12.031  -9.868   9.279  1.00  0.00     0.031 C 
ATOM     48  C   UNL     1       8.225 -13.089   8.783  1.00  0.00     0.029 A 
ATOM     49  N   UNL     1       9.370 -13.138  10.707  1.00  0.00    -0.354 N 
ATOM     50  C   UNL     1      12.711 -10.489  11.374  1.00  0.00     0.074 A 
ATOM     51  C   UNL     1      12.938  -9.649  10.217  1.00  0.00     0.031 C 
ATOM     52  C   UNL     1       7.680 -14.043   9.558  1.00  0.00     0.029 A 
ATOM     53  C   UNL     1       8.438 -14.140  10.806  1.00  0.00     0.049 A 
ATOM     54  H   UNL     1       9.994 -12.908  11.433  1.00  0.00     0.167 HD
ATOM     55  C   UNL     1      13.434 -10.428  12.518  1.00  0.00     0.037 A 
ATOM     56  C   UNL     1       8.240 -15.052  11.778  1.00  0.00     0.037 A 
ATOM     57  C   UNL     1      13.214 -11.279  13.660  1.00  0.00     0.049 A 
ATOM     58  C   UNL     1       9.098 -15.018  13.016  1.00  0.00     0.074 A 
ATOM     59  C   UNL     1      13.874 -11.281  14.876  1.00  0.00     0.029 A 
ATOM     60  N   UNL     1      12.270 -12.296  13.717  1.00  0.00    -0.354 N 
ATOM     61  N   UNL     1      10.085 -14.209  13.318  1.00  0.00    -0.248 NA
ATOM     62  C   UNL     1       8.808 -16.019  14.052  1.00  0.00     0.031 C 
ATOM     63  C   UNL     1      13.380 -12.344  15.640  1.00  0.00     0.029 A 
ATOM     64  C   UNL     1      12.356 -12.956  14.934  1.00  0.00     0.049 A 
ATOM     65  H   UNL     1      11.633 -12.516  13.000  1.00  0.00     0.167 HD
ATOM     66  C   UNL     1      10.517 -14.585  14.585  1.00  0.00     0.074 A 
ATOM     67  C   UNL     1       9.674 -15.687  15.000  1.00  0.00     0.031 C 
ATOM     68  C   UNL     1      11.518 -14.059  15.337  1.00  0.00     0.037 A 
BRANCH  55  69
ATOM     69  C   UNL     1      14.563  -9.435  12.563  1.00  0.00     0.064 A 
ATOM     70  C   UNL     1      14.337  -8.049  12.539  1.00  0.00     0.173 A 
ATOM     71  C   UNL     1      15.894  -9.877  12.614  1.00  0.00     0.173 A 
ATOM     72  F   UNL     1      13.085  -7.569  12.479  1.00  0.00    -0.203 F 
ATOM     73  C   UNL     1      15.399  -7.148  12.508  1.00  0.00     0.198 A 
ATOM     74  C   UNL     1      16.952  -8.973  12.626  1.00  0.00     0.198 A 
ATOM     75  F   UNL     1      16.171 -11.189  12.648  1.00  0.00    -0.203 F 
ATOM     76  F   UNL     1      15.158  -5.834  12.404  1.00  0.00    -0.200 F 
ATOM     77  C   UNL     1      16.705  -7.610  12.556  1.00  0.00     0.200 A 
ATOM     78  F   UNL     1      18.214  -9.421  12.689  1.00  0.00    -0.200 F 
ATOM     79  F   UNL     1      17.726  -6.743  12.520  1.00  0.00    -0.200 F 
ENDBRANCH  55  69
BRANCH  56  80
ATOM     80  C   UNL     1       7.188 -16.087  11.600  1.00  0.00     0.064 A 
ATOM     81  C   UNL     1       6.021 -16.082  12.374  1.00  0.00     0.173 A 
ATOM     82  C   UNL     1       7.323 -17.093  10.629  1.00  0.00     0.173 A 
ATOM     83  F   UNL     1       5.858 -15.159  13.334  1.00  0.00    -0.203 F 
ATOM     84  C   UNL     1       5.030 -17.045  12.188  1.00  0.00     0.198 A 
ATOM     85  C   UNL     1       6.319 -18.036  10.424  1.00  0.00     0.198 A 
ATOM     86  F   UNL     1       8.424 -17.144   9.864  1.00  0.00    -0.203 F 
ATOM     87  F   UNL     1       3.940 -17.039  12.967  1.00  0.00    -0.200 F 
ATOM     88  C   UNL     1       5.175 -18.014  11.207  1.00  0.00     0.200 A 
ATOM     89  F   UNL     1       6.458 -18.962   9.465  1.00  0.00    -0.200 F 
ATOM     90  F   UNL     1       4.215 -18.929  11.018  1.00  0.00    -0.200 F 
ENDBRANCH  56  80
BRANCH  68  91
ATOM     91  C   UNL     1      11.740 -14.645  16.706  1.00  0.00     0.064 A 
ATOM     92  C   UNL     1      12.254 -15.937  16.887  1.00  0.00     0.173 A 
ATOM     93  C   UNL     1      11.473 -13.881  17.854  1.00  0.00     0.173 A 
ATOM     94  F   UNL     1      12.516 -16.715  15.826  1.00  0.00    -0.203 F 
ATOM     95  C   UNL     1      12.464 -16.454  18.164  1.00  0.00     0.198 A 
ATOM     96  C   UNL     1      11.719 -14.387  19.128  1.00  0.00     0.198 A 
ATOM     97  F   UNL     1      10.989 -12.635  17.741  1.00  0.00    -0.203 F 
ATOM     98  F   UNL     1      12.904 -17.711  18.313  1.00  0.00    -0.200 F 
ATOM     99  C   UNL     1      12.204 -15.676  19.283  1.00  0.00     0.200 A 
ATOM    100  F   UNL     1      11.485 -13.626  20.206  1.00  0.00    -0.200 F 
ATOM    101  F   UNL     1      12.415 -16.171  20.510  1.00  0.00    -0.200 F 
ENDBRANCH  68  91
ENDBRANCH  42  43
ENDBRANCH  35  37
ENDBRANCH  34  35
ENDBRANCH  33  34
ENDBRANCH  32  33
ENDBRANCH  31  32
ENDBRANCH  30  31
ENDBRANCH   1  30
TORSDOF 22
