REMARK SMILES Cc1cc(C(=O)OCCOCCOCCOC(=O)c2ccc(-c3c4nc(c(-c5c(F)c(F)c(F)c(F)c5F)c5ccc([nH]5)c(-c5c(F)c(F)c(F)c(F)c5F)c5nc(c(-c6c(F)c(F)c(F)c(F)c6F)c6ccc3[nH]6)C=C5)C=C4)cc2)ccc1NC(=O)c1ccc(=O)n(CCOc2ccccc2)n1
REMARK SMILES IDX 9 1 8 2 7 3 5 4 6 5 4 6 1 7 2 8 3 9 84 10 83 11 82 12 85 13
REMARK SMILES IDX 86 14 87 16 88 17 89 18 103 19 90 20 93 21 91 22 92 23 94 24
REMARK SMILES IDX 95 25 96 26 97 27 98 28 102 29 99 30 101 31 100 32 10 33
REMARK SMILES IDX 11 34 12 35 13 36 14 37 15 38 16 39 17 40 18 41 19 42 20 43
REMARK SMILES IDX 81 44 21 45 80 46 22 47 23 48 24 49 74 50 25 51 79 52 73 53
REMARK SMILES IDX 75 54 26 55 78 56 72 57 71 58 27 60 59 61 39 62 58 63 40 64
REMARK SMILES IDX 43 65 57 66 76 67 41 68 42 69 56 71 77 72 44 73 28 74 29 75
REMARK SMILES IDX 37 76 30 77 31 78 35 79 38 80 32 81 33 82 36 83 34 84 60 85
REMARK SMILES IDX 61 86 69 87 62 88 63 89 67 90 70 91 64 92 65 93 68 94 66 95
REMARK SMILES IDX 45 96 46 97 54 98 47 99 48 100 52 101 55 102 49 103 50 104
REMARK SMILES IDX 53 105 51 106
REMARK H PARENT 85 15 75 59 43 70
REMARK Flexibility Score: inf
ROOT
ATOM      1  C   UNL     1      -5.152  -3.639  -1.701  1.00  0.00     0.202 C 
ENDROOT
BRANCH   1   2
ATOM      2  C   UNL     1      -5.034  -2.000  -1.671  1.00  0.00     0.261 C 
BRANCH   2   3
ATOM      3  O   UNL     1      -4.461  -1.101  -0.489  1.00  0.00    -0.460 OA
BRANCH   3   4
ATOM      4  C   UNL     1      -3.486  -0.293   0.107  1.00  0.00     0.338 C 
ATOM      5  O   UNL     1      -3.775   0.263   1.170  1.00  0.00    -0.246 OA
BRANCH   4   6
ATOM      6  C   UNL     1      -2.061   0.075  -0.317  1.00  0.00     0.060 A 
ATOM      7  C   UNL     1       1.670   0.079   0.831  1.00  0.00     0.046 C 
ATOM      8  C   UNL     1       0.355   0.478   0.204  1.00  0.00    -0.027 A 
ATOM      9  C   UNL     1      -0.879  -0.189   0.458  1.00  0.00     0.021 A 
ATOM     10  C   UNL     1       0.309   1.522  -0.717  1.00  0.00     0.044 A 
ATOM     11  C   UNL     1      -0.711   1.545  -1.670  1.00  0.00     0.027 A 
ATOM     12  C   UNL     1      -1.906   0.852  -1.457  1.00  0.00     0.018 A 
BRANCH  10  13
ATOM     13  N   UNL     1       1.062   2.700  -0.483  1.00  0.00    -0.320 N 
ATOM     14  C   UNL     1       0.469   3.942  -0.224  1.00  0.00     0.276 C 
ATOM     15  H   UNL     1       2.045   2.643  -0.505  1.00  0.00     0.170 HD
ATOM     16  O   UNL     1       1.111   4.953   0.032  1.00  0.00    -0.267 OA
BRANCH  14  17
ATOM     17  C   UNL     1      -1.059   4.010  -0.221  1.00  0.00     0.149 A 
ATOM     18  C   UNL     1      -1.676   4.430  -1.494  1.00  0.00     0.042 A 
ATOM     19  N   UNL     1      -1.714   3.625   0.833  1.00  0.00    -0.164 NA
ATOM     20  C   UNL     1      -2.940   4.043  -1.675  1.00  0.00     0.076 A 
ATOM     21  N   UNL     1      -3.081   3.406   0.662  1.00  0.00    -0.226 N 
ATOM     22  C   UNL     1      -3.693   3.369  -0.589  1.00  0.00     0.266 A 
ATOM     23  O   UNL     1      -4.784   2.875  -0.859  1.00  0.00    -0.268 OA
BRANCH  21  24
ATOM     24  C   UNL     1      -3.861   3.090   1.858  1.00  0.00     0.190 C 
BRANCH  24  25
ATOM     25  C   UNL     1      -4.384   4.349   2.561  1.00  0.00     0.253 C 
BRANCH  25  26
ATOM     26  O   UNL     1      -5.566   4.891   1.956  1.00  0.00    -0.492 OA
BRANCH  26  27
ATOM     27  C   UNL     1      -5.462   5.784   0.929  1.00  0.00     0.119 A 
ATOM     28  C   UNL     1      -6.681   6.169   0.365  1.00  0.00     0.046 A 
ATOM     29  C   UNL     1      -4.284   6.303   0.397  1.00  0.00     0.046 A 
ATOM     30  C   UNL     1      -6.721   7.019  -0.744  1.00  0.00     0.004 A 
ATOM     31  C   UNL     1      -4.317   7.119  -0.740  1.00  0.00     0.004 A 
ATOM     32  C   UNL     1      -5.534   7.474  -1.312  1.00  0.00     0.000 A 
ENDBRANCH  26  27
ENDBRANCH  25  26
ENDBRANCH  24  25
ENDBRANCH  21  24
ENDBRANCH  14  17
ENDBRANCH  10  13
ENDBRANCH   4   6
ENDBRANCH   3   4
ENDBRANCH   2   3
ENDBRANCH   1   2
BRANCH   1  33
ATOM     33  O   UNL     1      -3.975  -4.397  -1.468  1.00  0.00    -0.376 OA
BRANCH  33  34
ATOM     34  C   UNL     1      -3.556  -5.492  -2.292  1.00  0.00     0.188 C 
BRANCH  34  35
ATOM     35  C   UNL     1      -3.713  -5.349  -3.804  1.00  0.00     0.188 C 
BRANCH  35  36
ATOM     36  O   UNL     1      -3.882  -3.980  -4.120  1.00  0.00    -0.376 OA
BRANCH  36  37
ATOM     37  C   UNL     1      -4.150  -3.704  -5.482  1.00  0.00     0.202 C 
BRANCH  37  38
ATOM     38  C   UNL     1      -2.856  -3.654  -6.298  1.00  0.00     0.261 C 
BRANCH  38  39
ATOM     39  O   UNL     1      -1.915  -2.780  -5.631  1.00  0.00    -0.460 OA
BRANCH  39  40
ATOM     40  C   UNL     1      -0.842  -3.413  -5.041  1.00  0.00     0.338 C 
ATOM     41  O   UNL     1      -0.169  -4.252  -5.548  1.00  0.00    -0.246 OA
BRANCH  40  42
ATOM     42  C   UNL     1      -0.829  -3.086  -3.574  1.00  0.00     0.060 A 
ATOM     43  C   UNL     1      -0.190  -3.878  -2.623  1.00  0.00     0.016 A 
ATOM     44  C   UNL     1      -1.690  -2.154  -3.076  1.00  0.00     0.016 A 
ATOM     45  C   UNL     1      -0.602  -3.868  -1.242  1.00  0.00     0.010 A 
ATOM     46  C   UNL     1      -2.112  -2.286  -1.740  1.00  0.00     0.010 A 
ATOM     47  C   UNL     1      -1.708  -3.171  -0.741  1.00  0.00    -0.014 A 
BRANCH  47  48
ATOM     48  C   UNL     1      -2.512  -3.557   0.601  1.00  0.00     0.031 A 
ATOM     49  C   UNL     1      -3.506  -2.790   1.535  1.00  0.00     0.074 A 
ATOM     50  C   UNL     1      -2.419  -4.828   1.062  1.00  0.00     0.049 A 
ATOM     51  N   UNL     1      -3.231  -2.210   2.685  1.00  0.00    -0.248 NA
ATOM     52  C   UNL     1      -4.979  -2.823   1.346  1.00  0.00     0.031 C 
ATOM     53  C   UNL     1      -3.074  -5.420   2.234  1.00  0.00     0.029 A 
ATOM     54  N   UNL     1      -1.528  -5.821   0.649  1.00  0.00    -0.354 N 
ATOM     55  C   UNL     1      -4.445  -1.720   3.222  1.00  0.00     0.074 A 
ATOM     56  C   UNL     1      -5.473  -1.987   2.256  1.00  0.00     0.031 C 
ATOM     57  C   UNL     1      -2.325  -6.457   2.647  1.00  0.00     0.029 A 
ATOM     58  C   UNL     1      -1.135  -6.490   1.812  1.00  0.00     0.049 A 
ATOM     59  H   UNL     1      -1.236  -6.011  -0.272  1.00  0.00     0.167 HD
ATOM     60  C   UNL     1      -4.792  -1.578   4.539  1.00  0.00     0.037 A 
ATOM     61  C   UNL     1       0.156  -6.408   2.238  1.00  0.00     0.037 A 
ATOM     62  C   UNL     1      -4.116  -2.573   5.320  1.00  0.00     0.049 A 
ATOM     63  C   UNL     1       0.280  -5.823   3.620  1.00  0.00     0.074 A 
ATOM     64  C   UNL     1      -4.514  -3.847   5.688  1.00  0.00     0.029 A 
ATOM     65  N   UNL     1      -2.755  -2.492   5.503  1.00  0.00    -0.354 N 
ATOM     66  N   UNL     1      -0.624  -5.073   4.187  1.00  0.00    -0.248 NA
ATOM     67  C   UNL     1       1.457  -6.025   4.458  1.00  0.00     0.031 C 
ATOM     68  C   UNL     1      -3.351  -4.578   6.007  1.00  0.00     0.029 A 
ATOM     69  C   UNL     1      -2.275  -3.715   5.913  1.00  0.00     0.049 A 
ATOM     70  H   UNL     1      -2.209  -1.685   5.362  1.00  0.00     0.167 HD
ATOM     71  C   UNL     1      -0.167  -4.684   5.419  1.00  0.00     0.074 A 
ATOM     72  C   UNL     1       1.130  -5.313   5.549  1.00  0.00     0.031 C 
ATOM     73  C   UNL     1      -0.882  -3.872   6.245  1.00  0.00     0.037 A 
BRANCH  60  74
ATOM     74  C   UNL     1      -6.083  -0.878   4.954  1.00  0.00     0.064 A 
ATOM     75  C   UNL     1      -6.961  -1.338   5.957  1.00  0.00     0.173 A 
ATOM     76  C   UNL     1      -6.456   0.345   4.349  1.00  0.00     0.173 A 
ATOM     77  F   UNL     1      -6.703  -2.453   6.654  1.00  0.00    -0.203 F 
ATOM     78  C   UNL     1      -8.153  -0.668   6.274  1.00  0.00     0.198 A 
ATOM     79  C   UNL     1      -7.653   1.005   4.655  1.00  0.00     0.198 A 
ATOM     80  F   UNL     1      -5.652   0.923   3.446  1.00  0.00    -0.203 F 
ATOM     81  F   UNL     1      -8.966  -1.159   7.222  1.00  0.00    -0.200 F 
ATOM     82  C   UNL     1      -8.508   0.492   5.611  1.00  0.00     0.200 A 
ATOM     83  F   UNL     1      -7.979   2.139   4.017  1.00  0.00    -0.200 F 
ATOM     84  F   UNL     1      -9.662   1.113   5.897  1.00  0.00    -0.200 F 
ENDBRANCH  60  74
BRANCH  61  85
ATOM     85  C   UNL     1       1.178  -6.271   1.151  1.00  0.00     0.064 A 
ATOM     86  C   UNL     1       1.159  -7.205   0.089  1.00  0.00     0.173 A 
ATOM     87  C   UNL     1       1.963  -5.122   0.969  1.00  0.00     0.173 A 
ATOM     88  F   UNL     1       0.412  -8.317   0.186  1.00  0.00    -0.203 F 
ATOM     89  C   UNL     1       1.802  -6.956  -1.123  1.00  0.00     0.198 A 
ATOM     90  C   UNL     1       2.628  -4.886  -0.244  1.00  0.00     0.198 A 
ATOM     91  F   UNL     1       1.994  -4.164   1.905  1.00  0.00    -0.203 F 
ATOM     92  F   UNL     1       1.641  -7.802  -2.151  1.00  0.00    -0.200 F 
ATOM     93  C   UNL     1       2.528  -5.791  -1.293  1.00  0.00     0.200 A 
ATOM     94  F   UNL     1       3.274  -3.726  -0.437  1.00  0.00    -0.200 F 
ATOM     95  F   UNL     1       3.058  -5.501  -2.490  1.00  0.00    -0.200 F 
ENDBRANCH  61  85
BRANCH  73  96
ATOM     96  C   UNL     1      -0.381  -3.206   7.494  1.00  0.00     0.064 A 
ATOM     97  C   UNL     1       0.939  -2.764   7.646  1.00  0.00     0.173 A 
ATOM     98  C   UNL     1      -1.283  -2.832   8.522  1.00  0.00     0.173 A 
ATOM     99  F   UNL     1       1.851  -2.961   6.684  1.00  0.00    -0.203 F 
ATOM    100  C   UNL     1       1.347  -2.051   8.774  1.00  0.00     0.198 A 
ATOM    101  C   UNL     1      -0.885  -2.070   9.616  1.00  0.00     0.198 A 
ATOM    102  F   UNL     1      -2.580  -3.173   8.478  1.00  0.00    -0.203 F 
ATOM    103  F   UNL     1       2.631  -1.687   8.896  1.00  0.00    -0.200 F 
ATOM    104  C   UNL     1       0.434  -1.694   9.751  1.00  0.00     0.200 A 
ATOM    105  F   UNL     1      -1.792  -1.689  10.528  1.00  0.00    -0.200 F 
ATOM    106  F   UNL     1       0.824  -0.975  10.811  1.00  0.00    -0.200 F 
ENDBRANCH  73  96
ENDBRANCH  47  48
ENDBRANCH  40  42
ENDBRANCH  39  40
ENDBRANCH  38  39
ENDBRANCH  37  38
ENDBRANCH  36  37
ENDBRANCH  35  36
ENDBRANCH  34  35
ENDBRANCH  33  34
ENDBRANCH   1  33
TORSDOF 23
