REMARK SMILES O=C(COCCNS(=O)(=O)c1ccccc1)OCCOCCOCCOC(=O)c1ccc(-c2c3nc(c(-c4c(F)c(F)c(F)c(F)c4F)c4ccc([nH]4)c(-c4c(F)c(F)c(F)c(F)c4F)c4nc(c(-c5c(F)c(F)c(F)c(F)c5F)c5ccc2[nH]5)C=C4)C=C3)cc1
REMARK SMILES IDX 19 1 18 2 17 3 2 4 1 5 3 6 4 7 5 8 6 9 7 10 8 12 9 13 10 14
REMARK SMILES IDX 11 15 12 16 16 17 13 18 15 19 14 20 20 21 21 22 22 23 23 24
REMARK SMILES IDX 24 25 25 26 26 27 27 28 28 29 29 30 30 31 91 32 31 33 90 34
REMARK SMILES IDX 32 35 33 36 34 37 84 38 35 39 89 40 83 41 85 42 36 43 88 44
REMARK SMILES IDX 82 45 81 46 37 48 69 49 49 50 68 51 50 52 53 53 67 54 86 55
REMARK SMILES IDX 51 56 52 57 66 59 87 60 54 61 38 62 39 63 47 64 40 65 41 66
REMARK SMILES IDX 45 67 48 68 42 69 43 70 46 71 44 72 70 73 71 74 79 75 72 76
REMARK SMILES IDX 73 77 77 78 80 79 74 80 75 81 78 82 76 83 55 84 56 85 64 86
REMARK SMILES IDX 57 87 58 88 62 89 65 90 59 91 60 92 63 93 61 94
REMARK H PARENT 7 11 85 47 53 58
REMARK Flexibility Score: inf
ROOT
ATOM      1  C   UNL     1       5.319  -0.716  -0.135  1.00  0.00     0.202 C 
ENDROOT
BRANCH   1   2
ATOM      2  C   UNL     1       4.927  -0.420   1.317  1.00  0.00     0.261 C 
BRANCH   2   3
ATOM      3  O   UNL     1       3.551  -0.029   1.519  1.00  0.00    -0.462 OA
BRANCH   3   4
ATOM      4  C   UNL     1       2.972   1.107   1.072  1.00  0.00     0.332 C 
ATOM      5  O   UNL     1       1.768   1.295   1.259  1.00  0.00    -0.250 OA
BRANCH   4   6
ATOM      6  C   UNL     1       3.818   2.100   0.271  1.00  0.00     0.282 C 
BRANCH   6   7
ATOM      7  O   UNL     1       3.959   3.420   0.755  1.00  0.00    -0.368 OA
BRANCH   7   8
ATOM      8  C   UNL     1       2.751   4.100   1.064  1.00  0.00     0.177 C 
BRANCH   8   9
ATOM      9  C   UNL     1       1.901   4.453  -0.156  1.00  0.00     0.127 C 
BRANCH   9  10
ATOM     10  N   UNL     1       1.167   3.285  -0.694  1.00  0.00    -0.209 NA
ATOM     11  H   UNL     1       0.729   2.804   0.093  1.00  0.00     0.141 HD
BRANCH  10  12
ATOM     12  S   UNL     1      -0.042   3.620  -1.832  1.00  0.00     0.240 S 
ATOM     13  O   UNL     1       0.542   4.481  -2.833  1.00  0.00    -0.207 OA
ATOM     14  O   UNL     1      -0.681   2.365  -2.163  1.00  0.00    -0.207 OA
BRANCH  12  15
ATOM     15  C   UNL     1      -1.160   4.589  -0.851  1.00  0.00     0.082 A 
ATOM     16  C   UNL     1      -1.137   5.984  -0.959  1.00  0.00     0.022 A 
ATOM     17  C   UNL     1      -1.933   3.952   0.122  1.00  0.00     0.022 A 
ATOM     18  C   UNL     1      -1.838   6.750  -0.032  1.00  0.00     0.001 A 
ATOM     19  C   UNL     1      -2.642   4.728   1.037  1.00  0.00     0.001 A 
ATOM     20  C   UNL     1      -2.578   6.122   0.972  1.00  0.00     0.000 A 
ENDBRANCH  12  15
ENDBRANCH  10  12
ENDBRANCH   9  10
ENDBRANCH   8   9
ENDBRANCH   7   8
ENDBRANCH   6   7
ENDBRANCH   4   6
ENDBRANCH   3   4
ENDBRANCH   2   3
ENDBRANCH   1   2
BRANCH   1  21
ATOM     21  O   UNL     1       4.543  -1.758  -0.678  1.00  0.00    -0.376 OA
BRANCH  21  22
ATOM     22  C   UNL     1       3.245  -1.460  -1.155  1.00  0.00     0.188 C 
BRANCH  22  23
ATOM     23  C   UNL     1       2.364  -2.721  -1.181  1.00  0.00     0.188 C 
BRANCH  23  24
ATOM     24  O   UNL     1       2.947  -3.978  -0.851  1.00  0.00    -0.376 OA
BRANCH  24  25
ATOM     25  C   UNL     1       4.206  -4.329  -1.415  1.00  0.00     0.202 C 
BRANCH  25  26
ATOM     26  C   UNL     1       4.357  -4.295  -2.942  1.00  0.00     0.261 C 
BRANCH  26  27
ATOM     27  O   UNL     1       4.004  -3.047  -3.574  1.00  0.00    -0.460 OA
BRANCH  27  28
ATOM     28  C   UNL     1       2.963  -3.114  -4.443  1.00  0.00     0.338 C 
ATOM     29  O   UNL     1       2.291  -4.093  -4.721  1.00  0.00    -0.246 OA
BRANCH  28  30
ATOM     30  C   UNL     1       2.666  -1.784  -5.007  1.00  0.00     0.060 A 
ATOM     31  C   UNL     1       1.504  -1.110  -4.607  1.00  0.00     0.016 A 
ATOM     32  C   UNL     1       3.452  -1.278  -6.042  1.00  0.00     0.016 A 
ATOM     33  C   UNL     1       1.120   0.071  -5.251  1.00  0.00     0.010 A 
ATOM     34  C   UNL     1       3.055  -0.106  -6.698  1.00  0.00     0.010 A 
ATOM     35  C   UNL     1       1.876   0.564  -6.323  1.00  0.00    -0.014 A 
BRANCH  35  36
ATOM     36  C   UNL     1       1.415   1.731  -7.120  1.00  0.00     0.031 A 
ATOM     37  C   UNL     1       0.712   1.510  -8.430  1.00  0.00     0.074 A 
ATOM     38  C   UNL     1       1.677   2.984  -6.710  1.00  0.00     0.049 A 
ATOM     39  N   UNL     1       0.375   2.381  -9.348  1.00  0.00    -0.248 NA
ATOM     40  C   UNL     1       0.347   0.122  -8.753  1.00  0.00     0.031 C 
ATOM     41  C   UNL     1       2.313   3.337  -5.445  1.00  0.00     0.029 A 
ATOM     42  N   UNL     1       1.457   4.192  -7.327  1.00  0.00    -0.354 N 
ATOM     43  C   UNL     1      -0.214   1.647 -10.368  1.00  0.00     0.074 A 
ATOM     44  C   UNL     1      -0.193   0.259  -9.957  1.00  0.00     0.031 C 
ATOM     45  C   UNL     1       2.453   4.672  -5.387  1.00  0.00     0.029 A 
ATOM     46  C   UNL     1       1.954   5.263  -6.626  1.00  0.00     0.049 A 
ATOM     47  H   UNL     1       0.988   4.282  -8.188  1.00  0.00     0.167 HD
ATOM     48  C   UNL     1      -0.718   2.094 -11.543  1.00  0.00     0.037 A 
ATOM     49  C   UNL     1       2.032   6.567  -6.958  1.00  0.00     0.037 A 
ATOM     50  C   UNL     1      -0.761   3.477 -11.944  1.00  0.00     0.049 A 
ATOM     51  C   UNL     1       1.511   7.027  -8.296  1.00  0.00     0.074 A 
ATOM     52  C   UNL     1      -1.309   4.023 -13.092  1.00  0.00     0.029 A 
ATOM     53  N   UNL     1      -0.228   4.529 -11.217  1.00  0.00    -0.354 N 
ATOM     54  N   UNL     1       0.923   6.333  -9.239  1.00  0.00    -0.248 NA
ATOM     55  C   UNL     1       1.681   8.451  -8.623  1.00  0.00     0.031 C 
ATOM     56  C   UNL     1      -1.054   5.397 -13.089  1.00  0.00     0.029 A 
ATOM     57  C   UNL     1      -0.393   5.715 -11.915  1.00  0.00     0.049 A 
ATOM     58  H   UNL     1       0.204   4.446 -10.336  1.00  0.00     0.167 HD
ATOM     59  C   UNL     1       0.644   7.233 -10.259  1.00  0.00     0.074 A 
ATOM     60  C   UNL     1       1.101   8.531  -9.812  1.00  0.00     0.031 C 
ATOM     61  C   UNL     1       0.068   7.002 -11.464  1.00  0.00     0.037 A 
BRANCH  48  62
ATOM     62  C   UNL     1      -1.240   1.080 -12.516  1.00  0.00     0.064 A 
ATOM     63  C   UNL     1      -2.475   0.445 -12.332  1.00  0.00     0.173 A 
ATOM     64  C   UNL     1      -0.529   0.814 -13.697  1.00  0.00     0.173 A 
ATOM     65  F   UNL     1      -3.187   0.662 -11.217  1.00  0.00    -0.203 F 
ATOM     66  C   UNL     1      -2.978  -0.427 -13.295  1.00  0.00     0.198 A 
ATOM     67  C   UNL     1      -1.046  -0.039 -14.667  1.00  0.00     0.198 A 
ATOM     68  F   UNL     1       0.654   1.405 -13.922  1.00  0.00    -0.203 F 
ATOM     69  F   UNL     1      -4.152  -1.040 -13.093  1.00  0.00    -0.200 F 
ATOM     70  C   UNL     1      -2.269  -0.660 -14.465  1.00  0.00     0.200 A 
ATOM     71  F   UNL     1      -0.366  -0.251 -15.803  1.00  0.00    -0.200 F 
ATOM     72  F   UNL     1      -2.765  -1.483 -15.399  1.00  0.00    -0.200 F 
ENDBRANCH  48  62
BRANCH  49  73
ATOM     73  C   UNL     1       2.681   7.536  -6.035  1.00  0.00     0.064 A 
ATOM     74  C   UNL     1       1.947   8.569  -5.435  1.00  0.00     0.173 A 
ATOM     75  C   UNL     1       4.059   7.480  -5.776  1.00  0.00     0.173 A 
ATOM     76  F   UNL     1       0.634   8.689  -5.679  1.00  0.00    -0.203 F 
ATOM     77  C   UNL     1       2.571   9.524  -4.634  1.00  0.00     0.198 A 
ATOM     78  C   UNL     1       4.675   8.415  -4.947  1.00  0.00     0.198 A 
ATOM     79  F   UNL     1       4.811   6.519  -6.332  1.00  0.00    -0.203 F 
ATOM     80  F   UNL     1       1.859  10.538  -4.124  1.00  0.00    -0.200 F 
ATOM     81  C   UNL     1       3.934   9.443  -4.387  1.00  0.00     0.200 A 
ATOM     82  F   UNL     1       5.990   8.328  -4.705  1.00  0.00    -0.200 F 
ATOM     83  F   UNL     1       4.534  10.364  -3.621  1.00  0.00    -0.200 F 
ENDBRANCH  49  73
BRANCH  61  84
ATOM     84  C   UNL     1      -0.107   8.173 -12.386  1.00  0.00     0.064 A 
ATOM     85  C   UNL     1       0.986   8.753 -13.046  1.00  0.00     0.173 A 
ATOM     86  C   UNL     1      -1.385   8.688 -12.655  1.00  0.00     0.173 A 
ATOM     87  F   UNL     1       2.230   8.308 -12.811  1.00  0.00    -0.203 F 
ATOM     88  C   UNL     1       0.809   9.816 -13.929  1.00  0.00     0.198 A 
ATOM     89  C   UNL     1      -1.561   9.732 -13.559  1.00  0.00     0.198 A 
ATOM     90  F   UNL     1      -2.465   8.166 -12.055  1.00  0.00    -0.203 F 
ATOM     91  F   UNL     1       1.873  10.379 -14.518  1.00  0.00    -0.200 F 
ATOM     92  C   UNL     1      -0.465  10.298 -14.191  1.00  0.00     0.200 A 
ATOM     93  F   UNL     1      -2.794  10.188 -13.822  1.00  0.00    -0.200 F 
ATOM     94  F   UNL     1      -0.634  11.313 -15.049  1.00  0.00    -0.200 F 
ENDBRANCH  61  84
ENDBRANCH  35  36
ENDBRANCH  28  30
ENDBRANCH  27  28
ENDBRANCH  26  27
ENDBRANCH  25  26
ENDBRANCH  24  25
ENDBRANCH  23  24
ENDBRANCH  22  23
ENDBRANCH  21  22
ENDBRANCH   1  21
TORSDOF 23
