REMARK SMILES COc1ccc(-c2cc(Cl)cc3c2O[C@@H](C(F)(F)F)C(C(=O)OCCOCCOCCOC(=O)c2ccc(-c4c5nc(c(-c6c(F)c(F)c(F)c(F)c6F)c6ccc([nH]6)c(-c6c(F)c(F)c(F)c(F)c6F)c6nc(c(-c7c(F)c(F)c(F)c(F)c7F)c7ccc4[nH]7)C=C6)C=C5)cc2)=C3)cc1C
REMARK SMILES IDX 27 1 26 2 25 3 24 4 23 5 21 6 22 7 20 8 7 9 8 10 13 11 9 12
REMARK SMILES IDX 12 13 14 14 10 15 11 16 98 17 15 18 6 19 3 20 4 21 100 22
REMARK SMILES IDX 5 23 99 24 101 25 2 26 1 27 16 28 17 29 18 30 19 31 28 32
REMARK SMILES IDX 29 33 30 34 31 35 32 36 33 37 34 38 35 39 36 40 97 41 37 42
REMARK SMILES IDX 96 43 38 44 39 45 40 46 90 47 41 48 95 49 89 50 91 51 42 52
REMARK SMILES IDX 94 53 88 54 87 55 43 57 75 58 55 59 74 60 56 61 59 62 73 63
REMARK SMILES IDX 92 64 57 65 58 66 72 68 93 69 60 70 44 71 45 72 53 73 46 74
REMARK SMILES IDX 47 75 51 76 54 77 48 78 49 79 52 80 50 81 76 82 77 83 85 84
REMARK SMILES IDX 78 85 79 86 83 87 86 88 80 89 81 90 84 91 82 92 61 93 62 94
REMARK SMILES IDX 70 95 63 96 64 97 68 98 71 99 65 100 66 101 69 102 67 103
REMARK H PARENT 91 56 59 67
REMARK Flexibility Score: inf
ROOT
ATOM      1  C   UNL     1      -2.333  -1.594   3.886  1.00  0.00     0.188 C 
ENDROOT
BRANCH   1   2
ATOM      2  O   UNL     1      -2.727  -2.708   3.135  1.00  0.00    -0.376 OA
BRANCH   2   3
ATOM      3  C   UNL     1      -2.769  -4.073   3.555  1.00  0.00     0.202 C 
BRANCH   3   4
ATOM      4  C   UNL     1      -2.579  -5.152   4.994  1.00  0.00     0.261 C 
BRANCH   4   5
ATOM      5  O   UNL     1      -1.205  -5.496   6.375  1.00  0.00    -0.460 OA
BRANCH   5   6
ATOM      6  C   UNL     1       0.530  -5.393   6.660  1.00  0.00     0.338 C 
ATOM      7  O   UNL     1       1.391  -5.256   5.780  1.00  0.00    -0.246 OA
BRANCH   6   8
ATOM      8  C   UNL     1       1.392  -5.253   8.167  1.00  0.00     0.087 C 
ATOM      9  C   UNL     1       2.679  -1.054   7.285  1.00  0.00     0.026 A 
ATOM     10  C   UNL     1       3.575  -0.432   8.137  1.00  0.00     0.033 A 
ATOM     11  C   UNL     1       2.223  -2.529   7.822  1.00  0.00     0.135 A 
ATOM     12  C   UNL     1       3.935  -1.095   9.328  1.00  0.00     0.042 A 
ATOM     13  C   UNL     1       2.928  -3.281   8.730  1.00  0.00     0.019 A 
ATOM     14  O   UNL     1       0.910  -3.219   7.733  1.00  0.00    -0.475 OA
ATOM     15  Cl  UNL     1       4.702  -0.131  10.548  1.00  0.00    -0.084 Cl
ATOM     16  C   UNL     1       3.664  -2.482   9.606  1.00  0.00     0.032 A 
ATOM     17  C   UNL     1       2.593  -4.797   8.713  1.00  0.00     0.027 C 
ATOM     18  C   UNL     1       0.425  -4.372   8.757  1.00  0.00     0.316 C 
BRANCH   9  19
ATOM     19  C   UNL     1       2.218   0.032   5.879  1.00  0.00    -0.014 A 
ATOM     20  C   UNL     1       1.741   0.562   2.265  1.00  0.00     0.121 A 
ATOM     21  C   UNL     1       0.296   0.492   3.176  1.00  0.00     0.047 A 
ATOM     22  C   UNL     1       3.369   0.459   2.993  1.00  0.00    -0.008 A 
ATOM     23  C   UNL     1       0.414   0.241   4.937  1.00  0.00     0.013 A 
ATOM     24  C   UNL     1       3.662   0.214   4.760  1.00  0.00     0.016 A 
ATOM     25  C   UNL     1       4.431   0.783   1.984  1.00  0.00     0.048 C 
BRANCH  20  26
ATOM     26  O   UNL     1       1.644   1.036   0.971  1.00  0.00    -0.496 OA
ATOM     27  C   UNL     1       1.102   0.083   0.061  1.00  0.00     0.278 C 
ENDBRANCH  20  26
ENDBRANCH   9  19
BRANCH  18  28
ATOM     28  C   UNL     1      -0.531  -5.745   9.013  1.00  0.00     0.430 C 
ATOM     29  F   UNL     1      -0.025  -6.936   8.524  1.00  0.00    -0.167 F 
ATOM     30  F   UNL     1      -0.568  -5.985  10.361  1.00  0.00    -0.167 F 
ATOM     31  F   UNL     1      -1.812  -5.717   8.627  1.00  0.00    -0.167 F 
ENDBRANCH  18  28
ENDBRANCH   6   8
ENDBRANCH   5   6
ENDBRANCH   4   5
ENDBRANCH   3   4
ENDBRANCH   2   3
ENDBRANCH   1   2
BRANCH   1  32
ATOM     32  C   UNL     1      -3.297  -1.163   4.912  1.00  0.00     0.188 C 
BRANCH  32  33
ATOM     33  O   UNL     1      -4.228  -2.200   5.095  1.00  0.00    -0.376 OA
BRANCH  33  34
ATOM     34  C   UNL     1      -5.540  -1.820   4.772  1.00  0.00     0.202 C 
BRANCH  34  35
ATOM     35  C   UNL     1      -5.964  -0.717   5.743  1.00  0.00     0.261 C 
BRANCH  35  36
ATOM     36  O   UNL     1      -5.826  -1.234   7.103  1.00  0.00    -0.460 OA
BRANCH  36  37
ATOM     37  C   UNL     1      -4.726  -0.852   7.817  1.00  0.00     0.338 C 
ATOM     38  O   UNL     1      -4.460   0.295   8.141  1.00  0.00    -0.246 OA
BRANCH  37  39
ATOM     39  C   UNL     1      -3.731  -1.951   7.906  1.00  0.00     0.060 A 
ATOM     40  C   UNL     1      -2.402  -1.666   7.945  1.00  0.00     0.016 A 
ATOM     41  C   UNL     1      -3.939  -3.248   7.589  1.00  0.00     0.016 A 
ATOM     42  C   UNL     1      -1.468  -2.427   7.082  1.00  0.00     0.010 A 
ATOM     43  C   UNL     1      -2.885  -3.929   6.893  1.00  0.00     0.010 A 
ATOM     44  C   UNL     1      -1.659  -3.437   6.157  1.00  0.00    -0.014 A 
BRANCH  44  45
ATOM     45  C   UNL     1      -0.627  -4.340   4.776  1.00  0.00     0.031 A 
ATOM     46  C   UNL     1      -0.607  -6.284   4.609  1.00  0.00     0.074 A 
ATOM     47  C   UNL     1      -0.033  -3.859   3.626  1.00  0.00     0.049 A 
ATOM     48  N   UNL     1       0.429  -7.078   4.664  1.00  0.00    -0.248 NA
ATOM     49  C   UNL     1      -1.802  -7.371   5.089  1.00  0.00     0.031 C 
ATOM     50  C   UNL     1       0.555  -4.599   2.489  1.00  0.00     0.029 A 
ATOM     51  N   UNL     1       0.152  -2.554   3.168  1.00  0.00    -0.354 N 
ATOM     52  C   UNL     1       0.034  -8.409   4.889  1.00  0.00     0.074 A 
ATOM     53  C   UNL     1      -1.195  -8.432   5.548  1.00  0.00     0.031 C 
ATOM     54  C   UNL     1       1.375  -3.772   1.798  1.00  0.00     0.029 A 
ATOM     55  C   UNL     1       1.385  -2.521   2.526  1.00  0.00     0.049 A 
ATOM     56  H   UNL     1      -0.471  -1.799   3.279  1.00  0.00     0.167 HD
ATOM     57  C   UNL     1       0.539  -9.402   4.119  1.00  0.00     0.037 A 
ATOM     58  C   UNL     1       2.423  -1.946   3.188  1.00  0.00     0.037 A 
ATOM     59  C   UNL     1       1.532  -8.767   3.282  1.00  0.00     0.049 A 
ATOM     60  C   UNL     1       3.479  -3.078   3.500  1.00  0.00     0.074 A 
ATOM     61  C   UNL     1       1.423  -8.156   2.043  1.00  0.00     0.029 A 
ATOM     62  N   UNL     1       2.564  -8.105   3.942  1.00  0.00    -0.354 N 
ATOM     63  N   UNL     1       3.208  -4.366   3.582  1.00  0.00    -0.248 NA
ATOM     64  C   UNL     1       4.930  -2.868   3.515  1.00  0.00     0.031 C 
ATOM     65  C   UNL     1       2.465  -7.191   1.940  1.00  0.00     0.029 A 
ATOM     66  C   UNL     1       3.169  -7.173   3.132  1.00  0.00     0.049 A 
ATOM     67  H   UNL     1       2.829  -8.283   4.873  1.00  0.00     0.167 HD
ATOM     68  C   UNL     1       4.357  -5.133   3.616  1.00  0.00     0.074 A 
ATOM     69  C   UNL     1       5.405  -4.130   3.565  1.00  0.00     0.031 C 
ATOM     70  C   UNL     1       4.377  -6.517   3.608  1.00  0.00     0.037 A 
BRANCH  57  71
ATOM     71  C   UNL     1      -0.215 -10.697   3.861  1.00  0.00     0.064 A 
ATOM     72  C   UNL     1      -0.118 -11.292   2.592  1.00  0.00     0.173 A 
ATOM     73  C   UNL     1      -1.081 -11.375   4.760  1.00  0.00     0.173 A 
ATOM     74  F   UNL     1       0.687 -10.784   1.652  1.00  0.00    -0.203 F 
ATOM     75  C   UNL     1      -0.850 -12.427   2.232  1.00  0.00     0.198 A 
ATOM     76  C   UNL     1      -1.866 -12.473   4.377  1.00  0.00     0.198 A 
ATOM     77  F   UNL     1      -1.175 -11.034   6.053  1.00  0.00    -0.203 F 
ATOM     78  F   UNL     1      -0.689 -12.951   1.010  1.00  0.00    -0.200 F 
ATOM     79  C   UNL     1      -1.739 -13.006   3.114  1.00  0.00     0.200 A 
ATOM     80  F   UNL     1      -2.737 -13.013   5.244  1.00  0.00    -0.200 F 
ATOM     81  F   UNL     1      -2.447 -14.085   2.755  1.00  0.00    -0.200 F 
ENDBRANCH  57  71
BRANCH  58  82
ATOM     82  C   UNL     1       1.857  -0.748   4.172  1.00  0.00     0.064 A 
ATOM     83  C   UNL     1       1.896   1.270   4.401  1.00  0.00     0.173 A 
ATOM     84  C   UNL     1       1.010  -1.592   5.538  1.00  0.00     0.173 A 
ATOM     85  F   UNL     1       2.314   2.274   3.568  1.00  0.00    -0.203 F 
ATOM     86  C   UNL     1       1.169   2.064   5.793  1.00  0.00     0.198 A 
ATOM     87  C   UNL     1       0.379  -0.560   6.923  1.00  0.00     0.198 A 
ATOM     88  F   UNL     1       1.304  -2.880   5.616  1.00  0.00    -0.203 F 
ATOM     89  F   UNL     1       0.921   3.382   5.736  1.00  0.00    -0.200 F 
ATOM     90  C   UNL     1       0.456   1.159   6.980  1.00  0.00     0.200 A 
ATOM     91  F   UNL     1       0.226  -0.994   8.192  1.00  0.00    -0.200 F 
ATOM     92  F   UNL     1      -0.229   1.766   7.963  1.00  0.00    -0.200 F 
ENDBRANCH  58  82
BRANCH  70  93
ATOM     93  C   UNL     1       5.543  -7.485   3.917  1.00  0.00     0.064 A 
ATOM     94  C   UNL     1       6.797  -7.091   4.388  1.00  0.00     0.173 A 
ATOM     95  C   UNL     1       5.400  -8.913   3.819  1.00  0.00     0.173 A 
ATOM     96  F   UNL     1       7.063  -5.824   4.714  1.00  0.00    -0.203 F 
ATOM     97  C   UNL     1       7.840  -8.006   4.602  1.00  0.00     0.198 A 
ATOM     98  C   UNL     1       6.397  -9.823   4.153  1.00  0.00     0.198 A 
ATOM     99  F   UNL     1       4.290  -9.526   3.393  1.00  0.00    -0.203 F 
ATOM    100  F   UNL     1       9.054  -7.547   4.932  1.00  0.00    -0.200 F 
ATOM    101  C   UNL     1       7.639  -9.368   4.496  1.00  0.00     0.200 A 
ATOM    102  F   UNL     1       6.133 -11.138   4.125  1.00  0.00    -0.200 F 
ATOM    103  F   UNL     1       8.631 -10.234   4.733  1.00  0.00    -0.200 F 
ENDBRANCH  70  93
ENDBRANCH  44  45
ENDBRANCH  37  39
ENDBRANCH  36  37
ENDBRANCH  35  36
ENDBRANCH  34  35
ENDBRANCH  33  34
ENDBRANCH  32  33
ENDBRANCH   1  32
TORSDOF 20
