REMARK SMILES C[NH2+]CCC(=O)N1Cc2nc[nH]c2C[C@H]1C(=O)OCCOCCOCCOC(=O)c1ccc(-c2c3nc(c(-c4c(F)c(F)c(F)c(F)c4F)c4ccc([nH]4)c(-c4c(F)c(F)c(F)c(F)c4F)c4nc(c(-c5c(F)c(F)c(F)c(F)c5F)c5ccc2[nH]5)C=C4)C=C3)cc1
REMARK SMILES IDX 22 1 21 2 20 3 19 4 18 5 16 6 17 7 15 8 7 9 8 10 9 11 14 12
REMARK SMILES IDX 10 13 13 14 11 15 12 16 5 18 6 19 4 20 3 21 2 22 1 23 23 26
REMARK SMILES IDX 24 27 25 28 26 29 27 30 28 31 29 32 30 33 31 34 92 35 32 36
REMARK SMILES IDX 91 37 33 38 34 39 35 40 85 41 36 42 90 43 84 44 86 45 37 46
REMARK SMILES IDX 89 47 83 48 82 49 38 51 70 52 50 53 69 54 51 55 54 56 68 57
REMARK SMILES IDX 87 58 52 59 53 60 67 62 88 63 55 64 39 65 40 66 48 67 41 68
REMARK SMILES IDX 42 69 46 70 49 71 43 72 44 73 47 74 45 75 71 76 72 77 80 78
REMARK SMILES IDX 73 79 74 80 78 81 81 82 75 83 76 84 79 85 77 86 56 87 57 88
REMARK SMILES IDX 65 89 58 90 59 91 63 92 66 93 60 94 61 95 64 96 62 97
REMARK H PARENT 12 17 2 24 2 25 86 50 54 61
REMARK Flexibility Score: inf
ROOT
ATOM      1  C   UNL     1       2.904   1.653  -1.396  1.00  0.00     0.188 C 
ENDROOT
BRANCH   1   2
ATOM      2  O   UNL     1       4.052   2.170  -2.012  1.00  0.00    -0.376 OA
BRANCH   2   3
ATOM      3  C   UNL     1       5.093   1.265  -2.344  1.00  0.00     0.202 C 
BRANCH   3   4
ATOM      4  C   UNL     1       4.890  -0.247  -2.614  1.00  0.00     0.261 C 
BRANCH   4   5
ATOM      5  O   UNL     1       3.551  -0.764  -2.706  1.00  0.00    -0.462 OA
BRANCH   5   6
ATOM      6  C   UNL     1       3.220  -1.751  -1.834  1.00  0.00     0.329 C 
ATOM      7  O   UNL     1       3.971  -2.152  -0.945  1.00  0.00    -0.250 OA
BRANCH   6   8
ATOM      8  C   UNL     1       1.820  -2.386  -2.035  1.00  0.00     0.201 C 
ATOM      9  N   UNL     1       0.782  -1.824  -2.954  1.00  0.00    -0.322 N 
ATOM     10  C   UNL     1       1.080  -1.828  -4.410  1.00  0.00     0.178 C 
ATOM     11  C   UNL     1       1.932  -3.002  -4.756  1.00  0.00     0.081 A 
ATOM     12  C   UNL     1       2.072  -3.886  -2.393  1.00  0.00     0.093 C 
ATOM     13  N   UNL     1       2.503  -3.228  -5.980  1.00  0.00    -0.240 NA
ATOM     14  C   UNL     1       2.381  -3.927  -3.842  1.00  0.00     0.042 A 
ATOM     15  C   UNL     1       3.265  -4.288  -5.811  1.00  0.00     0.197 A 
ATOM     16  N   UNL     1       3.216  -4.757  -4.524  1.00  0.00    -0.348 N 
ATOM     17  H   UNL     1       3.691  -5.541  -4.164  1.00  0.00     0.167 HD
BRANCH   9  18
ATOM     18  C   UNL     1      -0.562  -1.923  -2.591  1.00  0.00     0.229 C 
ATOM     19  O   UNL     1      -1.352  -2.656  -3.184  1.00  0.00    -0.275 OA
BRANCH  18  20
ATOM     20  C   UNL     1      -1.058  -0.968  -1.511  1.00  0.00     0.161 C 
BRANCH  20  21
ATOM     21  C   UNL     1      -1.371  -1.565  -0.138  1.00  0.00     0.270 C 
BRANCH  21  22
ATOM     22  N   UNL     1      -0.280  -1.694   0.831  1.00  0.00    -0.348 N 
ATOM     23  C   UNL     1       0.422  -0.467   1.154  1.00  0.00     0.330 C 
ATOM     24  H   UNL     1      -0.670  -2.069   1.695  1.00  0.00     0.346 HD
ATOM     25  H   UNL     1       0.411  -2.303   0.391  1.00  0.00     0.346 HD
ENDBRANCH  21  22
ENDBRANCH  20  21
ENDBRANCH  18  20
ENDBRANCH   9  18
ENDBRANCH   6   8
ENDBRANCH   5   6
ENDBRANCH   4   5
ENDBRANCH   3   4
ENDBRANCH   2   3
ENDBRANCH   1   2
BRANCH   1  26
ATOM     26  C   UNL     1       1.772   1.315  -2.370  1.00  0.00     0.188 C 
BRANCH  26  27
ATOM     27  O   UNL     1       1.900   1.324  -3.785  1.00  0.00    -0.376 OA
BRANCH  27  28
ATOM     28  C   UNL     1       2.638   2.302  -4.501  1.00  0.00     0.202 C 
BRANCH  28  29
ATOM     29  C   UNL     1       2.215   3.763  -4.429  1.00  0.00     0.261 C 
BRANCH  29  30
ATOM     30  O   UNL     1       1.648   4.089  -3.183  1.00  0.00    -0.460 OA
BRANCH  30  31
ATOM     31  C   UNL     1       0.332   3.794  -3.094  1.00  0.00     0.338 C 
ATOM     32  O   UNL     1      -0.398   3.338  -3.950  1.00  0.00    -0.246 OA
BRANCH  31  33
ATOM     33  C   UNL     1      -0.099   4.166  -1.740  1.00  0.00     0.060 A 
ATOM     34  C   UNL     1      -1.460   4.026  -1.469  1.00  0.00     0.016 A 
ATOM     35  C   UNL     1       0.762   4.935  -0.945  1.00  0.00     0.016 A 
ATOM     36  C   UNL     1      -2.028   4.944  -0.624  1.00  0.00     0.010 A 
ATOM     37  C   UNL     1       0.194   5.882  -0.147  1.00  0.00     0.010 A 
ATOM     38  C   UNL     1      -1.197   5.939  -0.107  1.00  0.00    -0.014 A 
BRANCH  38  39
ATOM     39  C   UNL     1      -1.815   7.159   0.342  1.00  0.00     0.031 A 
ATOM     40  C   UNL     1      -2.132   7.188   1.777  1.00  0.00     0.074 A 
ATOM     41  C   UNL     1      -1.920   8.201  -0.504  1.00  0.00     0.049 A 
ATOM     42  N   UNL     1      -3.289   7.312   2.333  1.00  0.00    -0.248 NA
ATOM     43  C   UNL     1      -1.033   6.907   2.713  1.00  0.00     0.031 C 
ATOM     44  C   UNL     1      -1.314   8.348  -1.835  1.00  0.00     0.029 A 
ATOM     45  N   UNL     1      -2.491   9.412  -0.293  1.00  0.00    -0.354 N 
ATOM     46  C   UNL     1      -3.037   7.307   3.699  1.00  0.00     0.074 A 
ATOM     47  C   UNL     1      -1.686   6.851   3.871  1.00  0.00     0.031 C 
ATOM     48  C   UNL     1      -1.362   9.649  -2.199  1.00  0.00     0.029 A 
ATOM     49  C   UNL     1      -2.087  10.393  -1.183  1.00  0.00     0.049 A 
ATOM     50  H   UNL     1      -3.137   9.580   0.431  1.00  0.00     0.167 HD
ATOM     51  C   UNL     1      -3.861   7.952   4.563  1.00  0.00     0.037 A 
ATOM     52  C   UNL     1      -2.246  11.728  -1.012  1.00  0.00     0.037 A 
ATOM     53  C   UNL     1      -5.166   8.157   3.986  1.00  0.00     0.049 A 
ATOM     54  C   UNL     1      -3.267  11.923   0.055  1.00  0.00     0.074 A 
ATOM     55  C   UNL     1      -6.132   7.314   3.468  1.00  0.00     0.029 A 
ATOM     56  N   UNL     1      -5.500   9.415   3.549  1.00  0.00    -0.354 N 
ATOM     57  N   UNL     1      -4.535  11.649  -0.080  1.00  0.00    -0.248 NA
ATOM     58  C   UNL     1      -2.796  12.012   1.432  1.00  0.00     0.031 C 
ATOM     59  C   UNL     1      -6.715   8.031   2.383  1.00  0.00     0.029 A 
ATOM     60  C   UNL     1      -6.093   9.278   2.320  1.00  0.00     0.049 A 
ATOM     61  H   UNL     1      -5.342  10.260   4.029  1.00  0.00     0.167 HD
ATOM     62  C   UNL     1      -4.923  11.134   1.150  1.00  0.00     0.074 A 
ATOM     63  C   UNL     1      -3.841  11.473   2.067  1.00  0.00     0.031 C 
ATOM     64  C   UNL     1      -5.943  10.232   1.246  1.00  0.00     0.037 A 
BRANCH  51  65
ATOM     65  C   UNL     1      -3.360   8.721   5.761  1.00  0.00     0.064 A 
ATOM     66  C   UNL     1      -4.301   9.258   6.658  1.00  0.00     0.173 A 
ATOM     67  C   UNL     1      -2.036   9.199   5.912  1.00  0.00     0.173 A 
ATOM     68  F   UNL     1      -5.588   8.886   6.599  1.00  0.00    -0.203 F 
ATOM     69  C   UNL     1      -3.962  10.261   7.568  1.00  0.00     0.198 A 
ATOM     70  C   UNL     1      -1.691  10.154   6.863  1.00  0.00     0.198 A 
ATOM     71  F   UNL     1      -1.043   8.857   5.084  1.00  0.00    -0.203 F 
ATOM     72  F   UNL     1      -4.922  10.839   8.302  1.00  0.00    -0.200 F 
ATOM     73  C   UNL     1      -2.660  10.714   7.665  1.00  0.00     0.200 A 
ATOM     74  F   UNL     1      -0.423  10.586   6.931  1.00  0.00    -0.200 F 
ATOM     75  F   UNL     1      -2.347  11.721   8.489  1.00  0.00    -0.200 F 
ENDBRANCH  51  65
BRANCH  52  76
ATOM     76  C   UNL     1      -1.351  12.815  -1.474  1.00  0.00     0.064 A 
ATOM     77  C   UNL     1      -1.794  14.145  -1.518  1.00  0.00     0.173 A 
ATOM     78  C   UNL     1       0.032  12.611  -1.657  1.00  0.00     0.173 A 
ATOM     79  F   UNL     1      -3.085  14.433  -1.302  1.00  0.00    -0.203 F 
ATOM     80  C   UNL     1      -0.906  15.207  -1.722  1.00  0.00     0.198 A 
ATOM     81  C   UNL     1       0.914  13.668  -1.877  1.00  0.00     0.198 A 
ATOM     82  F   UNL     1       0.574  11.391  -1.533  1.00  0.00    -0.203 F 
ATOM     83  F   UNL     1      -1.357  16.469  -1.699  1.00  0.00    -0.200 F 
ATOM     84  C   UNL     1       0.447  14.968  -1.898  1.00  0.00     0.200 A 
ATOM     85  F   UNL     1       2.226  13.423  -2.009  1.00  0.00    -0.200 F 
ATOM     86  F   UNL     1       1.305  15.988  -2.045  1.00  0.00    -0.200 F 
ENDBRANCH  52  76
BRANCH  64  87
ATOM     87  C   UNL     1      -6.806  10.026   0.035  1.00  0.00     0.064 A 
ATOM     88  C   UNL     1      -6.328   9.495  -1.175  1.00  0.00     0.173 A 
ATOM     89  C   UNL     1      -8.186  10.236   0.149  1.00  0.00     0.173 A 
ATOM     90  F   UNL     1      -5.039   9.164  -1.319  1.00  0.00    -0.203 F 
ATOM     91  C   UNL     1      -7.188   9.238  -2.241  1.00  0.00     0.198 A 
ATOM     92  C   UNL     1      -9.048   9.943  -0.904  1.00  0.00     0.198 A 
ATOM     93  F   UNL     1      -8.705  10.681   1.304  1.00  0.00    -0.203 F 
ATOM     94  F   UNL     1      -6.705   8.745  -3.391  1.00  0.00    -0.200 F 
ATOM     95  C   UNL     1      -8.548   9.456  -2.102  1.00  0.00     0.200 A 
ATOM     96  F   UNL     1     -10.370  10.106  -0.748  1.00  0.00    -0.200 F 
ATOM     97  F   UNL     1      -9.382   9.170  -3.111  1.00  0.00    -0.200 F 
ENDBRANCH  64  87
ENDBRANCH  38  39
ENDBRANCH  31  33
ENDBRANCH  30  31
ENDBRANCH  29  30
ENDBRANCH  28  29
ENDBRANCH  27  28
ENDBRANCH  26  27
ENDBRANCH   1  26
TORSDOF 21
