REMARK SMILES C/C=C/C=C/C=C/C(=O)O[C@H]1C=C(C=O)[C@](O)(C(=O)OCCOCCOCCOC(=O)c2ccc(-c3c4nc(c(-c5c(F)c(F)c(F)c(F)c5F)c5ccc([nH]5)c(-c5c(F)c(F)c(F)c(F)c5F)c5nc(c(-c6c(F)c(F)c(F)c(F)c6F)c6ccc3[nH]6)C=C5)C=C4)cc2)[C@]2(C)CCCC(C)(C)[C@@H]12
REMARK SMILES IDX 23 1 22 2 21 3 20 4 18 5 19 6 16 7 11 8 12 9 103 10 13 11
REMARK SMILES IDX 95 12 100 13 97 14 96 15 99 16 101 17 102 18 98 19 10 20
REMARK SMILES IDX 8 21 9 22 7 23 6 24 5 25 4 26 3 27 1 28 2 29 14 30 15 31
REMARK SMILES IDX 17 32 24 34 25 35 26 36 27 37 28 38 29 39 30 40 31 41 32 42
REMARK SMILES IDX 33 43 94 44 34 45 93 46 35 47 36 48 37 49 87 50 38 51 92 52
REMARK SMILES IDX 86 53 88 54 39 55 91 56 85 57 84 58 40 60 72 61 52 62 71 63
REMARK SMILES IDX 53 64 56 65 70 66 89 67 54 68 55 69 69 71 90 72 57 73 41 74
REMARK SMILES IDX 42 75 50 76 43 77 44 78 48 79 51 80 45 81 46 82 49 83 47 84
REMARK SMILES IDX 73 85 74 86 82 87 75 88 76 89 80 90 83 91 77 92 78 93 81 94
REMARK SMILES IDX 79 95 58 96 59 97 67 98 60 99 61 100 65 101 68 102 62 103
REMARK SMILES IDX 63 104 66 105 64 106
REMARK H PARENT 17 33 88 59 56 70
REMARK Flexibility Score: inf
ROOT
ATOM      1  O   UNL     1       0.030   4.007 -11.429  1.00  0.00    -0.376 OA
ENDROOT
BRANCH   1   2
ATOM      2  C   UNL     1       0.424   3.324 -10.238  1.00  0.00     0.202 C 
BRANCH   2   3
ATOM      3  C   UNL     1      -0.255   3.765  -8.931  1.00  0.00     0.261 C 
BRANCH   3   4
ATOM      4  O   UNL     1      -1.664   3.503  -9.024  1.00  0.00    -0.461 OA
BRANCH   4   5
ATOM      5  C   UNL     1      -2.507   3.785  -7.991  1.00  0.00     0.343 C 
ATOM      6  O   UNL     1      -2.140   4.346  -6.970  1.00  0.00    -0.248 OA
BRANCH   5   7
ATOM      7  C   UNL     1      -3.973   3.220  -8.323  1.00  0.00     0.196 C 
ATOM      8  C   UNL     1      -3.431   0.660  -6.889  1.00  0.00     0.204 C 
ATOM      9  C   UNL     1      -3.050   0.910  -8.325  1.00  0.00     0.028 C 
ATOM     10  C   UNL     1      -4.183   1.856  -6.171  1.00  0.00     0.050 C 
ATOM     11  C   UNL     1      -3.749   1.847  -8.980  1.00  0.00     0.035 C 
ATOM     12  C   UNL     1      -4.905   2.966  -7.078  1.00  0.00     0.019 C 
ATOM     13  C   UNL     1      -4.813   1.543  -4.771  1.00  0.00    -0.028 C 
ATOM     14  C   UNL     1      -5.112   4.221  -6.173  1.00  0.00     0.011 C 
ATOM     15  C   UNL     1      -6.354   2.677  -7.602  1.00  0.00     0.016 C 
ATOM     16  C   UNL     1      -5.218   2.863  -4.060  1.00  0.00     0.007 C 
ATOM     17  C   UNL     1      -6.010   0.579  -4.806  1.00  0.00     0.011 C 
ATOM     18  C   UNL     1      -3.735   0.889  -3.869  1.00  0.00     0.011 C 
ATOM     19  C   UNL     1      -5.955   3.864  -4.941  1.00  0.00     0.001 C 
BRANCH   8  20
ATOM     20  O   UNL     1      -4.080  -0.614  -6.848  1.00  0.00    -0.455 OA
BRANCH  20  21
ATOM     21  C   UNL     1      -3.269  -1.677  -7.131  1.00  0.00     0.331 C 
ATOM     22  O   UNL     1      -3.244  -2.297  -8.181  1.00  0.00    -0.247 OA
BRANCH  21  23
ATOM     23  C   UNL     1      -2.593  -2.141  -5.907  1.00  0.00     0.093 C 
ATOM     24  C   UNL     1      -1.438  -1.584  -5.513  1.00  0.00     0.007 C 
BRANCH  24  25
ATOM     25  C   UNL     1      -0.953  -1.761  -4.165  1.00  0.00     0.000 C 
ATOM     26  C   UNL     1      -0.260  -0.807  -3.524  1.00  0.00    -0.000 C 
BRANCH  26  27
ATOM     27  C   UNL     1       0.060  -0.905  -2.119  1.00  0.00    -0.005 C 
ATOM     28  C   UNL     1       0.930  -0.001   0.038  1.00  0.00     0.035 C 
ATOM     29  C   UNL     1       0.639   0.085  -1.425  1.00  0.00    -0.030 C 
ENDBRANCH  26  27
ENDBRANCH  24  25
ENDBRANCH  21  23
ENDBRANCH  20  21
ENDBRANCH   8  20
BRANCH  11  30
ATOM     30  C   UNL     1      -4.777   1.170  -9.816  1.00  0.00     0.259 C 
ATOM     31  O   UNL     1      -5.569   0.344  -9.381  1.00  0.00    -0.298 OA
ENDBRANCH  11  30
BRANCH   7  32
ATOM     32  O   UNL     1      -4.564   4.170  -9.218  1.00  0.00    -0.373 OA
ATOM     33  H   UNL     1      -5.458   3.877  -9.455  1.00  0.00     0.212 HD
ENDBRANCH   7  32
ENDBRANCH   5   7
ENDBRANCH   4   5
ENDBRANCH   3   4
ENDBRANCH   2   3
ENDBRANCH   1   2
BRANCH   1  34
ATOM     34  C   UNL     1      -1.356   4.105 -11.734  1.00  0.00     0.188 C 
BRANCH  34  35
ATOM     35  C   UNL     1      -2.225   2.847 -11.642  1.00  0.00     0.188 C 
BRANCH  35  36
ATOM     36  O   UNL     1      -1.530   1.627 -11.472  1.00  0.00    -0.376 OA
BRANCH  36  37
ATOM     37  C   UNL     1      -1.873   0.597 -12.395  1.00  0.00     0.202 C 
BRANCH  37  38
ATOM     38  C   UNL     1      -1.348   0.860 -13.815  1.00  0.00     0.261 C 
BRANCH  38  39
ATOM     39  O   UNL     1      -1.787   2.104 -14.405  1.00  0.00    -0.460 OA
BRANCH  39  40
ATOM     40  C   UNL     1      -3.110   2.251 -14.663  1.00  0.00     0.338 C 
ATOM     41  O   UNL     1      -3.975   1.400 -14.539  1.00  0.00    -0.246 OA
BRANCH  40  42
ATOM     42  C   UNL     1      -3.381   3.708 -14.801  1.00  0.00     0.060 A 
ATOM     43  C   UNL     1      -4.410   4.286 -14.036  1.00  0.00     0.016 A 
ATOM     44  C   UNL     1      -2.564   4.519 -15.590  1.00  0.00     0.016 A 
ATOM     45  C   UNL     1      -4.629   5.668 -14.068  1.00  0.00     0.010 A 
ATOM     46  C   UNL     1      -2.801   5.896 -15.643  1.00  0.00     0.010 A 
ATOM     47  C   UNL     1      -3.847   6.477 -14.902  1.00  0.00    -0.014 A 
BRANCH  47  48
ATOM     48  C   UNL     1      -4.240   7.880 -15.193  1.00  0.00     0.031 A 
ATOM     49  C   UNL     1      -5.036   8.136 -16.444  1.00  0.00     0.074 A 
ATOM     50  C   UNL     1      -3.875   8.912 -14.411  1.00  0.00     0.049 A 
ATOM     51  N   UNL     1      -5.371   9.268 -17.007  1.00  0.00    -0.248 NA
ATOM     52  C   UNL     1      -5.510   6.941 -17.163  1.00  0.00     0.031 C 
ATOM     53  C   UNL     1      -3.149   8.807 -13.149  1.00  0.00     0.029 A 
ATOM     54  N   UNL     1      -4.051  10.265 -14.588  1.00  0.00    -0.354 N 
ATOM     55  C   UNL     1      -6.078   8.922 -18.151  1.00  0.00     0.074 A 
ATOM     56  C   UNL     1      -6.102   7.478 -18.217  1.00  0.00     0.031 C 
ATOM     57  C   UNL     1      -2.919  10.046 -12.676  1.00  0.00     0.029 A 
ATOM     58  C   UNL     1      -3.443  11.031 -13.623  1.00  0.00     0.049 A 
ATOM     59  H   UNL     1      -4.564  10.648 -15.336  1.00  0.00     0.167 HD
ATOM     60  C   UNL     1      -6.658   9.735 -19.066  1.00  0.00     0.037 A 
ATOM     61  C   UNL     1      -3.296  12.370 -13.537  1.00  0.00     0.037 A 
ATOM     62  C   UNL     1      -6.628  11.171 -19.007  1.00  0.00     0.049 A 
ATOM     63  C   UNL     1      -3.869  13.256 -14.620  1.00  0.00     0.074 A 
ATOM     64  C   UNL     1      -7.201  12.081 -19.879  1.00  0.00     0.029 A 
ATOM     65  N   UNL     1      -5.979  11.908 -18.028  1.00  0.00    -0.354 N 
ATOM     66  N   UNL     1      -4.555  12.926 -15.688  1.00  0.00    -0.248 NA
ATOM     67  C   UNL     1      -3.640  14.704 -14.487  1.00  0.00     0.031 C 
ATOM     68  C   UNL     1      -6.847  13.367 -19.462  1.00  0.00     0.029 A 
ATOM     69  C   UNL     1      -6.111  13.262 -18.293  1.00  0.00     0.049 A 
ATOM     70  H   UNL     1      -5.497  11.527 -17.260  1.00  0.00     0.167 HD
ATOM     71  C   UNL     1      -4.867  14.120 -16.330  1.00  0.00     0.074 A 
ATOM     72  C   UNL     1      -4.305  15.184 -15.528  1.00  0.00     0.031 C 
ATOM     73  C   UNL     1      -5.559  14.316 -17.480  1.00  0.00     0.037 A 
BRANCH  60  74
ATOM     74  C   UNL     1      -7.346   9.084 -20.229  1.00  0.00     0.064 A 
ATOM     75  C   UNL     1      -8.543   8.368 -20.075  1.00  0.00     0.173 A 
ATOM     76  C   UNL     1      -6.812   9.198 -21.522  1.00  0.00     0.173 A 
ATOM     77  F   UNL     1      -9.085   8.214 -18.857  1.00  0.00    -0.203 F 
ATOM     78  C   UNL     1      -9.164   7.768 -21.166  1.00  0.00     0.198 A 
ATOM     79  C   UNL     1      -7.454   8.626 -22.616  1.00  0.00     0.198 A 
ATOM     80  F   UNL     1      -5.671   9.873 -21.725  1.00  0.00    -0.203 F 
ATOM     81  F   UNL     1     -10.277   7.043 -20.987  1.00  0.00    -0.200 F 
ATOM     82  C   UNL     1      -8.624   7.904 -22.437  1.00  0.00     0.200 A 
ATOM     83  F   UNL     1      -6.938   8.770 -23.844  1.00  0.00    -0.200 F 
ATOM     84  F   UNL     1      -9.227   7.332 -23.488  1.00  0.00    -0.200 F 
ENDBRANCH  60  74
BRANCH  61  85
ATOM     85  C   UNL     1      -2.552  12.972 -12.397  1.00  0.00     0.064 A 
ATOM     86  C   UNL     1      -3.203  13.781 -11.454  1.00  0.00     0.173 A 
ATOM     87  C   UNL     1      -1.168  12.790 -12.250  1.00  0.00     0.173 A 
ATOM     88  F   UNL     1      -4.519  14.016 -11.570  1.00  0.00    -0.203 F 
ATOM     89  C   UNL     1      -2.498  14.398 -10.422  1.00  0.00     0.198 A 
ATOM     90  C   UNL     1      -0.470  13.382 -11.199  1.00  0.00     0.198 A 
ATOM     91  F   UNL     1      -0.492  12.037 -13.129  1.00  0.00    -0.203 F 
ATOM     92  F   UNL     1      -3.138  15.212  -9.570  1.00  0.00    -0.200 F 
ATOM     93  C   UNL     1      -1.133  14.193 -10.291  1.00  0.00     0.200 A 
ATOM     94  F   UNL     1       0.848  13.175 -11.072  1.00  0.00    -0.200 F 
ATOM     95  F   UNL     1      -0.456  14.787  -9.299  1.00  0.00    -0.200 F 
ENDBRANCH  61  85
BRANCH  73  96
ATOM     96  C   UNL     1      -5.795  15.732 -17.926  1.00  0.00     0.064 A 
ATOM     97  C   UNL     1      -4.760  16.532 -18.432  1.00  0.00     0.173 A 
ATOM     98  C   UNL     1      -7.091  16.273 -17.908  1.00  0.00     0.173 A 
ATOM     99  F   UNL     1      -3.501  16.069 -18.460  1.00  0.00    -0.203 F 
ATOM    100  C   UNL     1      -5.010  17.826 -18.884  1.00  0.00     0.198 A 
ATOM    101  C   UNL     1      -7.342  17.555 -18.391  1.00  0.00     0.198 A 
ATOM    102  F   UNL     1      -8.120  15.549 -17.443  1.00  0.00    -0.203 F 
ATOM    103  F   UNL     1      -3.998  18.587 -19.324  1.00  0.00    -0.200 F 
ATOM    104  C   UNL     1      -6.301  18.332 -18.872  1.00  0.00     0.200 A 
ATOM    105  F   UNL     1      -8.594  18.034 -18.396  1.00  0.00    -0.200 F 
ATOM    106  F   UNL     1      -6.541  19.572 -19.322  1.00  0.00    -0.200 F 
ENDBRANCH  73  96
ENDBRANCH  47  48
ENDBRANCH  40  42
ENDBRANCH  39  40
ENDBRANCH  38  39
ENDBRANCH  37  38
ENDBRANCH  36  37
ENDBRANCH  35  36
ENDBRANCH  34  35
ENDBRANCH   1  34
TORSDOF 24
