REMARK SMILES C[C@H](C(=O)Nc1ccc(C(F)(F)F)cc1)n1nc(C(=O)OCCOCCOCCOC(=O)c2ccc(-c3c4nc(c(-c5c(F)c(F)c(F)c(F)c5F)c5ccc([nH]5)c(-c5c(F)c(F)c(F)c(F)c5F)c5nc(c(-c6c(F)c(F)c(F)c(F)c6F)c6ccc3[nH]6)C=C5)C=C4)cc2)c2ccccc2c1=O
REMARK SMILES IDX 25 1 24 2 23 3 22 4 21 5 19 6 20 7 18 8 16 9 17 10 102 11
REMARK SMILES IDX 101 12 103 13 96 14 100 15 97 16 99 17 98 18 2 19 1 20 3 21
REMARK SMILES IDX 4 22 5 23 6 25 7 26 15 27 8 28 14 29 9 30 10 31 11 32 12 33
REMARK SMILES IDX 13 34 26 35 27 36 28 37 29 38 30 39 31 40 32 41 33 42 34 43
REMARK SMILES IDX 95 44 35 45 94 46 36 47 37 48 38 49 88 50 39 51 93 52 87 53
REMARK SMILES IDX 89 54 40 55 92 56 86 57 85 58 41 60 73 61 53 62 72 63 54 64
REMARK SMILES IDX 57 65 71 66 90 67 55 68 56 69 70 71 91 72 58 73 42 74 43 75
REMARK SMILES IDX 51 76 44 77 45 78 49 79 52 80 46 81 47 82 50 83 48 84 74 85
REMARK SMILES IDX 75 86 83 87 76 88 77 89 81 90 84 91 78 92 79 93 82 94 80 95
REMARK SMILES IDX 59 96 60 97 68 98 61 99 62 100 66 101 69 102 63 103 64 104
REMARK SMILES IDX 67 105 65 106
REMARK H PARENT 5 24 89 59 57 70
REMARK Flexibility Score: inf
ROOT
ATOM      1  C   UNL     1      -5.564  -1.437  -3.240  1.00  0.00     0.188 C 
ENDROOT
BRANCH   1   2
ATOM      2  O   UNL     1      -6.027  -0.429  -4.117  1.00  0.00    -0.376 OA
BRANCH   2   3
ATOM      3  C   UNL     1      -5.305   0.788  -4.256  1.00  0.00     0.202 C 
BRANCH   3   4
ATOM      4  C   UNL     1      -4.826   1.516  -3.005  1.00  0.00     0.261 C 
BRANCH   4   5
ATOM      5  O   UNL     1      -3.895   0.728  -2.250  1.00  0.00    -0.458 OA
BRANCH   5   6
ATOM      6  C   UNL     1      -4.222   0.523  -0.960  1.00  0.00     0.359 C 
ATOM      7  O   UNL     1      -5.207   0.936  -0.373  1.00  0.00    -0.244 OA
BRANCH   6   8
ATOM      8  C   UNL     1      -3.190  -0.355  -0.260  1.00  0.00     0.176 A 
ATOM      9  N   UNL     1      -0.953  -0.762   0.157  1.00  0.00    -0.216 N 
ATOM     10  N   UNL     1      -1.952  -0.222  -0.619  1.00  0.00    -0.161 NA
ATOM     11  C   UNL     1      -1.198  -1.307   1.419  1.00  0.00     0.275 A 
ATOM     12  C   UNL     1      -2.617  -1.579   1.745  1.00  0.00     0.051 A 
ATOM     13  O   UNL     1      -0.337  -1.628   2.229  1.00  0.00    -0.267 OA
ATOM     14  C   UNL     1      -3.605  -1.230   0.835  1.00  0.00     0.022 A 
ATOM     15  C   UNL     1      -2.964  -2.274   2.907  1.00  0.00     0.014 A 
ATOM     16  C   UNL     1      -4.912  -1.704   0.987  1.00  0.00     0.011 A 
ATOM     17  C   UNL     1      -4.281  -2.699   3.095  1.00  0.00     0.001 A 
ATOM     18  C   UNL     1      -5.244  -2.452   2.116  1.00  0.00     0.001 A 
BRANCH   9  19
ATOM     19  C   UNL     1       0.412  -0.682  -0.412  1.00  0.00     0.197 C 
ATOM     20  C   UNL     1       1.040  -2.072  -0.568  1.00  0.00     0.044 C 
BRANCH  19  21
ATOM     21  C   UNL     1       1.338   0.272   0.361  1.00  0.00     0.249 C 
ATOM     22  O   UNL     1       2.079  -0.147   1.260  1.00  0.00    -0.272 OA
ATOM     23  N   UNL     1       1.445   1.612   0.099  1.00  0.00    -0.324 N 
ATOM     24  H   UNL     1       2.089   2.055   0.697  1.00  0.00     0.170 HD
BRANCH  23  25
ATOM     25  C   UNL     1       0.865   2.511  -0.813  1.00  0.00     0.041 A 
ATOM     26  C   UNL     1       1.480   3.761  -0.952  1.00  0.00     0.027 A 
ATOM     27  C   UNL     1      -0.259   2.266  -1.588  1.00  0.00     0.027 A 
ATOM     28  C   UNL     1       1.010   4.702  -1.882  1.00  0.00     0.015 A 
ATOM     29  C   UNL     1      -0.753   3.203  -2.498  1.00  0.00     0.015 A 
ATOM     30  C   UNL     1      -0.110   4.425  -2.676  1.00  0.00     0.056 A 
BRANCH  30  31
ATOM     31  C   UNL     1      -0.599   5.404  -3.711  1.00  0.00     0.416 C 
ATOM     32  F   UNL     1      -0.956   6.602  -3.175  1.00  0.00    -0.166 F 
ATOM     33  F   UNL     1       0.344   5.677  -4.654  1.00  0.00    -0.166 F 
ATOM     34  F   UNL     1      -1.692   4.963  -4.398  1.00  0.00    -0.166 F 
ENDBRANCH  30  31
ENDBRANCH  23  25
ENDBRANCH  19  21
ENDBRANCH   9  19
ENDBRANCH   6   8
ENDBRANCH   5   6
ENDBRANCH   4   5
ENDBRANCH   3   4
ENDBRANCH   2   3
ENDBRANCH   1   2
BRANCH   1  35
ATOM     35  C   UNL     1      -4.163  -2.064  -3.415  1.00  0.00     0.188 C 
BRANCH  35  36
ATOM     36  O   UNL     1      -3.356  -1.760  -4.534  1.00  0.00    -0.376 OA
BRANCH  36  37
ATOM     37  C   UNL     1      -3.886  -1.881  -5.845  1.00  0.00     0.202 C 
BRANCH  37  38
ATOM     38  C   UNL     1      -4.602  -3.161  -6.282  1.00  0.00     0.261 C 
BRANCH  38  39
ATOM     39  O   UNL     1      -5.622  -3.596  -5.372  1.00  0.00    -0.460 OA
BRANCH  39  40
ATOM     40  C   UNL     1      -5.405  -4.821  -4.826  1.00  0.00     0.338 C 
ATOM     41  O   UNL     1      -4.508  -5.592  -5.075  1.00  0.00    -0.246 OA
BRANCH  40  42
ATOM     42  C   UNL     1      -6.338  -5.034  -3.698  1.00  0.00     0.060 A 
ATOM     43  C   UNL     1      -5.783  -5.385  -2.460  1.00  0.00     0.016 A 
ATOM     44  C   UNL     1      -7.723  -4.966  -3.861  1.00  0.00     0.016 A 
ATOM     45  C   UNL     1      -6.611  -5.735  -1.396  1.00  0.00     0.010 A 
ATOM     46  C   UNL     1      -8.554  -5.342  -2.800  1.00  0.00     0.010 A 
ATOM     47  C   UNL     1      -7.999  -5.774  -1.581  1.00  0.00    -0.014 A 
BRANCH  47  48
ATOM     48  C   UNL     1      -8.835  -6.513  -0.603  1.00  0.00     0.031 A 
ATOM     49  C   UNL     1      -9.068  -7.982  -0.845  1.00  0.00     0.074 A 
ATOM     50  C   UNL     1      -9.348  -5.921   0.488  1.00  0.00     0.049 A 
ATOM     51  N   UNL     1      -9.786  -8.837  -0.162  1.00  0.00    -0.248 NA
ATOM     52  C   UNL     1      -8.394  -8.565  -2.018  1.00  0.00     0.031 C 
ATOM     53  C   UNL     1      -9.163  -4.522   0.862  1.00  0.00     0.029 A 
ATOM     54  N   UNL     1     -10.146  -6.434   1.482  1.00  0.00    -0.354 N 
ATOM     55  C   UNL     1      -9.638 -10.055  -0.813  1.00  0.00     0.074 A 
ATOM     56  C   UNL     1      -8.794  -9.825  -1.964  1.00  0.00     0.031 C 
ATOM     57  C   UNL     1      -9.850  -4.280   1.994  1.00  0.00     0.029 A 
ATOM     58  C   UNL     1     -10.540  -5.502   2.409  1.00  0.00     0.049 A 
ATOM     59  H   UNL     1     -10.410  -7.382   1.524  1.00  0.00     0.167 HD
ATOM     60  C   UNL     1     -10.151 -11.262  -0.479  1.00  0.00     0.037 A 
ATOM     61  C   UNL     1     -11.381  -5.623   3.455  1.00  0.00     0.037 A 
ATOM     62  C   UNL     1     -11.017 -11.495   0.644  1.00  0.00     0.049 A 
ATOM     63  C   UNL     1     -12.008  -6.963   3.759  1.00  0.00     0.074 A 
ATOM     64  C   UNL     1     -11.631 -12.672   1.034  1.00  0.00     0.029 A 
ATOM     65  N   UNL     1     -11.396 -10.523   1.557  1.00  0.00    -0.354 N 
ATOM     66  N   UNL     1     -11.858  -8.110   3.142  1.00  0.00    -0.248 NA
ATOM     67  C   UNL     1     -12.915  -7.025   4.915  1.00  0.00     0.031 C 
ATOM     68  C   UNL     1     -12.407 -12.406   2.167  1.00  0.00     0.029 A 
ATOM     69  C   UNL     1     -12.237 -11.075   2.509  1.00  0.00     0.049 A 
ATOM     70  H   UNL     1     -11.110  -9.582   1.532  1.00  0.00     0.167 HD
ATOM     71  C   UNL     1     -12.616  -9.032   3.856  1.00  0.00     0.074 A 
ATOM     72  C   UNL     1     -13.217  -8.314   4.958  1.00  0.00     0.031 C 
ATOM     73  C   UNL     1     -12.799 -10.354   3.621  1.00  0.00     0.037 A 
BRANCH  60  74
ATOM     74  C   UNL     1      -9.795 -12.425  -1.355  1.00  0.00     0.064 A 
ATOM     75  C   UNL     1      -8.511 -12.990  -1.328  1.00  0.00     0.173 A 
ATOM     76  C   UNL     1     -10.749 -12.997  -2.207  1.00  0.00     0.173 A 
ATOM     77  F   UNL     1      -7.558 -12.463  -0.544  1.00  0.00    -0.203 F 
ATOM     78  C   UNL     1      -8.191 -14.077  -2.136  1.00  0.00     0.198 A 
ATOM     79  C   UNL     1     -10.434 -14.101  -2.995  1.00  0.00     0.198 A 
ATOM     80  F   UNL     1     -11.990 -12.491  -2.270  1.00  0.00    -0.203 F 
ATOM     81  F   UNL     1      -6.948 -14.576  -2.124  1.00  0.00    -0.200 F 
ATOM     82  C   UNL     1      -9.154 -14.636  -2.963  1.00  0.00     0.200 A 
ATOM     83  F   UNL     1     -11.367 -14.645  -3.787  1.00  0.00    -0.200 F 
ATOM     84  F   UNL     1      -8.848 -15.688  -3.734  1.00  0.00    -0.200 F 
ENDBRANCH  60  74
BRANCH  61  85
ATOM     85  C   UNL     1     -11.711  -4.441   4.296  1.00  0.00     0.064 A 
ATOM     86  C   UNL     1     -11.311  -4.371   5.638  1.00  0.00     0.173 A 
ATOM     87  C   UNL     1     -12.494  -3.392   3.793  1.00  0.00     0.173 A 
ATOM     88  F   UNL     1     -10.584  -5.363   6.173  1.00  0.00    -0.203 F 
ATOM     89  C   UNL     1     -11.712  -3.314   6.454  1.00  0.00     0.198 A 
ATOM     90  C   UNL     1     -12.869  -2.321   4.602  1.00  0.00     0.198 A 
ATOM     91  F   UNL     1     -12.905  -3.412   2.517  1.00  0.00    -0.203 F 
ATOM     92  F   UNL     1     -11.372  -3.307   7.750  1.00  0.00    -0.200 F 
ATOM     93  C   UNL     1     -12.489  -2.290   5.935  1.00  0.00     0.200 A 
ATOM     94  F   UNL     1     -13.612  -1.329   4.094  1.00  0.00    -0.200 F 
ATOM     95  F   UNL     1     -12.884  -1.281   6.723  1.00  0.00    -0.200 F 
ENDBRANCH  61  85
BRANCH  73  96
ATOM     96  C   UNL     1     -13.623 -11.130   4.608  1.00  0.00     0.064 A 
ATOM     97  C   UNL     1     -15.014 -10.980   4.694  1.00  0.00     0.173 A 
ATOM     98  C   UNL     1     -13.011 -12.071   5.451  1.00  0.00     0.173 A 
ATOM     99  F   UNL     1     -15.646 -10.087   3.917  1.00  0.00    -0.203 F 
ATOM    100  C   UNL     1     -15.759 -11.721   5.608  1.00  0.00     0.198 A 
ATOM    101  C   UNL     1     -13.761 -12.831   6.343  1.00  0.00     0.198 A 
ATOM    102  F   UNL     1     -11.683 -12.260   5.402  1.00  0.00    -0.203 F 
ATOM    103  F   UNL     1     -17.081 -11.527   5.707  1.00  0.00    -0.200 F 
ATOM    104  C   UNL     1     -15.133 -12.650   6.427  1.00  0.00     0.200 A 
ATOM    105  F   UNL     1     -13.157 -13.738   7.123  1.00  0.00    -0.200 F 
ATOM    106  F   UNL     1     -15.852 -13.366   7.302  1.00  0.00    -0.200 F 
ENDBRANCH  73  96
ENDBRANCH  47  48
ENDBRANCH  40  42
ENDBRANCH  39  40
ENDBRANCH  38  39
ENDBRANCH  37  38
ENDBRANCH  36  37
ENDBRANCH  35  36
ENDBRANCH   1  35
TORSDOF 21
