REMARK SMILES O=C(OCCOCCOCCOC(=O)c1ccccc1C(=O)c1cccc(S(=O)(=O)N2CCOCC2)c1)c1ccc(-c2c3nc(c(-c4c(F)c(F)c(F)c(F)c4F)c4ccc([nH]4)c(-c4c(F)c(F)c(F)c(F)c4F)c4nc(c(-c5c(F)c(F)c(F)c(F)c5F)c5ccc2[nH]5)C=C4)C=C3)cc1
REMARK SMILES IDX 8 1 7 2 6 3 5 4 4 5 3 6 2 7 1 8 38 9 39 10 100 11 40 12
REMARK SMILES IDX 99 13 41 14 42 15 43 16 93 17 44 18 98 19 92 20 94 21 45 22
REMARK SMILES IDX 97 23 91 24 90 25 46 27 78 28 58 29 77 30 59 31 62 32 76 33
REMARK SMILES IDX 95 34 60 35 61 36 75 38 96 39 63 40 47 41 48 42 56 43 49 44
REMARK SMILES IDX 50 45 54 46 57 47 51 48 52 49 55 50 53 51 79 52 80 53 88 54
REMARK SMILES IDX 81 55 82 56 86 57 89 58 83 59 84 60 87 61 85 62 64 63 65 64
REMARK SMILES IDX 73 65 66 66 67 67 71 68 74 69 68 70 69 71 72 72 70 73 9 74
REMARK SMILES IDX 10 75 11 76 12 77 13 78 14 79 15 80 16 81 20 82 17 83 19 84
REMARK SMILES IDX 18 85 21 86 22 87 23 88 24 89 37 90 25 91 27 92 26 93 28 94
REMARK SMILES IDX 29 95 30 96 31 97 32 98 36 99 33 100 35 101 34 102
REMARK H PARENT 94 26 62 37
REMARK Flexibility Score: inf
ROOT
ATOM      1  C   UNL     1       2.014  -1.202  -2.404  1.00  0.00     0.188 C 
ENDROOT
BRANCH   1   2
ATOM      2  C   UNL     1       2.336  -1.566  -0.959  1.00  0.00     0.188 C 
BRANCH   2   3
ATOM      3  O   UNL     1       3.561  -0.956  -0.557  1.00  0.00    -0.376 OA
BRANCH   3   4
ATOM      4  C   UNL     1       4.470  -1.862   0.083  1.00  0.00     0.202 C 
BRANCH   4   5
ATOM      5  C   UNL     1       4.070  -2.119   1.532  1.00  0.00     0.261 C 
BRANCH   5   6
ATOM      6  O   UNL     1       4.043  -0.852   2.201  1.00  0.00    -0.460 OA
BRANCH   6   7
ATOM      7  C   UNL     1       2.869  -0.175   2.099  1.00  0.00     0.338 C 
ATOM      8  O   UNL     1       1.743  -0.636   2.123  1.00  0.00    -0.246 OA
BRANCH   7   9
ATOM      9  C   UNL     1       3.205   1.254   1.949  1.00  0.00     0.060 A 
ATOM     10  C   UNL     1       4.322   1.615   1.184  1.00  0.00     0.016 A 
ATOM     11  C   UNL     1       2.470   2.219   2.639  1.00  0.00     0.016 A 
ATOM     12  C   UNL     1       4.822   2.898   1.260  1.00  0.00     0.010 A 
ATOM     13  C   UNL     1       2.964   3.522   2.704  1.00  0.00     0.010 A 
ATOM     14  C   UNL     1       4.190   3.828   2.090  1.00  0.00    -0.014 A 
BRANCH  14  15
ATOM     15  C   UNL     1       5.005   4.980   2.526  1.00  0.00     0.031 A 
ATOM     16  C   UNL     1       5.692   4.886   3.856  1.00  0.00     0.074 A 
ATOM     17  C   UNL     1       5.299   5.962   1.661  1.00  0.00     0.049 A 
ATOM     18  N   UNL     1       6.490   5.739   4.440  1.00  0.00    -0.248 NA
ATOM     19  C   UNL     1       5.474   3.647   4.622  1.00  0.00     0.031 C 
ATOM     20  C   UNL     1       4.817   6.021   0.287  1.00  0.00     0.029 A 
ATOM     21  N   UNL     1       6.112   7.054   1.782  1.00  0.00    -0.354 N 
ATOM     22  C   UNL     1       6.844   5.152   5.647  1.00  0.00     0.074 A 
ATOM     23  C   UNL     1       6.177   3.874   5.720  1.00  0.00     0.031 C 
ATOM     24  C   UNL     1       5.371   7.076  -0.329  1.00  0.00     0.029 A 
ATOM     25  C   UNL     1       6.188   7.803   0.634  1.00  0.00     0.049 A 
ATOM     26  H   UNL     1       6.595   7.281   2.609  1.00  0.00     0.167 HD
ATOM     27  C   UNL     1       7.654   5.649   6.609  1.00  0.00     0.037 A 
ATOM     28  C   UNL     1       6.830   8.961   0.402  1.00  0.00     0.037 A 
ATOM     29  C   UNL     1       8.315   6.919   6.503  1.00  0.00     0.049 A 
ATOM     30  C   UNL     1       7.633   9.550   1.526  1.00  0.00     0.074 A 
ATOM     31  C   UNL     1       9.088   7.579   7.438  1.00  0.00     0.029 A 
ATOM     32  N   UNL     1       8.278   7.722   5.369  1.00  0.00    -0.354 N 
ATOM     33  N   UNL     1       7.878   9.049   2.714  1.00  0.00    -0.248 NA
ATOM     34  C   UNL     1       8.236  10.867   1.291  1.00  0.00     0.031 C 
ATOM     35  C   UNL     1       9.489   8.799   6.881  1.00  0.00     0.029 A 
ATOM     36  C   UNL     1       9.002   8.880   5.584  1.00  0.00     0.049 A 
ATOM     37  H   UNL     1       7.805   7.498   4.534  1.00  0.00     0.167 HD
ATOM     38  C   UNL     1       8.677   9.976   3.365  1.00  0.00     0.074 A 
ATOM     39  C   UNL     1       8.885  11.067   2.430  1.00  0.00     0.031 C 
ATOM     40  C   UNL     1       9.190   9.935   4.619  1.00  0.00     0.037 A 
BRANCH  27  41
ATOM     41  C   UNL     1       7.773   4.846   7.870  1.00  0.00     0.064 A 
ATOM     42  C   UNL     1       8.498   3.646   7.925  1.00  0.00     0.173 A 
ATOM     43  C   UNL     1       7.086   5.251   9.024  1.00  0.00     0.173 A 
ATOM     44  F   UNL     1       9.143   3.195   6.838  1.00  0.00    -0.203 F 
ATOM     45  C   UNL     1       8.501   2.865   9.080  1.00  0.00     0.198 A 
ATOM     46  C   UNL     1       7.111   4.480  10.183  1.00  0.00     0.198 A 
ATOM     47  F   UNL     1       6.367   6.383   9.018  1.00  0.00    -0.203 F 
ATOM     48  F   UNL     1       9.144   1.688   9.090  1.00  0.00    -0.200 F 
ATOM     49  C   UNL     1       7.809   3.283  10.207  1.00  0.00     0.200 A 
ATOM     50  F   UNL     1       6.439   4.885  11.269  1.00  0.00    -0.200 F 
ATOM     51  F   UNL     1       7.797   2.521  11.309  1.00  0.00    -0.200 F 
ENDBRANCH  27  41
BRANCH  28  52
ATOM     52  C   UNL     1       6.701   9.629  -0.919  1.00  0.00     0.064 A 
ATOM     53  C   UNL     1       7.797   9.768  -1.778  1.00  0.00     0.173 A 
ATOM     54  C   UNL     1       5.462  10.122  -1.361  1.00  0.00     0.173 A 
ATOM     55  F   UNL     1       9.008   9.335  -1.395  1.00  0.00    -0.203 F 
ATOM     56  C   UNL     1       7.662  10.379  -3.025  1.00  0.00     0.198 A 
ATOM     57  C   UNL     1       5.322  10.706  -2.617  1.00  0.00     0.198 A 
ATOM     58  F   UNL     1       4.378  10.020  -0.577  1.00  0.00    -0.203 F 
ATOM     59  F   UNL     1       8.736  10.536  -3.812  1.00  0.00    -0.200 F 
ATOM     60  C   UNL     1       6.423  10.840  -3.447  1.00  0.00     0.200 A 
ATOM     61  F   UNL     1       4.120  11.140  -3.022  1.00  0.00    -0.200 F 
ATOM     62  F   UNL     1       6.294  11.425  -4.646  1.00  0.00    -0.200 F 
ENDBRANCH  28  52
BRANCH  40  63
ATOM     63  C   UNL     1      10.048  11.089   5.030  1.00  0.00     0.064 A 
ATOM     64  C   UNL     1       9.492  12.332   5.362  1.00  0.00     0.173 A 
ATOM     65  C   UNL     1      11.438  10.933   5.132  1.00  0.00     0.173 A 
ATOM     66  F   UNL     1       8.169  12.528   5.263  1.00  0.00    -0.203 F 
ATOM     67  C   UNL     1      10.303  13.388   5.763  1.00  0.00     0.198 A 
ATOM     68  C   UNL     1      12.242  11.984   5.557  1.00  0.00     0.198 A 
ATOM     69  F   UNL     1      12.010   9.758   4.829  1.00  0.00    -0.203 F 
ATOM     70  F   UNL     1       9.758  14.581   6.038  1.00  0.00    -0.200 F 
ATOM     71  C   UNL     1      11.676  13.212   5.866  1.00  0.00     0.200 A 
ATOM     72  F   UNL     1      13.567  11.810   5.666  1.00  0.00    -0.200 F 
ATOM     73  F   UNL     1      12.454  14.229   6.258  1.00  0.00    -0.200 F 
ENDBRANCH  40  63
ENDBRANCH  14  15
ENDBRANCH   7   9
ENDBRANCH   6   7
ENDBRANCH   5   6
ENDBRANCH   4   5
ENDBRANCH   3   4
ENDBRANCH   2   3
ENDBRANCH   1   2
BRANCH   1  74
ATOM     74  O   UNL     1       2.972  -1.637  -3.360  1.00  0.00    -0.376 OA
BRANCH  74  75
ATOM     75  C   UNL     1       4.286  -1.091  -3.279  1.00  0.00     0.202 C 
BRANCH  75  76
ATOM     76  C   UNL     1       4.463   0.394  -3.586  1.00  0.00     0.261 C 
BRANCH  76  77
ATOM     77  O   UNL     1       4.118   1.419  -2.625  1.00  0.00    -0.460 OA
BRANCH  77  78
ATOM     78  C   UNL     1       3.046   2.154  -3.001  1.00  0.00     0.338 C 
ATOM     79  O   UNL     1       2.167   1.781  -3.765  1.00  0.00    -0.246 OA
BRANCH  78  80
ATOM     80  C   UNL     1       2.944   3.521  -2.473  1.00  0.00     0.071 A 
ATOM     81  C   UNL     1       1.853   3.710  -1.594  1.00  0.00     0.016 A 
ATOM     82  C   UNL     1       3.557   4.641  -3.067  1.00  0.00     0.037 A 
ATOM     83  C   UNL     1       1.350   4.986  -1.328  1.00  0.00     0.001 A 
ATOM     84  C   UNL     1       2.997   5.915  -2.811  1.00  0.00     0.013 A 
ATOM     85  C   UNL     1       1.905   6.088  -1.960  1.00  0.00     0.001 A 
BRANCH  82  86
ATOM     86  C   UNL     1       4.811   4.696  -3.876  1.00  0.00     0.193 C 
ATOM     87  O   UNL     1       5.427   5.764  -3.929  1.00  0.00    -0.289 OA
BRANCH  86  88
ATOM     88  C   UNL     1       5.440   3.579  -4.588  1.00  0.00     0.024 A 
ATOM     89  C   UNL     1       6.767   3.264  -4.259  1.00  0.00     0.012 A 
ATOM     90  C   UNL     1       4.800   2.937  -5.649  1.00  0.00     0.034 A 
ATOM     91  C   UNL     1       7.446   2.266  -4.957  1.00  0.00     0.002 A 
ATOM     92  C   UNL     1       5.474   1.911  -6.322  1.00  0.00     0.083 A 
ATOM     93  C   UNL     1       6.796   1.579  -5.983  1.00  0.00     0.022 A 
BRANCH  92  94
ATOM     94  S   UNL     1       4.655   0.860  -7.514  1.00  0.00     0.243 S 
ATOM     95  O   UNL     1       5.309   1.119  -8.779  1.00  0.00    -0.207 OA
ATOM     96  O   UNL     1       4.636  -0.457  -6.917  1.00  0.00    -0.207 OA
BRANCH  94  97
ATOM     97  N   UNL     1       3.094   1.441  -7.585  1.00  0.00    -0.193 NA
ATOM     98  C   UNL     1       2.636   2.264  -8.720  1.00  0.00     0.131 C 
ATOM     99  C   UNL     1       1.991   0.878  -6.772  1.00  0.00     0.131 C 
ATOM    100  C   UNL     1       1.671   3.337  -8.205  1.00  0.00     0.177 C 
ATOM    101  C   UNL     1       1.046   2.018  -6.358  1.00  0.00     0.177 C 
ATOM    102  O   UNL     1       0.567   2.747  -7.501  1.00  0.00    -0.379 OA
ENDBRANCH  94  97
ENDBRANCH  92  94
ENDBRANCH  86  88
ENDBRANCH  82  86
ENDBRANCH  78  80
ENDBRANCH  77  78
ENDBRANCH  76  77
ENDBRANCH  75  76
ENDBRANCH  74  75
ENDBRANCH   1  74
TORSDOF 21
