REMARK SMILES CCn1c([C@@H]2CCC[N@@H+](Cc3ccc(C(=O)OCCOCCOCCOC(=O)c4ccc(-c5c6nc(c(-c7c(F)c(F)c(F)c(F)c7F)c7ccc([nH]7)c(-c7c(F)c(F)c(F)c(F)c7F)c7nc(c(-c8c(F)c(F)c(F)c(F)c8F)c8ccc5[nH]8)C=C7)C=C6)cc4)cc3)C2)nn(C)c1=O
REMARK SMILES IDX 21 1 20 2 19 3 18 4 17 5 15 6 16 7 14 8 11 9 12 10 93 11
REMARK SMILES IDX 13 12 92 13 10 14 9 15 5 16 6 17 94 18 7 19 8 20 4 22 3 23
REMARK SMILES IDX 98 24 95 25 96 26 99 27 97 28 2 29 1 30 22 31 23 32 24 33
REMARK SMILES IDX 25 34 26 35 27 36 28 37 29 38 30 39 91 40 31 41 90 42 32 43
REMARK SMILES IDX 33 44 34 45 84 46 35 47 89 48 83 49 85 50 36 51 88 52 82 53
REMARK SMILES IDX 81 54 37 56 69 57 49 58 68 59 50 60 53 61 67 62 86 63 51 64
REMARK SMILES IDX 52 65 66 67 87 68 54 69 38 70 39 71 47 72 40 73 41 74 45 75
REMARK SMILES IDX 48 76 42 77 43 78 46 79 44 80 70 81 71 82 79 83 72 84 73 85
REMARK SMILES IDX 77 86 80 87 74 88 75 89 78 90 76 91 55 92 56 93 64 94 57 95
REMARK SMILES IDX 58 96 62 97 65 98 59 99 60 100 63 101 61 102
REMARK H PARENT 9 21 85 55 53 66
REMARK Flexibility Score: inf
ROOT
ATOM      1  C   UNL     1      10.287   3.328  -0.348  1.00  0.00     0.188 C 
ENDROOT
BRANCH   1   2
ATOM      2  O   UNL     1      11.447   3.678   0.369  1.00  0.00    -0.376 OA
BRANCH   2   3
ATOM      3  C   UNL     1      11.504   3.570   1.783  1.00  0.00     0.202 C 
BRANCH   3   4
ATOM      4  C   UNL     1      10.461   2.885   2.692  1.00  0.00     0.261 C 
BRANCH   4   5
ATOM      5  O   UNL     1       9.415   2.163   2.050  1.00  0.00    -0.460 OA
BRANCH   5   6
ATOM      6  C   UNL     1       8.203   2.765   2.050  1.00  0.00     0.338 C 
ATOM      7  O   UNL     1       7.907   3.819   2.590  1.00  0.00    -0.246 OA
BRANCH   6   8
ATOM      8  C   UNL     1       7.316   2.064   1.101  1.00  0.00     0.060 A 
ATOM      9  C   UNL     1       5.497   0.842  -0.611  1.00  0.00     0.006 A 
ATOM     10  C   UNL     1       5.550   2.241  -0.533  1.00  0.00     0.010 A 
ATOM     11  C   UNL     1       6.477   0.073   0.035  1.00  0.00     0.010 A 
ATOM     12  C   UNL     1       6.452   2.849   0.329  1.00  0.00     0.016 A 
ATOM     13  C   UNL     1       7.364   0.678   0.921  1.00  0.00     0.016 A 
BRANCH   9  14
ATOM     14  C   UNL     1       4.244   0.195  -1.161  1.00  0.00     0.299 C 
BRANCH  14  15
ATOM     15  N   UNL     1       3.309  -0.281  -0.112  1.00  0.00    -0.331 N 
ATOM     16  C   UNL     1       2.645  -2.189   1.309  1.00  0.00     0.113 C 
ATOM     17  C   UNL     1       2.215  -1.251   2.433  1.00  0.00     0.023 C 
ATOM     18  C   UNL     1       3.691  -1.601   0.382  1.00  0.00     0.274 C 
ATOM     19  C   UNL     1       2.104   0.215   2.046  1.00  0.00     0.062 C 
ATOM     20  C   UNL     1       3.134   0.666   1.006  1.00  0.00     0.262 C 
ATOM     21  H   UNL     1       2.399  -0.349  -0.568  1.00  0.00     0.348 HD
BRANCH  16  22
ATOM     22  C   UNL     1       1.584  -2.993   0.570  1.00  0.00     0.142 A 
ATOM     23  N   UNL     1       0.698  -2.613  -0.372  1.00  0.00    -0.279 N 
ATOM     24  C   UNL     1       0.094  -3.791  -0.791  1.00  0.00     0.345 A 
ATOM     25  N   UNL     1       1.573  -4.277   0.827  1.00  0.00    -0.155 NA
ATOM     26  N   UNL     1       0.654  -4.797  -0.021  1.00  0.00    -0.216 N 
ATOM     27  O   UNL     1      -0.699  -3.939  -1.710  1.00  0.00    -0.246 OA
ATOM     28  C   UNL     1       0.537  -6.211  -0.244  1.00  0.00     0.179 C 
BRANCH  23  29
ATOM     29  C   UNL     1       0.493  -1.418  -1.190  1.00  0.00     0.125 C 
ATOM     30  C   UNL     1      -0.037  -0.176  -0.504  1.00  0.00     0.028 C 
ENDBRANCH  23  29
ENDBRANCH  16  22
ENDBRANCH  14  15
ENDBRANCH   9  14
ENDBRANCH   6   8
ENDBRANCH   5   6
ENDBRANCH   4   5
ENDBRANCH   3   4
ENDBRANCH   2   3
ENDBRANCH   1   2
BRANCH   1  31
ATOM     31  C   UNL     1      10.173   1.860  -0.811  1.00  0.00     0.188 C 
BRANCH  31  32
ATOM     32  O   UNL     1      10.800   0.797  -0.113  1.00  0.00    -0.376 OA
BRANCH  32  33
ATOM     33  C   UNL     1      12.203   0.753   0.102  1.00  0.00     0.202 C 
BRANCH  33  34
ATOM     34  C   UNL     1      13.229   1.182  -0.946  1.00  0.00     0.261 C 
BRANCH  34  35
ATOM     35  O   UNL     1      12.890   2.348  -1.669  1.00  0.00    -0.460 OA
BRANCH  35  36
ATOM     36  C   UNL     1      12.396   2.101  -2.899  1.00  0.00     0.338 C 
ATOM     37  O   UNL     1      12.103   1.023  -3.382  1.00  0.00    -0.246 OA
BRANCH  36  38
ATOM     38  C   UNL     1      12.301   3.365  -3.629  1.00  0.00     0.060 A 
ATOM     39  C   UNL     1      11.563   3.347  -4.814  1.00  0.00     0.016 A 
ATOM     40  C   UNL     1      13.172   4.412  -3.299  1.00  0.00     0.016 A 
ATOM     41  C   UNL     1      11.906   4.245  -5.794  1.00  0.00     0.010 A 
ATOM     42  C   UNL     1      13.511   5.310  -4.279  1.00  0.00     0.010 A 
ATOM     43  C   UNL     1      12.961   5.131  -5.544  1.00  0.00    -0.014 A 
BRANCH  43  44
ATOM     44  C   UNL     1      13.510   5.850  -6.670  1.00  0.00     0.031 A 
ATOM     45  C   UNL     1      12.605   6.878  -7.216  1.00  0.00     0.074 A 
ATOM     46  C   UNL     1      14.756   5.608  -7.121  1.00  0.00     0.049 A 
ATOM     47  N   UNL     1      12.056   6.904  -8.384  1.00  0.00    -0.248 NA
ATOM     48  C   UNL     1      12.138   7.926  -6.296  1.00  0.00     0.031 C 
ATOM     49  C   UNL     1      15.805   4.780  -6.515  1.00  0.00     0.029 A 
ATOM     50  N   UNL     1      15.377   6.137  -8.206  1.00  0.00    -0.354 N 
ATOM     51  C   UNL     1      11.315   8.078  -8.416  1.00  0.00     0.074 A 
ATOM     52  C   UNL     1      11.275   8.585  -7.068  1.00  0.00     0.031 C 
ATOM     53  C   UNL     1      16.988   5.048  -7.114  1.00  0.00     0.029 A 
ATOM     54  C   UNL     1      16.751   5.949  -8.228  1.00  0.00     0.049 A 
ATOM     55  H   UNL     1      14.893   6.614  -8.918  1.00  0.00     0.167 HD
ATOM     56  C   UNL     1      11.008   8.677  -9.595  1.00  0.00     0.037 A 
ATOM     57  C   UNL     1      17.625   6.559  -9.065  1.00  0.00     0.037 A 
ATOM     58  C   UNL     1      11.092   7.761 -10.701  1.00  0.00     0.049 A 
ATOM     59  C   UNL     1      16.853   7.033 -10.242  1.00  0.00     0.074 A 
ATOM     60  C   UNL     1      10.429   6.599 -11.045  1.00  0.00     0.029 A 
ATOM     61  N   UNL     1      12.227   7.781 -11.472  1.00  0.00    -0.354 N 
ATOM     62  N   UNL     1      16.294   6.233 -11.107  1.00  0.00    -0.248 NA
ATOM     63  C   UNL     1      16.306   8.381 -10.196  1.00  0.00     0.031 C 
ATOM     64  C   UNL     1      11.421   5.764 -11.640  1.00  0.00     0.029 A 
ATOM     65  C   UNL     1      12.618   6.480 -11.671  1.00  0.00     0.049 A 
ATOM     66  H   UNL     1      12.678   8.583 -11.820  1.00  0.00     0.167 HD
ATOM     67  C   UNL     1      15.071   6.823 -11.396  1.00  0.00     0.074 A 
ATOM     68  C   UNL     1      15.173   8.184 -10.875  1.00  0.00     0.031 C 
ATOM     69  C   UNL     1      13.998   6.066 -11.771  1.00  0.00     0.037 A 
BRANCH  56  70
ATOM     70  C   UNL     1      11.016  10.169  -9.764  1.00  0.00     0.064 A 
ATOM     71  C   UNL     1      10.453  10.742 -10.916  1.00  0.00     0.173 A 
ATOM     72  C   UNL     1      11.814  11.027  -8.973  1.00  0.00     0.173 A 
ATOM     73  F   UNL     1       9.714  10.000 -11.754  1.00  0.00    -0.203 F 
ATOM     74  C   UNL     1      10.713  12.068 -11.274  1.00  0.00     0.198 A 
ATOM     75  C   UNL     1      12.024  12.362  -9.303  1.00  0.00     0.198 A 
ATOM     76  F   UNL     1      12.512  10.579  -7.922  1.00  0.00    -0.203 F 
ATOM     77  F   UNL     1      10.252  12.543 -12.439  1.00  0.00    -0.200 F 
ATOM     78  C   UNL     1      11.497  12.875 -10.468  1.00  0.00     0.200 A 
ATOM     79  F   UNL     1      12.809  13.117  -8.522  1.00  0.00    -0.200 F 
ATOM     80  F   UNL     1      11.792  14.127 -10.839  1.00  0.00    -0.200 F 
ENDBRANCH  56  70
BRANCH  57  81
ATOM     81  C   UNL     1      18.964   7.091  -8.717  1.00  0.00     0.064 A 
ATOM     82  C   UNL     1      19.900   7.420  -9.711  1.00  0.00     0.173 A 
ATOM     83  C   UNL     1      19.248   7.546  -7.414  1.00  0.00     0.173 A 
ATOM     84  F   UNL     1      19.677   7.072 -10.986  1.00  0.00    -0.203 F 
ATOM     85  C   UNL     1      21.045   8.170  -9.419  1.00  0.00     0.198 A 
ATOM     86  C   UNL     1      20.392   8.290  -7.123  1.00  0.00     0.198 A 
ATOM     87  F   UNL     1      18.373   7.362  -6.415  1.00  0.00    -0.203 F 
ATOM     88  F   UNL     1      21.888   8.514 -10.402  1.00  0.00    -0.200 F 
ATOM     89  C   UNL     1      21.285   8.611  -8.127  1.00  0.00     0.200 A 
ATOM     90  F   UNL     1      20.590   8.745  -5.878  1.00  0.00    -0.200 F 
ATOM     91  F   UNL     1      22.350   9.379  -7.858  1.00  0.00    -0.200 F 
ENDBRANCH  57  81
BRANCH  69  92
ATOM     92  C   UNL     1      14.259   4.618 -12.094  1.00  0.00     0.064 A 
ATOM     93  C   UNL     1      14.711   3.674 -11.154  1.00  0.00     0.173 A 
ATOM     94  C   UNL     1      13.928   4.144 -13.369  1.00  0.00     0.173 A 
ATOM     95  F   UNL     1      14.948   4.025  -9.885  1.00  0.00    -0.203 F 
ATOM     96  C   UNL     1      14.878   2.332 -11.494  1.00  0.00     0.198 A 
ATOM     97  C   UNL     1      14.060   2.796 -13.696  1.00  0.00     0.198 A 
ATOM     98  F   UNL     1      13.434   4.985 -14.290  1.00  0.00    -0.203 F 
ATOM     99  F   UNL     1      15.331   1.458 -10.583  1.00  0.00    -0.200 F 
ATOM    100  C   UNL     1      14.548   1.894 -12.765  1.00  0.00     0.200 A 
ATOM    101  F   UNL     1      13.692   2.368 -14.912  1.00  0.00    -0.200 F 
ATOM    102  F   UNL     1      14.674   0.598 -13.084  1.00  0.00    -0.200 F 
ENDBRANCH  69  92
ENDBRANCH  43  44
ENDBRANCH  36  38
ENDBRANCH  35  36
ENDBRANCH  34  35
ENDBRANCH  33  34
ENDBRANCH  32  33
ENDBRANCH  31  32
ENDBRANCH   1  31
TORSDOF 21
