REMARK SMILES Cc1c(N[C@@H]2CC[C@@H]([NH3+])C2)cccc1C(=O)OCCOCCOCCOC(=O)c1ccc(-c2c3nc(c(-c4c(F)c(F)c(F)c(F)c4F)c4ccc([nH]4)c(-c4c(F)c(F)c(F)c(F)c4F)c4nc(c(-c5c(F)c(F)c(F)c(F)c5F)c5ccc2[nH]5)C=C4)C=C3)cc1
REMARK SMILES IDX 21 1 20 2 19 3 18 4 17 5 15 6 16 7 14 8 1 9 2 10 3 11 11 12
REMARK SMILES IDX 13 13 12 14 4 15 5 17 6 18 10 19 7 20 8 21 9 22 22 26 23 27
REMARK SMILES IDX 24 28 25 29 26 30 27 31 28 32 29 33 30 34 91 35 31 36 90 37
REMARK SMILES IDX 32 38 33 39 34 40 84 41 35 42 89 43 83 44 85 45 36 46 88 47
REMARK SMILES IDX 82 48 81 49 37 51 69 52 49 53 68 54 50 55 53 56 67 57 86 58
REMARK SMILES IDX 51 59 52 60 66 62 87 63 54 64 38 65 39 66 47 67 40 68 41 69
REMARK SMILES IDX 45 70 48 71 42 72 43 73 46 74 44 75 70 76 71 77 79 78 72 79
REMARK SMILES IDX 73 80 77 81 80 82 74 83 75 84 78 85 76 86 55 87 56 88 64 89
REMARK SMILES IDX 57 90 58 91 62 92 65 93 59 94 60 95 63 96 61 97
REMARK H PARENT 4 16 9 23 9 24 9 25 85 50 53 61
REMARK Flexibility Score: inf
ROOT
ATOM      1  C   UNL     1       2.450   5.728  -2.077  1.00  0.00     0.188 C 
ENDROOT
BRANCH   1   2
ATOM      2  O   UNL     1       3.311   5.180  -1.055  1.00  0.00    -0.376 OA
BRANCH   2   3
ATOM      3  C   UNL     1       4.270   4.119  -1.211  1.00  0.00     0.202 C 
BRANCH   3   4
ATOM      4  C   UNL     1       4.196   2.510  -0.614  1.00  0.00     0.261 C 
BRANCH   4   5
ATOM      5  O   UNL     1       2.987   1.274  -0.806  1.00  0.00    -0.460 OA
BRANCH   5   6
ATOM      6  C   UNL     1       1.782   0.769  -0.177  1.00  0.00     0.338 C 
ATOM      7  O   UNL     1       1.331   0.958   0.958  1.00  0.00    -0.246 OA
BRANCH   6   8
ATOM      8  C   UNL     1       0.778  -0.093  -0.800  1.00  0.00     0.065 A 
ATOM      9  C   UNL     1       2.636  -1.667  -1.265  1.00  0.00     0.047 C 
ATOM     10  C   UNL     1       1.187  -1.396  -0.989  1.00  0.00    -0.013 A 
ATOM     11  C   UNL     1       0.267  -2.413  -0.685  1.00  0.00     0.038 A 
ATOM     12  C   UNL     1      -1.098  -2.099  -0.507  1.00  0.00     0.026 A 
ATOM     13  C   UNL     1      -0.587   0.195  -0.470  1.00  0.00     0.016 A 
ATOM     14  C   UNL     1      -1.540  -0.796  -0.393  1.00  0.00     0.003 A 
BRANCH  11  15
ATOM     15  N   UNL     1       0.770  -3.688  -0.538  1.00  0.00    -0.382 N 
ATOM     16  H   UNL     1       1.750  -3.760  -0.478  1.00  0.00     0.160 HD
BRANCH  15  17
ATOM     17  C   UNL     1       0.045  -4.925  -0.462  1.00  0.00     0.085 C 
ATOM     18  C   UNL     1      -0.885  -5.139  -1.656  1.00  0.00     0.031 C 
ATOM     19  C   UNL     1      -0.779  -5.101   0.811  1.00  0.00     0.089 C 
ATOM     20  C   UNL     1      -2.213  -5.584  -1.052  1.00  0.00     0.067 C 
ATOM     21  C   UNL     1      -1.889  -6.052   0.370  1.00  0.00     0.182 C 
BRANCH  21  22
ATOM     22  N   UNL     1      -1.417  -7.436   0.368  1.00  0.00    -0.355 N 
ATOM     23  H   UNL     1      -0.601  -7.517  -0.239  1.00  0.00     0.344 HD
ATOM     24  H   UNL     1      -2.158  -8.047   0.025  1.00  0.00     0.344 HD
ATOM     25  H   UNL     1      -1.163  -7.710   1.318  1.00  0.00     0.344 HD
ENDBRANCH  21  22
ENDBRANCH  15  17
ENDBRANCH  11  15
ENDBRANCH   6   8
ENDBRANCH   5   6
ENDBRANCH   4   5
ENDBRANCH   3   4
ENDBRANCH   2   3
ENDBRANCH   1   2
BRANCH   1  26
ATOM     26  C   UNL     1       2.683   5.594  -3.582  1.00  0.00     0.188 C 
BRANCH  26  27
ATOM     27  O   UNL     1       3.274   4.352  -3.890  1.00  0.00    -0.376 OA
BRANCH  27  28
ATOM     28  C   UNL     1       3.513   4.093  -5.261  1.00  0.00     0.202 C 
BRANCH  28  29
ATOM     29  C   UNL     1       2.238   3.891  -6.112  1.00  0.00     0.261 C 
BRANCH  29  30
ATOM     30  O   UNL     1       1.431   2.781  -5.636  1.00  0.00    -0.460 OA
BRANCH  30  31
ATOM     31  C   UNL     1       0.191   3.063  -5.086  1.00  0.00     0.338 C 
ATOM     32  O   UNL     1      -0.691   3.653  -5.649  1.00  0.00    -0.246 OA
BRANCH  31  33
ATOM     33  C   UNL     1       0.210   2.726  -3.613  1.00  0.00     0.060 A 
ATOM     34  C   UNL     1      -0.666   3.163  -2.605  1.00  0.00     0.016 A 
ATOM     35  C   UNL     1       1.392   2.268  -3.176  1.00  0.00     0.016 A 
ATOM     36  C   UNL     1      -0.228   3.308  -1.205  1.00  0.00     0.010 A 
ATOM     37  C   UNL     1       1.812   2.808  -1.973  1.00  0.00     0.010 A 
ATOM     38  C   UNL     1       1.107   3.185  -0.812  1.00  0.00    -0.014 A 
BRANCH  38  39
ATOM     39  C   UNL     1       1.818   3.486   0.691  1.00  0.00     0.031 A 
ATOM     40  C   UNL     1       2.721   2.524   1.847  1.00  0.00     0.074 A 
ATOM     41  C   UNL     1       1.637   4.754   1.117  1.00  0.00     0.049 A 
ATOM     42  N   UNL     1       2.698   2.714   3.152  1.00  0.00    -0.248 NA
ATOM     43  C   UNL     1       3.547   1.217   1.675  1.00  0.00     0.031 C 
ATOM     44  C   UNL     1       2.252   5.441   2.247  1.00  0.00     0.029 A 
ATOM     45  N   UNL     1       0.741   5.703   0.601  1.00  0.00    -0.354 N 
ATOM     46  C   UNL     1       3.495   1.715   3.742  1.00  0.00     0.074 A 
ATOM     47  C   UNL     1       3.556   0.643   2.859  1.00  0.00     0.031 C 
ATOM     48  C   UNL     1       1.501   6.516   2.548  1.00  0.00     0.029 A 
ATOM     49  C   UNL     1       0.320   6.456   1.703  1.00  0.00     0.049 A 
ATOM     50  H   UNL     1       0.467   5.816  -0.338  1.00  0.00     0.167 HD
ATOM     51  C   UNL     1       4.288   1.886   4.830  1.00  0.00     0.037 A 
ATOM     52  C   UNL     1      -0.973   6.361   2.115  1.00  0.00     0.037 A 
ATOM     53  C   UNL     1       3.757   3.011   5.546  1.00  0.00     0.049 A 
ATOM     54  C   UNL     1      -1.035   5.819   3.526  1.00  0.00     0.074 A 
ATOM     55  C   UNL     1       4.038   4.360   5.526  1.00  0.00     0.029 A 
ATOM     56  N   UNL     1       2.442   2.875   5.970  1.00  0.00    -0.354 N 
ATOM     57  N   UNL     1      -0.084   5.120   4.094  1.00  0.00    -0.248 NA
ATOM     58  C   UNL     1      -2.134   6.110   4.436  1.00  0.00     0.031 C 
ATOM     59  C   UNL     1       2.795   5.034   5.748  1.00  0.00     0.029 A 
ATOM     60  C   UNL     1       1.798   4.094   5.981  1.00  0.00     0.049 A 
ATOM     61  H   UNL     1       2.025   2.021   6.228  1.00  0.00     0.167 HD
ATOM     62  C   UNL     1      -0.413   4.870   5.397  1.00  0.00     0.074 A 
ATOM     63  C   UNL     1      -1.697   5.528   5.564  1.00  0.00     0.031 C 
ATOM     64  C   UNL     1       0.364   4.143   6.258  1.00  0.00     0.037 A 
BRANCH  51  65
ATOM     65  C   UNL     1       5.552   1.062   5.146  1.00  0.00     0.064 A 
ATOM     66  C   UNL     1       6.243   1.281   6.352  1.00  0.00     0.173 A 
ATOM     67  C   UNL     1       6.208   0.125   4.288  1.00  0.00     0.173 A 
ATOM     68  F   UNL     1       5.796   2.181   7.238  1.00  0.00    -0.203 F 
ATOM     69  C   UNL     1       7.439   0.611   6.680  1.00  0.00     0.198 A 
ATOM     70  C   UNL     1       7.354  -0.597   4.648  1.00  0.00     0.198 A 
ATOM     71  F   UNL     1       5.844  -0.092   3.020  1.00  0.00    -0.203 F 
ATOM     72  F   UNL     1       8.080   0.913   7.817  1.00  0.00    -0.200 F 
ATOM     73  C   UNL     1       7.981  -0.344   5.841  1.00  0.00     0.200 A 
ATOM     74  F   UNL     1       7.864  -1.504   3.798  1.00  0.00    -0.200 F 
ATOM     75  F   UNL     1       9.114  -0.985   6.157  1.00  0.00    -0.200 F 
ENDBRANCH  51  65
BRANCH  52  76
ATOM     76  C   UNL     1      -1.945   6.194   0.978  1.00  0.00     0.064 A 
ATOM     77  C   UNL     1      -1.843   7.112  -0.101  1.00  0.00     0.173 A 
ATOM     78  C   UNL     1      -2.696   5.038   0.735  1.00  0.00     0.173 A 
ATOM     79  F   UNL     1      -1.163   8.259   0.059  1.00  0.00    -0.203 F 
ATOM     80  C   UNL     1      -2.312   6.816  -1.382  1.00  0.00     0.198 A 
ATOM     81  C   UNL     1      -3.213   4.767  -0.548  1.00  0.00     0.198 A 
ATOM     82  F   UNL     1      -2.816   4.093   1.677  1.00  0.00    -0.203 F 
ATOM     83  F   UNL     1      -2.032   7.639  -2.405  1.00  0.00    -0.200 F 
ATOM     84  C   UNL     1      -2.982   5.633  -1.610  1.00  0.00     0.200 A 
ATOM     85  F   UNL     1      -3.798   3.584  -0.796  1.00  0.00    -0.200 F 
ATOM     86  F   UNL     1      -3.332   5.289  -2.859  1.00  0.00    -0.200 F 
ENDBRANCH  52  76
BRANCH  64  87
ATOM     87  C   UNL     1      -0.202   3.411   7.465  1.00  0.00     0.064 A 
ATOM     88  C   UNL     1      -1.561   3.066   7.593  1.00  0.00     0.173 A 
ATOM     89  C   UNL     1       0.643   2.871   8.466  1.00  0.00     0.173 A 
ATOM     90  F   UNL     1      -2.457   3.355   6.640  1.00  0.00    -0.203 F 
ATOM     91  C   UNL     1      -2.050   2.348   8.685  1.00  0.00     0.198 A 
ATOM     92  C   UNL     1       0.165   2.062   9.496  1.00  0.00     0.198 A 
ATOM     93  F   UNL     1       1.968   3.076   8.461  1.00  0.00    -0.203 F 
ATOM     94  F   UNL     1      -3.368   2.135   8.797  1.00  0.00    -0.200 F 
ATOM     95  C   UNL     1      -1.186   1.832   9.628  1.00  0.00     0.200 A 
ATOM     96  F   UNL     1       1.029   1.492  10.349  1.00  0.00    -0.200 F 
ATOM     97  F   UNL     1      -1.653   1.097  10.645  1.00  0.00    -0.200 F 
ENDBRANCH  64  87
ENDBRANCH  38  39
ENDBRANCH  31  33
ENDBRANCH  30  31
ENDBRANCH  29  30
ENDBRANCH  28  29
ENDBRANCH  27  28
ENDBRANCH  26  27
ENDBRANCH   1  26
TORSDOF 20
