REMARK SMILES Cc1cnn(C2(C(=O)OCCOCCOCCOC(=O)c3ccc(-c4c5nc(c(-c6c(F)c(F)c(F)c(F)c6F)c6ccc([nH]6)c(-c6c(F)c(F)c(F)c(F)c6F)c6nc(c(-c7c(F)c(F)c(F)c(F)c7F)c7ccc4[nH]7)C=C6)C=C5)cc3)CCN(C(=O)c3cc4ccccc4[nH]3)CC2)c1
REMARK SMILES IDX 14 1 13 2 12 3 11 4 10 5 9 6 7 7 8 8 6 9 84 10 99 11 85 12
REMARK SMILES IDX 98 13 86 14 87 15 88 16 5 17 1 18 2 19 3 20 100 21 4 22
REMARK SMILES IDX 89 23 90 24 97 25 91 26 96 27 92 29 95 30 93 31 94 32 15 33
REMARK SMILES IDX 16 34 17 35 18 36 19 37 20 38 21 39 22 40 83 41 23 42 82 43
REMARK SMILES IDX 24 44 25 45 26 46 76 47 27 48 81 49 75 50 77 51 28 52 80 53
REMARK SMILES IDX 74 54 73 55 29 57 61 58 41 59 60 60 42 61 45 62 59 63 78 64
REMARK SMILES IDX 43 65 44 66 58 68 79 69 46 70 30 71 31 72 39 73 32 74 33 75
REMARK SMILES IDX 37 76 40 77 34 78 35 79 38 80 36 81 62 82 63 83 71 84 64 85
REMARK SMILES IDX 65 86 69 87 72 88 66 89 67 90 70 91 68 92 47 93 48 94 56 95
REMARK SMILES IDX 49 96 50 97 54 98 57 99 51 100 52 101 55 102 53 103
REMARK H PARENT 97 28 77 56 45 67
REMARK Flexibility Score: inf
ROOT
ATOM      1  C   UNL     1       1.242   0.793  -7.111  1.00  0.00     0.188 C 
ENDROOT
BRANCH   1   2
ATOM      2  C   UNL     1      -0.022   0.032  -6.710  1.00  0.00     0.188 C 
BRANCH   2   3
ATOM      3  O   UNL     1      -1.009  -0.031  -7.738  1.00  0.00    -0.376 OA
BRANCH   3   4
ATOM      4  C   UNL     1      -1.428   1.230  -8.259  1.00  0.00     0.202 C 
BRANCH   4   5
ATOM      5  C   UNL     1      -2.075   2.212  -7.261  1.00  0.00     0.261 C 
BRANCH   5   6
ATOM      6  O   UNL     1      -1.219   2.622  -6.167  1.00  0.00    -0.461 OA
BRANCH   6   7
ATOM      7  C   UNL     1      -1.621   2.308  -4.902  1.00  0.00     0.334 C 
ATOM      8  O   UNL     1      -2.725   1.823  -4.661  1.00  0.00    -0.249 OA
BRANCH   7   9
ATOM      9  C   UNL     1      -0.621   2.737  -3.787  1.00  0.00     0.163 C 
ATOM     10  C   UNL     1       0.651   3.452  -4.309  1.00  0.00     0.064 C 
ATOM     11  C   UNL     1      -1.504   3.729  -3.004  1.00  0.00     0.064 C 
ATOM     12  C   UNL     1       1.339   4.343  -3.269  1.00  0.00     0.123 C 
ATOM     13  C   UNL     1      -0.787   4.621  -2.023  1.00  0.00     0.123 C 
ATOM     14  N   UNL     1       0.400   5.239  -2.599  1.00  0.00    -0.337 N 
ATOM     15  C   UNL     1       0.695   6.606  -2.504  1.00  0.00     0.270 C 
ATOM     16  O   UNL     1       1.604   7.123  -3.150  1.00  0.00    -0.267 OA
BRANCH   9  17
ATOM     17  N   UNL     1      -0.244   1.562  -2.963  1.00  0.00    -0.255 N 
ATOM     18  C   UNL     1       0.989  -0.328  -0.072  1.00  0.00     0.048 C 
ATOM     19  C   UNL     1       0.463   0.213  -1.344  1.00  0.00    -0.013 A 
ATOM     20  C   UNL     1      -0.014  -0.494  -2.460  1.00  0.00     0.138 A 
ATOM     21  C   UNL     1       0.346   1.534  -1.722  1.00  0.00     0.113 A 
ATOM     22  N   UNL     1      -0.379   0.312  -3.455  1.00  0.00    -0.180 NA
ENDBRANCH   9  17
BRANCH  15  23
ATOM     23  C   UNL     1      -0.174   7.413  -1.673  1.00  0.00     0.105 A 
ATOM     24  C   UNL     1      -0.697   7.190  -0.408  1.00  0.00     0.042 A 
ATOM     25  N   UNL     1      -0.661   8.637  -2.076  1.00  0.00    -0.351 N 
ATOM     26  C   UNL     1      -1.755   8.112  -0.210  1.00  0.00     0.000 A 
ATOM     27  C   UNL     1      -1.705   9.021  -1.265  1.00  0.00     0.046 A 
ATOM     28  H   UNL     1      -0.312   9.161  -2.833  1.00  0.00     0.167 HD
ATOM     29  C   UNL     1      -2.776   8.233   0.751  1.00  0.00     0.010 A 
ATOM     30  C   UNL     1      -2.611  10.079  -1.390  1.00  0.00     0.026 A 
ATOM     31  C   UNL     1      -3.713   9.262   0.620  1.00  0.00     0.001 A 
ATOM     32  C   UNL     1      -3.623  10.176  -0.429  1.00  0.00     0.002 A 
ENDBRANCH  15  23
ENDBRANCH   7   9
ENDBRANCH   6   7
ENDBRANCH   5   6
ENDBRANCH   4   5
ENDBRANCH   3   4
ENDBRANCH   2   3
ENDBRANCH   1   2
BRANCH   1  33
ATOM     33  O   UNL     1       1.045   2.177  -7.352  1.00  0.00    -0.376 OA
BRANCH  33  34
ATOM     34  C   UNL     1       1.807   2.904  -8.316  1.00  0.00     0.202 C 
BRANCH  34  35
ATOM     35  C   UNL     1       2.704   2.249  -9.376  1.00  0.00     0.261 C 
BRANCH  35  36
ATOM     36  O   UNL     1       3.432   1.107  -8.964  1.00  0.00    -0.460 OA
BRANCH  36  37
ATOM     37  C   UNL     1       4.056   1.136  -7.776  1.00  0.00     0.338 C 
ATOM     38  O   UNL     1       4.355   2.114  -7.106  1.00  0.00    -0.246 OA
BRANCH  37  39
ATOM     39  C   UNL     1       4.307  -0.273  -7.434  1.00  0.00     0.060 A 
ATOM     40  C   UNL     1       5.331  -0.528  -6.533  1.00  0.00     0.016 A 
ATOM     41  C   UNL     1       3.685  -1.303  -8.177  1.00  0.00     0.016 A 
ATOM     42  C   UNL     1       5.962  -1.741  -6.641  1.00  0.00     0.010 A 
ATOM     43  C   UNL     1       4.302  -2.515  -8.277  1.00  0.00     0.010 A 
ATOM     44  C   UNL     1       5.512  -2.637  -7.620  1.00  0.00    -0.014 A 
BRANCH  44  45
ATOM     45  C   UNL     1       6.455  -3.611  -8.096  1.00  0.00     0.031 A 
ATOM     46  C   UNL     1       6.548  -4.815  -7.271  1.00  0.00     0.074 A 
ATOM     47  C   UNL     1       7.164  -3.386  -9.216  1.00  0.00     0.049 A 
ATOM     48  N   UNL     1       7.526  -5.152  -6.504  1.00  0.00    -0.248 NA
ATOM     49  C   UNL     1       5.354  -5.661  -7.163  1.00  0.00     0.031 C 
ATOM     50  C   UNL     1       6.959  -2.373 -10.255  1.00  0.00     0.029 A 
ATOM     51  N   UNL     1       8.204  -4.110  -9.692  1.00  0.00    -0.354 N 
ATOM     52  C   UNL     1       7.144  -6.352  -5.929  1.00  0.00     0.074 A 
ATOM     53  C   UNL     1       5.747  -6.529  -6.232  1.00  0.00     0.031 C 
ATOM     54  C   UNL     1       7.706  -2.696 -11.336  1.00  0.00     0.029 A 
ATOM     55  C   UNL     1       8.517  -3.859 -11.015  1.00  0.00     0.049 A 
ATOM     56  H   UNL     1       8.696  -4.762  -9.143  1.00  0.00     0.167 HD
ATOM     57  C   UNL     1       8.072  -7.215  -5.442  1.00  0.00     0.037 A 
ATOM     58  C   UNL     1       9.299  -4.651 -11.787  1.00  0.00     0.037 A 
ATOM     59  C   UNL     1       9.341  -6.564  -5.233  1.00  0.00     0.049 A 
ATOM     60  C   UNL     1      10.131  -5.480 -10.865  1.00  0.00     0.074 A 
ATOM     61  C   UNL     1       9.757  -5.503  -4.449  1.00  0.00     0.029 A 
ATOM     62  N   UNL     1      10.334  -6.746  -6.167  1.00  0.00    -0.354 N 
ATOM     63  N   UNL     1      11.085  -4.997 -10.114  1.00  0.00    -0.248 NA
ATOM     64  C   UNL     1       9.589  -6.762 -10.425  1.00  0.00     0.031 C 
ATOM     65  C   UNL     1      10.724  -4.812  -5.235  1.00  0.00     0.029 A 
ATOM     66  C   UNL     1      10.872  -5.511  -6.433  1.00  0.00     0.049 A 
ATOM     67  H   UNL     1      10.607  -7.601  -6.570  1.00  0.00     0.167 HD
ATOM     68  C   UNL     1      10.978  -5.683  -8.910  1.00  0.00     0.074 A 
ATOM     69  C   UNL     1      10.099  -6.814  -9.191  1.00  0.00     0.031 C 
ATOM     70  C   UNL     1      11.366  -5.113  -7.731  1.00  0.00     0.037 A 
BRANCH  57  71
ATOM     71  C   UNL     1       7.914  -8.707  -5.479  1.00  0.00     0.064 A 
ATOM     72  C   UNL     1       8.827  -9.508  -4.772  1.00  0.00     0.173 A 
ATOM     73  C   UNL     1       7.080  -9.386  -6.395  1.00  0.00     0.173 A 
ATOM     74  F   UNL     1       9.682  -8.959  -3.896  1.00  0.00    -0.203 F 
ATOM     75  C   UNL     1       8.942 -10.877  -5.016  1.00  0.00     0.198 A 
ATOM     76  C   UNL     1       7.155 -10.761  -6.590  1.00  0.00     0.198 A 
ATOM     77  F   UNL     1       6.246  -8.739  -7.219  1.00  0.00    -0.203 F 
ATOM     78  F   UNL     1       9.910 -11.579  -4.412  1.00  0.00    -0.200 F 
ATOM     79  C   UNL     1       8.107 -11.502  -5.925  1.00  0.00     0.200 A 
ATOM     80  F   UNL     1       6.349 -11.343  -7.489  1.00  0.00    -0.200 F 
ATOM     81  F   UNL     1       8.254 -12.804  -6.201  1.00  0.00    -0.200 F 
ENDBRANCH  57  71
BRANCH  58  82
ATOM     82  C   UNL     1       9.103  -4.975 -13.221  1.00  0.00     0.064 A 
ATOM     83  C   UNL     1      10.098  -5.645 -13.950  1.00  0.00     0.173 A 
ATOM     84  C   UNL     1       7.844  -4.862 -13.849  1.00  0.00     0.173 A 
ATOM     85  F   UNL     1      11.311  -5.840 -13.411  1.00  0.00    -0.203 F 
ATOM     86  C   UNL     1       9.844  -6.186 -15.215  1.00  0.00     0.198 A 
ATOM     87  C   UNL     1       7.597  -5.388 -15.117  1.00  0.00     0.198 A 
ATOM     88  F   UNL     1       6.795  -4.324 -13.213  1.00  0.00    -0.203 F 
ATOM     89  F   UNL     1      10.802  -6.875 -15.851  1.00  0.00    -0.200 F 
ATOM     90  C   UNL     1       8.592  -6.062 -15.795  1.00  0.00     0.200 A 
ATOM     91  F   UNL     1       6.370  -5.288 -15.649  1.00  0.00    -0.200 F 
ATOM     92  F   UNL     1       8.334  -6.626 -16.982  1.00  0.00    -0.200 F 
ENDBRANCH  58  82
BRANCH  70  93
ATOM     93  C   UNL     1      12.136  -3.823  -7.793  1.00  0.00     0.064 A 
ATOM     94  C   UNL     1      11.611  -2.631  -8.323  1.00  0.00     0.173 A 
ATOM     95  C   UNL     1      13.380  -3.749  -7.152  1.00  0.00     0.173 A 
ATOM     96  F   UNL     1      10.380  -2.595  -8.848  1.00  0.00    -0.203 F 
ATOM     97  C   UNL     1      12.324  -1.435  -8.261  1.00  0.00     0.198 A 
ATOM     98  C   UNL     1      14.072  -2.545  -7.057  1.00  0.00     0.198 A 
ATOM     99  F   UNL     1      13.902  -4.840  -6.569  1.00  0.00    -0.203 F 
ATOM    100  F   UNL     1      11.804  -0.316  -8.787  1.00  0.00    -0.200 F 
ATOM    101  C   UNL     1      13.550  -1.392  -7.621  1.00  0.00     0.200 A 
ATOM    102  F   UNL     1      15.234  -2.495  -6.389  1.00  0.00    -0.200 F 
ATOM    103  F   UNL     1      14.216  -0.232  -7.521  1.00  0.00    -0.200 F 
ENDBRANCH  70  93
ENDBRANCH  44  45
ENDBRANCH  37  39
ENDBRANCH  36  37
ENDBRANCH  35  36
ENDBRANCH  34  35
ENDBRANCH  33  34
ENDBRANCH   1  33
TORSDOF 19
