REMARK SMILES Cn1cc(-c2cc(C(F)(F)F)c3c(C4CC4)nn(CC(=O)OCCOCCOCCOC(=O)c4ccc(-c5c6nc(c(-c7c(F)c(F)c(F)c(F)c7F)c7ccc([nH]7)c(-c7c(F)c(F)c(F)c(F)c7F)c7nc(c(-c8c(F)c(F)c(F)c(F)c8F)c8ccc5[nH]8)C=C7)C=C6)cc4)c3n2)cn1
REMARK SMILES IDX 26 1 25 2 24 3 23 4 22 5 20 6 21 7 19 8 18 9 5 10 6 11 98 12
REMARK SMILES IDX 7 13 97 14 12 15 13 16 17 17 4 18 1 19 2 20 3 21 100 22
REMARK SMILES IDX 99 23 8 24 9 25 10 26 11 27 14 28 15 29 16 30 27 31 28 32
REMARK SMILES IDX 29 33 30 34 31 35 32 36 33 37 34 38 35 39 96 40 36 41 95 42
REMARK SMILES IDX 37 43 38 44 39 45 89 46 40 47 94 48 88 49 90 50 41 51 93 52
REMARK SMILES IDX 87 53 86 54 42 56 74 57 54 58 73 59 55 60 58 61 72 62 91 63
REMARK SMILES IDX 56 64 57 65 71 67 92 68 59 69 43 70 44 71 52 72 45 73 46 74
REMARK SMILES IDX 50 75 53 76 47 77 48 78 51 79 49 80 75 81 76 82 84 83 77 84
REMARK SMILES IDX 78 85 82 86 85 87 79 88 80 89 83 90 81 91 60 92 61 93 69 94
REMARK SMILES IDX 62 95 63 96 67 97 70 98 64 99 65 100 68 101 66 102
REMARK H PARENT 90 55 58 66
REMARK Flexibility Score: inf
ROOT
ATOM      1  C   UNL     1      -5.014  -0.726  -0.153  1.00  0.00     0.188 C 
ENDROOT
BRANCH   1   2
ATOM      2  O   UNL     1      -5.993  -0.216  -1.059  1.00  0.00    -0.376 OA
BRANCH   2   3
ATOM      3  C   UNL     1      -6.188  -0.932  -2.277  1.00  0.00     0.202 C 
BRANCH   3   4
ATOM      4  C   UNL     1      -5.046  -0.910  -3.315  1.00  0.00     0.261 C 
BRANCH   4   5
ATOM      5  O   UNL     1      -3.730  -1.315  -2.868  1.00  0.00    -0.462 OA
BRANCH   5   6
ATOM      6  C   UNL     1      -2.894  -0.302  -2.548  1.00  0.00     0.327 C 
ATOM      7  O   UNL     1      -3.218   0.886  -2.613  1.00  0.00    -0.250 OA
BRANCH   6   8
ATOM      8  C   UNL     1      -1.486  -0.658  -2.214  1.00  0.00     0.269 C 
BRANCH   8   9
ATOM      9  N   UNL     1      -1.079  -1.934  -1.625  1.00  0.00    -0.236 N 
ATOM     10  C   UNL     1       2.130  -1.311  -0.602  1.00  0.00     0.077 A 
ATOM     11  C   UNL     1       2.547  -2.542  -0.110  1.00  0.00     0.043 A 
ATOM     12  N   UNL     1       1.237  -1.252  -1.620  1.00  0.00    -0.228 NA
ATOM     13  C   UNL     1       1.736  -3.671  -0.355  1.00  0.00     0.071 A 
ATOM     14  C   UNL     1       0.267  -2.168  -1.427  1.00  0.00     0.159 A 
ATOM     15  C   UNL     1       0.405  -3.329  -0.683  1.00  0.00     0.055 A 
ATOM     16  C   UNL     1      -0.895  -3.427  -0.105  1.00  0.00     0.076 A 
ATOM     17  N   UNL     1      -1.802  -2.631  -0.716  1.00  0.00    -0.174 NA
BRANCH  10  18
ATOM     18  C   UNL     1       1.827  -0.215   0.339  1.00  0.00     0.038 A 
ATOM     19  C   UNL     1      -1.241   0.989   1.659  1.00  0.00     0.173 C 
ATOM     20  N   UNL     1       0.162   0.827   1.340  1.00  0.00    -0.275 N 
ATOM     21  C   UNL     1       0.816  -0.372   1.280  1.00  0.00     0.118 A 
ATOM     22  N   UNL     1       0.849   1.823   0.752  1.00  0.00    -0.181 NA
ATOM     23  C   UNL     1       1.808   1.177   0.074  1.00  0.00     0.145 A 
ENDBRANCH  10  18
BRANCH  13  24
ATOM     24  C   UNL     1       2.326  -5.043  -0.515  1.00  0.00     0.417 C 
ATOM     25  F   UNL     1       1.968  -5.946   0.428  1.00  0.00    -0.166 F 
ATOM     26  F   UNL     1       1.987  -5.601  -1.712  1.00  0.00    -0.166 F 
ATOM     27  F   UNL     1       3.691  -5.031  -0.499  1.00  0.00    -0.166 F 
ENDBRANCH  13  24
BRANCH  16  28
ATOM     28  C   UNL     1      -1.291  -4.051   1.241  1.00  0.00     0.041 C 
ATOM     29  C   UNL     1      -0.563  -5.161   1.951  1.00  0.00     0.011 C 
ATOM     30  C   UNL     1      -0.449  -3.779   2.482  1.00  0.00     0.011 C 
ENDBRANCH  16  28
ENDBRANCH   8   9
ENDBRANCH   6   8
ENDBRANCH   5   6
ENDBRANCH   4   5
ENDBRANCH   3   4
ENDBRANCH   2   3
ENDBRANCH   1   2
BRANCH   1  31
ATOM     31  C   UNL     1      -5.039  -2.238   0.094  1.00  0.00     0.188 C 
BRANCH  31  32
ATOM     32  O   UNL     1      -4.891  -2.973  -1.118  1.00  0.00    -0.376 OA
BRANCH  32  33
ATOM     33  C   UNL     1      -4.649  -4.373  -1.047  1.00  0.00     0.202 C 
BRANCH  33  34
ATOM     34  C   UNL     1      -5.807  -5.175  -0.455  1.00  0.00     0.261 C 
BRANCH  34  35
ATOM     35  O   UNL     1      -6.093  -4.760   0.875  1.00  0.00    -0.460 OA
BRANCH  35  36
ATOM     36  C   UNL     1      -5.076  -4.905   1.739  1.00  0.00     0.338 C 
ATOM     37  O   UNL     1      -4.060  -5.576   1.587  1.00  0.00    -0.246 OA
BRANCH  36  38
ATOM     38  C   UNL     1      -5.364  -4.123   2.939  1.00  0.00     0.060 A 
ATOM     39  C   UNL     1      -4.311  -3.898   3.829  1.00  0.00     0.016 A 
ATOM     40  C   UNL     1      -6.704  -3.956   3.299  1.00  0.00     0.016 A 
ATOM     41  C   UNL     1      -4.604  -3.835   5.167  1.00  0.00     0.010 A 
ATOM     42  C   UNL     1      -6.997  -3.951   4.633  1.00  0.00     0.010 A 
ATOM     43  C   UNL     1      -5.936  -4.016   5.535  1.00  0.00    -0.014 A 
BRANCH  43  44
ATOM     44  C   UNL     1      -6.195  -4.476   6.877  1.00  0.00     0.031 A 
ATOM     45  C   UNL     1      -6.477  -3.416   7.855  1.00  0.00     0.074 A 
ATOM     46  C   UNL     1      -6.284  -5.797   7.124  1.00  0.00     0.049 A 
ATOM     47  N   UNL     1      -5.814  -3.126   8.922  1.00  0.00    -0.248 NA
ATOM     48  C   UNL     1      -7.577  -2.491   7.546  1.00  0.00     0.031 C 
ATOM     49  C   UNL     1      -6.338  -6.898   6.154  1.00  0.00     0.029 A 
ATOM     50  N   UNL     1      -6.468  -6.426   8.312  1.00  0.00    -0.354 N 
ATOM     51  C   UNL     1      -6.516  -2.084   9.513  1.00  0.00     0.074 A 
ATOM     52  C   UNL     1      -7.477  -1.622   8.548  1.00  0.00     0.031 C 
ATOM     53  C   UNL     1      -6.759  -8.020   6.781  1.00  0.00     0.029 A 
ATOM     54  C   UNL     1      -6.893  -7.740   8.201  1.00  0.00     0.049 A 
ATOM     55  H   UNL     1      -6.312  -5.986   9.179  1.00  0.00     0.167 HD
ATOM     56  C   UNL     1      -6.435  -1.840  10.845  1.00  0.00     0.037 A 
ATOM     57  C   UNL     1      -7.416  -8.487   9.203  1.00  0.00     0.037 A 
ATOM     58  C   UNL     1      -5.266  -2.433  11.432  1.00  0.00     0.049 A 
ATOM     59  C   UNL     1      -7.043  -7.832  10.486  1.00  0.00     0.074 A 
ATOM     60  C   UNL     1      -3.907  -2.287  11.231  1.00  0.00     0.029 A 
ATOM     61  N   UNL     1      -5.415  -3.596  12.145  1.00  0.00    -0.354 N 
ATOM     62  N   UNL     1      -5.830  -7.776  10.961  1.00  0.00    -0.248 NA
ATOM     63  C   UNL     1      -7.977  -6.865  11.047  1.00  0.00     0.031 C 
ATOM     64  C   UNL     1      -3.355  -3.585  11.432  1.00  0.00     0.029 A 
ATOM     65  C   UNL     1      -4.404  -4.442  11.767  1.00  0.00     0.049 A 
ATOM     66  H   UNL     1      -6.119  -3.789  12.806  1.00  0.00     0.167 HD
ATOM     67  C   UNL     1      -5.742  -6.530  11.566  1.00  0.00     0.074 A 
ATOM     68  C   UNL     1      -7.118  -6.061  11.680  1.00  0.00     0.031 C 
ATOM     69  C   UNL     1      -4.548  -5.875  11.657  1.00  0.00     0.037 A 
BRANCH  56  70
ATOM     70  C   UNL     1      -7.602  -1.347  11.648  1.00  0.00     0.064 A 
ATOM     71  C   UNL     1      -7.390  -0.838  12.939  1.00  0.00     0.173 A 
ATOM     72  C   UNL     1      -8.949  -1.595  11.296  1.00  0.00     0.173 A 
ATOM     73  F   UNL     1      -6.145  -0.617  13.388  1.00  0.00    -0.203 F 
ATOM     74  C   UNL     1      -8.449  -0.621  13.823  1.00  0.00     0.198 A 
ATOM     75  C   UNL     1     -10.006  -1.316  12.155  1.00  0.00     0.198 A 
ATOM     76  F   UNL     1      -9.283  -2.217  10.158  1.00  0.00    -0.203 F 
ATOM     77  F   UNL     1      -8.194  -0.241  15.082  1.00  0.00    -0.200 F 
ATOM     78  C   UNL     1      -9.755  -0.854  13.429  1.00  0.00     0.200 A 
ATOM     79  F   UNL     1     -11.262  -1.572  11.761  1.00  0.00    -0.200 F 
ATOM     80  F   UNL     1     -10.767  -0.686  14.290  1.00  0.00    -0.200 F 
ENDBRANCH  56  70
BRANCH  57  81
ATOM     81  C   UNL     1      -8.483  -9.513   9.121  1.00  0.00     0.064 A 
ATOM     82  C   UNL     1      -8.731 -10.374  10.202  1.00  0.00     0.173 A 
ATOM     83  C   UNL     1      -9.458  -9.494   8.103  1.00  0.00     0.173 A 
ATOM     84  F   UNL     1      -7.876 -10.423  11.234  1.00  0.00    -0.203 F 
ATOM     85  C   UNL     1      -9.898 -11.142  10.278  1.00  0.00     0.198 A 
ATOM     86  C   UNL     1     -10.614 -10.272   8.172  1.00  0.00     0.198 A 
ATOM     87  F   UNL     1      -9.361  -8.650   7.067  1.00  0.00    -0.203 F 
ATOM     88  F   UNL     1     -10.133 -11.895  11.361  1.00  0.00    -0.200 F 
ATOM     89  C   UNL     1     -10.843 -11.082   9.267  1.00  0.00     0.200 A 
ATOM     90  F   UNL     1     -11.536 -10.179   7.202  1.00  0.00    -0.200 F 
ATOM     91  F   UNL     1     -11.989 -11.768   9.368  1.00  0.00    -0.200 F 
ENDBRANCH  57  81
BRANCH  69  92
ATOM     92  C   UNL     1      -3.302  -6.656  11.350  1.00  0.00     0.064 A 
ATOM     93  C   UNL     1      -3.006  -7.182  10.081  1.00  0.00     0.173 A 
ATOM     94  C   UNL     1      -2.305  -6.737  12.332  1.00  0.00     0.173 A 
ATOM     95  F   UNL     1      -3.865  -7.048   9.062  1.00  0.00    -0.203 F 
ATOM     96  C   UNL     1      -1.784  -7.799   9.822  1.00  0.00     0.198 A 
ATOM     97  C   UNL     1      -1.071  -7.321  12.059  1.00  0.00     0.198 A 
ATOM     98  F   UNL     1      -2.510  -6.198  13.544  1.00  0.00    -0.203 F 
ATOM     99  F   UNL     1      -1.527  -8.299   8.604  1.00  0.00    -0.200 F 
ATOM    100  C   UNL     1      -0.814  -7.860  10.809  1.00  0.00     0.200 A 
ATOM    101  F   UNL     1      -0.117  -7.331  13.001  1.00  0.00    -0.200 F 
ATOM    102  F   UNL     1       0.380  -8.410  10.546  1.00  0.00    -0.200 F 
ENDBRANCH  69  92
ENDBRANCH  43  44
ENDBRANCH  36  38
ENDBRANCH  35  36
ENDBRANCH  34  35
ENDBRANCH  33  34
ENDBRANCH  32  33
ENDBRANCH  31  32
ENDBRANCH   1  31
TORSDOF 21
