REMARK SMILES Cc1nn(-c2cccc(C(=O)OCCOCCOCCOC(=O)c3ccc(-c4c5nc(c(-c6c(F)c(F)c(F)c(F)c6F)c6ccc([nH]6)c(-c6c(F)c(F)c(F)c(F)c6F)c6nc(c(-c7c(F)c(F)c(F)c(F)c7F)c7ccc4[nH]7)C=C6)C=C5)cc3)c2)c(C)c1Cl
REMARK SMILES IDX 17 1 16 2 15 3 14 4 13 5 12 6 10 7 11 8 9 9 5 10 6 11 87 12
REMARK SMILES IDX 7 13 8 14 4 15 1 16 2 17 3 18 90 19 88 20 91 21 89 22 18 23
REMARK SMILES IDX 19 24 20 25 21 26 22 27 23 28 24 29 25 30 86 31 26 32 85 33
REMARK SMILES IDX 27 34 28 35 29 36 79 37 30 38 84 39 78 40 80 41 31 42 83 43
REMARK SMILES IDX 77 44 76 45 32 47 64 48 44 49 63 50 45 51 48 52 62 53 81 54
REMARK SMILES IDX 46 55 47 56 61 58 82 59 49 60 33 61 34 62 42 63 35 64 36 65
REMARK SMILES IDX 40 66 43 67 37 68 38 69 41 70 39 71 65 72 66 73 74 74 67 75
REMARK SMILES IDX 68 76 72 77 75 78 69 79 70 80 73 81 71 82 50 83 51 84 59 85
REMARK SMILES IDX 52 86 53 87 57 88 60 89 54 90 55 91 58 92 56 93
REMARK H PARENT 80 46 48 57
REMARK Flexibility Score: inf
ROOT
ATOM      1  C   UNL     1      -4.983   4.637   3.742  1.00  0.00     0.188 C 
ENDROOT
BRANCH   1   2
ATOM      2  C   UNL     1      -5.360   5.663   4.834  1.00  0.00     0.188 C 
BRANCH   2   3
ATOM      3  O   UNL     1      -6.176   6.772   4.524  1.00  0.00    -0.376 OA
BRANCH   3   4
ATOM      4  C   UNL     1      -5.682   7.801   3.679  1.00  0.00     0.202 C 
BRANCH   4   5
ATOM      5  C   UNL     1      -4.189   8.165   3.554  1.00  0.00     0.261 C 
BRANCH   5   6
ATOM      6  O   UNL     1      -3.273   7.061   3.515  1.00  0.00    -0.460 OA
BRANCH   6   7
ATOM      7  C   UNL     1      -2.355   7.019   4.516  1.00  0.00     0.338 C 
ATOM      8  O   UNL     1      -2.179   7.857   5.383  1.00  0.00    -0.246 OA
BRANCH   7   9
ATOM      9  C   UNL     1      -1.718   5.681   4.551  1.00  0.00     0.062 A 
ATOM     10  C   UNL     1      -0.704   3.768   3.466  1.00  0.00     0.066 A 
ATOM     11  C   UNL     1      -0.705   3.084   4.693  1.00  0.00     0.028 A 
ATOM     12  C   UNL     1      -1.260   5.053   3.389  1.00  0.00     0.044 A 
ATOM     13  C   UNL     1      -1.161   3.717   5.851  1.00  0.00     0.003 A 
ATOM     14  C   UNL     1      -1.643   5.024   5.786  1.00  0.00     0.016 A 
BRANCH  10  15
ATOM     15  N   UNL     1      -0.119   3.143   2.327  1.00  0.00    -0.236 N 
ATOM     16  C   UNL     1       0.623   0.122   0.588  1.00  0.00     0.070 C 
ATOM     17  C   UNL     1       0.452   1.522   1.049  1.00  0.00     0.079 A 
ATOM     18  N   UNL     1      -0.049   1.785   2.262  1.00  0.00    -0.171 NA
ATOM     19  C   UNL     1       0.811   2.704   0.374  1.00  0.00     0.085 A 
ATOM     20  C   UNL     1       0.500   3.736   1.234  1.00  0.00     0.060 A 
ATOM     21  Cl  UNL     1       1.560   2.802  -1.145  1.00  0.00    -0.080 Cl
ATOM     22  C   UNL     1       0.838   5.179   1.124  1.00  0.00     0.068 C 
ENDBRANCH  10  15
ENDBRANCH   7   9
ENDBRANCH   6   7
ENDBRANCH   5   6
ENDBRANCH   4   5
ENDBRANCH   3   4
ENDBRANCH   2   3
ENDBRANCH   1   2
BRANCH   1  23
ATOM     23  O   UNL     1      -4.930   4.997   2.378  1.00  0.00    -0.376 OA
BRANCH  23  24
ATOM     24  C   UNL     1      -6.077   5.209   1.569  1.00  0.00     0.202 C 
BRANCH  24  25
ATOM     25  C   UNL     1      -7.486   4.693   1.861  1.00  0.00     0.261 C 
BRANCH  25  26
ATOM     26  O   UNL     1      -7.798   4.564   3.232  1.00  0.00    -0.460 OA
BRANCH  26  27
ATOM     27  C   UNL     1      -7.701   3.293   3.676  1.00  0.00     0.338 C 
ATOM     28  O   UNL     1      -7.334   2.317   3.046  1.00  0.00    -0.246 OA
BRANCH  27  29
ATOM     29  C   UNL     1      -8.122   3.235   5.079  1.00  0.00     0.060 A 
ATOM     30  C   UNL     1      -7.913   2.014   5.723  1.00  0.00     0.016 A 
ATOM     31  C   UNL     1      -8.975   4.221   5.591  1.00  0.00     0.016 A 
ATOM     32  C   UNL     1      -8.802   1.647   6.702  1.00  0.00     0.010 A 
ATOM     33  C   UNL     1      -9.870   3.852   6.565  1.00  0.00     0.010 A 
ATOM     34  C   UNL     1      -9.848   2.526   6.994  1.00  0.00    -0.014 A 
BRANCH  34  35
ATOM     35  C   UNL     1     -11.047   1.928   7.540  1.00  0.00     0.031 A 
ATOM     36  C   UNL     1     -11.088   1.752   9.000  1.00  0.00     0.074 A 
ATOM     37  C   UNL     1     -12.072   1.617   6.724  1.00  0.00     0.049 A 
ATOM     38  N   UNL     1     -11.265   0.661   9.669  1.00  0.00    -0.248 NA
ATOM     39  C   UNL     1     -10.842   2.944   9.819  1.00  0.00     0.031 C 
ATOM     40  C   UNL     1     -12.264   2.002   5.320  1.00  0.00     0.029 A 
ATOM     41  N   UNL     1     -13.226   0.968   7.029  1.00  0.00    -0.354 N 
ATOM     42  C   UNL     1     -11.296   1.046  11.002  1.00  0.00     0.074 A 
ATOM     43  C   UNL     1     -10.923   2.438  11.047  1.00  0.00     0.031 C 
ATOM     44  C   UNL     1     -13.548   1.769   4.971  1.00  0.00     0.029 A 
ATOM     45  C   UNL     1     -14.222   1.115   6.080  1.00  0.00     0.049 A 
ATOM     46  H   UNL     1     -13.342   0.440   7.851  1.00  0.00     0.167 HD
ATOM     47  C   UNL     1     -11.812   0.249  11.974  1.00  0.00     0.037 A 
ATOM     48  C   UNL     1     -15.530   0.817   6.253  1.00  0.00     0.037 A 
ATOM     49  C   UNL     1     -11.867  -1.131  11.583  1.00  0.00     0.049 A 
ATOM     50  C   UNL     1     -15.632  -0.118   7.403  1.00  0.00     0.074 A 
ATOM     51  C   UNL     1     -10.917  -2.073  11.240  1.00  0.00     0.029 A 
ATOM     52  N   UNL     1     -13.069  -1.659  11.187  1.00  0.00    -0.354 N 
ATOM     53  N   UNL     1     -15.196  -1.348   7.395  1.00  0.00    -0.248 NA
ATOM     54  C   UNL     1     -15.861   0.451   8.724  1.00  0.00     0.031 C 
ATOM     55  C   UNL     1     -11.538  -2.894  10.254  1.00  0.00     0.029 A 
ATOM     56  C   UNL     1     -12.829  -2.403  10.059  1.00  0.00     0.049 A 
ATOM     57  H   UNL     1     -13.940  -1.530  11.629  1.00  0.00     0.167 HD
ATOM     58  C   UNL     1     -14.724  -1.569   8.682  1.00  0.00     0.074 A 
ATOM     59  C   UNL     1     -15.257  -0.470   9.478  1.00  0.00     0.031 C 
ATOM     60  C   UNL     1     -13.722  -2.464   8.925  1.00  0.00     0.037 A 
BRANCH  47  61
ATOM     61  C   UNL     1     -12.509   0.795  13.183  1.00  0.00     0.064 A 
ATOM     62  C   UNL     1     -12.716  -0.019  14.308  1.00  0.00     0.173 A 
ATOM     63  C   UNL     1     -13.200   2.027  13.175  1.00  0.00     0.173 A 
ATOM     64  F   UNL     1     -12.147  -1.232  14.386  1.00  0.00    -0.203 F 
ATOM     65  C   UNL     1     -13.568   0.369  15.345  1.00  0.00     0.198 A 
ATOM     66  C   UNL     1     -14.000   2.438  14.236  1.00  0.00     0.198 A 
ATOM     67  F   UNL     1     -13.201   2.827  12.099  1.00  0.00    -0.203 F 
ATOM     68  F   UNL     1     -13.813  -0.476  16.355  1.00  0.00    -0.200 F 
ATOM     69  C   UNL     1     -14.203   1.599  15.312  1.00  0.00     0.200 A 
ATOM     70  F   UNL     1     -14.624   3.622  14.174  1.00  0.00    -0.200 F 
ATOM     71  F   UNL     1     -15.046   1.956  16.288  1.00  0.00    -0.200 F 
ENDBRANCH  47  61
BRANCH  48  72
ATOM     72  C   UNL     1     -16.685   1.565   5.707  1.00  0.00     0.064 A 
ATOM     73  C   UNL     1     -17.967   0.997   5.672  1.00  0.00     0.173 A 
ATOM     74  C   UNL     1     -16.604   2.946   5.428  1.00  0.00     0.173 A 
ATOM     75  F   UNL     1     -18.139  -0.296   5.981  1.00  0.00    -0.203 F 
ATOM     76  C   UNL     1     -19.099   1.765   5.379  1.00  0.00     0.198 A 
ATOM     77  C   UNL     1     -17.730   3.706   5.119  1.00  0.00     0.198 A 
ATOM     78  F   UNL     1     -15.443   3.607   5.537  1.00  0.00    -0.203 F 
ATOM     79  F   UNL     1     -20.314   1.201   5.409  1.00  0.00    -0.200 F 
ATOM     80  C   UNL     1     -18.980   3.119   5.106  1.00  0.00     0.200 A 
ATOM     81  F   UNL     1     -17.602   5.022   4.894  1.00  0.00    -0.200 F 
ATOM     82  F   UNL     1     -20.069   3.863   4.871  1.00  0.00    -0.200 F 
ENDBRANCH  48  72
BRANCH  60  83
ATOM     83  C   UNL     1     -13.328  -3.382   7.803  1.00  0.00     0.064 A 
ATOM     84  C   UNL     1     -12.732  -2.927   6.614  1.00  0.00     0.173 A 
ATOM     85  C   UNL     1     -13.411  -4.768   7.993  1.00  0.00     0.173 A 
ATOM     86  F   UNL     1     -12.515  -1.622   6.412  1.00  0.00    -0.203 F 
ATOM     87  C   UNL     1     -12.288  -3.818   5.639  1.00  0.00     0.198 A 
ATOM     88  C   UNL     1     -12.935  -5.657   7.032  1.00  0.00     0.198 A 
ATOM     89  F   UNL     1     -13.909  -5.260   9.138  1.00  0.00    -0.203 F 
ATOM     90  F   UNL     1     -11.732  -3.356   4.509  1.00  0.00    -0.200 F 
ATOM     91  C   UNL     1     -12.384  -5.182   5.852  1.00  0.00     0.200 A 
ATOM     92  F   UNL     1     -12.980  -6.976   7.264  1.00  0.00    -0.200 F 
ATOM     93  F   UNL     1     -11.918  -6.041   4.934  1.00  0.00    -0.200 F 
ENDBRANCH  60  83
ENDBRANCH  34  35
ENDBRANCH  27  29
ENDBRANCH  26  27
ENDBRANCH  25  26
ENDBRANCH  24  25
ENDBRANCH  23  24
ENDBRANCH   1  23
TORSDOF 18
