REMARK SMILES CCOC(=O)c1cccc(Nc2c(-c3ccc(C(=O)OCCOCCOCCOC(=O)c4ccc(-c5c6nc(c(-c7c(F)c(F)c(F)c(F)c7F)c7ccc([nH]7)c(-c7c(F)c(F)c(F)c(F)c7F)c7nc(c(-c8c(F)c(F)c(F)c(F)c8F)c8ccc5[nH]8)C=C7)C=C6)cc4)cc3)nc3cnccn23)c1
REMARK SMILES IDX 22 1 21 2 20 3 18 4 19 5 17 6 14 7 15 8 96 9 16 10 95 11
REMARK SMILES IDX 13 12 12 13 103 14 97 15 98 16 102 17 99 18 101 19 100 20
REMARK SMILES IDX 11 21 10 23 6 24 7 25 104 26 8 27 9 28 4 29 5 30 3 31 2 32
REMARK SMILES IDX 1 33 23 34 24 35 25 36 26 37 27 38 28 39 29 40 30 41 31 42
REMARK SMILES IDX 32 43 33 44 94 45 34 46 93 47 35 48 36 49 37 50 87 51 38 52
REMARK SMILES IDX 92 53 86 54 88 55 39 56 91 57 85 58 84 59 40 61 72 62 52 63
REMARK SMILES IDX 71 64 53 65 56 66 70 67 89 68 54 69 55 70 69 72 90 73 57 74
REMARK SMILES IDX 41 75 42 76 50 77 43 78 44 79 48 80 51 81 45 82 46 83 49 84
REMARK SMILES IDX 47 85 73 86 74 87 82 88 75 89 76 90 80 91 83 92 77 93 78 94
REMARK SMILES IDX 81 95 79 96 58 97 59 98 67 99 60 100 61 101 65 102 68 103
REMARK SMILES IDX 62 104 63 105 66 106 64 107
REMARK H PARENT 11 22 88 60 56 71
REMARK Flexibility Score: inf
ROOT
ATOM      1  C   UNL     1       4.204   3.846 -13.454  1.00  0.00     0.202 C 
ENDROOT
BRANCH   1   2
ATOM      2  C   UNL     1       4.565   2.466 -14.025  1.00  0.00     0.261 C 
BRANCH   2   3
ATOM      3  O   UNL     1       4.088   1.337 -13.283  1.00  0.00    -0.460 OA
BRANCH   3   4
ATOM      4  C   UNL     1       5.051   0.599 -12.676  1.00  0.00     0.338 C 
ATOM      5  O   UNL     1       6.255   0.792 -12.718  1.00  0.00    -0.246 OA
BRANCH   4   6
ATOM      6  C   UNL     1       4.437  -0.397 -11.768  1.00  0.00     0.060 A 
ATOM      7  C   UNL     1       3.468  -2.375 -10.039  1.00  0.00     0.004 A 
ATOM      8  C   UNL     1       4.526  -1.554  -9.634  1.00  0.00     0.011 A 
ATOM      9  C   UNL     1       2.858  -2.155 -11.285  1.00  0.00     0.011 A 
ATOM     10  C   UNL     1       5.017  -0.576 -10.504  1.00  0.00     0.016 A 
ATOM     11  C   UNL     1       3.329  -1.158 -12.146  1.00  0.00     0.016 A 
BRANCH   7  12
ATOM     12  C   UNL     1       3.152  -3.582  -9.301  1.00  0.00     0.114 A 
ATOM     13  C   UNL     1       2.763  -3.710  -7.969  1.00  0.00     0.143 A 
ATOM     14  N   UNL     1       2.649  -5.084  -7.794  1.00  0.00    -0.283 N 
ATOM     15  N   UNL     1       3.352  -4.806  -9.900  1.00  0.00    -0.225 NA
ATOM     16  C   UNL     1       3.076  -5.671  -8.959  1.00  0.00     0.157 A 
ATOM     17  C   UNL     1       2.208  -5.895  -6.757  1.00  0.00     0.115 A 
ATOM     18  C   UNL     1       3.143  -7.103  -9.035  1.00  0.00     0.158 A 
ATOM     19  C   UNL     1       2.279  -7.230  -6.909  1.00  0.00     0.129 A 
ATOM     20  N   UNL     1       2.765  -7.862  -8.042  1.00  0.00    -0.259 NA
BRANCH  13  21
ATOM     21  N   UNL     1       2.455  -2.785  -7.013  1.00  0.00    -0.339 N 
ATOM     22  H   UNL     1       1.821  -2.080  -7.277  1.00  0.00     0.168 HD
BRANCH  21  23
ATOM     23  C   UNL     1       2.945  -2.724  -5.683  1.00  0.00     0.040 A 
ATOM     24  C   UNL     1       2.865  -1.698  -3.473  1.00  0.00     0.062 A 
ATOM     25  C   UNL     1       3.896  -2.526  -3.028  1.00  0.00     0.016 A 
ATOM     26  C   UNL     1       2.371  -1.809  -4.782  1.00  0.00     0.041 A 
ATOM     27  C   UNL     1       4.437  -3.470  -3.894  1.00  0.00     0.003 A 
ATOM     28  C   UNL     1       3.973  -3.556  -5.210  1.00  0.00     0.026 A 
BRANCH  24  29
ATOM     29  C   UNL     1       2.407  -0.628  -2.569  1.00  0.00     0.338 C 
ATOM     30  O   UNL     1       3.174   0.171  -2.059  1.00  0.00    -0.246 OA
BRANCH  29  31
ATOM     31  O   UNL     1       1.071  -0.720  -2.370  1.00  0.00    -0.462 OA
BRANCH  31  32
ATOM     32  C   UNL     1       0.533   0.250  -1.454  1.00  0.00     0.230 C 
ATOM     33  C   UNL     1       0.816  -0.127  -0.008  1.00  0.00     0.049 C 
ENDBRANCH  31  32
ENDBRANCH  29  31
ENDBRANCH  24  29
ENDBRANCH  21  23
ENDBRANCH  13  21
ENDBRANCH   7  12
ENDBRANCH   4   6
ENDBRANCH   3   4
ENDBRANCH   2   3
ENDBRANCH   1   2
BRANCH   1  34
ATOM     34  O   UNL     1       4.278   4.155 -12.072  1.00  0.00    -0.376 OA
BRANCH  34  35
ATOM     35  C   UNL     1       3.897   3.204 -11.099  1.00  0.00     0.188 C 
BRANCH  35  36
ATOM     36  C   UNL     1       2.485   2.584 -11.116  1.00  0.00     0.188 C 
BRANCH  36  37
ATOM     37  O   UNL     1       1.618   2.884 -12.181  1.00  0.00    -0.376 OA
BRANCH  37  38
ATOM     38  C   UNL     1       0.993   4.151 -12.281  1.00  0.00     0.202 C 
BRANCH  38  39
ATOM     39  C   UNL     1       0.913   5.213 -11.168  1.00  0.00     0.261 C 
BRANCH  39  40
ATOM     40  O   UNL     1       1.853   5.141 -10.096  1.00  0.00    -0.460 OA
BRANCH  40  41
ATOM     41  C   UNL     1       1.347   4.712  -8.911  1.00  0.00     0.338 C 
ATOM     42  O   UNL     1       0.215   4.346  -8.675  1.00  0.00    -0.246 OA
BRANCH  41  43
ATOM     43  C   UNL     1       2.455   4.583  -7.946  1.00  0.00     0.060 A 
ATOM     44  C   UNL     1       2.809   3.303  -7.499  1.00  0.00     0.016 A 
ATOM     45  C   UNL     1       3.103   5.715  -7.456  1.00  0.00     0.016 A 
ATOM     46  C   UNL     1       3.809   3.153  -6.539  1.00  0.00     0.010 A 
ATOM     47  C   UNL     1       4.090   5.565  -6.478  1.00  0.00     0.010 A 
ATOM     48  C   UNL     1       4.428   4.287  -5.997  1.00  0.00    -0.014 A 
BRANCH  48  49
ATOM     49  C   UNL     1       5.307   4.151  -4.811  1.00  0.00     0.031 A 
ATOM     50  C   UNL     1       4.730   4.431  -3.452  1.00  0.00     0.074 A 
ATOM     51  C   UNL     1       6.592   3.780  -4.937  1.00  0.00     0.049 A 
ATOM     52  N   UNL     1       5.320   4.459  -2.285  1.00  0.00    -0.248 NA
ATOM     53  C   UNL     1       3.290   4.732  -3.409  1.00  0.00     0.031 C 
ATOM     54  C   UNL     1       7.255   3.440  -6.194  1.00  0.00     0.029 A 
ATOM     55  N   UNL     1       7.573   3.639  -3.987  1.00  0.00    -0.354 N 
ATOM     56  C   UNL     1       4.326   4.777  -1.370  1.00  0.00     0.074 A 
ATOM     57  C   UNL     1       3.105   4.977  -2.121  1.00  0.00     0.031 C 
ATOM     58  C   UNL     1       8.541   3.142  -5.939  1.00  0.00     0.029 A 
ATOM     59  C   UNL     1       8.799   3.307  -4.509  1.00  0.00     0.049 A 
ATOM     60  H   UNL     1       7.413   3.765  -3.024  1.00  0.00     0.167 HD
ATOM     61  C   UNL     1       4.421   4.886  -0.023  1.00  0.00     0.037 A 
ATOM     62  C   UNL     1       9.994   3.178  -3.901  1.00  0.00     0.037 A 
ATOM     63  C   UNL     1       5.639   4.692   0.720  1.00  0.00     0.049 A 
ATOM     64  C   UNL     1      10.094   3.390  -2.411  1.00  0.00     0.074 A 
ATOM     65  C   UNL     1       5.839   4.775   2.086  1.00  0.00     0.029 A 
ATOM     66  N   UNL     1       6.867   4.381   0.154  1.00  0.00    -0.354 N 
ATOM     67  N   UNL     1       9.150   3.679  -1.547  1.00  0.00    -0.248 NA
ATOM     68  C   UNL     1      11.430   3.257  -1.811  1.00  0.00     0.031 C 
ATOM     69  C   UNL     1       7.200   4.576   2.341  1.00  0.00     0.029 A 
ATOM     70  C   UNL     1       7.836   4.303   1.141  1.00  0.00     0.049 A 
ATOM     71  H   UNL     1       7.026   4.238  -0.807  1.00  0.00     0.167 HD
ATOM     72  C   UNL     1       9.768   3.727  -0.304  1.00  0.00     0.074 A 
ATOM     73  C   UNL     1      11.168   3.428  -0.523  1.00  0.00     0.031 C 
ATOM     74  C   UNL     1       9.225   3.993   0.910  1.00  0.00     0.037 A 
BRANCH  61  75
ATOM     75  C   UNL     1       3.180   5.273   0.728  1.00  0.00     0.064 A 
ATOM     76  C   UNL     1       2.085   4.404   0.853  1.00  0.00     0.173 A 
ATOM     77  C   UNL     1       3.094   6.528   1.350  1.00  0.00     0.173 A 
ATOM     78  F   UNL     1       2.104   3.199   0.263  1.00  0.00    -0.203 F 
ATOM     79  C   UNL     1       0.941   4.788   1.548  1.00  0.00     0.198 A 
ATOM     80  C   UNL     1       1.962   6.896   2.072  1.00  0.00     0.198 A 
ATOM     81  F   UNL     1       4.111   7.399   1.263  1.00  0.00    -0.203 F 
ATOM     82  F   UNL     1      -0.113   3.962   1.607  1.00  0.00    -0.200 F 
ATOM     83  C   UNL     1       0.883   6.030   2.163  1.00  0.00     0.200 A 
ATOM     84  F   UNL     1       1.913   8.092   2.676  1.00  0.00    -0.200 F 
ATOM     85  F   UNL     1      -0.217   6.396   2.836  1.00  0.00    -0.200 F 
ENDBRANCH  61  75
BRANCH  62  86
ATOM     86  C   UNL     1      11.203   2.841  -4.700  1.00  0.00     0.064 A 
ATOM     87  C   UNL     1      11.856   1.612  -4.539  1.00  0.00     0.173 A 
ATOM     88  C   UNL     1      11.743   3.751  -5.621  1.00  0.00     0.173 A 
ATOM     89  F   UNL     1      11.395   0.720  -3.650  1.00  0.00    -0.203 F 
ATOM     90  C   UNL     1      13.014   1.313  -5.254  1.00  0.00     0.198 A 
ATOM     91  C   UNL     1      12.883   3.438  -6.358  1.00  0.00     0.198 A 
ATOM     92  F   UNL     1      11.160   4.944  -5.809  1.00  0.00    -0.203 F 
ATOM     93  F   UNL     1      13.648   0.151  -5.042  1.00  0.00    -0.200 F 
ATOM     94  C   UNL     1      13.523   2.223  -6.168  1.00  0.00     0.200 A 
ATOM     95  F   UNL     1      13.366   4.318  -7.247  1.00  0.00    -0.200 F 
ATOM     96  F   UNL     1      14.636   1.935  -6.855  1.00  0.00    -0.200 F 
ENDBRANCH  62  86
BRANCH  74  97
ATOM     97  C   UNL     1      10.133   3.928   2.107  1.00  0.00     0.064 A 
ATOM     98  C   UNL     1      11.127   4.891   2.337  1.00  0.00     0.173 A 
ATOM     99  C   UNL     1       9.975   2.910   3.061  1.00  0.00     0.173 A 
ATOM    100  F   UNL     1      11.329   5.878   1.452  1.00  0.00    -0.203 F 
ATOM    101  C   UNL     1      11.945   4.821   3.462  1.00  0.00     0.198 A 
ATOM    102  C   UNL     1      10.772   2.863   4.202  1.00  0.00     0.198 A 
ATOM    103  F   UNL     1       9.034   1.968   2.896  1.00  0.00    -0.203 F 
ATOM    104  F   UNL     1      12.921   5.723   3.635  1.00  0.00    -0.200 F 
ATOM    105  C   UNL     1      11.762   3.813   4.397  1.00  0.00     0.200 A 
ATOM    106  F   UNL     1      10.581   1.898   5.112  1.00  0.00    -0.200 F 
ATOM    107  F   UNL     1      12.544   3.753   5.484  1.00  0.00    -0.200 F 
ENDBRANCH  74  97
ENDBRANCH  48  49
ENDBRANCH  41  43
ENDBRANCH  40  41
ENDBRANCH  39  40
ENDBRANCH  38  39
ENDBRANCH  37  38
ENDBRANCH  36  37
ENDBRANCH  35  36
ENDBRANCH  34  35
ENDBRANCH   1  34
TORSDOF 23
