REMARK SMILES NC(=O)[C@@H]1CCCCN1c1cncc(C(=O)OCCOCCOCCOC(=O)c2ccc(-c3c4nc(c(-c5c(F)c(F)c(F)c(F)c5F)c5ccc([nH]5)c(-c5c(F)c(F)c(F)c(F)c5F)c5nc(c(-c6c(F)c(F)c(F)c(F)c6F)c6ccc3[nH]6)C=C5)C=C4)cc2)n1
REMARK SMILES IDX 21 1 20 2 19 3 18 4 17 5 15 6 16 7 14 8 10 9 11 10 92 11
REMARK SMILES IDX 12 12 13 13 9 14 4 15 5 16 6 17 8 18 7 19 2 20 1 21 3 24
REMARK SMILES IDX 22 25 23 26 24 27 25 28 26 29 27 30 28 31 29 32 30 33 91 34
REMARK SMILES IDX 31 35 90 36 32 37 33 38 34 39 84 40 35 41 89 42 83 43 85 44
REMARK SMILES IDX 36 45 88 46 82 47 81 48 37 50 69 51 49 52 68 53 50 54 53 55
REMARK SMILES IDX 67 56 86 57 51 58 52 59 66 61 87 62 54 63 38 64 39 65 47 66
REMARK SMILES IDX 40 67 41 68 45 69 48 70 42 71 43 72 46 73 44 74 70 75 71 76
REMARK SMILES IDX 79 77 72 78 73 79 77 80 80 81 74 82 75 83 78 84 76 85 55 86
REMARK SMILES IDX 56 87 64 88 57 89 58 90 62 91 65 92 59 93 60 94 63 95 61 96
REMARK H PARENT 1 22 1 23 85 49 53 60
REMARK Flexibility Score: inf
ROOT
ATOM      1  C   UNL     1       5.964  -0.558   3.215  1.00  0.00     0.188 C 
ENDROOT
BRANCH   1   2
ATOM      2  O   UNL     1       5.640  -0.714   4.584  1.00  0.00    -0.376 OA
BRANCH   2   3
ATOM      3  C   UNL     1       4.408  -1.300   4.972  1.00  0.00     0.202 C 
BRANCH   3   4
ATOM      4  C   UNL     1       3.076  -0.891   4.321  1.00  0.00     0.261 C 
BRANCH   4   5
ATOM      5  O   UNL     1       3.084  -0.801   2.889  1.00  0.00    -0.458 OA
BRANCH   5   6
ATOM      6  C   UNL     1       2.987   0.452   2.374  1.00  0.00     0.358 C 
ATOM      7  O   UNL     1       2.858   1.490   3.003  1.00  0.00    -0.244 OA
BRANCH   6   8
ATOM      8  C   UNL     1       3.280   0.430   0.923  1.00  0.00     0.169 A 
ATOM      9  C   UNL     1       2.983  -0.472  -1.189  1.00  0.00     0.148 A 
ATOM     10  C   UNL     1       3.958   0.442  -1.631  1.00  0.00     0.157 A 
ATOM     11  N   UNL     1       2.671  -0.503   0.129  1.00  0.00    -0.220 NA
ATOM     12  N   UNL     1       4.595   1.349  -0.843  1.00  0.00    -0.258 NA
ATOM     13  C   UNL     1       4.204   1.344   0.446  1.00  0.00     0.147 A 
BRANCH   9  14
ATOM     14  N   UNL     1       2.317  -1.280  -2.087  1.00  0.00    -0.343 N 
ATOM     15  C   UNL     1       0.904  -1.735  -1.979  1.00  0.00     0.172 C 
ATOM     16  C   UNL     1       0.870  -3.168  -1.451  1.00  0.00     0.035 C 
ATOM     17  C   UNL     1       1.637  -4.074  -2.420  1.00  0.00     0.004 C 
ATOM     18  C   UNL     1       3.118  -2.087  -3.021  1.00  0.00     0.119 C 
ATOM     19  C   UNL     1       3.067  -3.570  -2.628  1.00  0.00     0.022 C 
BRANCH  15  20
ATOM     20  C   UNL     1      -0.143  -0.825  -1.310  1.00  0.00     0.240 C 
ATOM     21  N   UNL     1       0.079  -0.387  -0.048  1.00  0.00    -0.368 N 
ATOM     22  H   UNL     1      -0.581   0.196   0.394  1.00  0.00     0.159 HD
ATOM     23  H   UNL     1       0.900  -0.650   0.428  1.00  0.00     0.159 HD
ATOM     24  O   UNL     1      -1.220  -0.565  -1.849  1.00  0.00    -0.273 OA
ENDBRANCH  15  20
ENDBRANCH   9  14
ENDBRANCH   6   8
ENDBRANCH   5   6
ENDBRANCH   4   5
ENDBRANCH   3   4
ENDBRANCH   2   3
ENDBRANCH   1   2
BRANCH   1  25
ATOM     25  C   UNL     1       5.834  -1.736   2.226  1.00  0.00     0.188 C 
BRANCH  25  26
ATOM     26  O   UNL     1       5.335  -2.948   2.728  1.00  0.00    -0.376 OA
BRANCH  26  27
ATOM     27  C   UNL     1       6.175  -3.852   3.421  1.00  0.00     0.202 C 
BRANCH  27  28
ATOM     28  C   UNL     1       7.680  -3.670   3.701  1.00  0.00     0.261 C 
BRANCH  28  29
ATOM     29  O   UNL     1       8.274  -2.394   3.457  1.00  0.00    -0.460 OA
BRANCH  29  30
ATOM     30  C   UNL     1       9.032  -2.304   2.335  1.00  0.00     0.338 C 
ATOM     31  O   UNL     1       9.219  -3.163   1.495  1.00  0.00    -0.246 OA
BRANCH  30  32
ATOM     32  C   UNL     1       9.482  -0.907   2.182  1.00  0.00     0.060 A 
ATOM     33  C   UNL     1       8.987  -0.149   1.111  1.00  0.00     0.016 A 
ATOM     34  C   UNL     1      10.413  -0.364   3.067  1.00  0.00     0.016 A 
ATOM     35  C   UNL     1       9.444   1.153   0.908  1.00  0.00     0.010 A 
ATOM     36  C   UNL     1      10.886   0.932   2.849  1.00  0.00     0.010 A 
ATOM     37  C   UNL     1      10.427   1.686   1.752  1.00  0.00    -0.014 A 
BRANCH  37  38
ATOM     38  C   UNL     1      11.119   2.947   1.389  1.00  0.00     0.031 A 
ATOM     39  C   UNL     1      12.460   2.857   0.714  1.00  0.00     0.074 A 
ATOM     40  C   UNL     1      10.574   4.148   1.651  1.00  0.00     0.049 A 
ATOM     41  N   UNL     1      13.298   3.809   0.392  1.00  0.00    -0.248 NA
ATOM     42  C   UNL     1      12.919   1.505   0.359  1.00  0.00     0.031 C 
ATOM     43  C   UNL     1       9.262   4.370   2.252  1.00  0.00     0.029 A 
ATOM     44  N   UNL     1      11.074   5.412   1.453  1.00  0.00    -0.354 N 
ATOM     45  C   UNL     1      14.383   3.172  -0.196  1.00  0.00     0.074 A 
ATOM     46  C   UNL     1      14.115   1.751  -0.155  1.00  0.00     0.031 C 
ATOM     47  C   UNL     1       9.065   5.693   2.389  1.00  0.00     0.029 A 
ATOM     48  C   UNL     1      10.253   6.407   1.924  1.00  0.00     0.049 A 
ATOM     49  H   UNL     1      11.938   5.588   1.016  1.00  0.00     0.167 HD
ATOM     50  C   UNL     1      15.499   3.722  -0.731  1.00  0.00     0.037 A 
ATOM     51  C   UNL     1      10.455   7.738   1.995  1.00  0.00     0.037 A 
ATOM     52  C   UNL     1      15.768   5.136  -0.762  1.00  0.00     0.049 A 
ATOM     53  C   UNL     1      11.752   8.319   1.482  1.00  0.00     0.074 A 
ATOM     54  C   UNL     1      16.870   5.793  -1.280  1.00  0.00     0.029 A 
ATOM     55  N   UNL     1      14.926   6.111  -0.248  1.00  0.00    -0.354 N 
ATOM     56  N   UNL     1      12.768   7.714   0.916  1.00  0.00    -0.248 NA
ATOM     57  C   UNL     1      11.927   9.773   1.620  1.00  0.00     0.031 C 
ATOM     58  C   UNL     1      16.722   7.160  -1.028  1.00  0.00     0.029 A 
ATOM     59  C   UNL     1      15.496   7.362  -0.415  1.00  0.00     0.049 A 
ATOM     60  H   UNL     1      14.053   5.939   0.174  1.00  0.00     0.167 HD
ATOM     61  C   UNL     1      13.678   8.714   0.592  1.00  0.00     0.074 A 
ATOM     62  C   UNL     1      13.091   9.966   1.018  1.00  0.00     0.031 C 
ATOM     63  C   UNL     1      14.890   8.605  -0.007  1.00  0.00     0.037 A 
BRANCH  50  64
ATOM     64  C   UNL     1      16.527   2.789  -1.303  1.00  0.00     0.064 A 
ATOM     65  C   UNL     1      16.293   2.069  -2.484  1.00  0.00     0.173 A 
ATOM     66  C   UNL     1      17.776   2.640  -0.681  1.00  0.00     0.173 A 
ATOM     67  F   UNL     1      15.110   2.163  -3.110  1.00  0.00    -0.203 F 
ATOM     68  C   UNL     1      17.261   1.214  -3.005  1.00  0.00     0.198 A 
ATOM     69  C   UNL     1      18.753   1.811  -1.224  1.00  0.00     0.198 A 
ATOM     70  F   UNL     1      18.053   3.309   0.449  1.00  0.00    -0.203 F 
ATOM     71  F   UNL     1      16.996   0.498  -4.107  1.00  0.00    -0.200 F 
ATOM     72  C   UNL     1      18.492   1.093  -2.380  1.00  0.00     0.200 A 
ATOM     73  F   UNL     1      19.948   1.706  -0.626  1.00  0.00    -0.200 F 
ATOM     74  F   UNL     1      19.426   0.278  -2.889  1.00  0.00    -0.200 F 
ENDBRANCH  50  64
BRANCH  51  75
ATOM     75  C   UNL     1       9.418   8.626   2.588  1.00  0.00     0.064 A 
ATOM     76  C   UNL     1       8.751   9.580   1.807  1.00  0.00     0.173 A 
ATOM     77  C   UNL     1       9.107   8.574   3.956  1.00  0.00     0.173 A 
ATOM     78  F   UNL     1       9.034   9.691   0.500  1.00  0.00    -0.203 F 
ATOM     79  C   UNL     1       7.836  10.465   2.374  1.00  0.00     0.198 A 
ATOM     80  C   UNL     1       8.168   9.437   4.515  1.00  0.00     0.198 A 
ATOM     81  F   UNL     1       9.720   7.685   4.751  1.00  0.00    -0.203 F 
ATOM     82  F   UNL     1       7.262  11.409   1.615  1.00  0.00    -0.200 F 
ATOM     83  C   UNL     1       7.541  10.390   3.727  1.00  0.00     0.200 A 
ATOM     84  F   UNL     1       7.879   9.354   5.821  1.00  0.00    -0.200 F 
ATOM     85  F   UNL     1       6.666  11.245   4.272  1.00  0.00    -0.200 F 
ENDBRANCH  51  75
BRANCH  63  86
ATOM     86  C   UNL     1      15.640   9.874  -0.301  1.00  0.00     0.064 A 
ATOM     87  C   UNL     1      16.213  10.652   0.716  1.00  0.00     0.173 A 
ATOM     88  C   UNL     1      15.829  10.290  -1.629  1.00  0.00     0.173 A 
ATOM     89  F   UNL     1      16.053  10.307   2.002  1.00  0.00    -0.203 F 
ATOM     90  C   UNL     1      16.921  11.814   0.416  1.00  0.00     0.198 A 
ATOM     91  C   UNL     1      16.568  11.432  -1.927  1.00  0.00     0.198 A 
ATOM     92  F   UNL     1      15.311   9.578  -2.641  1.00  0.00    -0.203 F 
ATOM     93  F   UNL     1      17.416  12.569   1.406  1.00  0.00    -0.200 F 
ATOM     94  C   UNL     1      17.106  12.197  -0.904  1.00  0.00     0.200 A 
ATOM     95  F   UNL     1      16.760  11.790  -3.204  1.00  0.00    -0.200 F 
ATOM     96  F   UNL     1      17.798  13.309  -1.191  1.00  0.00    -0.200 F 
ENDBRANCH  63  86
ENDBRANCH  37  38
ENDBRANCH  30  32
ENDBRANCH  29  30
ENDBRANCH  28  29
ENDBRANCH  27  28
ENDBRANCH  26  27
ENDBRANCH  25  26
ENDBRANCH   1  25
TORSDOF 19
