REMARK SMILES O=C(OCCOCCOCCOC(=O)c1ccc(-n2nc(Cl)ccc2=O)cc1)c1ccc(-c2c3nc(c(-c4c(F)c(F)c(F)c(F)c4F)c4ccc([nH]4)c(-c4c(F)c(F)c(F)c(F)c4F)c4nc(c(-c5c(F)c(F)c(F)c(F)c5F)c5ccc2[nH]5)C=C4)C=C3)cc1
REMARK SMILES IDX 7 1 6 2 5 3 4 4 3 5 2 6 1 7 29 8 30 9 91 10 31 11 90 12
REMARK SMILES IDX 32 13 33 14 34 15 84 16 35 17 89 18 83 19 85 20 36 21 88 22
REMARK SMILES IDX 82 23 81 24 37 26 69 27 49 28 68 29 50 30 53 31 67 32 86 33
REMARK SMILES IDX 51 34 52 35 66 37 87 38 54 39 38 40 39 41 47 42 40 43 41 44
REMARK SMILES IDX 45 45 48 46 42 47 43 48 46 49 44 50 70 51 71 52 79 53 72 54
REMARK SMILES IDX 73 55 77 56 80 57 74 58 75 59 78 60 76 61 55 62 56 63 64 64
REMARK SMILES IDX 57 65 58 66 62 67 65 68 59 69 60 70 63 71 61 72 8 73 9 74
REMARK SMILES IDX 10 75 11 76 12 77 13 78 14 79 15 80 16 81 28 82 17 83 27 84
REMARK SMILES IDX 18 85 19 86 20 87 25 88 21 89 24 90 26 91 22 92 23 93
REMARK H PARENT 85 25 53 36
REMARK Flexibility Score: inf
ROOT
ATOM      1  C   UNL     1       2.422   0.007   2.034  1.00  0.00     0.188 C 
ENDROOT
BRANCH   1   2
ATOM      2  O   UNL     1       3.702  -0.377   1.511  1.00  0.00    -0.376 OA
BRANCH   2   3
ATOM      3  C   UNL     1       4.583   0.731   1.292  1.00  0.00     0.202 C 
BRANCH   3   4
ATOM      4  C   UNL     1       4.391   1.449  -0.052  1.00  0.00     0.261 C 
BRANCH   4   5
ATOM      5  O   UNL     1       3.032   1.407  -0.515  1.00  0.00    -0.460 OA
BRANCH   5   6
ATOM      6  C   UNL     1       2.479   0.553  -1.412  1.00  0.00     0.338 C 
ATOM      7  O   UNL     1       1.328   0.767  -1.789  1.00  0.00    -0.246 OA
BRANCH   6   8
ATOM      8  C   UNL     1       3.188  -0.637  -1.984  1.00  0.00     0.060 A 
ATOM      9  C   UNL     1       4.279  -1.282  -1.400  1.00  0.00     0.016 A 
ATOM     10  C   UNL     1       2.667  -1.191  -3.167  1.00  0.00     0.016 A 
ATOM     11  C   UNL     1       4.894  -2.374  -2.001  1.00  0.00     0.010 A 
ATOM     12  C   UNL     1       3.242  -2.330  -3.748  1.00  0.00     0.010 A 
ATOM     13  C   UNL     1       4.378  -2.913  -3.175  1.00  0.00    -0.014 A 
BRANCH  13  14
ATOM     14  C   UNL     1       5.100  -4.026  -3.827  1.00  0.00     0.031 A 
ATOM     15  C   UNL     1       5.876  -3.741  -5.075  1.00  0.00     0.074 A 
ATOM     16  C   UNL     1       5.171  -5.236  -3.238  1.00  0.00     0.049 A 
ATOM     17  N   UNL     1       6.513  -4.567  -5.861  1.00  0.00    -0.248 NA
ATOM     18  C   UNL     1       5.991  -2.325  -5.468  1.00  0.00     0.031 C 
ATOM     19  C   UNL     1       4.625  -5.560  -1.923  1.00  0.00     0.029 A 
ATOM     20  N   UNL     1       5.744  -6.411  -3.651  1.00  0.00    -0.354 N 
ATOM     21  C   UNL     1       7.103  -3.775  -6.836  1.00  0.00     0.074 A 
ATOM     22  C   UNL     1       6.738  -2.404  -6.560  1.00  0.00     0.031 C 
ATOM     23  C   UNL     1       4.870  -6.849  -1.641  1.00  0.00     0.029 A 
ATOM     24  C   UNL     1       5.520  -7.462  -2.791  1.00  0.00     0.049 A 
ATOM     25  H   UNL     1       6.265  -6.495  -4.483  1.00  0.00     0.167 HD
ATOM     26  C   UNL     1       7.888  -4.172  -7.862  1.00  0.00     0.037 A 
ATOM     27  C   UNL     1       5.749  -8.779  -2.955  1.00  0.00     0.037 A 
ATOM     28  C   UNL     1       8.239  -5.544  -8.106  1.00  0.00     0.049 A 
ATOM     29  C   UNL     1       6.352  -9.217  -4.260  1.00  0.00     0.074 A 
ATOM     30  C   UNL     1       9.028  -6.073  -9.109  1.00  0.00     0.029 A 
ATOM     31  N   UNL     1       7.804  -6.609  -7.329  1.00  0.00    -0.354 N 
ATOM     32  N   UNL     1       6.860  -8.481  -5.219  1.00  0.00    -0.248 NA
ATOM     33  C   UNL     1       6.374 -10.659  -4.531  1.00  0.00     0.031 C 
ATOM     34  C   UNL     1       9.021  -7.466  -8.973  1.00  0.00     0.029 A 
ATOM     35  C   UNL     1       8.262  -7.800  -7.862  1.00  0.00     0.049 A 
ATOM     36  H   UNL     1       7.251  -6.528  -6.518  1.00  0.00     0.167 HD
ATOM     37  C   UNL     1       7.313  -9.368  -6.180  1.00  0.00     0.074 A 
ATOM     38  C   UNL     1       6.997 -10.699  -5.700  1.00  0.00     0.031 C 
ATOM     39  C   UNL     1       7.949  -9.108  -7.348  1.00  0.00     0.037 A 
BRANCH  26  40
ATOM     40  C   UNL     1       8.369  -3.123  -8.815  1.00  0.00     0.064 A 
ATOM     41  C   UNL     1       9.398  -2.231  -8.479  1.00  0.00     0.173 A 
ATOM     42  C   UNL     1       7.801  -3.023 -10.093  1.00  0.00     0.173 A 
ATOM     43  F   UNL     1       9.956  -2.271  -7.260  1.00  0.00    -0.203 F 
ATOM     44  C   UNL     1       9.834  -1.270  -9.389  1.00  0.00     0.198 A 
ATOM     45  C   UNL     1       8.252  -2.074 -11.006  1.00  0.00     0.198 A 
ATOM     46  F   UNL     1       6.808  -3.849 -10.457  1.00  0.00    -0.203 F 
ATOM     47  F   UNL     1      10.796  -0.405  -9.038  1.00  0.00    -0.200 F 
ATOM     48  C   UNL     1       9.265  -1.196 -10.652  1.00  0.00     0.200 A 
ATOM     49  F   UNL     1       7.703  -2.007 -12.226  1.00  0.00    -0.200 F 
ATOM     50  F   UNL     1       9.689  -0.274 -11.527  1.00  0.00    -0.200 F 
ENDBRANCH  26  40
BRANCH  27  51
ATOM     51  C   UNL     1       5.281  -9.778  -1.953  1.00  0.00     0.064 A 
ATOM     52  C   UNL     1       6.146 -10.679  -1.321  1.00  0.00     0.173 A 
ATOM     53  C   UNL     1       3.914  -9.905  -1.672  1.00  0.00     0.173 A 
ATOM     54  F   UNL     1       7.459 -10.647  -1.591  1.00  0.00    -0.203 F 
ATOM     55  C   UNL     1       5.658 -11.666  -0.460  1.00  0.00     0.198 A 
ATOM     56  C   UNL     1       3.430 -10.853  -0.776  1.00  0.00     0.198 A 
ATOM     57  F   UNL     1       3.042  -9.113  -2.304  1.00  0.00    -0.203 F 
ATOM     58  F   UNL     1       6.500 -12.563   0.072  1.00  0.00    -0.200 F 
ATOM     59  C   UNL     1       4.302 -11.745  -0.180  1.00  0.00     0.200 A 
ATOM     60  F   UNL     1       2.119 -10.916  -0.511  1.00  0.00    -0.200 F 
ATOM     61  F   UNL     1       3.833 -12.697   0.638  1.00  0.00    -0.200 F 
ENDBRANCH  27  51
BRANCH  39  62
ATOM     62  C   UNL     1       8.410 -10.290  -8.137  1.00  0.00     0.064 A 
ATOM     63  C   UNL     1       7.517 -11.072  -8.881  1.00  0.00     0.173 A 
ATOM     64  C   UNL     1       9.771 -10.627  -8.164  1.00  0.00     0.173 A 
ATOM     65  F   UNL     1       6.203 -10.802  -8.858  1.00  0.00    -0.203 F 
ATOM     66  C   UNL     1       7.971 -12.164  -9.614  1.00  0.00     0.198 A 
ATOM     67  C   UNL     1      10.225 -11.700  -8.920  1.00  0.00     0.198 A 
ATOM     68  F   UNL     1      10.660  -9.905  -7.464  1.00  0.00    -0.203 F 
ATOM     69  F   UNL     1       7.097 -12.928 -10.282  1.00  0.00    -0.200 F 
ATOM     70  C   UNL     1       9.324 -12.471  -9.640  1.00  0.00     0.200 A 
ATOM     71  F   UNL     1      11.533 -11.990  -8.951  1.00  0.00    -0.200 F 
ATOM     72  F   UNL     1       9.760 -13.519 -10.352  1.00  0.00    -0.200 F 
ENDBRANCH  39  62
ENDBRANCH  13  14
ENDBRANCH   6   8
ENDBRANCH   5   6
ENDBRANCH   4   5
ENDBRANCH   3   4
ENDBRANCH   2   3
ENDBRANCH   1   2
BRANCH   1  73
ATOM     73  C   UNL     1       1.832  -1.080   2.938  1.00  0.00     0.188 C 
BRANCH  73  74
ATOM     74  O   UNL     1       2.490  -1.281   4.189  1.00  0.00    -0.376 OA
BRANCH  74  75
ATOM     75  C   UNL     1       3.881  -1.579   4.149  1.00  0.00     0.202 C 
BRANCH  75  76
ATOM     76  C   UNL     1       4.295  -2.971   3.654  1.00  0.00     0.261 C 
BRANCH  76  77
ATOM     77  O   UNL     1       3.580  -3.458   2.506  1.00  0.00    -0.460 OA
BRANCH  77  78
ATOM     78  C   UNL     1       2.771  -4.518   2.756  1.00  0.00     0.338 C 
ATOM     79  O   UNL     1       2.572  -5.041   3.848  1.00  0.00    -0.246 OA
BRANCH  78  80
ATOM     80  C   UNL     1       2.234  -5.104   1.508  1.00  0.00     0.060 A 
ATOM     81  C   UNL     1       1.827  -4.345   0.407  1.00  0.00     0.018 A 
ATOM     82  C   UNL     1       2.117  -6.495   1.462  1.00  0.00     0.018 A 
ATOM     83  C   UNL     1       1.345  -4.987  -0.748  1.00  0.00     0.029 A 
ATOM     84  C   UNL     1       1.623  -7.125   0.319  1.00  0.00     0.029 A 
ATOM     85  C   UNL     1       1.261  -6.386  -0.821  1.00  0.00     0.069 A 
BRANCH  85  86
ATOM     86  N   UNL     1       0.917  -7.088  -2.021  1.00  0.00    -0.196 N 
ATOM     87  N   UNL     1       0.406  -8.361  -1.796  1.00  0.00    -0.153 NA
ATOM     88  C   UNL     1       1.164  -6.579  -3.303  1.00  0.00     0.271 A 
ATOM     89  C   UNL     1       0.252  -9.145  -2.812  1.00  0.00     0.150 A 
ATOM     90  C   UNL     1       1.065  -7.568  -4.406  1.00  0.00     0.077 A 
ATOM     91  O   UNL     1       1.516  -5.441  -3.604  1.00  0.00    -0.267 OA
ATOM     92  Cl  UNL     1      -0.414 -10.701  -2.478  1.00  0.00    -0.060 Cl
ATOM     93  C   UNL     1       0.636  -8.811  -4.190  1.00  0.00     0.049 A 
ENDBRANCH  85  86
ENDBRANCH  78  80
ENDBRANCH  77  78
ENDBRANCH  76  77
ENDBRANCH  75  76
ENDBRANCH  74  75
ENDBRANCH  73  74
ENDBRANCH   1  73
TORSDOF 18
