REMARK SMILES COc1cc2c[nH]nc2cc1C(=O)OCCOCCOCCOC(=O)c1ccc(-c2c3nc(c(-c4c(F)c(F)c(F)c(F)c4F)c4ccc([nH]4)c(-c4c(F)c(F)c(F)c(F)c4F)c4nc(c(-c5c(F)c(F)c(F)c(F)c5F)c5ccc2[nH]5)C=C4)C=C3)cc1
REMARK SMILES IDX 19 1 18 2 17 3 16 4 15 5 14 6 12 7 13 8 11 9 3 10 4 11 5 12
REMARK SMILES IDX 10 13 6 14 9 15 7 16 8 17 2 19 1 20 20 21 21 22 22 23 23 24
REMARK SMILES IDX 24 25 25 26 26 27 27 28 88 29 28 30 87 31 29 32 30 33 31 34
REMARK SMILES IDX 81 35 32 36 86 37 80 38 82 39 33 40 85 41 79 42 78 43 34 45
REMARK SMILES IDX 66 46 46 47 65 48 47 49 50 50 64 51 83 52 48 53 49 54 63 56
REMARK SMILES IDX 84 57 51 58 35 59 36 60 44 61 37 62 38 63 42 64 45 65 39 66
REMARK SMILES IDX 40 67 43 68 41 69 67 70 68 71 76 72 69 73 70 74 74 75 77 76
REMARK SMILES IDX 71 77 72 78 75 79 73 80 52 81 53 82 61 83 54 84 55 85 59 86
REMARK SMILES IDX 62 87 56 88 57 89 60 90 58 91
REMARK H PARENT 7 18 82 44 50 55
REMARK Flexibility Score: inf
ROOT
ATOM      1  C   UNL     1       3.999   2.594   1.109  1.00  0.00     0.188 C 
ENDROOT
BRANCH   1   2
ATOM      2  C   UNL     1       5.143   1.636   1.505  1.00  0.00     0.188 C 
BRANCH   2   3
ATOM      3  O   UNL     1       5.951   1.046   0.490  1.00  0.00    -0.376 OA
BRANCH   3   4
ATOM      4  C   UNL     1       5.317   0.481  -0.654  1.00  0.00     0.202 C 
BRANCH   4   5
ATOM      5  C   UNL     1       4.275  -0.613  -0.406  1.00  0.00     0.261 C 
BRANCH   5   6
ATOM      6  O   UNL     1       3.202  -0.168   0.441  1.00  0.00    -0.460 OA
BRANCH   6   7
ATOM      7  C   UNL     1       2.869  -0.996   1.456  1.00  0.00     0.342 C 
ATOM      8  O   UNL     1       3.319  -2.113   1.662  1.00  0.00    -0.246 OA
BRANCH   7   9
ATOM      9  C   UNL     1       1.980  -0.319   2.427  1.00  0.00     0.104 A 
ATOM     10  C   UNL     1       0.800   0.410   2.040  1.00  0.00     0.134 A 
ATOM     11  C   UNL     1      -0.054   1.063   2.963  1.00  0.00     0.059 A 
ATOM     12  C   UNL     1       0.395   0.906   4.268  1.00  0.00     0.023 A 
ATOM     13  C   UNL     1       2.403  -0.445   3.779  1.00  0.00     0.050 A 
ATOM     14  C   UNL     1      -0.211   1.399   5.389  1.00  0.00     0.114 A 
ATOM     15  C   UNL     1       1.571   0.202   4.703  1.00  0.00     0.093 A 
ATOM     16  N   UNL     1       0.598   1.010   6.419  1.00  0.00    -0.285 N 
ATOM     17  N   UNL     1       1.681   0.305   6.037  1.00  0.00    -0.176 NA
ATOM     18  H   UNL     1       0.407   1.227   7.361  1.00  0.00     0.189 HD
BRANCH  10  19
ATOM     19  O   UNL     1       0.462   0.630   0.723  1.00  0.00    -0.496 OA
ATOM     20  C   UNL     1       0.017  -0.551   0.060  1.00  0.00     0.278 C 
ENDBRANCH  10  19
ENDBRANCH   7   9
ENDBRANCH   6   7
ENDBRANCH   5   6
ENDBRANCH   4   5
ENDBRANCH   3   4
ENDBRANCH   2   3
ENDBRANCH   1   2
BRANCH   1  21
ATOM     21  O   UNL     1       3.985   2.938  -0.266  1.00  0.00    -0.376 OA
BRANCH  21  22
ATOM     22  C   UNL     1       4.242   4.300  -0.571  1.00  0.00     0.202 C 
BRANCH  22  23
ATOM     23  C   UNL     1       5.701   4.735  -0.384  1.00  0.00     0.261 C 
BRANCH  23  24
ATOM     24  O   UNL     1       6.241   4.520   0.931  1.00  0.00    -0.460 OA
BRANCH  24  25
ATOM     25  C   UNL     1       5.762   5.292   1.931  1.00  0.00     0.338 C 
ATOM     26  O   UNL     1       4.917   6.165   1.850  1.00  0.00    -0.246 OA
BRANCH  25  27
ATOM     27  C   UNL     1       6.320   4.777   3.200  1.00  0.00     0.060 A 
ATOM     28  C   UNL     1       5.442   4.389   4.221  1.00  0.00     0.016 A 
ATOM     29  C   UNL     1       7.702   4.661   3.374  1.00  0.00     0.016 A 
ATOM     30  C   UNL     1       5.949   3.908   5.431  1.00  0.00     0.010 A 
ATOM     31  C   UNL     1       8.208   4.198   4.592  1.00  0.00     0.010 A 
ATOM     32  C   UNL     1       7.335   3.845   5.636  1.00  0.00    -0.014 A 
BRANCH  32  33
ATOM     33  C   UNL     1       7.878   3.587   6.993  1.00  0.00     0.031 A 
ATOM     34  C   UNL     1       8.231   4.766   7.858  1.00  0.00     0.074 A 
ATOM     35  C   UNL     1       8.063   2.337   7.453  1.00  0.00     0.049 A 
ATOM     36  N   UNL     1       8.759   4.795   9.056  1.00  0.00    -0.248 NA
ATOM     37  C   UNL     1       7.950   6.095   7.292  1.00  0.00     0.031 C 
ATOM     38  C   UNL     1       7.738   1.112   6.728  1.00  0.00     0.029 A 
ATOM     39  N   UNL     1       8.585   1.897   8.645  1.00  0.00    -0.354 N 
ATOM     40  C   UNL     1       8.871   6.139   9.384  1.00  0.00     0.074 A 
ATOM     41  C   UNL     1       8.386   6.896   8.251  1.00  0.00     0.031 C 
ATOM     42  C   UNL     1       8.081   0.055   7.485  1.00  0.00     0.029 A 
ATOM     43  C   UNL     1       8.673   0.530   8.736  1.00  0.00     0.049 A 
ATOM     44  H   UNL     1       8.868   2.504   9.366  1.00  0.00     0.167 HD
ATOM     45  C   UNL     1       9.329   6.693  10.531  1.00  0.00     0.037 A 
ATOM     46  C   UNL     1       9.191  -0.245   9.710  1.00  0.00     0.037 A 
ATOM     47  C   UNL     1       9.823   5.945  11.656  1.00  0.00     0.049 A 
ATOM     48  C   UNL     1       9.763   0.399  10.948  1.00  0.00     0.074 A 
ATOM     49  C   UNL     1      10.294   6.417  12.868  1.00  0.00     0.029 A 
ATOM     50  N   UNL     1       9.920   4.562  11.699  1.00  0.00    -0.354 N 
ATOM     51  N   UNL     1       9.831   1.669  11.268  1.00  0.00    -0.248 NA
ATOM     52  C   UNL     1      10.329  -0.502  11.964  1.00  0.00     0.031 C 
ATOM     53  C   UNL     1      10.719   5.322  13.628  1.00  0.00     0.029 A 
ATOM     54  C   UNL     1      10.466   4.165  12.909  1.00  0.00     0.049 A 
ATOM     55  H   UNL     1       9.641   3.953  10.978  1.00  0.00     0.167 HD
ATOM     56  C   UNL     1      10.416   1.717  12.527  1.00  0.00     0.074 A 
ATOM     57  C   UNL     1      10.676   0.348  12.920  1.00  0.00     0.031 C 
ATOM     58  C   UNL     1      10.709   2.798  13.291  1.00  0.00     0.037 A 
BRANCH  45  59
ATOM     59  C   UNL     1       9.337   8.190  10.615  1.00  0.00     0.064 A 
ATOM     60  C   UNL     1       8.149   8.924  10.751  1.00  0.00     0.173 A 
ATOM     61  C   UNL     1      10.547   8.898  10.582  1.00  0.00     0.173 A 
ATOM     62  F   UNL     1       6.964   8.294  10.771  1.00  0.00    -0.203 F 
ATOM     63  C   UNL     1       8.171  10.314  10.827  1.00  0.00     0.198 A 
ATOM     64  C   UNL     1      10.568  10.286  10.684  1.00  0.00     0.198 A 
ATOM     65  F   UNL     1      11.711   8.242  10.455  1.00  0.00    -0.203 F 
ATOM     66  F   UNL     1       7.022  10.998  10.911  1.00  0.00    -0.200 F 
ATOM     67  C   UNL     1       9.380  10.993  10.800  1.00  0.00     0.200 A 
ATOM     68  F   UNL     1      11.737  10.940  10.668  1.00  0.00    -0.200 F 
ATOM     69  F   UNL     1       9.401  12.331  10.877  1.00  0.00    -0.200 F 
ENDBRANCH  45  59
BRANCH  46  70
ATOM     70  C   UNL     1       9.205  -1.724   9.556  1.00  0.00     0.064 A 
ATOM     71  C   UNL     1       8.402  -2.542  10.363  1.00  0.00     0.173 A 
ATOM     72  C   UNL     1      10.047  -2.349   8.625  1.00  0.00     0.173 A 
ATOM     73  F   UNL     1       7.607  -1.993  11.292  1.00  0.00    -0.203 F 
ATOM     74  C   UNL     1       8.454  -3.931  10.255  1.00  0.00     0.198 A 
ATOM     75  C   UNL     1      10.078  -3.736   8.500  1.00  0.00     0.198 A 
ATOM     76  F   UNL     1      10.843  -1.611   7.838  1.00  0.00    -0.203 F 
ATOM     77  F   UNL     1       7.714  -4.692  11.073  1.00  0.00    -0.200 F 
ATOM     78  C   UNL     1       9.287  -4.527   9.320  1.00  0.00     0.200 A 
ATOM     79  F   UNL     1      10.883  -4.308   7.594  1.00  0.00    -0.200 F 
ATOM     80  F   UNL     1       9.339  -5.862   9.220  1.00  0.00    -0.200 F 
ENDBRANCH  46  70
BRANCH  58  81
ATOM     81  C   UNL     1      11.307   2.549  14.646  1.00  0.00     0.064 A 
ATOM     82  C   UNL     1      12.634   2.122  14.798  1.00  0.00     0.173 A 
ATOM     83  C   UNL     1      10.557   2.789  15.807  1.00  0.00     0.173 A 
ATOM     84  F   UNL     1      13.390   1.866  13.719  1.00  0.00    -0.203 F 
ATOM     85  C   UNL     1      13.181   1.923  16.064  1.00  0.00     0.198 A 
ATOM     86  C   UNL     1      11.115   2.616  17.070  1.00  0.00     0.198 A 
ATOM     87  F   UNL     1       9.285   3.207  15.716  1.00  0.00    -0.203 F 
ATOM     88  F   UNL     1      14.438   1.474  16.186  1.00  0.00    -0.200 F 
ATOM     89  C   UNL     1      12.424   2.177  17.198  1.00  0.00     0.200 A 
ATOM     90  F   UNL     1      10.386   2.875  18.165  1.00  0.00    -0.200 F 
ATOM     91  F   UNL     1      12.954   1.992  18.415  1.00  0.00    -0.200 F 
ENDBRANCH  58  81
ENDBRANCH  32  33
ENDBRANCH  25  27
ENDBRANCH  24  25
ENDBRANCH  23  24
ENDBRANCH  22  23
ENDBRANCH  21  22
ENDBRANCH   1  21
TORSDOF 18
