REMARK SMILES CC1=C(C(=O)OCCOCCOCCOC(=O)c2ccc(-c3c4nc(c(-c5c(F)c(F)c(F)c(F)c5F)c5ccc([nH]5)c(-c5c(F)c(F)c(F)c(F)c5F)c5nc(c(-c6c(F)c(F)c(F)c(F)c6F)c6ccc3[nH]6)C=C5)C=C4)cc2)N2C(=O)[C@@H](NC(=O)c3ccn(C)n3)[C@H]2SC1
REMARK SMILES IDX 10 1 9 2 8 3 7 4 6 5 4 6 5 7 3 8 1 9 2 10 96 11 81 12 95 13
REMARK SMILES IDX 82 14 94 15 83 16 84 17 85 18 86 19 87 21 88 22 89 23 93 24
REMARK SMILES IDX 90 25 91 26 92 27 11 28 12 29 13 30 14 31 15 32 16 33 17 34
REMARK SMILES IDX 18 35 19 36 80 37 20 38 79 39 21 40 22 41 23 42 73 43 24 44
REMARK SMILES IDX 78 45 72 46 74 47 25 48 77 49 71 50 70 51 26 53 58 54 38 55
REMARK SMILES IDX 57 56 39 57 42 58 56 59 75 60 40 61 41 62 55 64 76 65 43 66
REMARK SMILES IDX 27 67 28 68 36 69 29 70 30 71 34 72 37 73 31 74 32 75 35 76
REMARK SMILES IDX 33 77 59 78 60 79 68 80 61 81 62 82 66 83 69 84 63 85 64 86
REMARK SMILES IDX 67 87 65 88 44 89 45 90 53 91 46 92 47 93 51 94 54 95 48 96
REMARK SMILES IDX 49 97 52 98 50 99
REMARK H PARENT 85 20 74 52 42 63
REMARK Flexibility Score: inf
ROOT
ATOM      1  C   UNL     1      -0.943  -3.930   1.338  1.00  0.00     0.188 C 
ENDROOT
BRANCH   1   2
ATOM      2  O   UNL     1      -0.694  -5.307   1.098  1.00  0.00    -0.376 OA
BRANCH   2   3
ATOM      3  C   UNL     1       0.504  -5.676   0.420  1.00  0.00     0.202 C 
BRANCH   3   4
ATOM      4  C   UNL     1       0.849  -4.924  -0.862  1.00  0.00     0.261 C 
BRANCH   4   5
ATOM      5  O   UNL     1       1.178  -3.558  -0.563  1.00  0.00    -0.459 OA
BRANCH   5   6
ATOM      6  C   UNL     1       0.772  -2.646  -1.478  1.00  0.00     0.355 C 
ATOM      7  O   UNL     1       0.275  -2.891  -2.568  1.00  0.00    -0.244 OA
BRANCH   6   8
ATOM      8  C   UNL     1       0.928  -1.248  -0.958  1.00  0.00     0.131 C 
ATOM      9  C   UNL     1       3.356  -1.514  -0.275  1.00  0.00     0.043 C 
ATOM     10  C   UNL     1       2.063  -0.749  -0.410  1.00  0.00    -0.032 C 
ATOM     11  C   UNL     1       2.178   0.661   0.161  1.00  0.00     0.105 C 
ATOM     12  N   UNL     1      -0.151  -0.439  -1.121  1.00  0.00    -0.289 N 
ATOM     13  S   UNL     1       0.583   1.487   0.479  1.00  0.00    -0.129 SA
ATOM     14  C   UNL     1      -1.495  -0.561  -1.161  1.00  0.00     0.253 C 
ATOM     15  C   UNL     1      -0.087   1.001  -1.130  1.00  0.00     0.181 C 
ATOM     16  O   UNL     1      -2.241  -1.500  -1.023  1.00  0.00    -0.272 OA
ATOM     17  C   UNL     1      -1.627   0.988  -1.317  1.00  0.00     0.206 C 
BRANCH  17  18
ATOM     18  N   UNL     1      -2.442   1.718  -0.317  1.00  0.00    -0.336 N 
ATOM     19  C   UNL     1      -3.654   2.338  -0.558  1.00  0.00     0.272 C 
ATOM     20  H   UNL     1      -2.089   1.766   0.601  1.00  0.00     0.164 HD
ATOM     21  O   UNL     1      -4.147   3.059   0.306  1.00  0.00    -0.267 OA
BRANCH  19  22
ATOM     22  C   UNL     1      -4.271   2.088  -1.866  1.00  0.00     0.150 A 
ATOM     23  C   UNL     1      -4.701   0.834  -2.377  1.00  0.00     0.056 A 
ATOM     24  N   UNL     1      -4.385   3.047  -2.803  1.00  0.00    -0.168 NA
ATOM     25  C   UNL     1      -5.110   1.080  -3.664  1.00  0.00     0.109 A 
ATOM     26  N   UNL     1      -4.925   2.417  -3.861  1.00  0.00    -0.275 N 
ATOM     27  C   UNL     1      -5.173   3.136  -5.088  1.00  0.00     0.173 C 
ENDBRANCH  19  22
ENDBRANCH  17  18
ENDBRANCH   6   8
ENDBRANCH   5   6
ENDBRANCH   4   5
ENDBRANCH   3   4
ENDBRANCH   2   3
ENDBRANCH   1   2
BRANCH   1  28
ATOM     28  C   UNL     1       0.053  -3.110   2.187  1.00  0.00     0.188 C 
BRANCH  28  29
ATOM     29  O   UNL     1       1.113  -3.730   2.893  1.00  0.00    -0.376 OA
BRANCH  29  30
ATOM     30  C   UNL     1       0.850  -4.849   3.725  1.00  0.00     0.202 C 
BRANCH  30  31
ATOM     31  C   UNL     1      -0.222  -4.768   4.816  1.00  0.00     0.261 C 
BRANCH  31  32
ATOM     32  O   UNL     1      -1.491  -4.282   4.361  1.00  0.00    -0.460 OA
BRANCH  32  33
ATOM     33  C   UNL     1      -1.867  -3.090   4.883  1.00  0.00     0.338 C 
ATOM     34  O   UNL     1      -1.272  -2.413   5.703  1.00  0.00    -0.246 OA
BRANCH  33  35
ATOM     35  C   UNL     1      -3.068  -2.610   4.177  1.00  0.00     0.060 A 
ATOM     36  C   UNL     1      -3.008  -1.364   3.539  1.00  0.00     0.016 A 
ATOM     37  C   UNL     1      -4.249  -3.353   4.184  1.00  0.00     0.016 A 
ATOM     38  C   UNL     1      -4.143  -0.841   2.925  1.00  0.00     0.010 A 
ATOM     39  C   UNL     1      -5.393  -2.818   3.589  1.00  0.00     0.010 A 
ATOM     40  C   UNL     1      -5.351  -1.549   2.984  1.00  0.00    -0.014 A 
BRANCH  40  41
ATOM     41  C   UNL     1      -6.607  -0.889   2.566  1.00  0.00     0.031 A 
ATOM     42  C   UNL     1      -7.419  -0.165   3.601  1.00  0.00     0.074 A 
ATOM     43  C   UNL     1      -7.024  -0.940   1.290  1.00  0.00     0.049 A 
ATOM     44  N   UNL     1      -8.568   0.447   3.479  1.00  0.00    -0.248 NA
ATOM     45  C   UNL     1      -6.862  -0.142   4.963  1.00  0.00     0.031 C 
ATOM     46  C   UNL     1      -6.316  -1.598   0.197  1.00  0.00     0.029 A 
ATOM     47  N   UNL     1      -8.155  -0.428   0.707  1.00  0.00    -0.354 N 
ATOM     48  C   UNL     1      -8.874   0.925   4.746  1.00  0.00     0.074 A 
ATOM     49  C   UNL     1      -7.805   0.508   5.628  1.00  0.00     0.031 C 
ATOM     50  C   UNL     1      -7.035  -1.454  -0.930  1.00  0.00     0.029 A 
ATOM     51  C   UNL     1      -8.255  -0.706  -0.632  1.00  0.00     0.049 A 
ATOM     52  H   UNL     1      -8.831   0.088   1.202  1.00  0.00     0.167 HD
ATOM     53  C   UNL     1      -9.950   1.647   5.138  1.00  0.00     0.037 A 
ATOM     54  C   UNL     1      -9.226  -0.395  -1.512  1.00  0.00     0.037 A 
ATOM     55  C   UNL     1     -11.017   2.054   4.263  1.00  0.00     0.049 A 
ATOM     56  C   UNL     1     -10.440   0.363  -1.040  1.00  0.00     0.074 A 
ATOM     57  C   UNL     1     -12.141   2.803   4.562  1.00  0.00     0.029 A 
ATOM     58  N   UNL     1     -11.095   1.734   2.915  1.00  0.00    -0.354 N 
ATOM     59  N   UNL     1     -10.714   0.835   0.152  1.00  0.00    -0.248 NA
ATOM     60  C   UNL     1     -11.489   0.619  -2.038  1.00  0.00     0.031 C 
ATOM     61  C   UNL     1     -12.926   2.892   3.407  1.00  0.00     0.029 A 
ATOM     62  C   UNL     1     -12.266   2.243   2.376  1.00  0.00     0.049 A 
ATOM     63  H   UNL     1     -10.418   1.223   2.415  1.00  0.00     0.167 HD
ATOM     64  C   UNL     1     -11.949   1.460   0.044  1.00  0.00     0.074 A 
ATOM     65  C   UNL     1     -12.368   1.319  -1.335  1.00  0.00     0.031 C 
ATOM     66  C   UNL     1     -12.671   2.094   1.001  1.00  0.00     0.037 A 
BRANCH  53  67
ATOM     67  C   UNL     1     -10.041   2.004   6.591  1.00  0.00     0.064 A 
ATOM     68  C   UNL     1      -9.194   2.961   7.171  1.00  0.00     0.173 A 
ATOM     69  C   UNL     1     -10.993   1.384   7.413  1.00  0.00     0.173 A 
ATOM     70  F   UNL     1      -8.255   3.569   6.431  1.00  0.00    -0.203 F 
ATOM     71  C   UNL     1      -9.277   3.260   8.528  1.00  0.00     0.198 A 
ATOM     72  C   UNL     1     -11.092   1.707   8.764  1.00  0.00     0.198 A 
ATOM     73  F   UNL     1     -11.827   0.463   6.907  1.00  0.00    -0.203 F 
ATOM     74  F   UNL     1      -8.424   4.138   9.073  1.00  0.00    -0.200 F 
ATOM     75  C   UNL     1     -10.229   2.637   9.322  1.00  0.00     0.200 A 
ATOM     76  F   UNL     1     -12.018   1.111   9.527  1.00  0.00    -0.200 F 
ATOM     77  F   UNL     1     -10.308   2.927  10.628  1.00  0.00    -0.200 F 
ENDBRANCH  53  67
BRANCH  54  78
ATOM     78  C   UNL     1      -9.094  -0.800  -2.934  1.00  0.00     0.064 A 
ATOM     79  C   UNL     1      -8.882   0.157  -3.936  1.00  0.00     0.173 A 
ATOM     80  C   UNL     1      -9.184  -2.144  -3.322  1.00  0.00     0.173 A 
ATOM     81  F   UNL     1      -8.814   1.458  -3.619  1.00  0.00    -0.203 F 
ATOM     82  C   UNL     1      -8.775  -0.215  -5.274  1.00  0.00     0.198 A 
ATOM     83  C   UNL     1      -9.054  -2.517  -4.657  1.00  0.00     0.198 A 
ATOM     84  F   UNL     1      -9.390  -3.097  -2.401  1.00  0.00    -0.203 F 
ATOM     85  F   UNL     1      -8.599   0.723  -6.215  1.00  0.00    -0.200 F 
ATOM     86  C   UNL     1      -8.856  -1.552  -5.633  1.00  0.00     0.200 A 
ATOM     87  F   UNL     1      -9.122  -3.811  -5.000  1.00  0.00    -0.200 F 
ATOM     88  F   UNL     1      -8.747  -1.908  -6.920  1.00  0.00    -0.200 F 
ENDBRANCH  54  78
BRANCH  66  89
ATOM     89  C   UNL     1     -13.980   2.703   0.590  1.00  0.00     0.064 A 
ATOM     90  C   UNL     1     -15.102   1.911   0.305  1.00  0.00     0.173 A 
ATOM     91  C   UNL     1     -14.127   4.098   0.530  1.00  0.00     0.173 A 
ATOM     92  F   UNL     1     -15.010   0.573   0.334  1.00  0.00    -0.203 F 
ATOM     93  C   UNL     1     -16.318   2.493  -0.045  1.00  0.00     0.198 A 
ATOM     94  C   UNL     1     -15.352   4.676   0.207  1.00  0.00     0.198 A 
ATOM     95  F   UNL     1     -13.087   4.900   0.801  1.00  0.00    -0.203 F 
ATOM     96  F   UNL     1     -17.366   1.717  -0.354  1.00  0.00    -0.200 F 
ATOM     97  C   UNL     1     -16.444   3.874  -0.086  1.00  0.00     0.200 A 
ATOM     98  F   UNL     1     -15.475   6.010   0.181  1.00  0.00    -0.200 F 
ATOM     99  F   UNL     1     -17.617   4.432  -0.415  1.00  0.00    -0.200 F 
ENDBRANCH  66  89
ENDBRANCH  40  41
ENDBRANCH  33  35
ENDBRANCH  32  33
ENDBRANCH  31  32
ENDBRANCH  30  31
ENDBRANCH  29  30
ENDBRANCH  28  29
ENDBRANCH   1  28
TORSDOF 19
