REMARK SMILES COc1cccc(CC(=O)N[C@@](C)(C(=O)OCCOCCOCCOC(=O)c2ccc(-c3c4nc(c(-c5c(F)c(F)c(F)c(F)c5F)c5ccc([nH]5)c(-c5c(F)c(F)c(F)c(F)c5F)c5nc(c(-c6c(F)c(F)c(F)c(F)c6F)c6ccc3[nH]6)C=C5)C=C4)cc2)C(F)(F)F)c1
REMARK SMILES IDX 20 1 19 2 18 3 17 4 16 5 14 6 15 7 12 8 13 9 11 10 9 11
REMARK SMILES IDX 10 12 8 14 7 15 3 16 4 17 95 18 5 19 6 20 2 21 1 22 91 23
REMARK SMILES IDX 92 24 93 25 94 26 21 27 22 28 23 29 24 30 25 31 26 32 27 33
REMARK SMILES IDX 28 34 29 35 90 36 30 37 89 38 31 39 32 40 33 41 83 42 34 43
REMARK SMILES IDX 88 44 82 45 84 46 35 47 87 48 81 49 80 50 36 52 68 53 48 54
REMARK SMILES IDX 67 55 49 56 52 57 66 58 85 59 50 60 51 61 65 63 86 64 53 65
REMARK SMILES IDX 37 66 38 67 46 68 39 69 40 70 44 71 47 72 41 73 42 74 45 75
REMARK SMILES IDX 43 76 69 77 70 78 78 79 71 80 72 81 76 82 79 83 73 84 74 85
REMARK SMILES IDX 77 86 75 87 54 88 55 89 63 90 56 91 57 92 61 93 64 94 58 95
REMARK SMILES IDX 59 96 62 97 60 98
REMARK H PARENT 11 13 84 51 52 62
REMARK Flexibility Score: inf
ROOT
ATOM      1  C   UNL     1       7.013   0.585   2.191  1.00  0.00     0.188 C 
ENDROOT
BRANCH   1   2
ATOM      2  O   UNL     1       7.711   1.810   2.001  1.00  0.00    -0.376 OA
BRANCH   2   3
ATOM      3  C   UNL     1       7.701   2.772   3.055  1.00  0.00     0.202 C 
BRANCH   3   4
ATOM      4  C   UNL     1       6.362   3.115   3.733  1.00  0.00     0.261 C 
BRANCH   4   5
ATOM      5  O   UNL     1       5.583   1.967   4.136  1.00  0.00    -0.461 OA
BRANCH   5   6
ATOM      6  C   UNL     1       4.244   2.176   4.204  1.00  0.00     0.341 C 
ATOM      7  O   UNL     1       3.742   3.293   4.123  1.00  0.00    -0.249 OA
BRANCH   6   8
ATOM      8  C   UNL     1       3.410   0.874   4.258  1.00  0.00     0.231 C 
ATOM      9  C   UNL     1       2.246   1.178   5.213  1.00  0.00     0.058 C 
BRANCH   8  10
ATOM     10  N   UNL     1       4.151  -0.306   4.854  1.00  0.00    -0.333 N 
ATOM     11  C   UNL     1       4.094  -1.666   4.791  1.00  0.00     0.225 C 
ATOM     12  O   UNL     1       4.575  -2.262   5.764  1.00  0.00    -0.275 OA
ATOM     13  H   UNL     1       4.872  -0.007   5.453  1.00  0.00     0.164 HD
BRANCH  11  14
ATOM     14  C   UNL     1       3.657  -2.481   3.581  1.00  0.00     0.135 C 
BRANCH  14  15
ATOM     15  C   UNL     1       2.180  -2.527   3.308  1.00  0.00    -0.035 A 
ATOM     16  C   UNL     1       0.351  -2.040   1.790  1.00  0.00     0.119 A 
ATOM     17  C   UNL     1      -0.555  -2.256   2.829  1.00  0.00     0.046 A 
ATOM     18  C   UNL     1       1.708  -2.270   2.010  1.00  0.00     0.050 A 
ATOM     19  C   UNL     1      -0.105  -2.668   4.085  1.00  0.00     0.004 A 
ATOM     20  C   UNL     1       1.262  -2.796   4.328  1.00  0.00     0.004 A 
BRANCH  16  21
ATOM     21  O   UNL     1      -0.179  -1.556   0.626  1.00  0.00    -0.497 OA
ATOM     22  C   UNL     1       0.679  -0.738  -0.168  1.00  0.00     0.278 C 
ENDBRANCH  16  21
ENDBRANCH  14  15
ENDBRANCH  11  14
ENDBRANCH   8  10
BRANCH   8  23
ATOM     23  C   UNL     1       2.909   0.762   2.812  1.00  0.00     0.422 C 
ATOM     24  F   UNL     1       3.711  -0.033   2.063  1.00  0.00    -0.168 F 
ATOM     25  F   UNL     1       1.663   0.250   2.785  1.00  0.00    -0.168 F 
ATOM     26  F   UNL     1       2.826   1.933   2.144  1.00  0.00    -0.168 F 
ENDBRANCH   8  23
ENDBRANCH   6   8
ENDBRANCH   5   6
ENDBRANCH   4   5
ENDBRANCH   3   4
ENDBRANCH   2   3
ENDBRANCH   1   2
BRANCH   1  27
ATOM     27  C   UNL     1       7.225  -0.199   3.500  1.00  0.00     0.188 C 
BRANCH  27  28
ATOM     28  O   UNL     1       7.981   0.477   4.473  1.00  0.00    -0.376 OA
BRANCH  28  29
ATOM     29  C   UNL     1       9.286   0.013   4.766  1.00  0.00     0.202 C 
BRANCH  29  30
ATOM     30  C   UNL     1      10.243  -0.511   3.676  1.00  0.00     0.261 C 
BRANCH  30  31
ATOM     31  O   UNL     1       9.667  -1.093   2.498  1.00  0.00    -0.460 OA
BRANCH  31  32
ATOM     32  C   UNL     1       9.373  -2.415   2.540  1.00  0.00     0.338 C 
ATOM     33  O   UNL     1       9.522  -3.177   3.474  1.00  0.00    -0.246 OA
BRANCH  32  34
ATOM     34  C   UNL     1       8.633  -2.741   1.300  1.00  0.00     0.060 A 
ATOM     35  C   UNL     1       7.276  -3.090   1.375  1.00  0.00     0.016 A 
ATOM     36  C   UNL     1       9.285  -2.696   0.069  1.00  0.00     0.016 A 
ATOM     37  C   UNL     1       6.564  -3.398   0.213  1.00  0.00     0.010 A 
ATOM     38  C   UNL     1       8.582  -3.038  -1.088  1.00  0.00     0.010 A 
ATOM     39  C   UNL     1       7.226  -3.409  -1.020  1.00  0.00    -0.014 A 
BRANCH  39  40
ATOM     40  C   UNL     1       6.595  -4.000  -2.224  1.00  0.00     0.031 A 
ATOM     41  C   UNL     1       6.920  -5.428  -2.557  1.00  0.00     0.074 A 
ATOM     42  C   UNL     1       5.801  -3.280  -3.035  1.00  0.00     0.049 A 
ATOM     43  N   UNL     1       6.696  -6.102  -3.654  1.00  0.00    -0.248 NA
ATOM     44  C   UNL     1       7.605  -6.195  -1.503  1.00  0.00     0.031 C 
ATOM     45  C   UNL     1       5.346  -1.916  -2.785  1.00  0.00     0.029 A 
ATOM     46  N   UNL     1       5.264  -3.599  -4.258  1.00  0.00    -0.354 N 
ATOM     47  C   UNL     1       7.233  -7.364  -3.433  1.00  0.00     0.074 A 
ATOM     48  C   UNL     1       7.804  -7.358  -2.104  1.00  0.00     0.031 C 
ATOM     49  C   UNL     1       4.620  -1.501  -3.838  1.00  0.00     0.029 A 
ATOM     50  C   UNL     1       4.610  -2.550  -4.858  1.00  0.00     0.049 A 
ATOM     51  H   UNL     1       5.339  -4.492  -4.665  1.00  0.00     0.167 HD
ATOM     52  C   UNL     1       7.252  -8.428  -4.268  1.00  0.00     0.037 A 
ATOM     53  C   UNL     1       4.110  -2.441  -6.105  1.00  0.00     0.037 A 
ATOM     54  C   UNL     1       6.690  -8.423  -5.591  1.00  0.00     0.049 A 
ATOM     55  C   UNL     1       4.245  -3.600  -7.063  1.00  0.00     0.074 A 
ATOM     56  C   UNL     1       6.662  -9.445  -6.522  1.00  0.00     0.029 A 
ATOM     57  N   UNL     1       6.061  -7.332  -6.174  1.00  0.00    -0.354 N 
ATOM     58  N   UNL     1       4.766  -4.787  -6.862  1.00  0.00    -0.248 NA
ATOM     59  C   UNL     1       3.733  -3.399  -8.427  1.00  0.00     0.031 C 
ATOM     60  C   UNL     1       6.064  -8.957  -7.688  1.00  0.00     0.029 A 
ATOM     61  C   UNL     1       5.663  -7.649  -7.461  1.00  0.00     0.049 A 
ATOM     62  H   UNL     1       5.918  -6.462  -5.736  1.00  0.00     0.167 HD
ATOM     63  C   UNL     1       4.608  -5.484  -8.055  1.00  0.00     0.074 A 
ATOM     64  C   UNL     1       3.945  -4.587  -8.977  1.00  0.00     0.031 C 
ATOM     65  C   UNL     1       4.975  -6.753  -8.356  1.00  0.00     0.037 A 
BRANCH  52  66
ATOM     66  C   UNL     1       7.944  -9.669  -3.787  1.00  0.00     0.064 A 
ATOM     67  C   UNL     1       7.410 -10.464  -2.761  1.00  0.00     0.173 A 
ATOM     68  C   UNL     1       9.155 -10.074  -4.368  1.00  0.00     0.173 A 
ATOM     69  F   UNL     1       6.264 -10.111  -2.160  1.00  0.00    -0.203 F 
ATOM     70  C   UNL     1       8.080 -11.600  -2.314  1.00  0.00     0.198 A 
ATOM     71  C   UNL     1       9.805 -11.228  -3.941  1.00  0.00     0.198 A 
ATOM     72  F   UNL     1       9.708  -9.351  -5.354  1.00  0.00    -0.203 F 
ATOM     73  F   UNL     1       7.580 -12.312  -1.294  1.00  0.00    -0.200 F 
ATOM     74  C   UNL     1       9.273 -11.985  -2.908  1.00  0.00     0.200 A 
ATOM     75  F   UNL     1      10.951 -11.605  -4.525  1.00  0.00    -0.200 F 
ATOM     76  F   UNL     1       9.914 -13.080  -2.478  1.00  0.00    -0.200 F 
ENDBRANCH  52  66
BRANCH  53  77
ATOM     77  C   UNL     1       3.461  -1.175  -6.543  1.00  0.00     0.064 A 
ATOM     78  C   UNL     1       2.090  -1.133  -6.830  1.00  0.00     0.173 A 
ATOM     79  C   UNL     1       4.198   0.006  -6.713  1.00  0.00     0.173 A 
ATOM     80  F   UNL     1       1.348  -2.244  -6.712  1.00  0.00    -0.203 F 
ATOM     81  C   UNL     1       1.484   0.036  -7.285  1.00  0.00     0.198 A 
ATOM     82  C   UNL     1       3.586   1.183  -7.141  1.00  0.00     0.198 A 
ATOM     83  F   UNL     1       5.515   0.020  -6.461  1.00  0.00    -0.203 F 
ATOM     84  F   UNL     1       0.181   0.034  -7.600  1.00  0.00    -0.200 F 
ATOM     85  C   UNL     1       2.231   1.194  -7.435  1.00  0.00     0.200 A 
ATOM     86  F   UNL     1       4.309   2.302  -7.274  1.00  0.00    -0.200 F 
ATOM     87  F   UNL     1       1.647   2.319  -7.872  1.00  0.00    -0.200 F 
ENDBRANCH  53  77
BRANCH  65  88
ATOM     88  C   UNL     1       4.612  -7.286  -9.713  1.00  0.00     0.064 A 
ATOM     89  C   UNL     1       5.284  -6.878 -10.874  1.00  0.00     0.173 A 
ATOM     90  C   UNL     1       3.632  -8.284  -9.836  1.00  0.00     0.173 A 
ATOM     91  F   UNL     1       6.219  -5.919 -10.812  1.00  0.00    -0.203 F 
ATOM     92  C   UNL     1       4.981  -7.444 -12.111  1.00  0.00     0.198 A 
ATOM     93  C   UNL     1       3.353  -8.867 -11.069  1.00  0.00     0.198 A 
ATOM     94  F   UNL     1       2.966  -8.714  -8.754  1.00  0.00    -0.203 F 
ATOM     95  F   UNL     1       5.613  -7.018 -13.213  1.00  0.00    -0.200 F 
ATOM     96  C   UNL     1       4.024  -8.444 -12.205  1.00  0.00     0.200 A 
ATOM     97  F   UNL     1       2.441  -9.845 -11.154  1.00  0.00    -0.200 F 
ATOM     98  F   UNL     1       3.749  -9.001 -13.393  1.00  0.00    -0.200 F 
ENDBRANCH  65  88
ENDBRANCH  39  40
ENDBRANCH  32  34
ENDBRANCH  31  32
ENDBRANCH  30  31
ENDBRANCH  29  30
ENDBRANCH  28  29
ENDBRANCH  27  28
ENDBRANCH   1  27
TORSDOF 22
