REMARK SMILES O=C(OCCOCCOCCOC(=O)c1ccccc1Nc1cccc(C(F)(F)F)c1)c1ccc(-c2c3nc(c(-c4c(F)c(F)c(F)c(F)c4F)c4ccc([nH]4)c(-c4c(F)c(F)c(F)c(F)c4F)c4nc(c(-c5c(F)c(F)c(F)c(F)c5F)c5ccc2[nH]5)C=C4)C=C3)cc1
REMARK SMILES IDX 8 1 7 2 6 3 5 4 4 5 3 6 2 7 1 8 32 9 33 10 94 11 34 12 93 13
REMARK SMILES IDX 35 14 36 15 37 16 87 17 38 18 92 19 86 20 88 21 39 22 91 23
REMARK SMILES IDX 85 24 84 25 40 27 72 28 52 29 71 30 53 31 56 32 70 33 89 34
REMARK SMILES IDX 54 35 55 36 69 38 90 39 57 40 41 41 42 42 50 43 43 44 44 45
REMARK SMILES IDX 48 46 51 47 45 48 46 49 49 50 47 51 73 52 74 53 82 54 75 55
REMARK SMILES IDX 76 56 80 57 83 58 77 59 78 60 81 61 79 62 58 63 59 64 67 65
REMARK SMILES IDX 60 66 61 67 65 68 68 69 62 70 63 71 66 72 64 73 9 74 10 75
REMARK SMILES IDX 11 76 12 77 13 78 14 79 15 80 16 81 20 82 17 83 19 84 18 85
REMARK SMILES IDX 21 86 22 88 23 89 31 90 24 91 26 92 25 93 27 94 28 95 29 96
REMARK SMILES IDX 30 97
REMARK H PARENT 88 26 56 37 21 87
REMARK Flexibility Score: inf
ROOT
ATOM      1  C   UNL     1       2.007  -3.154  -0.237  1.00  0.00     0.188 C 
ENDROOT
BRANCH   1   2
ATOM      2  C   UNL     1       2.571  -2.022   0.626  1.00  0.00     0.188 C 
BRANCH   2   3
ATOM      3  O   UNL     1       3.797  -1.521   0.073  1.00  0.00    -0.376 OA
BRANCH   3   4
ATOM      4  C   UNL     1       4.746  -1.114   1.064  1.00  0.00     0.202 C 
BRANCH   4   5
ATOM      5  C   UNL     1       4.627   0.359   1.469  1.00  0.00     0.261 C 
BRANCH   5   6
ATOM      6  O   UNL     1       3.258   0.789   1.507  1.00  0.00    -0.460 OA
BRANCH   6   7
ATOM      7  C   UNL     1       2.537   1.357   0.510  1.00  0.00     0.338 C 
ATOM      8  O   UNL     1       1.345   1.593   0.709  1.00  0.00    -0.246 OA
BRANCH   7   9
ATOM      9  C   UNL     1       3.119   1.796  -0.798  1.00  0.00     0.060 A 
ATOM     10  C   UNL     1       4.201   1.205  -1.456  1.00  0.00     0.016 A 
ATOM     11  C   UNL     1       2.477   2.876  -1.429  1.00  0.00     0.016 A 
ATOM     12  C   UNL     1       4.722   1.754  -2.630  1.00  0.00     0.010 A 
ATOM     13  C   UNL     1       2.957   3.395  -2.634  1.00  0.00     0.010 A 
ATOM     14  C   UNL     1       4.118   2.868  -3.209  1.00  0.00    -0.014 A 
BRANCH  14  15
ATOM     15  C   UNL     1       4.767   3.568  -4.339  1.00  0.00     0.031 A 
ATOM     16  C   UNL     1       5.457   4.867  -4.069  1.00  0.00     0.074 A 
ATOM     17  C   UNL     1       4.749   3.048  -5.576  1.00  0.00     0.049 A 
ATOM     18  N   UNL     1       5.992   5.712  -4.908  1.00  0.00    -0.248 NA
ATOM     19  C   UNL     1       5.564   5.264  -2.656  1.00  0.00     0.031 C 
ATOM     20  C   UNL     1       4.191   1.746  -5.918  1.00  0.00     0.029 A 
ATOM     21  N   UNL     1       5.194   3.550  -6.773  1.00  0.00    -0.354 N 
ATOM     22  C   UNL     1       6.479   6.750  -4.130  1.00  0.00     0.074 A 
ATOM     23  C   UNL     1       6.166   6.439  -2.752  1.00  0.00     0.031 C 
ATOM     24  C   UNL     1       4.293   1.567  -7.243  1.00  0.00     0.029 A 
ATOM     25  C   UNL     1       4.874   2.757  -7.848  1.00  0.00     0.049 A 
ATOM     26  H   UNL     1       5.694   4.395  -6.853  1.00  0.00     0.167 HD
ATOM     27  C   UNL     1       7.127   7.865  -4.538  1.00  0.00     0.037 A 
ATOM     28  C   UNL     1       4.997   2.978  -9.171  1.00  0.00     0.037 A 
ATOM     29  C   UNL     1       7.427   8.154  -5.913  1.00  0.00     0.049 A 
ATOM     30  C   UNL     1       5.662   4.253  -9.609  1.00  0.00     0.074 A 
ATOM     31  C   UNL     1       8.066   9.256  -6.448  1.00  0.00     0.029 A 
ATOM     32  N   UNL     1       7.094   7.324  -6.976  1.00  0.00    -0.354 N 
ATOM     33  N   UNL     1       6.137   5.226  -8.867  1.00  0.00    -0.248 NA
ATOM     34  C   UNL     1       5.824   4.465 -11.052  1.00  0.00     0.031 C 
ATOM     35  C   UNL     1       8.084   9.112  -7.840  1.00  0.00     0.029 A 
ATOM     36  C   UNL     1       7.490   7.902  -8.169  1.00  0.00     0.049 A 
ATOM     37  H   UNL     1       6.643   6.453  -6.893  1.00  0.00     0.167 HD
ATOM     38  C   UNL     1       6.686   6.146  -9.746  1.00  0.00     0.074 A 
ATOM     39  C   UNL     1       6.489   5.613 -11.080  1.00  0.00     0.031 C 
ATOM     40  C   UNL     1       7.297   7.326  -9.477  1.00  0.00     0.037 A 
BRANCH  27  41
ATOM     41  C   UNL     1       7.479   8.862  -3.476  1.00  0.00     0.064 A 
ATOM     42  C   UNL     1       8.497   8.621  -2.541  1.00  0.00     0.173 A 
ATOM     43  C   UNL     1       6.739  10.047  -3.353  1.00  0.00     0.173 A 
ATOM     44  F   UNL     1       9.212   7.488  -2.598  1.00  0.00    -0.203 F 
ATOM     45  C   UNL     1       8.732   9.512  -1.496  1.00  0.00     0.198 A 
ATOM     46  C   UNL     1       6.994  10.947  -2.323  1.00  0.00     0.198 A 
ATOM     47  F   UNL     1       5.750  10.319  -4.218  1.00  0.00    -0.203 F 
ATOM     48  F   UNL     1       9.660   9.228  -0.572  1.00  0.00    -0.200 F 
ATOM     49  C   UNL     1       7.981  10.673  -1.388  1.00  0.00     0.200 A 
ATOM     50  F   UNL     1       6.266  12.067  -2.219  1.00  0.00    -0.200 F 
ATOM     51  F   UNL     1       8.194  11.518  -0.370  1.00  0.00    -0.200 F 
ENDBRANCH  27  41
BRANCH  28  52
ATOM     52  C   UNL     1       4.476   1.973 -10.143  1.00  0.00     0.064 A 
ATOM     53  C   UNL     1       5.330   1.269 -11.002  1.00  0.00     0.173 A 
ATOM     54  C   UNL     1       3.108   1.650 -10.194  1.00  0.00     0.173 A 
ATOM     55  F   UNL     1       6.641   1.550 -11.019  1.00  0.00    -0.203 F 
ATOM     56  C   UNL     1       4.847   0.276 -11.855  1.00  0.00     0.198 A 
ATOM     57  C   UNL     1       2.629   0.639 -11.026  1.00  0.00     0.198 A 
ATOM     58  F   UNL     1       2.235   2.292  -9.404  1.00  0.00    -0.203 F 
ATOM     59  F   UNL     1       5.689  -0.372 -12.671  1.00  0.00    -0.200 F 
ATOM     60  C   UNL     1       3.500  -0.049 -11.856  1.00  0.00     0.200 A 
ATOM     61  F   UNL     1       1.328   0.321 -11.009  1.00  0.00    -0.200 F 
ATOM     62  F   UNL     1       3.041  -1.022 -12.655  1.00  0.00    -0.200 F 
ENDBRANCH  28  52
BRANCH  40  63
ATOM     63  C   UNL     1       7.827   8.097 -10.645  1.00  0.00     0.064 A 
ATOM     64  C   UNL     1       6.974   8.823 -11.487  1.00  0.00     0.173 A 
ATOM     65  C   UNL     1       9.208   8.162 -10.881  1.00  0.00     0.173 A 
ATOM     66  F   UNL     1       5.646   8.775 -11.306  1.00  0.00    -0.203 F 
ATOM     67  C   UNL     1       7.486   9.583 -12.533  1.00  0.00     0.198 A 
ATOM     68  C   UNL     1       9.718   8.941 -11.915  1.00  0.00     0.198 A 
ATOM     69  F   UNL     1      10.061   7.486 -10.097  1.00  0.00    -0.203 F 
ATOM     70  F   UNL     1       6.653  10.250 -13.345  1.00  0.00    -0.200 F 
ATOM     71  C   UNL     1       8.857   9.649 -12.741  1.00  0.00     0.200 A 
ATOM     72  F   UNL     1      11.042   9.013 -12.107  1.00  0.00    -0.200 F 
ATOM     73  F   UNL     1       9.348  10.394 -13.740  1.00  0.00    -0.200 F 
ENDBRANCH  40  63
ENDBRANCH  14  15
ENDBRANCH   7   9
ENDBRANCH   6   7
ENDBRANCH   5   6
ENDBRANCH   4   5
ENDBRANCH   3   4
ENDBRANCH   2   3
ENDBRANCH   1   2
BRANCH   1  74
ATOM     74  O   UNL     1       2.715  -4.392  -0.153  1.00  0.00    -0.376 OA
BRANCH  74  75
ATOM     75  C   UNL     1       4.080  -4.389  -0.558  1.00  0.00     0.202 C 
BRANCH  75  76
ATOM     76  C   UNL     1       4.344  -4.342  -2.066  1.00  0.00     0.261 C 
BRANCH  76  77
ATOM     77  O   UNL     1       3.802  -3.188  -2.733  1.00  0.00    -0.460 OA
BRANCH  77  78
ATOM     78  C   UNL     1       2.782  -3.461  -3.574  1.00  0.00     0.340 C 
ATOM     79  O   UNL     1       2.236  -4.551  -3.752  1.00  0.00    -0.246 OA
BRANCH  78  80
ATOM     80  C   UNL     1       2.454  -2.310  -4.418  1.00  0.00     0.083 A 
ATOM     81  C   UNL     1       1.498  -1.389  -3.968  1.00  0.00     0.018 A 
ATOM     82  C   UNL     1       2.946  -2.286  -5.739  1.00  0.00     0.053 A 
ATOM     83  C   UNL     1       0.997  -0.434  -4.850  1.00  0.00     0.001 A 
ATOM     84  C   UNL     1       2.413  -1.326  -6.605  1.00  0.00     0.027 A 
ATOM     85  C   UNL     1       1.437  -0.418  -6.172  1.00  0.00     0.002 A 
BRANCH  82  86
ATOM     86  N   UNL     1       3.947  -3.188  -6.152  1.00  0.00    -0.355 N 
ATOM     87  H   UNL     1       4.104  -3.933  -5.527  1.00  0.00     0.167 HD
BRANCH  86  88
ATOM     88  C   UNL     1       4.760  -3.214  -7.293  1.00  0.00     0.039 A 
ATOM     89  C   UNL     1       4.740  -4.357  -8.098  1.00  0.00     0.026 A 
ATOM     90  C   UNL     1       5.585  -2.144  -7.657  1.00  0.00     0.039 A 
ATOM     91  C   UNL     1       5.530  -4.442  -9.242  1.00  0.00     0.003 A 
ATOM     92  C   UNL     1       6.412  -2.228  -8.793  1.00  0.00     0.058 A 
ATOM     93  C   UNL     1       6.368  -3.385  -9.585  1.00  0.00     0.013 A 
BRANCH  92  94
ATOM     94  C   UNL     1       7.388  -1.128  -9.129  1.00  0.00     0.416 C 
ATOM     95  F   UNL     1       8.618  -1.334  -8.590  1.00  0.00    -0.166 F 
ATOM     96  F   UNL     1       7.583  -0.993 -10.470  1.00  0.00    -0.166 F 
ATOM     97  F   UNL     1       6.978   0.093  -8.690  1.00  0.00    -0.166 F 
ENDBRANCH  92  94
ENDBRANCH  86  88
ENDBRANCH  82  86
ENDBRANCH  78  80
ENDBRANCH  77  78
ENDBRANCH  76  77
ENDBRANCH  75  76
ENDBRANCH  74  75
ENDBRANCH   1  74
TORSDOF 20
