REMARK SMILES O=C(CCCN1C(=O)/C(=C\c2ccc(O)cc2O)SC1=S)OCCOCCOCCOC(=O)c1ccc(-c2c3nc(c(-c4c(F)c(F)c(F)c(F)c4F)c4ccc([nH]4)c(-c4c(F)c(F)c(F)c(F)c4F)c4nc(c(-c5c(F)c(F)c(F)c(F)c5F)c5ccc2[nH]5)C=C4)C=C3)cc1
REMARK SMILES IDX 25 1 24 2 23 3 22 4 2 5 1 6 3 7 4 8 5 9 6 10 7 11 20 12 8 13
REMARK SMILES IDX 9 14 19 15 21 16 10 17 11 18 12 19 17 20 13 21 16 22 14 23
REMARK SMILES IDX 18 24 15 26 26 28 27 29 28 30 29 31 30 32 31 33 32 34 33 35
REMARK SMILES IDX 34 36 35 37 96 38 36 39 95 40 37 41 38 42 39 43 89 44 40 45
REMARK SMILES IDX 94 46 88 47 90 48 41 49 93 50 87 51 86 52 42 54 74 55 54 56
REMARK SMILES IDX 73 57 55 58 58 59 72 60 91 61 56 62 57 63 71 65 92 66 59 67
REMARK SMILES IDX 43 68 44 69 52 70 45 71 46 72 50 73 53 74 47 75 48 76 51 77
REMARK SMILES IDX 49 78 75 79 76 80 84 81 77 82 78 83 82 84 85 85 79 86 80 87
REMARK SMILES IDX 83 88 81 89 60 90 61 91 69 92 62 93 63 94 67 95 70 96 64 97
REMARK SMILES IDX 65 98 68 99 66 100
REMARK H PARENT 18 25 15 27 90 53 58 64
REMARK Flexibility Score: inf
ROOT
ATOM      1  O   UNL     1       3.323   0.601   0.750  1.00  0.00    -0.376 OA
ENDROOT
BRANCH   1   2
ATOM      2  C   UNL     1       3.180   1.746  -0.082  1.00  0.00     0.202 C 
BRANCH   2   3
ATOM      3  C   UNL     1       3.338   1.389  -1.552  1.00  0.00     0.261 C 
BRANCH   3   4
ATOM      4  O   UNL     1       2.396   0.420  -2.037  1.00  0.00    -0.463 OA
BRANCH   4   5
ATOM      5  C   UNL     1       2.207  -0.812  -1.535  1.00  0.00     0.305 C 
ATOM      6  O   UNL     1       1.058  -1.259  -1.509  1.00  0.00    -0.252 OA
BRANCH   5   7
ATOM      7  C   UNL     1       3.349  -1.659  -0.990  1.00  0.00     0.124 C 
BRANCH   7   8
ATOM      8  C   UNL     1       4.630  -1.886  -1.780  1.00  0.00     0.034 C 
BRANCH   8   9
ATOM      9  C   UNL     1       5.867  -0.972  -1.614  1.00  0.00     0.128 C 
BRANCH   9  10
ATOM     10  N   UNL     1       6.278  -0.464  -0.287  1.00  0.00    -0.293 N 
ATOM     11  C   UNL     1       6.536   0.904  -0.137  1.00  0.00     0.266 C 
ATOM     12  C   UNL     1       6.709  -1.260   0.756  1.00  0.00     0.148 C 
ATOM     13  O   UNL     1       6.421   1.752  -1.011  1.00  0.00    -0.268 OA
ATOM     14  C   UNL     1       7.075   1.218   1.223  1.00  0.00     0.081 C 
ATOM     15  S   UNL     1       7.396  -0.268   2.042  1.00  0.00    -0.054 SA
ATOM     16  S   UNL     1       6.680  -2.922   0.885  1.00  0.00    -0.052 S 
ATOM     17  C   UNL     1       7.260   2.408   1.829  1.00  0.00     0.033 C 
BRANCH  17  18
ATOM     18  C   UNL     1       6.866   3.749   1.353  1.00  0.00     0.018 A 
ATOM     19  C   UNL     1       5.615   4.261   1.739  1.00  0.00     0.016 A 
ATOM     20  C   UNL     1       7.693   4.578   0.588  1.00  0.00     0.126 A 
ATOM     21  C   UNL     1       5.156   5.503   1.293  1.00  0.00     0.047 A 
ATOM     22  C   UNL     1       7.242   5.821   0.132  1.00  0.00     0.092 A 
ATOM     23  C   UNL     1       5.968   6.263   0.468  1.00  0.00     0.119 A 
BRANCH  20  24
ATOM     24  O   UNL     1       8.986   4.252   0.284  1.00  0.00    -0.507 OA
ATOM     25  H   UNL     1       9.340   3.431   0.565  1.00  0.00     0.293 HD
ENDBRANCH  20  24
BRANCH  23  26
ATOM     26  O   UNL     1       5.545   7.463  -0.018  1.00  0.00    -0.508 OA
ATOM     27  H   UNL     1       4.689   7.780   0.196  1.00  0.00     0.293 HD
ENDBRANCH  23  26
ENDBRANCH  17  18
ENDBRANCH   9  10
ENDBRANCH   8   9
ENDBRANCH   7   8
ENDBRANCH   5   7
ENDBRANCH   4   5
ENDBRANCH   3   4
ENDBRANCH   2   3
ENDBRANCH   1   2
BRANCH   1  28
ATOM     28  C   UNL     1       2.175   0.323   1.561  1.00  0.00     0.188 C 
BRANCH  28  29
ATOM     29  C   UNL     1       1.838   1.462   2.524  1.00  0.00     0.188 C 
BRANCH  29  30
ATOM     30  O   UNL     1       2.960   2.187   3.026  1.00  0.00    -0.376 OA
BRANCH  30  31
ATOM     31  C   UNL     1       4.088   1.410   3.420  1.00  0.00     0.202 C 
BRANCH  31  32
ATOM     32  C   UNL     1       4.475   1.702   4.866  1.00  0.00     0.261 C 
BRANCH  32  33
ATOM     33  O   UNL     1       4.107   0.554   5.642  1.00  0.00    -0.460 OA
BRANCH  33  34
ATOM     34  C   UNL     1       2.768   0.400   5.744  1.00  0.00     0.338 C 
ATOM     35  O   UNL     1       1.928   1.285   5.764  1.00  0.00    -0.246 OA
BRANCH  34  36
ATOM     36  C   UNL     1       2.440  -1.030   5.582  1.00  0.00     0.060 A 
ATOM     37  C   UNL     1       1.204  -1.355   5.005  1.00  0.00     0.016 A 
ATOM     38  C   UNL     1       3.311  -2.035   6.014  1.00  0.00     0.016 A 
ATOM     39  C   UNL     1       0.779  -2.675   4.974  1.00  0.00     0.010 A 
ATOM     40  C   UNL     1       2.881  -3.359   5.998  1.00  0.00     0.010 A 
ATOM     41  C   UNL     1       1.583  -3.659   5.557  1.00  0.00    -0.014 A 
BRANCH  41  42
ATOM     42  C   UNL     1       0.938  -4.903   6.017  1.00  0.00     0.031 A 
ATOM     43  C   UNL     1       0.455  -4.942   7.441  1.00  0.00     0.074 A 
ATOM     44  C   UNL     1       0.752  -5.935   5.184  1.00  0.00     0.049 A 
ATOM     45  N   UNL     1      -0.113  -5.914   8.105  1.00  0.00    -0.248 NA
ATOM     46  C   UNL     1       0.647  -3.711   8.229  1.00  0.00     0.031 C 
ATOM     47  C   UNL     1       1.131  -5.960   3.774  1.00  0.00     0.029 A 
ATOM     48  N   UNL     1       0.195  -7.163   5.414  1.00  0.00    -0.354 N 
ATOM     49  C   UNL     1      -0.327  -5.417   9.385  1.00  0.00     0.074 A 
ATOM     50  C   UNL     1       0.199  -4.073   9.419  1.00  0.00     0.031 C 
ATOM     51  C   UNL     1       0.798  -7.157   3.260  1.00  0.00     0.029 A 
ATOM     52  C   UNL     1       0.217  -7.984   4.317  1.00  0.00     0.049 A 
ATOM     53  H   UNL     1      -0.184  -7.430   6.282  1.00  0.00     0.167 HD
ATOM     54  C   UNL     1      -0.918  -6.030  10.436  1.00  0.00     0.037 A 
ATOM     55  C   UNL     1      -0.177  -9.265   4.201  1.00  0.00     0.037 A 
ATOM     56  C   UNL     1      -1.432  -7.372  10.379  1.00  0.00     0.049 A 
ATOM     57  C   UNL     1      -0.768  -9.952   5.404  1.00  0.00     0.074 A 
ATOM     58  C   UNL     1      -2.061  -8.101  11.371  1.00  0.00     0.029 A 
ATOM     59  N   UNL     1      -1.361  -8.191   9.259  1.00  0.00    -0.354 N 
ATOM     60  N   UNL     1      -0.985  -9.479   6.609  1.00  0.00    -0.248 NA
ATOM     61  C   UNL     1      -1.177 -11.350   5.227  1.00  0.00     0.031 C 
ATOM     62  C   UNL     1      -2.311  -9.383  10.871  1.00  0.00     0.029 A 
ATOM     63  C   UNL     1      -1.910  -9.429   9.544  1.00  0.00     0.049 A 
ATOM     64  H   UNL     1      -0.978  -7.929   8.391  1.00  0.00     0.167 HD
ATOM     65  C   UNL     1      -1.595 -10.504   7.321  1.00  0.00     0.074 A 
ATOM     66  C   UNL     1      -1.716 -11.623   6.406  1.00  0.00     0.031 C 
ATOM     67  C   UNL     1      -2.026 -10.521   8.608  1.00  0.00     0.037 A 
BRANCH  54  68
ATOM     68  C   UNL     1      -0.982  -5.273  11.733  1.00  0.00     0.064 A 
ATOM     69  C   UNL     1      -1.771  -4.122  11.890  1.00  0.00     0.173 A 
ATOM     70  C   UNL     1      -0.223  -5.699  12.834  1.00  0.00     0.173 A 
ATOM     71  F   UNL     1      -2.500  -3.657  10.864  1.00  0.00    -0.203 F 
ATOM     72  C   UNL     1      -1.765  -3.405  13.085  1.00  0.00     0.198 A 
ATOM     73  C   UNL     1      -0.248  -5.001  14.039  1.00  0.00     0.198 A 
ATOM     74  F   UNL     1       0.552  -6.789  12.741  1.00  0.00    -0.203 F 
ATOM     75  F   UNL     1      -2.471  -2.270  13.187  1.00  0.00    -0.200 F 
ATOM     76  C   UNL     1      -1.009  -3.848  14.159  1.00  0.00     0.200 A 
ATOM     77  F   UNL     1       0.475  -5.437  15.079  1.00  0.00    -0.200 F 
ATOM     78  F   UNL     1      -1.003  -3.157  15.307  1.00  0.00    -0.200 F 
ENDBRANCH  54  68
BRANCH  55  79
ATOM     79  C   UNL     1      -0.041  -9.963   2.898  1.00  0.00     0.064 A 
ATOM     80  C   UNL     1      -1.173 -10.328   2.155  1.00  0.00     0.173 A 
ATOM     81  C   UNL     1       1.218 -10.272   2.362  1.00  0.00     0.173 A 
ATOM     82  F   UNL     1      -2.399 -10.071   2.635  1.00  0.00    -0.203 F 
ATOM     83  C   UNL     1      -1.051 -10.990   0.935  1.00  0.00     0.198 A 
ATOM     84  C   UNL     1       1.339 -10.908   1.128  1.00  0.00     0.198 A 
ATOM     85  F   UNL     1       2.332  -9.943   3.031  1.00  0.00    -0.203 F 
ATOM     86  F   UNL     1      -2.150 -11.365   0.267  1.00  0.00    -0.200 F 
ATOM     87  C   UNL     1       0.205 -11.272   0.419  1.00  0.00     0.200 A 
ATOM     88  F   UNL     1       2.555 -11.165   0.626  1.00  0.00    -0.200 F 
ATOM     89  F   UNL     1       0.322 -11.902  -0.757  1.00  0.00    -0.200 F 
ENDBRANCH  55  79
BRANCH  67  90
ATOM     90  C   UNL     1      -2.727 -11.763   9.081  1.00  0.00     0.064 A 
ATOM     91  C   UNL     1      -2.048 -12.975   9.269  1.00  0.00     0.173 A 
ATOM     92  C   UNL     1      -4.098 -11.725   9.379  1.00  0.00     0.173 A 
ATOM     93  F   UNL     1      -0.739 -13.068   8.990  1.00  0.00    -0.203 F 
ATOM     94  C   UNL     1      -2.725 -14.114   9.699  1.00  0.00     0.198 A 
ATOM     95  C   UNL     1      -4.763 -12.854   9.846  1.00  0.00     0.198 A 
ATOM     96  F   UNL     1      -4.793 -10.587   9.228  1.00  0.00    -0.203 F 
ATOM     97  F   UNL     1      -2.070 -15.278   9.810  1.00  0.00    -0.200 F 
ATOM     98  C   UNL     1      -4.079 -14.050   9.994  1.00  0.00     0.200 A 
ATOM     99  F   UNL     1      -6.066 -12.784  10.150  1.00  0.00    -0.200 F 
ATOM    100  F   UNL     1      -4.727 -15.146  10.413  1.00  0.00    -0.200 F 
ENDBRANCH  67  90
ENDBRANCH  41  42
ENDBRANCH  34  36
ENDBRANCH  33  34
ENDBRANCH  32  33
ENDBRANCH  31  32
ENDBRANCH  30  31
ENDBRANCH  29  30
ENDBRANCH  28  29
ENDBRANCH   1  28
TORSDOF 23
