REMARK SMILES Cc1cccc2nc(C(=O)NCC(=O)OCCOCCOCCOCCOC(=O)c3ccc(-c4c5nc(c(-c6c(F)c(F)c(F)c(F)c6F)c6ccc([nH]6)c(-c6c(F)c(F)c(F)c(F)c6F)c6nc(c(-c7c(F)c(F)c(F)c(F)c7F)c7ccc4[nH]7)C=C6)C=C5)cc3)cn12
REMARK SMILES IDX 21 1 20 2 19 3 18 4 17 5 16 6 15 7 13 8 14 9 12 10 11 11
REMARK SMILES IDX 9 12 10 13 8 15 1 16 2 17 3 18 94 19 4 20 6 21 93 22 5 23
REMARK SMILES IDX 7 24 22 25 23 26 24 27 25 28 26 29 27 30 28 31 29 32 30 33
REMARK SMILES IDX 31 34 92 35 32 36 91 37 33 38 34 39 35 40 85 41 36 42 90 43
REMARK SMILES IDX 84 44 86 45 37 46 89 47 83 48 82 49 38 51 70 52 50 53 69 54
REMARK SMILES IDX 51 55 54 56 68 57 87 58 52 59 53 60 67 62 88 63 55 64 39 65
REMARK SMILES IDX 40 66 48 67 41 68 42 69 46 70 49 71 43 72 44 73 47 74 45 75
REMARK SMILES IDX 71 76 72 77 80 78 73 79 74 80 78 81 81 82 75 83 76 84 79 85
REMARK SMILES IDX 77 86 56 87 57 88 65 89 58 90 59 91 63 92 66 93 60 94 61 95
REMARK SMILES IDX 64 96 62 97
REMARK H PARENT 11 14 86 50 54 61
REMARK Flexibility Score: inf
ROOT
ATOM      1  O   UNL     1       1.208   6.413   6.546  1.00  0.00    -0.377 OA
ENDROOT
BRANCH   1   2
ATOM      2  C   UNL     1      -0.205   6.470   6.526  1.00  0.00     0.188 C 
BRANCH   2   3
ATOM      3  C   UNL     1      -0.927   5.988   7.805  1.00  0.00     0.188 C 
BRANCH   3   4
ATOM      4  O   UNL     1      -0.193   5.570   8.950  1.00  0.00    -0.376 OA
BRANCH   4   5
ATOM      5  C   UNL     1       1.027   4.863   8.777  1.00  0.00     0.202 C 
BRANCH   5   6
ATOM      6  C   UNL     1       1.034   3.583   7.921  1.00  0.00     0.261 C 
BRANCH   6   7
ATOM      7  O   UNL     1       0.266   3.656   6.703  1.00  0.00    -0.462 OA
BRANCH   7   8
ATOM      8  C   UNL     1      -0.815   2.831   6.613  1.00  0.00     0.325 C 
ATOM      9  O   UNL     1      -1.113   1.987   7.454  1.00  0.00    -0.250 OA
BRANCH   8  10
ATOM     10  C   UNL     1      -1.772   3.208   5.465  1.00  0.00     0.239 C 
BRANCH  10  11
ATOM     11  N   UNL     1      -1.329   4.080   4.378  1.00  0.00    -0.340 N 
ATOM     12  C   UNL     1      -0.597   3.769   3.262  1.00  0.00     0.272 C 
ATOM     13  O   UNL     1      -0.378   4.653   2.433  1.00  0.00    -0.267 OA
ATOM     14  H   UNL     1      -1.595   5.024   4.459  1.00  0.00     0.164 HD
BRANCH  12  15
ATOM     15  C   UNL     1      -0.185   2.385   3.062  1.00  0.00     0.147 A 
ATOM     16  C   UNL     1       1.037  -0.223  -0.234  1.00  0.00     0.065 C 
ATOM     17  C   UNL     1       0.642  -0.548   1.173  1.00  0.00     0.021 A 
ATOM     18  C   UNL     1       0.529  -1.818   1.618  1.00  0.00     0.022 A 
ATOM     19  N   UNL     1       0.347   0.490   2.073  1.00  0.00    -0.304 N 
ATOM     20  C   UNL     1       0.132  -2.074   2.994  1.00  0.00     0.006 A 
ATOM     21  C   UNL     1      -0.035   0.272   3.394  1.00  0.00     0.137 A 
ATOM     22  C   UNL     1       0.303   1.850   1.884  1.00  0.00     0.127 A 
ATOM     23  C   UNL     1      -0.127  -1.068   3.848  1.00  0.00     0.048 A 
ATOM     24  N   UNL     1      -0.312   1.395   4.011  1.00  0.00    -0.223 NA
ENDBRANCH  12  15
ENDBRANCH  10  11
ENDBRANCH   8  10
ENDBRANCH   7   8
ENDBRANCH   6   7
ENDBRANCH   5   6
ENDBRANCH   4   5
ENDBRANCH   3   4
ENDBRANCH   2   3
ENDBRANCH   1   2
BRANCH   1  25
ATOM     25  C   UNL     1       1.866   7.658   6.736  1.00  0.00     0.188 C 
BRANCH  25  26
ATOM     26  C   UNL     1       1.383   8.502   7.932  1.00  0.00     0.188 C 
BRANCH  26  27
ATOM     27  O   UNL     1      -0.031   8.688   7.984  1.00  0.00    -0.376 OA
BRANCH  27  28
ATOM     28  C   UNL     1      -0.591   9.918   7.551  1.00  0.00     0.202 C 
BRANCH  28  29
ATOM     29  C   UNL     1      -0.653  10.130   6.036  1.00  0.00     0.261 C 
BRANCH  29  30
ATOM     30  O   UNL     1       0.594  10.064   5.354  1.00  0.00    -0.460 OA
BRANCH  30  31
ATOM     31  C   UNL     1       1.533  10.919   5.777  1.00  0.00     0.338 C 
ATOM     32  O   UNL     1       1.516  11.606   6.798  1.00  0.00    -0.246 OA
BRANCH  31  33
ATOM     33  C   UNL     1       2.573  11.053   4.768  1.00  0.00     0.060 A 
ATOM     34  C   UNL     1       3.717  11.745   5.163  1.00  0.00     0.016 A 
ATOM     35  C   UNL     1       2.279  10.793   3.420  1.00  0.00     0.016 A 
ATOM     36  C   UNL     1       4.456  12.367   4.190  1.00  0.00     0.010 A 
ATOM     37  C   UNL     1       3.026  11.418   2.445  1.00  0.00     0.010 A 
ATOM     38  C   UNL     1       4.053  12.261   2.850  1.00  0.00    -0.014 A 
BRANCH  38  39
ATOM     39  C   UNL     1       4.824  13.025   1.897  1.00  0.00     0.031 A 
ATOM     40  C   UNL     1       6.193  12.516   1.734  1.00  0.00     0.074 A 
ATOM     41  C   UNL     1       4.380  14.136   1.284  1.00  0.00     0.049 A 
ATOM     42  N   UNL     1       7.264  13.038   2.226  1.00  0.00    -0.248 NA
ATOM     43  C   UNL     1       6.380  11.207   1.101  1.00  0.00     0.031 C 
ATOM     44  C   UNL     1       3.003  14.617   1.173  1.00  0.00     0.029 A 
ATOM     45  N   UNL     1       5.098  15.046   0.565  1.00  0.00    -0.354 N 
ATOM     46  C   UNL     1       8.300  12.225   1.798  1.00  0.00     0.074 A 
ATOM     47  C   UNL     1       7.697  11.040   1.243  1.00  0.00     0.031 C 
ATOM     48  C   UNL     1       2.959  15.616   0.261  1.00  0.00     0.029 A 
ATOM     49  C   UNL     1       4.317  15.937  -0.151  1.00  0.00     0.049 A 
ATOM     50  H   UNL     1       6.082  15.068   0.557  1.00  0.00     0.167 HD
ATOM     51  C   UNL     1       9.551  12.738   1.682  1.00  0.00     0.037 A 
ATOM     52  C   UNL     1       4.764  16.845  -1.049  1.00  0.00     0.037 A 
ATOM     53  C   UNL     1       9.684  13.974   2.408  1.00  0.00     0.049 A 
ATOM     54  C   UNL     1       6.166  17.176  -0.698  1.00  0.00     0.074 A 
ATOM     55  C   UNL     1       9.776  14.354   3.728  1.00  0.00     0.029 A 
ATOM     56  N   UNL     1       9.364  15.091   1.683  1.00  0.00    -0.354 N 
ATOM     57  N   UNL     1       6.509  17.832   0.376  1.00  0.00    -0.248 NA
ATOM     58  C   UNL     1       7.263  16.520  -1.404  1.00  0.00     0.031 C 
ATOM     59  C   UNL     1       9.312  15.702   3.787  1.00  0.00     0.029 A 
ATOM     60  C   UNL     1       8.958  16.108   2.501  1.00  0.00     0.049 A 
ATOM     61  H   UNL     1       9.420  15.153   0.702  1.00  0.00     0.167 HD
ATOM     62  C   UNL     1       7.749  17.323   0.706  1.00  0.00     0.074 A 
ATOM     63  C   UNL     1       8.237  16.682  -0.505  1.00  0.00     0.031 C 
ATOM     64  C   UNL     1       8.117  17.178   2.010  1.00  0.00     0.037 A 
BRANCH  51  65
ATOM     65  C   UNL     1      10.466  12.426   0.524  1.00  0.00     0.064 A 
ATOM     66  C   UNL     1      11.786  12.915   0.555  1.00  0.00     0.173 A 
ATOM     67  C   UNL     1      10.002  11.991  -0.736  1.00  0.00     0.173 A 
ATOM     68  F   UNL     1      12.312  13.387   1.696  1.00  0.00    -0.203 F 
ATOM     69  C   UNL     1      12.556  13.026  -0.605  1.00  0.00     0.198 A 
ATOM     70  C   UNL     1      10.791  12.053  -1.881  1.00  0.00     0.198 A 
ATOM     71  F   UNL     1       8.734  11.613  -0.938  1.00  0.00    -0.203 F 
ATOM     72  F   UNL     1      13.757  13.617  -0.554  1.00  0.00    -0.200 F 
ATOM     73  C   UNL     1      12.056  12.598  -1.822  1.00  0.00     0.200 A 
ATOM     74  F   UNL     1      10.277  11.663  -3.056  1.00  0.00    -0.200 F 
ATOM     75  F   UNL     1      12.766  12.761  -2.946  1.00  0.00    -0.200 F 
ENDBRANCH  51  65
BRANCH  52  76
ATOM     76  C   UNL     1       4.134  17.284  -2.314  1.00  0.00     0.064 A 
ATOM     77  C   UNL     1       4.617  18.408  -3.005  1.00  0.00     0.173 A 
ATOM     78  C   UNL     1       3.247  16.448  -3.019  1.00  0.00     0.173 A 
ATOM     79  F   UNL     1       5.493  19.237  -2.420  1.00  0.00    -0.203 F 
ATOM     80  C   UNL     1       4.271  18.654  -4.337  1.00  0.00     0.198 A 
ATOM     81  C   UNL     1       2.894  16.701  -4.345  1.00  0.00     0.198 A 
ATOM     82  F   UNL     1       2.782  15.317  -2.471  1.00  0.00    -0.203 F 
ATOM     83  F   UNL     1       4.815  19.692  -4.986  1.00  0.00    -0.200 F 
ATOM     84  C   UNL     1       3.421  17.792  -5.010  1.00  0.00     0.200 A 
ATOM     85  F   UNL     1       2.096  15.841  -4.995  1.00  0.00    -0.200 F 
ATOM     86  F   UNL     1       3.146  17.988  -6.306  1.00  0.00    -0.200 F 
ENDBRANCH  52  76
BRANCH  64  87
ATOM     87  C   UNL     1       7.453  18.058   3.020  1.00  0.00     0.064 A 
ATOM     88  C   UNL     1       6.099  17.976   3.376  1.00  0.00     0.173 A 
ATOM     89  C   UNL     1       8.265  18.951   3.735  1.00  0.00     0.173 A 
ATOM     90  F   UNL     1       5.281  17.094   2.784  1.00  0.00    -0.203 F 
ATOM     91  C   UNL     1       5.579  18.776   4.392  1.00  0.00     0.198 A 
ATOM     92  C   UNL     1       7.751  19.719   4.772  1.00  0.00     0.198 A 
ATOM     93  F   UNL     1       9.575  19.040   3.455  1.00  0.00    -0.203 F 
ATOM     94  F   UNL     1       4.279  18.692   4.715  1.00  0.00    -0.200 F 
ATOM     95  C   UNL     1       6.407  19.637   5.097  1.00  0.00     0.200 A 
ATOM     96  F   UNL     1       8.565  20.518   5.476  1.00  0.00    -0.200 F 
ATOM     97  F   UNL     1       5.915  20.371   6.105  1.00  0.00    -0.200 F 
ENDBRANCH  64  87
ENDBRANCH  38  39
ENDBRANCH  31  33
ENDBRANCH  30  31
ENDBRANCH  29  30
ENDBRANCH  28  29
ENDBRANCH  27  28
ENDBRANCH  26  27
ENDBRANCH  25  26
ENDBRANCH   1  25
TORSDOF 22
