REMARK SMILES O=C(OCCOCCOCCOCCOC(=O)c1sccc1NS(=O)(=O)N1CCCC1)c1ccc(-c2c3nc(c(-c4c(F)c(F)c(F)c(F)c4F)c4ccc([nH]4)c(-c4c(F)c(F)c(F)c(F)c4F)c4nc(c(-c5c(F)c(F)c(F)c(F)c5F)c5ccc2[nH]5)C=C4)C=C3)cc1
REMARK SMILES IDX 10 1 9 2 8 3 7 4 6 5 5 6 4 7 3 8 2 9 1 10 32 11 33 12 94 13
REMARK SMILES IDX 34 14 93 15 35 16 36 17 37 18 87 19 38 20 92 21 86 22 88 23
REMARK SMILES IDX 39 24 91 25 85 26 84 27 40 29 72 30 52 31 71 32 53 33 56 34
REMARK SMILES IDX 70 35 89 36 54 37 55 38 69 40 90 41 57 42 41 43 42 44 50 45
REMARK SMILES IDX 43 46 44 47 48 48 51 49 45 50 46 51 49 52 47 53 73 54 74 55
REMARK SMILES IDX 82 56 75 57 76 58 80 59 83 60 77 61 78 62 81 63 79 64 58 65
REMARK SMILES IDX 59 66 67 67 60 68 61 69 65 70 68 71 62 72 63 73 66 74 64 75
REMARK SMILES IDX 11 76 12 77 13 78 14 79 15 80 16 81 17 82 18 83 19 84 22 85
REMARK SMILES IDX 20 86 21 87 23 88 24 90 25 91 26 92 27 93 28 94 31 95 29 96
REMARK SMILES IDX 30 97
REMARK H PARENT 88 28 56 39 23 89
REMARK Flexibility Score: inf
ROOT
ATOM      1  C   UNL     1       4.196  -2.607   3.034  1.00  0.00     0.188 C 
ENDROOT
BRANCH   1   2
ATOM      2  O   UNL     1       2.785  -2.545   3.204  1.00  0.00    -0.377 OA
BRANCH   2   3
ATOM      3  C   UNL     1       2.000  -2.083   2.110  1.00  0.00     0.188 C 
BRANCH   3   4
ATOM      4  C   UNL     1       2.377  -0.734   1.490  1.00  0.00     0.188 C 
BRANCH   4   5
ATOM      5  O   UNL     1       3.756  -0.654   1.125  1.00  0.00    -0.376 OA
BRANCH   5   6
ATOM      6  C   UNL     1       4.423   0.522   1.590  1.00  0.00     0.202 C 
BRANCH   6   7
ATOM      7  C   UNL     1       4.308   1.711   0.634  1.00  0.00     0.261 C 
BRANCH   7   8
ATOM      8  O   UNL     1       2.961   1.884   0.169  1.00  0.00    -0.460 OA
BRANCH   8   9
ATOM      9  C   UNL     1       2.401   1.427  -0.977  1.00  0.00     0.338 C 
ATOM     10  O   UNL     1       1.227   1.722  -1.201  1.00  0.00    -0.246 OA
BRANCH   9  11
ATOM     11  C   UNL     1       3.114   0.598  -2.006  1.00  0.00     0.060 A 
ATOM     12  C   UNL     1       4.253  -0.183  -1.792  1.00  0.00     0.016 A 
ATOM     13  C   UNL     1       2.534   0.562  -3.288  1.00  0.00     0.016 A 
ATOM     14  C   UNL     1       4.840  -0.918  -2.817  1.00  0.00     0.010 A 
ATOM     15  C   UNL     1       3.102  -0.191  -4.321  1.00  0.00     0.010 A 
ATOM     16  C   UNL     1       4.278  -0.910  -4.089  1.00  0.00    -0.014 A 
BRANCH  16  17
ATOM     17  C   UNL     1       5.026  -1.531  -5.195  1.00  0.00     0.031 A 
ATOM     18  C   UNL     1       5.827  -0.635  -6.088  1.00  0.00     0.074 A 
ATOM     19  C   UNL     1       5.057  -2.868  -5.327  1.00  0.00     0.049 A 
ATOM     20  N   UNL     1       6.502  -0.923  -7.167  1.00  0.00    -0.248 NA
ATOM     21  C   UNL     1       5.885   0.786  -5.700  1.00  0.00     0.031 C 
ATOM     22  C   UNL     1       4.404  -3.819  -4.427  1.00  0.00     0.029 A 
ATOM     23  N   UNL     1       5.672  -3.657  -6.263  1.00  0.00    -0.354 N 
ATOM     24  C   UNL     1       7.036   0.281  -7.603  1.00  0.00     0.074 A 
ATOM     25  C   UNL     1       6.617   1.304  -6.673  1.00  0.00     0.031 C 
ATOM     26  C   UNL     1       4.649  -5.067  -4.860  1.00  0.00     0.029 A 
ATOM     27  C   UNL     1       5.423  -4.997  -6.096  1.00  0.00     0.049 A 
ATOM     28  H   UNL     1       6.237  -3.298  -6.984  1.00  0.00     0.167 HD
ATOM     29  C   UNL     1       7.800   0.504  -8.697  1.00  0.00     0.037 A 
ATOM     30  C   UNL     1       5.752  -6.035  -6.888  1.00  0.00     0.037 A 
ATOM     31  C   UNL     1       8.201  -0.535  -9.603  1.00  0.00     0.049 A 
ATOM     32  C   UNL     1       6.523  -5.747  -8.151  1.00  0.00     0.074 A 
ATOM     33  C   UNL     1       8.941  -0.435 -10.765  1.00  0.00     0.029 A 
ATOM     34  N   UNL     1       7.883  -1.877  -9.439  1.00  0.00    -0.354 N 
ATOM     35  N   UNL     1       6.993  -4.603  -8.590  1.00  0.00    -0.248 NA
ATOM     36  C   UNL     1       6.792  -6.886  -9.039  1.00  0.00     0.031 C 
ATOM     37  C   UNL     1       9.032  -1.712 -11.329  1.00  0.00     0.029 A 
ATOM     38  C   UNL     1       8.387  -2.614 -10.495  1.00  0.00     0.049 A 
ATOM     39  H   UNL     1       7.373  -2.249  -8.683  1.00  0.00     0.167 HD
ATOM     40  C   UNL     1       7.619  -4.882  -9.796  1.00  0.00     0.074 A 
ATOM     41  C   UNL     1       7.489  -6.310 -10.009  1.00  0.00     0.031 C 
ATOM     42  C   UNL     1       8.238  -4.038 -10.659  1.00  0.00     0.037 A 
BRANCH  29  43
ATOM     43  C   UNL     1       8.170   1.925  -8.995  1.00  0.00     0.064 A 
ATOM     44  C   UNL     1       9.120   2.623  -8.234  1.00  0.00     0.173 A 
ATOM     45  C   UNL     1       7.536   2.609 -10.043  1.00  0.00     0.173 A 
ATOM     46  F   UNL     1       9.731   2.023  -7.202  1.00  0.00    -0.203 F 
ATOM     47  C   UNL     1       9.401   3.962  -8.496  1.00  0.00     0.198 A 
ATOM     48  C   UNL     1       7.836   3.940 -10.316  1.00  0.00     0.198 A 
ATOM     49  F   UNL     1       6.613   1.989 -10.793  1.00  0.00    -0.203 F 
ATOM     50  F   UNL     1      10.270   4.626  -7.721  1.00  0.00    -0.200 F 
ATOM     51  C   UNL     1       8.762   4.618  -9.538  1.00  0.00     0.200 A 
ATOM     52  F   UNL     1       7.218   4.571 -11.324  1.00  0.00    -0.200 F 
ATOM     53  F   UNL     1       9.027   5.909  -9.782  1.00  0.00    -0.200 F 
ENDBRANCH  29  43
BRANCH  30  54
ATOM     54  C   UNL     1       5.303  -7.413  -6.550  1.00  0.00     0.064 A 
ATOM     55  C   UNL     1       6.221  -8.427  -6.245  1.00  0.00     0.173 A 
ATOM     56  C   UNL     1       3.939  -7.751  -6.545  1.00  0.00     0.173 A 
ATOM     57  F   UNL     1       7.536  -8.166  -6.261  1.00  0.00    -0.203 F 
ATOM     58  C   UNL     1       5.795  -9.726  -5.965  1.00  0.00     0.198 A 
ATOM     59  C   UNL     1       3.514  -9.041  -6.235  1.00  0.00     0.198 A 
ATOM     60  F   UNL     1       3.016  -6.823  -6.836  1.00  0.00    -0.203 F 
ATOM     61  F   UNL     1       6.698 -10.687  -5.725  1.00  0.00    -0.200 F 
ATOM     62  C   UNL     1       4.442 -10.030  -5.954  1.00  0.00     0.200 A 
ATOM     63  F   UNL     1       2.204  -9.325  -6.214  1.00  0.00    -0.200 F 
ATOM     64  F   UNL     1       4.034 -11.277  -5.683  1.00  0.00    -0.200 F 
ENDBRANCH  30  54
BRANCH  42  65
ATOM     65  C   UNL     1       8.830  -4.643 -11.895  1.00  0.00     0.064 A 
ATOM     66  C   UNL     1       8.021  -5.046 -12.967  1.00  0.00     0.173 A 
ATOM     67  C   UNL     1      10.221  -4.750 -12.035  1.00  0.00     0.173 A 
ATOM     68  F   UNL     1       6.685  -4.975 -12.869  1.00  0.00    -0.203 F 
ATOM     69  C   UNL     1       8.587  -5.547 -14.135  1.00  0.00     0.198 A 
ATOM     70  C   UNL     1      10.783  -5.227 -13.215  1.00  0.00     0.198 A 
ATOM     71  F   UNL     1      11.033  -4.369 -11.038  1.00  0.00    -0.203 F 
ATOM     72  F   UNL     1       7.797  -5.957 -15.137  1.00  0.00    -0.200 F 
ATOM     73  C   UNL     1       9.966  -5.628 -14.261  1.00  0.00     0.200 A 
ATOM     74  F   UNL     1      12.116  -5.291 -13.341  1.00  0.00    -0.200 F 
ATOM     75  F   UNL     1      10.509  -6.095 -15.394  1.00  0.00    -0.200 F 
ENDBRANCH  42  65
ENDBRANCH  16  17
ENDBRANCH   9  11
ENDBRANCH   8   9
ENDBRANCH   7   8
ENDBRANCH   6   7
ENDBRANCH   5   6
ENDBRANCH   4   5
ENDBRANCH   3   4
ENDBRANCH   2   3
ENDBRANCH   1   2
BRANCH   1  76
ATOM     76  C   UNL     1       4.801  -3.321   1.805  1.00  0.00     0.188 C 
BRANCH  76  77
ATOM     77  O   UNL     1       3.864  -3.896   0.903  1.00  0.00    -0.376 OA
BRANCH  77  78
ATOM     78  C   UNL     1       3.822  -5.320   0.884  1.00  0.00     0.202 C 
BRANCH  78  79
ATOM     79  C   UNL     1       3.021  -5.925   2.046  1.00  0.00     0.261 C 
BRANCH  79  80
ATOM     80  O   UNL     1       3.588  -5.677   3.345  1.00  0.00    -0.459 OA
BRANCH  80  81
ATOM     81  C   UNL     1       4.820  -6.213   3.586  1.00  0.00     0.350 C 
ATOM     82  O   UNL     1       5.380  -7.000   2.831  1.00  0.00    -0.245 OA
BRANCH  81  83
ATOM     83  C   UNL     1       5.391  -5.573   4.753  1.00  0.00     0.136 A 
ATOM     84  S   UNL     1       7.097  -5.373   4.807  1.00  0.00    -0.135 S 
ATOM     85  C   UNL     1       4.773  -5.002   5.856  1.00  0.00     0.075 A 
ATOM     86  C   UNL     1       7.010  -4.436   6.227  1.00  0.00     0.068 A 
ATOM     87  C   UNL     1       5.723  -4.351   6.703  1.00  0.00     0.039 A 
BRANCH  85  88
ATOM     88  N   UNL     1       3.381  -4.950   6.101  1.00  0.00    -0.269 N 
ATOM     89  H   UNL     1       2.794  -4.426   5.510  1.00  0.00     0.181 HD
BRANCH  88  90
ATOM     90  S   UNL     1       2.733  -5.790   7.411  1.00  0.00     0.301 S 
ATOM     91  O   UNL     1       1.296  -5.672   7.328  1.00  0.00    -0.189 OA
ATOM     92  O   UNL     1       3.365  -7.088   7.469  1.00  0.00    -0.189 OA
BRANCH  90  93
ATOM     93  N   UNL     1       3.267  -4.869   8.724  1.00  0.00    -0.185 NA
ATOM     94  C   UNL     1       3.022  -5.502  10.050  1.00  0.00     0.104 C 
ATOM     95  C   UNL     1       2.754  -3.468   8.790  1.00  0.00     0.104 C 
ATOM     96  C   UNL     1       1.943  -4.649  10.691  1.00  0.00     0.018 C 
ATOM     97  C   UNL     1       2.324  -3.257  10.236  1.00  0.00     0.018 C 
ENDBRANCH  90  93
ENDBRANCH  88  90
ENDBRANCH  85  88
ENDBRANCH  81  83
ENDBRANCH  80  81
ENDBRANCH  79  80
ENDBRANCH  78  79
ENDBRANCH  77  78
ENDBRANCH  76  77
ENDBRANCH   1  76
TORSDOF 23
