REMARK SMILES Cc1nn(Cc2ccc(Cl)cc2Cl)c(C)c1NC(=O)c1c(C(=O)OCCOCCOCCOCCOC(=O)c2ccc(-c3c4nc(c(-c5c(F)c(F)c(F)c(F)c5F)c5ccc([nH]5)c(-c5c(F)c(F)c(F)c(F)c5F)c5nc(c(-c6c(F)c(F)c(F)c(F)c6F)c6ccc3[nH]6)C=C5)C=C4)cc2)cnn1C
REMARK SMILES IDX 29 1 28 2 27 3 26 4 25 5 24 6 22 7 23 8 21 9 20 10 104 11
REMARK SMILES IDX 102 12 103 13 105 14 18 15 17 16 19 18 16 19 1 20 2 21 3 22
REMARK SMILES IDX 4 23 14 24 15 25 5 26 6 27 7 28 12 29 8 30 11 31 13 32 9 33
REMARK SMILES IDX 10 34 30 35 31 36 32 37 33 38 34 39 35 40 36 41 37 42 38 43
REMARK SMILES IDX 39 44 40 45 101 46 41 47 100 48 42 49 43 50 44 51 94 52
REMARK SMILES IDX 45 53 99 54 93 55 95 56 46 57 98 58 92 59 91 60 47 62 79 63
REMARK SMILES IDX 59 64 78 65 60 66 63 67 77 68 96 69 61 70 62 71 76 73 97 74
REMARK SMILES IDX 64 75 48 76 49 77 57 78 50 79 51 80 55 81 58 82 52 83 53 84
REMARK SMILES IDX 56 85 54 86 80 87 81 88 89 89 82 90 83 91 87 92 90 93 84 94
REMARK SMILES IDX 85 95 88 96 86 97 65 98 66 99 74 100 67 101 68 102 72 103
REMARK SMILES IDX 75 104 69 105 70 106 73 107 71 108
REMARK H PARENT 17 17 95 61 63 72
REMARK Flexibility Score: inf
ROOT
ATOM      1  C   UNL     1      -1.922   0.166  -2.871  1.00  0.00     0.188 C 
ENDROOT
BRANCH   1   2
ATOM      2  C   UNL     1      -2.152   0.721  -1.461  1.00  0.00     0.188 C 
BRANCH   2   3
ATOM      3  O   UNL     1      -3.482   0.825  -0.958  1.00  0.00    -0.376 OA
BRANCH   3   4
ATOM      4  C   UNL     1      -4.575   0.894  -1.860  1.00  0.00     0.202 C 
BRANCH   4   5
ATOM      5  C   UNL     1      -4.803   2.230  -2.573  1.00  0.00     0.261 C 
BRANCH   5   6
ATOM      6  O   UNL     1      -3.710   2.707  -3.377  1.00  0.00    -0.460 OA
BRANCH   6   7
ATOM      7  C   UNL     1      -2.854   3.583  -2.761  1.00  0.00     0.342 C 
ATOM      8  O   UNL     1      -2.911   3.898  -1.591  1.00  0.00    -0.246 OA
BRANCH   7   9
ATOM      9  C   UNL     1      -1.859   4.118  -3.676  1.00  0.00     0.111 A 
ATOM     10  C   UNL     1      -0.555   4.503  -3.382  1.00  0.00     0.140 A 
ATOM     11  N   UNL     1      -0.149   5.239  -4.463  1.00  0.00    -0.262 N 
ATOM     12  C   UNL     1      -2.008   4.432  -5.043  1.00  0.00     0.151 A 
ATOM     13  N   UNL     1      -0.962   5.104  -5.532  1.00  0.00    -0.180 NA
ATOM     14  C   UNL     1       1.048   6.043  -4.576  1.00  0.00     0.174 C 
BRANCH  10  15
ATOM     15  C   UNL     1       0.213   4.372  -2.180  1.00  0.00     0.274 C 
ATOM     16  N   UNL     1       0.936   3.228  -1.939  1.00  0.00    -0.317 N 
ATOM     17  H   UNL     1       1.337   3.201  -1.040  1.00  0.00     0.170 HD
ATOM     18  O   UNL     1       0.242   5.260  -1.329  1.00  0.00    -0.267 OA
BRANCH  16  19
ATOM     19  C   UNL     1       1.217   2.104  -2.700  1.00  0.00     0.085 A 
ATOM     20  C   UNL     1       1.629   0.455  -0.708  1.00  0.00     0.071 C 
ATOM     21  C   UNL     1       1.532   0.825  -2.147  1.00  0.00     0.083 A 
ATOM     22  N   UNL     1       1.661  -0.113  -3.099  1.00  0.00    -0.175 NA
ATOM     23  N   UNL     1       1.349   0.544  -4.236  1.00  0.00    -0.263 N 
ATOM     24  C   UNL     1       1.373   1.910  -4.059  1.00  0.00     0.060 A 
ATOM     25  C   UNL     1       1.611   2.779  -5.227  1.00  0.00     0.069 C 
BRANCH  23  26
ATOM     26  C   UNL     1       0.662  -0.144  -5.337  1.00  0.00     0.181 C 
BRANCH  26  27
ATOM     27  C   UNL     1       1.564  -0.732  -6.391  1.00  0.00    -0.008 A 
ATOM     28  C   UNL     1       2.283  -1.895  -6.069  1.00  0.00     0.009 A 
ATOM     29  C   UNL     1       1.642  -0.255  -7.710  1.00  0.00     0.047 A 
ATOM     30  C   UNL     1       3.011  -2.591  -7.032  1.00  0.00     0.021 A 
ATOM     31  C   UNL     1       2.404  -0.930  -8.671  1.00  0.00     0.041 A 
ATOM     32  Cl  UNL     1       0.766   1.133  -8.248  1.00  0.00    -0.084 Cl
ATOM     33  C   UNL     1       3.067  -2.104  -8.332  1.00  0.00     0.042 A 
ATOM     34  Cl  UNL     1       3.927  -2.984  -9.532  1.00  0.00    -0.084 Cl
ENDBRANCH  26  27
ENDBRANCH  23  26
ENDBRANCH  16  19
ENDBRANCH  10  15
ENDBRANCH   7   9
ENDBRANCH   6   7
ENDBRANCH   5   6
ENDBRANCH   4   5
ENDBRANCH   3   4
ENDBRANCH   2   3
ENDBRANCH   1   2
BRANCH   1  35
ATOM     35  O   UNL     1      -2.786  -0.896  -3.228  1.00  0.00    -0.377 OA
BRANCH  35  36
ATOM     36  C   UNL     1      -2.323  -2.219  -3.000  1.00  0.00     0.188 C 
BRANCH  36  37
ATOM     37  C   UNL     1      -1.673  -2.525  -1.647  1.00  0.00     0.188 C 
BRANCH  37  38
ATOM     38  O   UNL     1      -0.331  -2.036  -1.594  1.00  0.00    -0.376 OA
BRANCH  38  39
ATOM     39  C   UNL     1       0.654  -3.024  -1.292  1.00  0.00     0.202 C 
BRANCH  39  40
ATOM     40  C   UNL     1       1.322  -3.562  -2.543  1.00  0.00     0.261 C 
BRANCH  40  41
ATOM     41  O   UNL     1       0.404  -3.790  -3.604  1.00  0.00    -0.460 OA
BRANCH  41  42
ATOM     42  C   UNL     1      -0.333  -4.919  -3.558  1.00  0.00     0.338 C 
ATOM     43  O   UNL     1      -0.556  -5.616  -2.587  1.00  0.00    -0.246 OA
BRANCH  42  44
ATOM     44  C   UNL     1      -0.570  -5.294  -4.967  1.00  0.00     0.060 A 
ATOM     45  C   UNL     1      -0.894  -6.621  -5.222  1.00  0.00     0.016 A 
ATOM     46  C   UNL     1      -0.115  -4.445  -5.991  1.00  0.00     0.016 A 
ATOM     47  C   UNL     1      -0.483  -7.157  -6.424  1.00  0.00     0.010 A 
ATOM     48  C   UNL     1       0.320  -4.985  -7.177  1.00  0.00     0.010 A 
ATOM     49  C   UNL     1       0.231  -6.356  -7.332  1.00  0.00    -0.014 A 
BRANCH  49  50
ATOM     50  C   UNL     1       0.723  -6.966  -8.544  1.00  0.00     0.031 A 
ATOM     51  C   UNL     1      -0.372  -7.258  -9.475  1.00  0.00     0.074 A 
ATOM     52  C   UNL     1       2.003  -7.247  -8.840  1.00  0.00     0.049 A 
ATOM     53  N   UNL     1      -0.990  -8.384  -9.562  1.00  0.00    -0.248 NA
ATOM     54  C   UNL     1      -0.996  -6.151 -10.204  1.00  0.00     0.031 C 
ATOM     55  C   UNL     1       3.234  -6.805  -8.193  1.00  0.00     0.029 A 
ATOM     56  N   UNL     1       2.452  -8.006  -9.878  1.00  0.00    -0.354 N 
ATOM     57  C   UNL     1      -1.961  -8.193 -10.525  1.00  0.00     0.074 A 
ATOM     58  C   UNL     1      -2.064  -6.768 -10.714  1.00  0.00     0.031 C 
ATOM     59  C   UNL     1       4.291  -7.147  -8.972  1.00  0.00     0.029 A 
ATOM     60  C   UNL     1       3.821  -7.955 -10.089  1.00  0.00     0.049 A 
ATOM     61  H   UNL     1       1.850  -8.549 -10.436  1.00  0.00     0.167 HD
ATOM     62  C   UNL     1      -2.371  -9.246 -11.279  1.00  0.00     0.037 A 
ATOM     63  C   UNL     1       4.481  -8.513 -11.136  1.00  0.00     0.037 A 
ATOM     64  C   UNL     1      -1.987 -10.504 -10.670  1.00  0.00     0.049 A 
ATOM     65  C   UNL     1       3.626  -9.612 -11.664  1.00  0.00     0.074 A 
ATOM     66  C   UNL     1      -2.199 -11.083  -9.430  1.00  0.00     0.029 A 
ATOM     67  N   UNL     1      -0.922 -11.187 -11.210  1.00  0.00    -0.354 N 
ATOM     68  N   UNL     1       3.414 -10.731 -11.030  1.00  0.00    -0.248 NA
ATOM     69  C   UNL     1       2.651  -9.290 -12.696  1.00  0.00     0.031 C 
ATOM     70  C   UNL     1      -0.968 -11.728  -9.098  1.00  0.00     0.029 A 
ATOM     71  C   UNL     1      -0.101 -11.566 -10.177  1.00  0.00     0.049 A 
ATOM     72  H   UNL     1      -0.776 -11.372 -12.165  1.00  0.00     0.167 HD
ATOM     73  C   UNL     1       2.069 -10.997 -11.236  1.00  0.00     0.074 A 
ATOM     74  C   UNL     1       1.679 -10.141 -12.353  1.00  0.00     0.031 C 
ATOM     75  C   UNL     1       1.335 -11.665 -10.299  1.00  0.00     0.037 A 
BRANCH  62  76
ATOM     76  C   UNL     1      -2.722  -9.121 -12.738  1.00  0.00     0.064 A 
ATOM     77  C   UNL     1      -3.244 -10.246 -13.400  1.00  0.00     0.173 A 
ATOM     78  C   UNL     1      -2.291  -8.066 -13.574  1.00  0.00     0.173 A 
ATOM     79  F   UNL     1      -3.667 -11.312 -12.704  1.00  0.00    -0.203 F 
ATOM     80  C   UNL     1      -3.244 -10.344 -14.793  1.00  0.00     0.198 A 
ATOM     81  C   UNL     1      -2.348  -8.144 -14.962  1.00  0.00     0.198 A 
ATOM     82  F   UNL     1      -1.688  -6.969 -13.104  1.00  0.00    -0.203 F 
ATOM     83  F   UNL     1      -3.616 -11.491 -15.375  1.00  0.00    -0.200 F 
ATOM     84  C   UNL     1      -2.789  -9.296 -15.572  1.00  0.00     0.200 A 
ATOM     85  F   UNL     1      -1.884  -7.122 -15.695  1.00  0.00    -0.200 F 
ATOM     86  F   UNL     1      -2.723  -9.415 -16.903  1.00  0.00    -0.200 F 
ENDBRANCH  62  76
BRANCH  63  87
ATOM     87  C   UNL     1       5.649  -8.003 -11.897  1.00  0.00     0.064 A 
ATOM     88  C   UNL     1       6.277  -8.805 -12.868  1.00  0.00     0.173 A 
ATOM     89  C   UNL     1       5.970  -6.633 -11.919  1.00  0.00     0.173 A 
ATOM     90  F   UNL     1       6.010 -10.117 -12.941  1.00  0.00    -0.203 F 
ATOM     91  C   UNL     1       7.124  -8.258 -13.838  1.00  0.00     0.198 A 
ATOM     92  C   UNL     1       6.822  -6.091 -12.883  1.00  0.00     0.198 A 
ATOM     93  F   UNL     1       5.388  -5.775 -11.071  1.00  0.00    -0.203 F 
ATOM     94  F   UNL     1       7.636  -9.043 -14.797  1.00  0.00    -0.200 F 
ATOM     95  C   UNL     1       7.381  -6.899 -13.855  1.00  0.00     0.200 A 
ATOM     96  F   UNL     1       7.039  -4.768 -12.907  1.00  0.00    -0.200 F 
ATOM     97  F   UNL     1       8.130  -6.362 -14.828  1.00  0.00    -0.200 F 
ENDBRANCH  63  87
BRANCH  75  98
ATOM     98  C   UNL     1       2.086 -12.373  -9.204  1.00  0.00     0.064 A 
ATOM     99  C   UNL     1       2.968 -11.744  -8.305  1.00  0.00     0.173 A 
ATOM    100  C   UNL     1       1.844 -13.740  -9.011  1.00  0.00     0.173 A 
ATOM    101  F   UNL     1       3.169 -10.420  -8.343  1.00  0.00    -0.203 F 
ATOM    102  C   UNL     1       3.631 -12.469  -7.315  1.00  0.00     0.198 A 
ATOM    103  C   UNL     1       2.474 -14.453  -7.995  1.00  0.00     0.198 A 
ATOM    104  F   UNL     1       0.971 -14.386  -9.800  1.00  0.00    -0.203 F 
ATOM    105  F   UNL     1       4.497 -11.853  -6.497  1.00  0.00    -0.200 F 
ATOM    106  C   UNL     1       3.382 -13.822  -7.160  1.00  0.00     0.200 A 
ATOM    107  F   UNL     1       2.191 -15.751  -7.817  1.00  0.00    -0.200 F 
ATOM    108  F   UNL     1       3.999 -14.515  -6.192  1.00  0.00    -0.200 F 
ENDBRANCH  75  98
ENDBRANCH  49  50
ENDBRANCH  42  44
ENDBRANCH  41  42
ENDBRANCH  40  41
ENDBRANCH  39  40
ENDBRANCH  38  39
ENDBRANCH  37  38
ENDBRANCH  36  37
ENDBRANCH  35  36
ENDBRANCH   1  35
TORSDOF 24
