REMARK SMILES O=C(C[C@H]1S/C(=[NH+]/N=C/c2cccc(Cl)c2)NC1=O)OCCOCCOCCOCCOC(=O)c1ccc(-c2c3nc(c(-c4c(F)c(F)c(F)c(F)c4F)c4ccc([nH]4)c(-c4c(F)c(F)c(F)c(F)c4F)c4nc(c(-c5c(F)c(F)c(F)c(F)c5F)c5ccc2[nH]5)C=C4)C=C3)cc1
REMARK SMILES IDX 25 1 24 2 23 3 22 4 21 5 20 6 2 7 1 8 3 9 4 10 5 11 18 12
REMARK SMILES IDX 6 13 17 14 19 15 7 16 8 19 9 20 10 21 11 22 16 23 12 24
REMARK SMILES IDX 14 25 13 26 15 27 26 28 27 29 28 30 29 31 30 32 31 33 32 34
REMARK SMILES IDX 33 35 34 36 35 37 36 38 97 39 37 40 96 41 38 42 39 43 40 44
REMARK SMILES IDX 90 45 41 46 95 47 89 48 91 49 42 50 94 51 88 52 87 53 43 55
REMARK SMILES IDX 75 56 55 57 74 58 56 59 59 60 73 61 92 62 57 63 58 64 72 66
REMARK SMILES IDX 93 67 60 68 44 69 45 70 53 71 46 72 47 73 51 74 54 75 48 76
REMARK SMILES IDX 49 77 52 78 50 79 76 80 77 81 85 82 78 83 79 84 83 85 86 86
REMARK SMILES IDX 80 87 81 88 84 89 82 90 61 91 62 92 70 93 63 94 64 95 68 96
REMARK SMILES IDX 71 97 65 98 66 99 69 100 67 101
REMARK H PARENT 17 17 7 18 91 54 59 65
REMARK Flexibility Score: inf
ROOT
ATOM      1  C   UNL     1       2.147  -1.321   1.869  1.00  0.00     0.188 C 
ENDROOT
BRANCH   1   2
ATOM      2  C   UNL     1       2.760  -1.699   0.517  1.00  0.00     0.188 C 
BRANCH   2   3
ATOM      3  O   UNL     1       4.172  -1.597   0.408  1.00  0.00    -0.376 OA
BRANCH   3   4
ATOM      4  C   UNL     1       4.888  -0.402   0.142  1.00  0.00     0.202 C 
BRANCH   4   5
ATOM      5  C   UNL     1       4.289   0.941   0.512  1.00  0.00     0.261 C 
BRANCH   5   6
ATOM      6  O   UNL     1       3.005   1.294  -0.048  1.00  0.00    -0.463 OA
BRANCH   6   7
ATOM      7  C   UNL     1       2.464   1.112  -1.261  1.00  0.00     0.307 C 
ATOM      8  O   UNL     1       1.397   1.665  -1.521  1.00  0.00    -0.252 OA
BRANCH   7   9
ATOM      9  C   UNL     1       3.095   0.196  -2.281  1.00  0.00     0.150 C 
BRANCH   9  10
ATOM     10  C   UNL     1       4.184   0.786  -3.161  1.00  0.00     0.184 C 
ATOM     11  S   UNL     1       3.466   1.133  -4.812  1.00  0.00    -0.020 SA
ATOM     12  C   UNL     1       4.658   2.141  -2.688  1.00  0.00     0.322 C 
ATOM     13  C   UNL     1       3.233   2.792  -4.391  1.00  0.00     0.337 C 
ATOM     14  N   UNL     1       3.933   3.119  -3.278  1.00  0.00    -0.202 N 
ATOM     15  O   UNL     1       5.537   2.325  -1.859  1.00  0.00    -0.246 OA
ATOM     16  N   UNL     1       2.522   3.633  -5.058  1.00  0.00    -0.142 N 
ATOM     17  H   UNL     1       3.916   4.033  -2.913  1.00  0.00     0.316 HD
ATOM     18  H   UNL     1       1.991   3.424  -5.860  1.00  0.00     0.343 HD
BRANCH  16  19
ATOM     19  N   UNL     1       2.625   4.882  -4.462  1.00  0.00    -0.093 NA
ATOM     20  C   UNL     1       1.834   5.759  -4.978  1.00  0.00     0.166 C 
BRANCH  20  21
ATOM     21  C   UNL     1       1.856   7.117  -4.424  1.00  0.00    -0.002 A 
ATOM     22  C   UNL     1       2.973   7.549  -3.693  1.00  0.00     0.010 A 
ATOM     23  C   UNL     1       0.749   7.941  -4.595  1.00  0.00     0.030 A 
ATOM     24  C   UNL     1       2.983   8.818  -3.125  1.00  0.00     0.002 A 
ATOM     25  C   UNL     1       0.764   9.204  -4.011  1.00  0.00     0.041 A 
ATOM     26  C   UNL     1       1.873   9.646  -3.282  1.00  0.00     0.020 A 
ATOM     27  Cl  UNL     1      -0.607  10.229  -4.176  1.00  0.00    -0.084 Cl
ENDBRANCH  20  21
ENDBRANCH  16  19
ENDBRANCH   9  10
ENDBRANCH   7   9
ENDBRANCH   6   7
ENDBRANCH   5   6
ENDBRANCH   4   5
ENDBRANCH   3   4
ENDBRANCH   2   3
ENDBRANCH   1   2
BRANCH   1  28
ATOM     28  O   UNL     1       2.737  -1.944   3.002  1.00  0.00    -0.377 OA
BRANCH  28  29
ATOM     29  C   UNL     1       4.115  -1.669   3.181  1.00  0.00     0.188 C 
BRANCH  29  30
ATOM     30  C   UNL     1       5.085  -2.805   2.788  1.00  0.00     0.188 C 
BRANCH  30  31
ATOM     31  O   UNL     1       4.644  -3.994   2.153  1.00  0.00    -0.376 OA
BRANCH  31  32
ATOM     32  C   UNL     1       3.414  -4.598   2.511  1.00  0.00     0.202 C 
BRANCH  32  33
ATOM     33  C   UNL     1       3.059  -4.898   3.977  1.00  0.00     0.261 C 
BRANCH  33  34
ATOM     34  O   UNL     1       3.417  -3.893   4.934  1.00  0.00    -0.460 OA
BRANCH  34  35
ATOM     35  C   UNL     1       4.559  -4.126   5.617  1.00  0.00     0.338 C 
ATOM     36  O   UNL     1       5.272  -5.115   5.556  1.00  0.00    -0.246 OA
BRANCH  35  37
ATOM     37  C   UNL     1       4.963  -2.893   6.324  1.00  0.00     0.060 A 
ATOM     38  C   UNL     1       6.263  -2.413   6.103  1.00  0.00     0.016 A 
ATOM     39  C   UNL     1       4.099  -2.223   7.194  1.00  0.00     0.016 A 
ATOM     40  C   UNL     1       6.728  -1.302   6.795  1.00  0.00     0.010 A 
ATOM     41  C   UNL     1       4.580  -1.134   7.927  1.00  0.00     0.010 A 
ATOM     42  C   UNL     1       5.915  -0.715   7.771  1.00  0.00    -0.014 A 
BRANCH  42  43
ATOM     43  C   UNL     1       6.589   0.070   8.831  1.00  0.00     0.031 A 
ATOM     44  C   UNL     1       7.035  -0.679  10.060  1.00  0.00     0.074 A 
ATOM     45  C   UNL     1       6.891   1.368   8.672  1.00  0.00     0.049 A 
ATOM     46  N   UNL     1       7.686  -0.251  11.110  1.00  0.00    -0.248 NA
ATOM     47  C   UNL     1       6.703  -2.114  10.105  1.00  0.00     0.031 C 
ATOM     48  C   UNL     1       6.571   2.176   7.499  1.00  0.00     0.029 A 
ATOM     49  N   UNL     1       7.551   2.230   9.510  1.00  0.00    -0.354 N 
ATOM     50  C   UNL     1       7.832  -1.358  11.936  1.00  0.00     0.074 A 
ATOM     51  C   UNL     1       7.175  -2.469  11.288  1.00  0.00     0.031 C 
ATOM     52  C   UNL     1       7.034   3.424   7.693  1.00  0.00     0.029 A 
ATOM     53  C   UNL     1       7.661   3.504   9.012  1.00  0.00     0.049 A 
ATOM     54  H   UNL     1       7.913   1.960  10.385  1.00  0.00     0.167 HD
ATOM     55  C   UNL     1       8.466  -1.445  13.128  1.00  0.00     0.037 A 
ATOM     56  C   UNL     1       8.198   4.605   9.572  1.00  0.00     0.037 A 
ATOM     57  C   UNL     1       9.121  -0.337  13.769  1.00  0.00     0.049 A 
ATOM     58  C   UNL     1       8.834   4.499  10.937  1.00  0.00     0.074 A 
ATOM     59  C   UNL     1       9.801  -0.316  14.972  1.00  0.00     0.029 A 
ATOM     60  N   UNL     1       9.166   0.951  13.257  1.00  0.00    -0.354 N 
ATOM     61  N   UNL     1       8.988   3.447  11.705  1.00  0.00    -0.248 NA
ATOM     62  C   UNL     1       9.381   5.739  11.507  1.00  0.00     0.031 C 
ATOM     63  C   UNL     1      10.204   1.001  15.219  1.00  0.00     0.029 A 
ATOM     64  C   UNL     1       9.839   1.784  14.134  1.00  0.00     0.049 A 
ATOM     65  H   UNL     1       8.776   1.232  12.397  1.00  0.00     0.167 HD
ATOM     66  C   UNL     1       9.685   3.887  12.824  1.00  0.00     0.074 A 
ATOM     67  C   UNL     1       9.932   5.300  12.629  1.00  0.00     0.031 C 
ATOM     68  C   UNL     1      10.090   3.186  13.914  1.00  0.00     0.037 A 
BRANCH  55  69
ATOM     69  C   UNL     1       8.439  -2.772  13.830  1.00  0.00     0.064 A 
ATOM     70  C   UNL     1       9.146  -3.885  13.348  1.00  0.00     0.173 A 
ATOM     71  C   UNL     1       7.697  -2.928  15.011  1.00  0.00     0.173 A 
ATOM     72  F   UNL     1       9.853  -3.796  12.212  1.00  0.00    -0.203 F 
ATOM     73  C   UNL     1       9.086  -5.111  14.007  1.00  0.00     0.198 A 
ATOM     74  C   UNL     1       7.667  -4.145  15.684  1.00  0.00     0.198 A 
ATOM     75  F   UNL     1       7.001  -1.897  15.513  1.00  0.00    -0.203 F 
ATOM     76  F   UNL     1       9.722  -6.175  13.497  1.00  0.00    -0.200 F 
ATOM     77  C   UNL     1       8.354  -5.238  15.178  1.00  0.00     0.200 A 
ATOM     78  F   UNL     1       6.969  -4.261  16.822  1.00  0.00    -0.200 F 
ATOM     79  F   UNL     1       8.302  -6.416  15.814  1.00  0.00    -0.200 F 
ENDBRANCH  55  69
BRANCH  56  80
ATOM     80  C   UNL     1       8.165   5.905   8.850  1.00  0.00     0.064 A 
ATOM     81  C   UNL     1       9.345   6.519   8.406  1.00  0.00     0.173 A 
ATOM     82  C   UNL     1       6.956   6.578   8.621  1.00  0.00     0.173 A 
ATOM     83  F   UNL     1      10.530   5.928   8.623  1.00  0.00    -0.203 F 
ATOM     84  C   UNL     1       9.319   7.766   7.784  1.00  0.00     0.198 A 
ATOM     85  C   UNL     1       6.929   7.810   7.971  1.00  0.00     0.198 A 
ATOM     86  F   UNL     1       5.798   6.037   9.027  1.00  0.00    -0.203 F 
ATOM     87  F   UNL     1      10.467   8.354   7.421  1.00  0.00    -0.200 F 
ATOM     88  C   UNL     1       8.111   8.408   7.562  1.00  0.00     0.200 A 
ATOM     89  F   UNL     1       5.757   8.422   7.748  1.00  0.00    -0.200 F 
ATOM     90  F   UNL     1       8.086   9.607   6.965  1.00  0.00    -0.200 F 
ENDBRANCH  56  80
BRANCH  68  91
ATOM     91  C   UNL     1      10.898   3.919  14.948  1.00  0.00     0.064 A 
ATOM     92  C   UNL     1      10.337   4.912  15.765  1.00  0.00     0.173 A 
ATOM     93  C   UNL     1      12.251   3.598  15.141  1.00  0.00     0.173 A 
ATOM     94  F   UNL     1       9.051   5.263  15.616  1.00  0.00    -0.203 F 
ATOM     95  C   UNL     1      11.111   5.585  16.707  1.00  0.00     0.198 A 
ATOM     96  C   UNL     1      13.012   4.246  16.110  1.00  0.00     0.198 A 
ATOM     97  F   UNL     1      12.835   2.647  14.396  1.00  0.00    -0.203 F 
ATOM     98  F   UNL     1      10.571   6.574  17.431  1.00  0.00    -0.200 F 
ATOM     99  C   UNL     1      12.445   5.247  16.884  1.00  0.00     0.200 A 
ATOM    100  F   UNL     1      14.294   3.903  16.293  1.00  0.00    -0.200 F 
ATOM    101  F   UNL     1      13.187   5.893  17.793  1.00  0.00    -0.200 F 
ENDBRANCH  68  91
ENDBRANCH  42  43
ENDBRANCH  35  37
ENDBRANCH  34  35
ENDBRANCH  33  34
ENDBRANCH  32  33
ENDBRANCH  31  32
ENDBRANCH  30  31
ENDBRANCH  29  30
ENDBRANCH  28  29
ENDBRANCH   1  28
TORSDOF 23
