REMARK SMILES O=C(OCCOCCOCCOCCOC(=O)[C@H]1[C@H]2CC[C@H](CC2)[C@@H]1C(=O)Nc1ccc(Cc2ccncc2)cc1)c1ccc(-c2c3nc(c(-c4c(F)c(F)c(F)c(F)c4F)c4ccc([nH]4)c(-c4c(F)c(F)c(F)c(F)c4F)c4nc(c(-c5c(F)c(F)c(F)c(F)c5F)c5ccc2[nH]5)C=C4)C=C3)cc1
REMARK SMILES IDX 10 1 9 2 8 3 7 4 6 5 5 6 4 7 3 8 2 9 1 10 42 11 43 12 104 13
REMARK SMILES IDX 44 14 103 15 45 16 46 17 47 18 97 19 48 20 102 21 96 22
REMARK SMILES IDX 98 23 49 24 101 25 95 26 94 27 50 29 82 30 62 31 81 32 63 33
REMARK SMILES IDX 66 34 80 35 99 36 64 37 65 38 79 40 100 41 67 42 51 43 52 44
REMARK SMILES IDX 60 45 53 46 54 47 58 48 61 49 55 50 56 51 59 52 57 53 83 54
REMARK SMILES IDX 84 55 92 56 85 57 86 58 90 59 93 60 87 61 88 62 91 63 89 64
REMARK SMILES IDX 68 65 69 66 77 67 70 68 71 69 75 70 78 71 72 72 73 73 76 74
REMARK SMILES IDX 74 75 11 76 12 77 13 78 14 79 15 80 16 81 17 82 18 83 19 84
REMARK SMILES IDX 25 85 24 86 20 87 22 88 23 89 21 90 26 91 27 92 28 93 29 95
REMARK SMILES IDX 30 96 41 97 31 98 40 99 32 100 33 101 34 102 35 103 39 104
REMARK SMILES IDX 36 105 38 106 37 107
REMARK H PARENT 98 28 66 39 28 94
REMARK Flexibility Score: inf
ROOT
ATOM      1  C   UNL     1       4.780   2.434  -2.317  1.00  0.00     0.188 C 
ENDROOT
BRANCH   1   2
ATOM      2  O   UNL     1       3.452   2.115  -2.656  1.00  0.00    -0.377 OA
BRANCH   2   3
ATOM      3  C   UNL     1       2.547   1.704  -1.670  1.00  0.00     0.188 C 
BRANCH   3   4
ATOM      4  C   UNL     1       2.966   0.617  -0.721  1.00  0.00     0.188 C 
BRANCH   4   5
ATOM      5  O   UNL     1       4.359   0.547  -0.533  1.00  0.00    -0.376 OA
BRANCH   5   6
ATOM      6  C   UNL     1       5.006  -0.714  -0.586  1.00  0.00     0.202 C 
BRANCH   6   7
ATOM      7  C   UNL     1       4.231  -1.968  -0.191  1.00  0.00     0.261 C 
BRANCH   7   8
ATOM      8  O   UNL     1       3.007  -1.923   0.607  1.00  0.00    -0.460 OA
BRANCH   8   9
ATOM      9  C   UNL     1       2.404  -1.338   1.649  1.00  0.00     0.338 C 
ATOM     10  O   UNL     1       1.205  -1.599   1.845  1.00  0.00    -0.246 OA
BRANCH   9  11
ATOM     11  C   UNL     1       3.033  -0.376   2.585  1.00  0.00     0.060 A 
ATOM     12  C   UNL     1       4.210   0.290   2.306  1.00  0.00     0.016 A 
ATOM     13  C   UNL     1       2.389  -0.062   3.793  1.00  0.00     0.016 A 
ATOM     14  C   UNL     1       4.763   1.228   3.138  1.00  0.00     0.010 A 
ATOM     15  C   UNL     1       2.964   0.842   4.697  1.00  0.00     0.010 A 
ATOM     16  C   UNL     1       4.177   1.458   4.369  1.00  0.00    -0.014 A 
BRANCH  16  17
ATOM     17  C   UNL     1       5.099   2.047   5.345  1.00  0.00     0.031 A 
ATOM     18  C   UNL     1       5.849   1.077   6.210  1.00  0.00     0.074 A 
ATOM     19  C   UNL     1       5.490   3.323   5.193  1.00  0.00     0.049 A 
ATOM     20  N   UNL     1       6.737   1.300   7.137  1.00  0.00    -0.248 NA
ATOM     21  C   UNL     1       5.591  -0.357   5.964  1.00  0.00     0.031 C 
ATOM     22  C   UNL     1       5.005   4.236   4.151  1.00  0.00     0.029 A 
ATOM     23  N   UNL     1       6.436   4.049   5.856  1.00  0.00    -0.354 N 
ATOM     24  C   UNL     1       7.087   0.047   7.623  1.00  0.00     0.074 A 
ATOM     25  C   UNL     1       6.352  -0.939   6.873  1.00  0.00     0.031 C 
ATOM     26  C   UNL     1       5.672   5.397   4.239  1.00  0.00     0.029 A 
ATOM     27  C   UNL     1       6.556   5.337   5.395  1.00  0.00     0.049 A 
ATOM     28  H   UNL     1       6.979   3.685   6.593  1.00  0.00     0.167 HD
ATOM     29  C   UNL     1       7.932  -0.233   8.639  1.00  0.00     0.037 A 
ATOM     30  C   UNL     1       7.271   6.353   5.909  1.00  0.00     0.037 A 
ATOM     31  C   UNL     1       8.644   0.797   9.340  1.00  0.00     0.049 A 
ATOM     32  C   UNL     1       8.081   6.051   7.142  1.00  0.00     0.074 A 
ATOM     33  C   UNL     1       9.440   0.702  10.462  1.00  0.00     0.029 A 
ATOM     34  N   UNL     1       8.631   2.137   8.960  1.00  0.00    -0.354 N 
ATOM     35  N   UNL     1       8.295   4.894   7.728  1.00  0.00    -0.248 NA
ATOM     36  C   UNL     1       8.723   7.189   7.804  1.00  0.00     0.031 C 
ATOM     37  C   UNL     1       9.858   1.996  10.796  1.00  0.00     0.029 A 
ATOM     38  C   UNL     1       9.384   2.886   9.841  1.00  0.00     0.049 A 
ATOM     39  H   UNL     1       8.155   2.497   8.177  1.00  0.00     0.167 HD
ATOM     40  C   UNL     1       9.116   5.157   8.812  1.00  0.00     0.074 A 
ATOM     41  C   UNL     1       9.373   6.586   8.789  1.00  0.00     0.031 C 
ATOM     42  C   UNL     1       9.613   4.309   9.748  1.00  0.00     0.037 A 
BRANCH  29  43
ATOM     43  C   UNL     1       7.979  -1.657   9.107  1.00  0.00     0.064 A 
ATOM     44  C   UNL     1       8.554  -2.689   8.350  1.00  0.00     0.173 A 
ATOM     45  C   UNL     1       7.332  -2.008  10.303  1.00  0.00     0.173 A 
ATOM     46  F   UNL     1       9.141  -2.418   7.175  1.00  0.00    -0.203 F 
ATOM     47  C   UNL     1       8.444  -4.020   8.752  1.00  0.00     0.198 A 
ATOM     48  C   UNL     1       7.251  -3.335  10.717  1.00  0.00     0.198 A 
ATOM     49  F   UNL     1       6.745  -1.065  11.055  1.00  0.00    -0.203 F 
ATOM     50  F   UNL     1       8.926  -4.997   7.970  1.00  0.00    -0.200 F 
ATOM     51  C   UNL     1       7.795  -4.341   9.935  1.00  0.00     0.200 A 
ATOM     52  F   UNL     1       6.618  -3.641  11.858  1.00  0.00    -0.200 F 
ATOM     53  F   UNL     1       7.673  -5.622  10.309  1.00  0.00    -0.200 F 
ENDBRANCH  29  43
BRANCH  30  54
ATOM     54  C   UNL     1       7.178   7.723   5.334  1.00  0.00     0.064 A 
ATOM     55  C   UNL     1       8.306   8.382   4.828  1.00  0.00     0.173 A 
ATOM     56  C   UNL     1       5.959   8.422   5.309  1.00  0.00     0.173 A 
ATOM     57  F   UNL     1       9.501   7.772   4.844  1.00  0.00    -0.203 F 
ATOM     58  C   UNL     1       8.225   9.688   4.342  1.00  0.00     0.198 A 
ATOM     59  C   UNL     1       5.871   9.713   4.792  1.00  0.00     0.198 A 
ATOM     60  F   UNL     1       4.844   7.850   5.786  1.00  0.00    -0.203 F 
ATOM     61  F   UNL     1       9.331  10.311   3.915  1.00  0.00    -0.200 F 
ATOM     62  C   UNL     1       7.007  10.350   4.320  1.00  0.00     0.200 A 
ATOM     63  F   UNL     1       4.688  10.342   4.763  1.00  0.00    -0.200 F 
ATOM     64  F   UNL     1       6.930  11.606   3.858  1.00  0.00    -0.200 F 
ENDBRANCH  30  54
BRANCH  42  65
ATOM     65  C   UNL     1      10.525   4.906  10.773  1.00  0.00     0.064 A 
ATOM     66  C   UNL     1      10.045   5.740  11.792  1.00  0.00     0.173 A 
ATOM     67  C   UNL     1      11.891   4.591  10.757  1.00  0.00     0.173 A 
ATOM     68  F   UNL     1       8.747   6.077  11.835  1.00  0.00    -0.203 F 
ATOM     69  C   UNL     1      10.911   6.263  12.745  1.00  0.00     0.198 A 
ATOM     70  C   UNL     1      12.746   5.085  11.734  1.00  0.00     0.198 A 
ATOM     71  F   UNL     1      12.390   3.788   9.805  1.00  0.00    -0.203 F 
ATOM     72  F   UNL     1      10.446   7.104  13.679  1.00  0.00    -0.200 F 
ATOM     73  C   UNL     1      12.258   5.928  12.721  1.00  0.00     0.200 A 
ATOM     74  F   UNL     1      14.041   4.743  11.722  1.00  0.00    -0.200 F 
ATOM     75  F   UNL     1      13.088   6.423  13.649  1.00  0.00    -0.200 F 
ENDBRANCH  42  65
ENDBRANCH  16  17
ENDBRANCH   9  11
ENDBRANCH   8   9
ENDBRANCH   7   8
ENDBRANCH   6   7
ENDBRANCH   5   6
ENDBRANCH   4   5
ENDBRANCH   3   4
ENDBRANCH   2   3
ENDBRANCH   1   2
BRANCH   1  76
ATOM     76  C   UNL     1       5.135   3.646  -1.474  1.00  0.00     0.188 C 
BRANCH  76  77
ATOM     77  O   UNL     1       4.070   4.374  -0.913  1.00  0.00    -0.376 OA
BRANCH  77  78
ATOM     78  C   UNL     1       3.167   5.047  -1.784  1.00  0.00     0.202 C 
BRANCH  78  79
ATOM     79  C   UNL     1       3.517   5.409  -3.246  1.00  0.00     0.261 C 
BRANCH  79  80
ATOM     80  O   UNL     1       3.739   4.300  -4.160  1.00  0.00    -0.463 OA
BRANCH  80  81
ATOM     81  C   UNL     1       4.875   4.343  -4.908  1.00  0.00     0.310 C 
ATOM     82  O   UNL     1       5.661   5.288  -4.855  1.00  0.00    -0.252 OA
BRANCH  81  83
ATOM     83  C   UNL     1       5.137   3.143  -5.847  1.00  0.00     0.115 C 
ATOM     84  C   UNL     1       6.668   2.765  -5.794  1.00  0.00     0.004 C 
ATOM     85  C   UNL     1       4.294   1.838  -5.777  1.00  0.00     0.096 C 
ATOM     86  C   UNL     1       7.067   1.780  -4.665  1.00  0.00     0.005 C 
ATOM     87  C   UNL     1       6.992   2.035  -7.105  1.00  0.00     0.005 C 
ATOM     88  C   UNL     1       5.260   0.595  -5.934  1.00  0.00     0.002 C 
ATOM     89  C   UNL     1       6.204   0.512  -4.723  1.00  0.00     0.005 C 
ATOM     90  C   UNL     1       6.189   0.729  -7.169  1.00  0.00     0.005 C 
BRANCH  85  91
ATOM     91  C   UNL     1       3.235   1.726  -6.894  1.00  0.00     0.228 C 
ATOM     92  O   UNL     1       3.522   1.940  -8.074  1.00  0.00    -0.274 OA
ATOM     93  N   UNL     1       2.023   1.139  -6.612  1.00  0.00    -0.326 N 
ATOM     94  H   UNL     1       1.710   0.484  -7.277  1.00  0.00     0.169 HD
BRANCH  93  95
ATOM     95  C   UNL     1       1.166   1.336  -5.515  1.00  0.00     0.041 A 
ATOM     96  C   UNL     1       0.299   0.305  -5.144  1.00  0.00     0.026 A 
ATOM     97  C   UNL     1       1.078   2.559  -4.855  1.00  0.00     0.026 A 
ATOM     98  C   UNL     1      -0.524   0.441  -4.017  1.00  0.00     0.006 A 
ATOM     99  C   UNL     1       0.211   2.721  -3.765  1.00  0.00     0.006 A 
ATOM    100  C   UNL     1      -0.536   1.636  -3.284  1.00  0.00    -0.043 A 
BRANCH 100 101
ATOM    101  C   UNL     1      -1.200   1.703  -1.925  1.00  0.00     0.071 C 
BRANCH 101 102
ATOM    102  C   UNL     1      -2.603   2.240  -1.904  1.00  0.00    -0.041 A 
ATOM    103  C   UNL     1      -3.658   1.498  -2.439  1.00  0.00     0.024 A 
ATOM    104  C   UNL     1      -2.890   3.469  -1.305  1.00  0.00     0.024 A 
ATOM    105  C   UNL     1      -4.940   2.019  -2.367  1.00  0.00     0.111 A 
ATOM    106  C   UNL     1      -4.207   3.903  -1.278  1.00  0.00     0.111 A 
ATOM    107  N   UNL     1      -5.238   3.206  -1.799  1.00  0.00    -0.265 NA
ENDBRANCH 101 102
ENDBRANCH 100 101
ENDBRANCH  93  95
ENDBRANCH  85  91
ENDBRANCH  81  83
ENDBRANCH  80  81
ENDBRANCH  79  80
ENDBRANCH  78  79
ENDBRANCH  77  78
ENDBRANCH  76  77
ENDBRANCH   1  76
TORSDOF 24
