REMARK SMILES CSCC[C@@H](NC(=O)[C@@H]1CC(=O)N(C)C1)C(=O)OCCOCCOCCOCCOC(=O)c1ccc(-c2c3nc(c(-c4c(F)c(F)c(F)c(F)c4F)c4ccc([nH]4)c(-c4c(F)c(F)c(F)c(F)c4F)c4nc(c(-c5c(F)c(F)c(F)c(F)c5F)c5ccc2[nH]5)C=C4)C=C3)cc1
REMARK SMILES IDX 23 1 22 2 21 3 20 4 19 5 18 6 16 7 17 8 5 9 4 10 3 11 2 12
REMARK SMILES IDX 1 13 6 14 7 15 8 17 9 18 10 19 15 20 11 21 13 22 12 23 14 24
REMARK SMILES IDX 24 25 25 26 26 27 27 28 28 29 29 30 30 31 31 32 32 33 33 34
REMARK SMILES IDX 34 35 95 36 35 37 94 38 36 39 37 40 38 41 88 42 39 43 93 44
REMARK SMILES IDX 87 45 89 46 40 47 92 48 86 49 85 50 41 52 73 53 53 54 72 55
REMARK SMILES IDX 54 56 57 57 71 58 90 59 55 60 56 61 70 63 91 64 58 65 42 66
REMARK SMILES IDX 43 67 51 68 44 69 45 70 49 71 52 72 46 73 47 74 50 75 48 76
REMARK SMILES IDX 74 77 75 78 83 79 76 80 77 81 81 82 84 83 78 84 79 85 82 86
REMARK SMILES IDX 80 87 59 88 60 89 68 90 61 91 62 92 66 93 69 94 63 95 64 96
REMARK SMILES IDX 67 97 65 98
REMARK H PARENT 6 16 89 51 57 62
REMARK Flexibility Score: inf
ROOT
ATOM      1  C   UNL     1      -2.052   3.741  -0.592  1.00  0.00     0.188 C 
ENDROOT
BRANCH   1   2
ATOM      2  C   UNL     1      -2.268   3.962   0.915  1.00  0.00     0.188 C 
BRANCH   2   3
ATOM      3  O   UNL     1      -2.271   5.287   1.429  1.00  0.00    -0.376 OA
BRANCH   3   4
ATOM      4  C   UNL     1      -1.115   6.096   1.241  1.00  0.00     0.202 C 
BRANCH   4   5
ATOM      5  C   UNL     1       0.267   5.460   1.403  1.00  0.00     0.261 C 
BRANCH   5   6
ATOM      6  O   UNL     1       0.574   4.420   0.440  1.00  0.00    -0.462 OA
BRANCH   6   7
ATOM      7  C   UNL     1       1.271   3.350   0.898  1.00  0.00     0.328 C 
ATOM      8  O   UNL     1       1.500   3.149   2.087  1.00  0.00    -0.250 OA
BRANCH   7   9
ATOM      9  C   UNL     1       1.970   2.523  -0.214  1.00  0.00     0.193 C 
BRANCH   9  10
ATOM     10  C   UNL     1       1.281   2.231  -1.556  1.00  0.00     0.048 C 
BRANCH  10  11
ATOM     11  C   UNL     1       1.604   0.865  -2.176  1.00  0.00     0.072 C 
BRANCH  11  12
ATOM     12  S   UNL     1       0.472  -0.477  -1.678  1.00  0.00    -0.165 SA
ATOM     13  C   UNL     1       1.130  -0.887  -0.047  1.00  0.00     0.085 C 
ENDBRANCH  11  12
ENDBRANCH  10  11
ENDBRANCH   9  10
BRANCH   9  14
ATOM     14  N   UNL     1       3.394   2.893  -0.331  1.00  0.00    -0.342 N 
ATOM     15  C   UNL     1       4.006   4.079  -0.644  1.00  0.00     0.226 C 
ATOM     16  H   UNL     1       4.019   2.153  -0.153  1.00  0.00     0.164 HD
ATOM     17  O   UNL     1       5.235   4.111  -0.656  1.00  0.00    -0.275 OA
BRANCH  15  18
ATOM     18  C   UNL     1       3.168   5.310  -0.910  1.00  0.00     0.107 C 
ATOM     19  C   UNL     1       2.419   5.223  -2.234  1.00  0.00     0.115 C 
ATOM     20  C   UNL     1       3.914   6.634  -0.991  1.00  0.00     0.133 C 
ATOM     21  C   UNL     1       2.342   6.625  -2.741  1.00  0.00     0.223 C 
ATOM     22  N   UNL     1       3.110   7.410  -1.911  1.00  0.00    -0.345 N 
ATOM     23  O   UNL     1       1.681   6.988  -3.700  1.00  0.00    -0.275 OA
ATOM     24  C   UNL     1       3.140   8.847  -1.988  1.00  0.00     0.146 C 
ENDBRANCH  15  18
ENDBRANCH   9  14
ENDBRANCH   7   9
ENDBRANCH   6   7
ENDBRANCH   5   6
ENDBRANCH   4   5
ENDBRANCH   3   4
ENDBRANCH   2   3
ENDBRANCH   1   2
BRANCH   1  25
ATOM     25  O   UNL     1      -1.369   4.788  -1.261  1.00  0.00    -0.377 OA
BRANCH  25  26
ATOM     26  C   UNL     1      -2.165   5.756  -1.949  1.00  0.00     0.188 C 
BRANCH  26  27
ATOM     27  C   UNL     1      -3.538   6.132  -1.355  1.00  0.00     0.188 C 
BRANCH  27  28
ATOM     28  O   UNL     1      -4.372   5.013  -1.085  1.00  0.00    -0.376 OA
BRANCH  28  29
ATOM     29  C   UNL     1      -5.308   4.602  -2.072  1.00  0.00     0.202 C 
BRANCH  29  30
ATOM     30  C   UNL     1      -4.757   4.177  -3.442  1.00  0.00     0.261 C 
BRANCH  30  31
ATOM     31  O   UNL     1      -4.096   5.194  -4.211  1.00  0.00    -0.460 OA
BRANCH  31  32
ATOM     32  C   UNL     1      -4.723   6.368  -4.417  1.00  0.00     0.338 C 
ATOM     33  O   UNL     1      -5.848   6.688  -4.078  1.00  0.00    -0.246 OA
BRANCH  32  34
ATOM     34  C   UNL     1      -3.739   7.287  -5.010  1.00  0.00     0.060 A 
ATOM     35  C   UNL     1      -3.398   8.470  -4.340  1.00  0.00     0.016 A 
ATOM     36  C   UNL     1      -3.189   6.983  -6.256  1.00  0.00     0.016 A 
ATOM     37  C   UNL     1      -2.538   9.386  -4.946  1.00  0.00     0.010 A 
ATOM     38  C   UNL     1      -2.346   7.906  -6.868  1.00  0.00     0.010 A 
ATOM     39  C   UNL     1      -2.056   9.129  -6.236  1.00  0.00    -0.014 A 
BRANCH  39  40
ATOM     40  C   UNL     1      -1.467  10.210  -7.056  1.00  0.00     0.031 A 
ATOM     41  C   UNL     1      -2.378  10.919  -8.019  1.00  0.00     0.074 A 
ATOM     42  C   UNL     1      -0.159  10.504  -7.002  1.00  0.00     0.049 A 
ATOM     43  N   UNL     1      -2.087  11.731  -9.001  1.00  0.00    -0.248 NA
ATOM     44  C   UNL     1      -3.818  10.653  -7.863  1.00  0.00     0.031 C 
ATOM     45  C   UNL     1       0.805   9.917  -6.077  1.00  0.00     0.029 A 
ATOM     46  N   UNL     1       0.587  11.354  -7.780  1.00  0.00    -0.354 N 
ATOM     47  C   UNL     1      -3.302  12.047  -9.595  1.00  0.00     0.074 A 
ATOM     48  C   UNL     1      -4.332  11.332  -8.876  1.00  0.00     0.031 C 
ATOM     49  C   UNL     1       2.027  10.402  -6.361  1.00  0.00     0.029 A 
ATOM     50  C   UNL     1       1.933  11.289  -7.520  1.00  0.00     0.049 A 
ATOM     51  H   UNL     1       0.195  11.951  -8.458  1.00  0.00     0.167 HD
ATOM     52  C   UNL     1      -3.533  12.861 -10.651  1.00  0.00     0.037 A 
ATOM     53  C   UNL     1       2.968  11.846  -8.181  1.00  0.00     0.037 A 
ATOM     54  C   UNL     1      -2.498  13.563 -11.359  1.00  0.00     0.049 A 
ATOM     55  C   UNL     1       2.695  12.688  -9.405  1.00  0.00     0.074 A 
ATOM     56  C   UNL     1      -2.619  14.421 -12.437  1.00  0.00     0.029 A 
ATOM     57  N   UNL     1      -1.146  13.478 -11.060  1.00  0.00    -0.354 N 
ATOM     58  N   UNL     1       1.548  12.995  -9.962  1.00  0.00    -0.248 NA
ATOM     59  C   UNL     1       3.862  13.254 -10.097  1.00  0.00     0.031 C 
ATOM     60  C   UNL     1      -1.335  14.813 -12.825  1.00  0.00     0.029 A 
ATOM     61  C   UNL     1      -0.420  14.253 -11.947  1.00  0.00     0.049 A 
ATOM     62  H   UNL     1      -0.761  12.946 -10.327  1.00  0.00     0.167 HD
ATOM     63  C   UNL     1       1.851  13.820 -11.039  1.00  0.00     0.074 A 
ATOM     64  C   UNL     1       3.291  13.964 -11.061  1.00  0.00     0.031 C 
ATOM     65  C   UNL     1       1.012  14.411 -11.926  1.00  0.00     0.037 A 
BRANCH  52  66
ATOM     66  C   UNL     1      -4.949  13.001 -11.125  1.00  0.00     0.064 A 
ATOM     67  C   UNL     1      -5.918  13.679 -10.371  1.00  0.00     0.173 A 
ATOM     68  C   UNL     1      -5.336  12.469 -12.365  1.00  0.00     0.173 A 
ATOM     69  F   UNL     1      -5.605  14.191  -9.171  1.00  0.00    -0.203 F 
ATOM     70  C   UNL     1      -7.228  13.797 -10.829  1.00  0.00     0.198 A 
ATOM     71  C   UNL     1      -6.638  12.617 -12.834  1.00  0.00     0.198 A 
ATOM     72  F   UNL     1      -4.449  11.812 -13.126  1.00  0.00    -0.203 F 
ATOM     73  F   UNL     1      -8.150  14.405 -10.069  1.00  0.00    -0.200 F 
ATOM     74  C   UNL     1      -7.585  13.273 -12.062  1.00  0.00     0.200 A 
ATOM     75  F   UNL     1      -6.978  12.122 -14.032  1.00  0.00    -0.200 F 
ATOM     76  F   UNL     1      -8.844  13.395 -12.505  1.00  0.00    -0.200 F 
ENDBRANCH  52  66
BRANCH  53  77
ATOM     77  C   UNL     1       4.361  11.607  -7.721  1.00  0.00     0.064 A 
ATOM     78  C   UNL     1       5.134  12.652  -7.195  1.00  0.00     0.173 A 
ATOM     79  C   UNL     1       4.957  10.340  -7.813  1.00  0.00     0.173 A 
ATOM     80  F   UNL     1       4.620  13.888  -7.112  1.00  0.00    -0.203 F 
ATOM     81  C   UNL     1       6.453  12.444  -6.797  1.00  0.00     0.198 A 
ATOM     82  C   UNL     1       6.266  10.126  -7.386  1.00  0.00     0.198 A 
ATOM     83  F   UNL     1       4.265   9.307  -8.316  1.00  0.00    -0.203 F 
ATOM     84  F   UNL     1       7.184  13.472  -6.346  1.00  0.00    -0.200 F 
ATOM     85  C   UNL     1       7.016  11.180  -6.887  1.00  0.00     0.200 A 
ATOM     86  F   UNL     1       6.803   8.901  -7.465  1.00  0.00    -0.200 F 
ATOM     87  F   UNL     1       8.284  10.980  -6.502  1.00  0.00    -0.200 F 
ENDBRANCH  53  77
BRANCH  65  88
ATOM     88  C   UNL     1       1.607  15.332 -12.951  1.00  0.00     0.064 A 
ATOM     89  C   UNL     1       2.320  14.850 -14.057  1.00  0.00     0.173 A 
ATOM     90  C   UNL     1       1.365  16.713 -12.874  1.00  0.00     0.173 A 
ATOM     91  F   UNL     1       2.587  13.540 -14.171  1.00  0.00    -0.203 F 
ATOM     92  C   UNL     1       2.775  15.719 -15.046  1.00  0.00     0.198 A 
ATOM     93  C   UNL     1       1.795  17.574 -13.878  1.00  0.00     0.198 A 
ATOM     94  F   UNL     1       0.678  17.222 -11.839  1.00  0.00    -0.203 F 
ATOM     95  F   UNL     1       3.477  15.242 -16.083  1.00  0.00    -0.200 F 
ATOM     96  C   UNL     1       2.501  17.077 -14.962  1.00  0.00     0.200 A 
ATOM     97  F   UNL     1       1.512  18.882 -13.805  1.00  0.00    -0.200 F 
ATOM     98  F   UNL     1       2.918  17.907 -15.929  1.00  0.00    -0.200 F 
ENDBRANCH  65  88
ENDBRANCH  39  40
ENDBRANCH  32  34
ENDBRANCH  31  32
ENDBRANCH  30  31
ENDBRANCH  29  30
ENDBRANCH  28  29
ENDBRANCH  27  28
ENDBRANCH  26  27
ENDBRANCH  25  26
ENDBRANCH   1  25
TORSDOF 25
