REMARK SMILES Cn1cnnc1CCNC(=O)NCc1ccc(C(=O)OCCOCCOCCOCCOC(=O)c2ccc(-c3c4nc(c(-c5c(F)c(F)c(F)c(F)c5F)c5ccc([nH]5)c(-c5c(F)c(F)c(F)c(F)c5F)c5nc(c(-c6c(F)c(F)c(F)c(F)c6F)c6ccc3[nH]6)C=C5)C=C4)cc2)o1
REMARK SMILES IDX 24 1 23 2 22 3 21 4 20 5 18 6 19 7 17 8 14 9 15 10 98 11
REMARK SMILES IDX 16 12 13 13 12 14 9 15 10 16 11 18 8 20 7 21 6 22 1 23 2 24
REMARK SMILES IDX 3 25 4 26 5 27 25 28 26 29 27 30 28 31 29 32 30 33 31 34
REMARK SMILES IDX 32 35 33 36 34 37 35 38 36 39 97 40 37 41 96 42 38 43 39 44
REMARK SMILES IDX 40 45 90 46 41 47 95 48 89 49 91 50 42 51 94 52 88 53 87 54
REMARK SMILES IDX 43 56 75 57 55 58 74 59 56 60 59 61 73 62 92 63 57 64 58 65
REMARK SMILES IDX 72 67 93 68 60 69 44 70 45 71 53 72 46 73 47 74 51 75 54 76
REMARK SMILES IDX 48 77 49 78 52 79 50 80 76 81 77 82 85 83 78 84 79 85 83 86
REMARK SMILES IDX 86 87 80 88 81 89 84 90 82 91 61 92 62 93 70 94 63 95 64 96
REMARK SMILES IDX 68 97 71 98 65 99 66 100 69 101 67 102
REMARK H PARENT 9 17 12 19 91 55 59 66
REMARK Flexibility Score: inf
ROOT
ATOM      1  C   UNL     1      -0.665 -10.664   4.194  1.00  0.00     0.188 C 
ENDROOT
BRANCH   1   2
ATOM      2  O   UNL     1      -0.071 -11.788   4.850  1.00  0.00    -0.376 OA
BRANCH   2   3
ATOM      3  C   UNL     1       1.319 -11.989   4.604  1.00  0.00     0.202 C 
BRANCH   3   4
ATOM      4  C   UNL     1       2.262 -11.052   5.375  1.00  0.00     0.261 C 
BRANCH   4   5
ATOM      5  O   UNL     1       2.205  -9.673   4.969  1.00  0.00    -0.457 OA
BRANCH   5   6
ATOM      6  C   UNL     1       2.515  -9.385   3.680  1.00  0.00     0.374 C 
ATOM      7  O   UNL     1       3.002 -10.176   2.884  1.00  0.00    -0.242 OA
BRANCH   6   8
ATOM      8  C   UNL     1       2.031  -8.059   3.384  1.00  0.00     0.211 A 
ATOM      9  C   UNL     1       0.916  -6.586   2.174  1.00  0.00     0.124 A 
ATOM     10  C   UNL     1       1.125  -6.001   3.408  1.00  0.00     0.048 A 
ATOM     11  O   UNL     1       1.507  -7.815   2.142  1.00  0.00    -0.452 OA
ATOM     12  C   UNL     1       1.842  -6.941   4.183  1.00  0.00     0.058 A 
BRANCH   9  13
ATOM     13  C   UNL     1       0.166  -6.184   0.956  1.00  0.00     0.193 C 
BRANCH  13  14
ATOM     14  N   UNL     1      -1.187  -5.835   1.326  1.00  0.00    -0.331 N 
ATOM     15  N   UNL     1      -1.290  -3.478   1.401  1.00  0.00    -0.338 N 
ATOM     16  C   UNL     1      -1.859  -4.687   1.451  1.00  0.00     0.315 C 
ATOM     17  H   UNL     1      -1.952  -2.750   1.370  1.00  0.00     0.165 HD
ATOM     18  O   UNL     1      -3.076  -4.756   1.628  1.00  0.00    -0.249 OA
ATOM     19  H   UNL     1      -1.740  -6.623   1.534  1.00  0.00     0.165 HD
BRANCH  15  20
ATOM     20  C   UNL     1       0.077  -2.993   1.382  1.00  0.00     0.126 C 
BRANCH  20  21
ATOM     21  C   UNL     1       0.474  -2.416   0.022  1.00  0.00     0.099 C 
BRANCH  21  22
ATOM     22  C   UNL     1       0.015  -1.003  -0.107  1.00  0.00     0.134 A 
ATOM     23  C   UNL     1       2.237   0.229   0.014  1.00  0.00     0.152 C 
ATOM     24  N   UNL     1       0.807   0.117  -0.092  1.00  0.00    -0.321 N 
ATOM     25  C   UNL     1      -0.041   1.181  -0.178  1.00  0.00     0.225 A 
ATOM     26  N   UNL     1      -1.277   0.752  -0.246  1.00  0.00    -0.139 NA
ATOM     27  N   UNL     1      -1.244  -0.619  -0.204  1.00  0.00    -0.136 NA
ENDBRANCH  21  22
ENDBRANCH  20  21
ENDBRANCH  15  20
ENDBRANCH  13  14
ENDBRANCH   9  13
ENDBRANCH   6   8
ENDBRANCH   5   6
ENDBRANCH   4   5
ENDBRANCH   3   4
ENDBRANCH   2   3
ENDBRANCH   1   2
BRANCH   1  28
ATOM     28  C   UNL     1      -0.864  -9.457   5.124  1.00  0.00     0.188 C 
BRANCH  28  29
ATOM     29  O   UNL     1      -0.390  -9.711   6.440  1.00  0.00    -0.377 OA
BRANCH  29  30
ATOM     30  C   UNL     1      -1.363 -10.171   7.374  1.00  0.00     0.188 C 
BRANCH  30  31
ATOM     31  C   UNL     1      -2.390 -11.218   6.906  1.00  0.00     0.188 C 
BRANCH  31  32
ATOM     32  O   UNL     1      -3.297 -10.699   5.928  1.00  0.00    -0.376 OA
BRANCH  32  33
ATOM     33  C   UNL     1      -4.629 -10.456   6.381  1.00  0.00     0.202 C 
BRANCH  33  34
ATOM     34  C   UNL     1      -4.791  -9.098   7.077  1.00  0.00     0.261 C 
BRANCH  34  35
ATOM     35  O   UNL     1      -4.090  -8.989   8.327  1.00  0.00    -0.460 OA
BRANCH  35  36
ATOM     36  C   UNL     1      -4.462  -9.842   9.305  1.00  0.00     0.338 C 
ATOM     37  O   UNL     1      -5.382 -10.639   9.282  1.00  0.00    -0.246 OA
BRANCH  36  38
ATOM     38  C   UNL     1      -3.448  -9.785  10.375  1.00  0.00     0.060 A 
ATOM     39  C   UNL     1      -2.906 -10.988  10.842  1.00  0.00     0.016 A 
ATOM     40  C   UNL     1      -3.057  -8.564  10.931  1.00  0.00     0.016 A 
ATOM     41  C   UNL     1      -2.006 -10.976  11.907  1.00  0.00     0.010 A 
ATOM     42  C   UNL     1      -2.168  -8.554  12.007  1.00  0.00     0.010 A 
ATOM     43  C   UNL     1      -1.670  -9.762  12.522  1.00  0.00    -0.014 A 
BRANCH  43  44
ATOM     44  C   UNL     1      -0.963  -9.767  13.822  1.00  0.00     0.031 A 
ATOM     45  C   UNL     1      -1.785  -9.785  15.080  1.00  0.00     0.074 A 
ATOM     46  C   UNL     1       0.379  -9.749  13.887  1.00  0.00     0.049 A 
ATOM     47  N   UNL     1      -1.397  -9.765  16.329  1.00  0.00    -0.248 NA
ATOM     48  C   UNL     1      -3.247  -9.829  14.903  1.00  0.00     0.031 C 
ATOM     49  C   UNL     1       1.282  -9.748  12.740  1.00  0.00     0.029 A 
ATOM     50  N   UNL     1       1.212  -9.714  14.977  1.00  0.00    -0.354 N 
ATOM     51  C   UNL     1      -2.562  -9.801  17.083  1.00  0.00     0.074 A 
ATOM     52  C   UNL     1      -3.672  -9.815  16.157  1.00  0.00     0.031 C 
ATOM     53  C   UNL     1       2.550  -9.700  13.187  1.00  0.00     0.029 A 
ATOM     54  C   UNL     1       2.543  -9.646  14.648  1.00  0.00     0.049 A 
ATOM     55  H   UNL     1       0.887  -9.736  15.906  1.00  0.00     0.167 HD
ATOM     56  C   UNL     1      -2.694  -9.829  18.430  1.00  0.00     0.037 A 
ATOM     57  C   UNL     1       3.625  -9.538  15.442  1.00  0.00     0.037 A 
ATOM     58  C   UNL     1      -1.594  -9.798  19.354  1.00  0.00     0.049 A 
ATOM     59  C   UNL     1       3.448  -9.504  16.938  1.00  0.00     0.074 A 
ATOM     60  C   UNL     1      -1.625  -9.836  20.736  1.00  0.00     0.029 A 
ATOM     61  N   UNL     1      -0.261  -9.710  18.983  1.00  0.00    -0.354 N 
ATOM     62  N   UNL     1       2.347  -9.581  17.645  1.00  0.00    -0.248 NA
ATOM     63  C   UNL     1       4.669  -9.369  17.747  1.00  0.00     0.031 C 
ATOM     64  C   UNL     1      -0.310  -9.734  21.204  1.00  0.00     0.029 A 
ATOM     65  C   UNL     1       0.540  -9.669  20.111  1.00  0.00     0.049 A 
ATOM     66  H   UNL     1       0.067  -9.680  18.055  1.00  0.00     0.167 HD
ATOM     67  C   UNL     1       2.741  -9.530  18.975  1.00  0.00     0.074 A 
ATOM     68  C   UNL     1       4.185  -9.422  18.980  1.00  0.00     0.031 C 
ATOM     69  C   UNL     1       1.976  -9.570  20.093  1.00  0.00     0.037 A 
BRANCH  56  70
ATOM     70  C   UNL     1      -4.086  -9.879  18.978  1.00  0.00     0.064 A 
ATOM     71  C   UNL     1      -4.846 -11.056  18.932  1.00  0.00     0.173 A 
ATOM     72  C   UNL     1      -4.661  -8.743  19.567  1.00  0.00     0.173 A 
ATOM     73  F   UNL     1      -4.344 -12.162  18.361  1.00  0.00    -0.203 F 
ATOM     74  C   UNL     1      -6.141 -11.090  19.441  1.00  0.00     0.198 A 
ATOM     75  C   UNL     1      -5.949  -8.787  20.092  1.00  0.00     0.198 A 
ATOM     76  F   UNL     1      -3.973  -7.593  19.630  1.00  0.00    -0.203 F 
ATOM     77  F   UNL     1      -6.865 -12.215  19.352  1.00  0.00    -0.200 F 
ATOM     78  C   UNL     1      -6.690  -9.957  20.024  1.00  0.00     0.200 A 
ATOM     79  F   UNL     1      -6.477  -7.693  20.659  1.00  0.00    -0.200 F 
ATOM     80  F   UNL     1      -7.937  -9.992  20.513  1.00  0.00    -0.200 F 
ENDBRANCH  56  70
BRANCH  57  81
ATOM     81  C   UNL     1       4.979  -9.450  14.841  1.00  0.00     0.064 A 
ATOM     82  C   UNL     1       5.883 -10.516  14.942  1.00  0.00     0.173 A 
ATOM     83  C   UNL     1       5.404  -8.291  14.176  1.00  0.00     0.173 A 
ATOM     84  F   UNL     1       5.530 -11.633  15.594  1.00  0.00    -0.203 F 
ATOM     85  C   UNL     1       7.168 -10.420  14.411  1.00  0.00     0.198 A 
ATOM     86  C   UNL     1       6.681  -8.205  13.627  1.00  0.00     0.198 A 
ATOM     87  F   UNL     1       4.576  -7.242  14.059  1.00  0.00    -0.203 F 
ATOM     88  F   UNL     1       8.028 -11.438  14.556  1.00  0.00    -0.200 F 
ATOM     89  C   UNL     1       7.564  -9.267  13.750  1.00  0.00     0.200 A 
ATOM     90  F   UNL     1       7.059  -7.091  12.985  1.00  0.00    -0.200 F 
ATOM     91  F   UNL     1       8.801  -9.175  13.242  1.00  0.00    -0.200 F 
ENDBRANCH  57  81
BRANCH  69  92
ATOM     92  C   UNL     1       2.683  -9.526  21.414  1.00  0.00     0.064 A 
ATOM     93  C   UNL     1       3.221  -8.334  21.917  1.00  0.00     0.173 A 
ATOM     94  C   UNL     1       2.776 -10.679  22.208  1.00  0.00     0.173 A 
ATOM     95  F   UNL     1       3.169  -7.209  21.187  1.00  0.00    -0.203 F 
ATOM     96  C   UNL     1       3.842  -8.300  23.163  1.00  0.00     0.198 A 
ATOM     97  C   UNL     1       3.377 -10.637  23.462  1.00  0.00     0.198 A 
ATOM     98  F   UNL     1       2.271 -11.843  21.772  1.00  0.00    -0.203 F 
ATOM     99  F   UNL     1       4.379  -7.157  23.611  1.00  0.00    -0.200 F 
ATOM    100  C   UNL     1       3.913  -9.449  23.937  1.00  0.00     0.200 A 
ATOM    101  F   UNL     1       3.437 -11.746  24.213  1.00  0.00    -0.200 F 
ATOM    102  F   UNL     1       4.504  -9.413  25.139  1.00  0.00    -0.200 F 
ENDBRANCH  69  92
ENDBRANCH  43  44
ENDBRANCH  36  38
ENDBRANCH  35  36
ENDBRANCH  34  35
ENDBRANCH  33  34
ENDBRANCH  32  33
ENDBRANCH  31  32
ENDBRANCH  30  31
ENDBRANCH  29  30
ENDBRANCH  28  29
ENDBRANCH   1  28
TORSDOF 25
