REMARK SMILES O=C(OCCOCCOCCOCCOC(=O)C1CN(C(=O)CC2CC[NH2+]CC2)C1)c1ccc(-c2c3nc(c(-c4c(F)c(F)c(F)c(F)c4F)c4ccc([nH]4)c(-c4c(F)c(F)c(F)c(F)c4F)c4nc(c(-c5c(F)c(F)c(F)c(F)c5F)c5ccc2[nH]5)C=C4)C=C3)cc1
REMARK SMILES IDX 9 1 8 2 7 3 6 4 5 5 4 6 3 7 2 8 1 9 31 10 32 11 93 12 33 13
REMARK SMILES IDX 92 14 34 15 35 16 36 17 86 18 37 19 91 20 85 21 87 22 38 23
REMARK SMILES IDX 90 24 84 25 83 26 39 28 71 29 51 30 70 31 52 32 55 33 69 34
REMARK SMILES IDX 88 35 53 36 54 37 68 39 89 40 56 41 40 42 41 43 49 44 42 45
REMARK SMILES IDX 43 46 47 47 50 48 44 49 45 50 48 51 46 52 72 53 73 54 81 55
REMARK SMILES IDX 74 56 75 57 79 58 82 59 76 60 77 61 80 62 78 63 57 64 58 65
REMARK SMILES IDX 66 66 59 67 60 68 64 69 67 70 61 71 62 72 65 73 63 74 10 75
REMARK SMILES IDX 11 76 12 77 13 78 14 79 15 80 16 81 17 82 18 83 19 84 30 85
REMARK SMILES IDX 20 86 21 87 22 88 23 89 24 90 25 91 29 92 26 93 28 94 27 95
REMARK H PARENT 87 27 55 38 27 96 27 97
REMARK Flexibility Score: inf
ROOT
ATOM      1  O   UNL     1       3.041   4.091   0.186  1.00  0.00    -0.377 OA
ENDROOT
BRANCH   1   2
ATOM      2  C   UNL     1       2.128   3.007   0.380  1.00  0.00     0.188 C 
BRANCH   2   3
ATOM      3  C   UNL     1       2.455   1.740  -0.413  1.00  0.00     0.188 C 
BRANCH   3   4
ATOM      4  O   UNL     1       3.705   1.209   0.008  1.00  0.00    -0.376 OA
BRANCH   4   5
ATOM      5  C   UNL     1       4.503   0.502  -0.927  1.00  0.00     0.202 C 
BRANCH   5   6
ATOM      6  C   UNL     1       3.857  -0.690  -1.634  1.00  0.00     0.261 C 
BRANCH   6   7
ATOM      7  O   UNL     1       2.458  -0.900  -1.350  1.00  0.00    -0.460 OA
BRANCH   7   8
ATOM      8  C   UNL     1       1.891  -1.633  -0.359  1.00  0.00     0.338 C 
ATOM      9  O   UNL     1       0.694  -1.895  -0.393  1.00  0.00    -0.246 OA
BRANCH   8  10
ATOM     10  C   UNL     1       2.699  -2.161   0.763  1.00  0.00     0.060 A 
ATOM     11  C   UNL     1       3.652  -1.395   1.413  1.00  0.00     0.016 A 
ATOM     12  C   UNL     1       2.429  -3.437   1.264  1.00  0.00     0.016 A 
ATOM     13  C   UNL     1       4.521  -1.945   2.328  1.00  0.00     0.010 A 
ATOM     14  C   UNL     1       3.189  -3.948   2.324  1.00  0.00     0.010 A 
ATOM     15  C   UNL     1       4.289  -3.225   2.811  1.00  0.00    -0.014 A 
BRANCH  15  16
ATOM     16  C   UNL     1       5.289  -3.795   3.739  1.00  0.00     0.031 A 
ATOM     17  C   UNL     1       6.067  -4.996   3.291  1.00  0.00     0.074 A 
ATOM     18  C   UNL     1       5.606  -3.136   4.872  1.00  0.00     0.049 A 
ATOM     19  N   UNL     1       6.941  -5.709   3.947  1.00  0.00    -0.248 NA
ATOM     20  C   UNL     1       5.831  -5.459   1.911  1.00  0.00     0.031 C 
ATOM     21  C   UNL     1       4.990  -1.883   5.325  1.00  0.00     0.029 A 
ATOM     22  N   UNL     1       6.558  -3.391   5.822  1.00  0.00    -0.354 N 
ATOM     23  C   UNL     1       7.322  -6.724   3.080  1.00  0.00     0.074 A 
ATOM     24  C   UNL     1       6.576  -6.550   1.856  1.00  0.00     0.031 C 
ATOM     25  C   UNL     1       5.621  -1.450   6.426  1.00  0.00     0.029 A 
ATOM     26  C   UNL     1       6.600  -2.450   6.824  1.00  0.00     0.049 A 
ATOM     27  H   UNL     1       7.156  -4.173   5.791  1.00  0.00     0.167 HD
ATOM     28  C   UNL     1       8.221  -7.710   3.296  1.00  0.00     0.037 A 
ATOM     29  C   UNL     1       7.315  -2.434   7.964  1.00  0.00     0.037 A 
ATOM     30  C   UNL     1       8.962  -7.839   4.520  1.00  0.00     0.049 A 
ATOM     31  C   UNL     1       8.238  -3.593   8.219  1.00  0.00     0.074 A 
ATOM     32  C   UNL     1       9.833  -8.838   4.909  1.00  0.00     0.029 A 
ATOM     33  N   UNL     1       8.921  -6.912   5.555  1.00  0.00    -0.354 N 
ATOM     34  N   UNL     1       8.511  -4.618   7.444  1.00  0.00    -0.248 NA
ATOM     35  C   UNL     1       8.936  -3.611   9.508  1.00  0.00     0.031 C 
ATOM     36  C   UNL     1      10.291  -8.533   6.196  1.00  0.00     0.029 A 
ATOM     37  C   UNL     1       9.748  -7.317   6.587  1.00  0.00     0.049 A 
ATOM     38  H   UNL     1       8.383  -6.087   5.553  1.00  0.00     0.167 HD
ATOM     39  C   UNL     1       9.416  -5.398   8.147  1.00  0.00     0.074 A 
ATOM     40  C   UNL     1       9.674  -4.705   9.395  1.00  0.00     0.031 C 
ATOM     41  C   UNL     1       9.975  -6.587   7.808  1.00  0.00     0.037 A 
BRANCH  28  42
ATOM     42  C   UNL     1       8.384  -8.737   2.215  1.00  0.00     0.064 A 
ATOM     43  C   UNL     1       9.006  -8.438   0.992  1.00  0.00     0.173 A 
ATOM     44  C   UNL     1       7.872 -10.031   2.389  1.00  0.00     0.173 A 
ATOM     45  F   UNL     1       9.480  -7.205   0.759  1.00  0.00    -0.203 F 
ATOM     46  C   UNL     1       9.083  -9.389  -0.024  1.00  0.00     0.198 A 
ATOM     47  C   UNL     1       7.976 -10.987   1.382  1.00  0.00     0.198 A 
ATOM     48  F   UNL     1       7.256 -10.366   3.533  1.00  0.00    -0.203 F 
ATOM     49  F   UNL     1       9.623  -9.061  -1.206  1.00  0.00    -0.200 F 
ATOM     50  C   UNL     1       8.573 -10.663   0.173  1.00  0.00     0.200 A 
ATOM     51  F   UNL     1       7.483 -12.218   1.576  1.00  0.00    -0.200 F 
ATOM     52  F   UNL     1       8.641 -11.573  -0.808  1.00  0.00    -0.200 F 
ENDBRANCH  28  42
BRANCH  29  53
ATOM     53  C   UNL     1       7.119  -1.352   8.970  1.00  0.00     0.064 A 
ATOM     54  C   UNL     1       8.167  -0.503   9.352  1.00  0.00     0.173 A 
ATOM     55  C   UNL     1       5.878  -1.165   9.602  1.00  0.00     0.173 A 
ATOM     56  F   UNL     1       9.380  -0.645   8.797  1.00  0.00    -0.203 F 
ATOM     57  C   UNL     1       7.990   0.466  10.341  1.00  0.00     0.198 A 
ATOM     58  C   UNL     1       5.690  -0.171  10.560  1.00  0.00     0.198 A 
ATOM     59  F   UNL     1       4.835  -1.946   9.281  1.00  0.00    -0.203 F 
ATOM     60  F   UNL     1       9.027   1.220  10.729  1.00  0.00    -0.200 F 
ATOM     61  C   UNL     1       6.751   0.634  10.940  1.00  0.00     0.200 A 
ATOM     62  F   UNL     1       4.484  -0.001  11.118  1.00  0.00    -0.200 F 
ATOM     63  F   UNL     1       6.582   1.564  11.889  1.00  0.00    -0.200 F 
ENDBRANCH  29  53
BRANCH  41  64
ATOM     64  C   UNL     1      10.937  -7.177   8.793  1.00  0.00     0.064 A 
ATOM     65  C   UNL     1      10.501  -7.716  10.012  1.00  0.00     0.173 A 
ATOM     66  C   UNL     1      12.307  -7.222   8.500  1.00  0.00     0.173 A 
ATOM     67  F   UNL     1       9.200  -7.678  10.341  1.00  0.00    -0.203 F 
ATOM     68  C   UNL     1      11.410  -8.248  10.920  1.00  0.00     0.198 A 
ATOM     69  C   UNL     1      13.208  -7.787   9.395  1.00  0.00     0.198 A 
ATOM     70  F   UNL     1      12.769  -6.725   7.343  1.00  0.00    -0.203 F 
ATOM     71  F   UNL     1      10.981  -8.701  12.106  1.00  0.00    -0.200 F 
ATOM     72  C   UNL     1      12.761  -8.290  10.608  1.00  0.00     0.200 A 
ATOM     73  F   UNL     1      14.511  -7.842   9.085  1.00  0.00    -0.200 F 
ATOM     74  F   UNL     1      13.635  -8.806  11.482  1.00  0.00    -0.200 F 
ENDBRANCH  41  64
ENDBRANCH  15  16
ENDBRANCH   8  10
ENDBRANCH   7   8
ENDBRANCH   6   7
ENDBRANCH   5   6
ENDBRANCH   4   5
ENDBRANCH   3   4
ENDBRANCH   2   3
ENDBRANCH   1   2
BRANCH   1  75
ATOM     75  C   UNL     1       4.426   3.783   0.332  1.00  0.00     0.188 C 
BRANCH  75  76
ATOM     76  C   UNL     1       4.944   3.349   1.722  1.00  0.00     0.188 C 
BRANCH  76  77
ATOM     77  O   UNL     1       4.003   2.597   2.477  1.00  0.00    -0.376 OA
BRANCH  77  78
ATOM     78  C   UNL     1       3.655   3.124   3.754  1.00  0.00     0.202 C 
BRANCH  78  79
ATOM     79  C   UNL     1       2.881   4.459   3.808  1.00  0.00     0.261 C 
BRANCH  79  80
ATOM     80  O   UNL     1       3.133   5.351   2.712  1.00  0.00    -0.463 OA
BRANCH  80  81
ATOM     81  C   UNL     1       4.080   6.326   2.854  1.00  0.00     0.312 C 
ATOM     82  O   UNL     1       4.645   6.553   3.911  1.00  0.00    -0.252 OA
BRANCH  81  83
ATOM     83  C   UNL     1       4.430   6.953   1.477  1.00  0.00     0.138 C 
ATOM     84  C   UNL     1       4.493   8.477   1.312  1.00  0.00     0.136 C 
ATOM     85  C   UNL     1       5.931   6.923   1.113  1.00  0.00     0.136 C 
ATOM     86  N   UNL     1       5.748   8.261   0.616  1.00  0.00    -0.341 N 
ATOM     87  C   UNL     1       6.460   9.053  -0.235  1.00  0.00     0.222 C 
ATOM     88  O   UNL     1       6.086  10.174  -0.570  1.00  0.00    -0.275 OA
BRANCH  87  89
ATOM     89  C   UNL     1       7.752   8.450  -0.769  1.00  0.00     0.104 C 
BRANCH  89  90
ATOM     90  C   UNL     1       8.820   8.294   0.335  1.00  0.00     0.009 C 
ATOM     91  C   UNL     1       9.859   9.426   0.294  1.00  0.00     0.065 C 
ATOM     92  C   UNL     1       9.539   6.937   0.249  1.00  0.00     0.065 C 
ATOM     93  C   UNL     1      10.863   9.268  -0.848  1.00  0.00     0.260 C 
ATOM     94  C   UNL     1      10.529   6.873  -0.911  1.00  0.00     0.260 C 
ATOM     95  N   UNL     1      11.506   7.955  -0.823  1.00  0.00    -0.346 N 
ATOM     96  H   UNL     1      12.027   7.859   0.049  1.00  0.00     0.346 HD
ATOM     97  H   UNL     1      12.126   7.889  -1.629  1.00  0.00     0.346 HD
ENDBRANCH  89  90
ENDBRANCH  87  89
ENDBRANCH  81  83
ENDBRANCH  80  81
ENDBRANCH  79  80
ENDBRANCH  78  79
ENDBRANCH  77  78
ENDBRANCH  76  77
ENDBRANCH  75  76
ENDBRANCH   1  75
TORSDOF 22
