REMARK SMILES O=C(NCCC1=CCCCC1)C1=C(C(=O)OCCOCCOCCOCCOC(=O)c2ccc(-c3c4nc(c(-c5c(F)c(F)c(F)c(F)c5F)c5ccc([nH]5)c(-c5c(F)c(F)c(F)c(F)c5F)c5nc(c(-c6c(F)c(F)c(F)c(F)c6F)c6ccc3[nH]6)C=C5)C=C4)cc2)CCCC1
REMARK SMILES IDX 21 1 20 2 19 3 18 4 17 5 16 6 14 7 15 8 13 9 12 10 97 11
REMARK SMILES IDX 94 12 96 13 95 14 2 15 1 16 3 17 4 19 5 20 6 21 7 22 11 23
REMARK SMILES IDX 8 24 10 25 9 26 22 27 23 28 24 29 25 30 26 31 27 32 28 33
REMARK SMILES IDX 29 34 30 35 31 36 32 37 93 38 33 39 92 40 34 41 35 42 36 43
REMARK SMILES IDX 86 44 37 45 91 46 85 47 87 48 38 49 90 50 84 51 83 52 39 54
REMARK SMILES IDX 71 55 51 56 70 57 52 58 55 59 69 60 88 61 53 62 54 63 68 65
REMARK SMILES IDX 89 66 56 67 40 68 41 69 49 70 42 71 43 72 47 73 50 74 44 75
REMARK SMILES IDX 45 76 48 77 46 78 72 79 73 80 81 81 74 82 75 83 79 84 82 85
REMARK SMILES IDX 76 86 77 87 80 88 78 89 57 90 58 91 66 92 59 93 60 94 64 95
REMARK SMILES IDX 67 96 61 97 62 98 65 99 63 100
REMARK H PARENT 3 18 87 53 55 64
REMARK Flexibility Score: inf
ROOT
ATOM      1  C   UNL     1       3.601   2.158   3.181  1.00  0.00     0.188 C 
ENDROOT
BRANCH   1   2
ATOM      2  C   UNL     1       5.032   2.704   2.949  1.00  0.00     0.188 C 
BRANCH   2   3
ATOM      3  O   UNL     1       5.135   3.888   2.190  1.00  0.00    -0.376 OA
BRANCH   3   4
ATOM      4  C   UNL     1       5.360   3.890   0.798  1.00  0.00     0.202 C 
BRANCH   4   5
ATOM      5  C   UNL     1       4.856   2.796  -0.144  1.00  0.00     0.261 C 
BRANCH   5   6
ATOM      6  O   UNL     1       4.343   1.610   0.455  1.00  0.00    -0.460 OA
BRANCH   6   7
ATOM      7  C   UNL     1       5.237   0.626   0.688  1.00  0.00     0.334 C 
ATOM      8  O   UNL     1       6.449   0.713   0.562  1.00  0.00    -0.247 OA
BRANCH   7   9
ATOM      9  C   UNL     1       4.557  -0.597   1.175  1.00  0.00     0.046 C 
ATOM     10  C   UNL     1       3.414  -1.084   0.644  1.00  0.00     0.027 C 
ATOM     11  C   UNL     1       2.714  -2.296   1.218  1.00  0.00     0.042 C 
ATOM     12  C   UNL     1       5.279  -1.279   2.307  1.00  0.00     0.044 C 
ATOM     13  C   UNL     1       3.352  -2.860   2.492  1.00  0.00     0.005 C 
ATOM     14  C   UNL     1       4.869  -2.739   2.462  1.00  0.00     0.005 C 
BRANCH  10  15
ATOM     15  C   UNL     1       2.690  -0.487  -0.520  1.00  0.00     0.247 C 
ATOM     16  O   UNL     1       1.481  -0.274  -0.455  1.00  0.00    -0.270 OA
ATOM     17  N   UNL     1       3.348  -0.284  -1.697  1.00  0.00    -0.352 N 
ATOM     18  H   UNL     1       2.784   0.014  -2.448  1.00  0.00     0.163 HD
BRANCH  17  19
ATOM     19  C   UNL     1       4.758  -0.443  -2.004  1.00  0.00     0.120 C 
BRANCH  19  20
ATOM     20  C   UNL     1       5.101  -0.519  -3.483  1.00  0.00     0.052 C 
BRANCH  20  21
ATOM     21  C   UNL     1       4.646   0.691  -4.268  1.00  0.00    -0.072 C 
ATOM     22  C   UNL     1       5.149   1.926  -4.071  1.00  0.00    -0.028 C 
ATOM     23  C   UNL     1       3.602   0.423  -5.319  1.00  0.00     0.031 C 
ATOM     24  C   UNL     1       4.710   3.142  -4.838  1.00  0.00     0.027 C 
ATOM     25  C   UNL     1       3.559   1.514  -6.385  1.00  0.00     0.005 C 
ATOM     26  C   UNL     1       3.502   2.895  -5.744  1.00  0.00     0.004 C 
ENDBRANCH  20  21
ENDBRANCH  19  20
ENDBRANCH  17  19
ENDBRANCH  10  15
ENDBRANCH   7   9
ENDBRANCH   6   7
ENDBRANCH   5   6
ENDBRANCH   4   5
ENDBRANCH   3   4
ENDBRANCH   2   3
ENDBRANCH   1   2
BRANCH   1  27
ATOM     27  O   UNL     1       2.485   2.672   2.473  1.00  0.00    -0.377 OA
BRANCH  27  28
ATOM     28  C   UNL     1       2.342   4.065   2.244  1.00  0.00     0.188 C 
BRANCH  28  29
ATOM     29  C   UNL     1       2.915   5.095   3.241  1.00  0.00     0.188 C 
BRANCH  29  30
ATOM     30  O   UNL     1       3.491   4.531   4.403  1.00  0.00    -0.376 OA
BRANCH  30  31
ATOM     31  C   UNL     1       2.740   4.514   5.601  1.00  0.00     0.202 C 
BRANCH  31  32
ATOM     32  C   UNL     1       1.348   3.866   5.597  1.00  0.00     0.261 C 
BRANCH  32  33
ATOM     33  O   UNL     1       0.438   4.293   4.574  1.00  0.00    -0.460 OA
BRANCH  33  34
ATOM     34  C   UNL     1       0.041   5.581   4.579  1.00  0.00     0.338 C 
ATOM     35  O   UNL     1       0.363   6.457   5.364  1.00  0.00    -0.246 OA
BRANCH  34  36
ATOM     36  C   UNL     1      -0.724   5.799   3.335  1.00  0.00     0.060 A 
ATOM     37  C   UNL     1      -0.243   6.701   2.376  1.00  0.00     0.016 A 
ATOM     38  C   UNL     1      -1.901   5.082   3.111  1.00  0.00     0.016 A 
ATOM     39  C   UNL     1      -0.956   6.907   1.195  1.00  0.00     0.010 A 
ATOM     40  C   UNL     1      -2.628   5.309   1.943  1.00  0.00     0.010 A 
ATOM     41  C   UNL     1      -2.175   6.245   0.997  1.00  0.00    -0.014 A 
BRANCH  41  42
ATOM     42  C   UNL     1      -3.087   6.684  -0.083  1.00  0.00     0.031 A 
ATOM     43  C   UNL     1      -4.180   7.653   0.269  1.00  0.00     0.074 A 
ATOM     44  C   UNL     1      -2.953   6.237  -1.342  1.00  0.00     0.049 A 
ATOM     45  N   UNL     1      -5.148   8.127  -0.471  1.00  0.00    -0.248 NA
ATOM     46  C   UNL     1      -4.179   8.149   1.654  1.00  0.00     0.031 C 
ATOM     47  C   UNL     1      -1.903   5.340  -1.813  1.00  0.00     0.029 A 
ATOM     48  N   UNL     1      -3.722   6.476  -2.453  1.00  0.00    -0.354 N 
ATOM     49  C   UNL     1      -5.876   8.968   0.360  1.00  0.00     0.074 A 
ATOM     50  C   UNL     1      -5.262   8.909   1.668  1.00  0.00     0.031 C 
ATOM     51  C   UNL     1      -2.096   5.097  -3.122  1.00  0.00     0.029 A 
ATOM     52  C   UNL     1      -3.307   5.788  -3.565  1.00  0.00     0.049 A 
ATOM     53  H   UNL     1      -4.497   7.083  -2.452  1.00  0.00     0.167 HD
ATOM     54  C   UNL     1      -6.955   9.727   0.057  1.00  0.00     0.037 A 
ATOM     55  C   UNL     1      -3.861   5.711  -4.790  1.00  0.00     0.037 A 
ATOM     56  C   UNL     1      -7.573   9.761  -1.243  1.00  0.00     0.049 A 
ATOM     57  C   UNL     1      -5.130   6.474  -5.075  1.00  0.00     0.074 A 
ATOM     58  C   UNL     1      -8.666  10.498  -1.661  1.00  0.00     0.029 A 
ATOM     59  N   UNL     1      -7.159   9.005  -2.332  1.00  0.00    -0.354 N 
ATOM     60  N   UNL     1      -5.805   7.287  -4.298  1.00  0.00    -0.248 NA
ATOM     61  C   UNL     1      -5.716   6.304  -6.413  1.00  0.00     0.031 C 
ATOM     62  C   UNL     1      -8.954  10.138  -2.982  1.00  0.00     0.029 A 
ATOM     63  C   UNL     1      -7.997   9.231  -3.412  1.00  0.00     0.049 A 
ATOM     64  H   UNL     1      -6.383   8.399  -2.336  1.00  0.00     0.167 HD
ATOM     65  C   UNL     1      -6.872   7.750  -5.058  1.00  0.00     0.074 A 
ATOM     66  C   UNL     1      -6.749   7.134  -6.363  1.00  0.00     0.031 C 
ATOM     67  C   UNL     1      -7.861   8.611  -4.708  1.00  0.00     0.037 A 
BRANCH  54  68
ATOM     68  C   UNL     1      -7.555  10.538   1.171  1.00  0.00     0.064 A 
ATOM     69  C   UNL     1      -6.870  11.614   1.758  1.00  0.00     0.173 A 
ATOM     70  C   UNL     1      -8.824  10.218   1.677  1.00  0.00     0.173 A 
ATOM     71  F   UNL     1      -5.647  11.954   1.323  1.00  0.00    -0.203 F 
ATOM     72  C   UNL     1      -7.410  12.305   2.840  1.00  0.00     0.198 A 
ATOM     73  C   UNL     1      -9.378  10.936   2.734  1.00  0.00     0.198 A 
ATOM     74  F   UNL     1      -9.526   9.203   1.153  1.00  0.00    -0.203 F 
ATOM     75  F   UNL     1      -6.703  13.277   3.433  1.00  0.00    -0.200 F 
ATOM     76  C   UNL     1      -8.664  11.968   3.325  1.00  0.00     0.200 A 
ATOM     77  F   UNL     1     -10.597  10.618   3.191  1.00  0.00    -0.200 F 
ATOM     78  F   UNL     1      -9.181  12.628   4.370  1.00  0.00    -0.200 F 
ENDBRANCH  54  68
BRANCH  55  79
ATOM     79  C   UNL     1      -3.215   4.885  -5.843  1.00  0.00     0.064 A 
ATOM     80  C   UNL     1      -2.622   5.487  -6.962  1.00  0.00     0.173 A 
ATOM     81  C   UNL     1      -3.169   3.486  -5.755  1.00  0.00     0.173 A 
ATOM     82  F   UNL     1      -2.665   6.820  -7.105  1.00  0.00    -0.203 F 
ATOM     83  C   UNL     1      -2.015   4.722  -7.955  1.00  0.00     0.198 A 
ATOM     84  C   UNL     1      -2.536   2.723  -6.734  1.00  0.00     0.198 A 
ATOM     85  F   UNL     1      -3.728   2.860  -4.709  1.00  0.00    -0.203 F 
ATOM     86  F   UNL     1      -1.489   5.321  -9.031  1.00  0.00    -0.200 F 
ATOM     87  C   UNL     1      -1.964   3.341  -7.836  1.00  0.00     0.200 A 
ATOM     88  F   UNL     1      -2.479   1.390  -6.611  1.00  0.00    -0.200 F 
ATOM     89  F   UNL     1      -1.368   2.607  -8.785  1.00  0.00    -0.200 F 
ENDBRANCH  55  79
BRANCH  67  90
ATOM     90  C   UNL     1      -8.869   8.976  -5.762  1.00  0.00     0.064 A 
ATOM     91  C   UNL     1      -9.824   8.058  -6.225  1.00  0.00     0.173 A 
ATOM     92  C   UNL     1      -8.911  10.280  -6.281  1.00  0.00     0.173 A 
ATOM     93  F   UNL     1      -9.820   6.794  -5.774  1.00  0.00    -0.203 F 
ATOM     94  C   UNL     1     -10.764   8.424  -7.185  1.00  0.00     0.198 A 
ATOM     95  C   UNL     1      -9.876  10.653  -7.213  1.00  0.00     0.198 A 
ATOM     96  F   UNL     1      -8.027  11.201  -5.868  1.00  0.00    -0.203 F 
ATOM     97  F   UNL     1     -11.634   7.516  -7.649  1.00  0.00    -0.200 F 
ATOM     98  C   UNL     1     -10.796   9.723  -7.670  1.00  0.00     0.200 A 
ATOM     99  F   UNL     1      -9.915  11.913  -7.667  1.00  0.00    -0.200 F 
ATOM    100  F   UNL     1     -11.709  10.077  -8.585  1.00  0.00    -0.200 F 
ENDBRANCH  67  90
ENDBRANCH  41  42
ENDBRANCH  34  36
ENDBRANCH  33  34
ENDBRANCH  32  33
ENDBRANCH  31  32
ENDBRANCH  30  31
ENDBRANCH  29  30
ENDBRANCH  28  29
ENDBRANCH  27  28
ENDBRANCH   1  27
TORSDOF 24
