REMARK SMILES O=C(OCCOCCOCCOCCOC(=O)c1ccc(-c2ccc(Cl)c3ccccc23)o1)c1ccc(-c2c3nc(c(-c4c(F)c(F)c(F)c(F)c4F)c4ccc([nH]4)c(-c4c(F)c(F)c(F)c(F)c4F)c4nc(c(-c5c(F)c(F)c(F)c(F)c5F)c5ccc2[nH]5)C=C4)C=C3)cc1
REMARK SMILES IDX 8 1 7 2 6 3 5 4 4 5 3 6 2 7 1 8 34 9 35 10 96 11 36 12 95 13
REMARK SMILES IDX 37 14 38 15 39 16 89 17 40 18 94 19 88 20 90 21 41 22 93 23
REMARK SMILES IDX 87 24 86 25 42 27 74 28 54 29 73 30 55 31 58 32 72 33 91 34
REMARK SMILES IDX 56 35 57 36 71 38 92 39 59 40 43 41 44 42 52 43 45 44 46 45
REMARK SMILES IDX 50 46 53 47 47 48 48 49 51 50 49 51 75 52 76 53 84 54 77 55
REMARK SMILES IDX 78 56 82 57 85 58 79 59 80 60 83 61 81 62 60 63 61 64 69 65
REMARK SMILES IDX 62 66 63 67 67 68 70 69 64 70 65 71 68 72 66 73 9 74 10 75
REMARK SMILES IDX 11 76 12 77 13 78 14 79 15 80 16 81 17 82 18 83 19 84 33 85
REMARK SMILES IDX 20 86 21 87 22 88 23 89 32 90 24 91 27 92 31 93 25 94 28 95
REMARK SMILES IDX 30 96 26 97 29 98
REMARK H PARENT 90 26 58 37
REMARK Flexibility Score: inf
ROOT
ATOM      1  C   UNL     1       1.956   1.373  -2.399  1.00  0.00     0.188 C 
ENDROOT
BRANCH   1   2
ATOM      2  C   UNL     1       2.320  -0.016  -1.879  1.00  0.00     0.188 C 
BRANCH   2   3
ATOM      3  O   UNL     1       3.543   0.108  -1.146  1.00  0.00    -0.376 OA
BRANCH   3   4
ATOM      4  C   UNL     1       4.257  -1.104  -0.942  1.00  0.00     0.202 C 
BRANCH   4   5
ATOM      5  C   UNL     1       3.830  -1.873   0.310  1.00  0.00     0.261 C 
BRANCH   5   6
ATOM      6  O   UNL     1       2.418  -1.754   0.566  1.00  0.00    -0.460 OA
BRANCH   6   7
ATOM      7  C   UNL     1       1.819  -0.916   1.452  1.00  0.00     0.338 C 
ATOM      8  O   UNL     1       0.602  -0.964   1.610  1.00  0.00    -0.246 OA
BRANCH   7   9
ATOM      9  C   UNL     1       2.605   0.006   2.316  1.00  0.00     0.060 A 
ATOM     10  C   UNL     1       3.671   0.778   1.857  1.00  0.00     0.016 A 
ATOM     11  C   UNL     1       2.211   0.139   3.654  1.00  0.00     0.016 A 
ATOM     12  C   UNL     1       4.444   1.526   2.734  1.00  0.00     0.010 A 
ATOM     13  C   UNL     1       2.938   0.954   4.529  1.00  0.00     0.010 A 
ATOM     14  C   UNL     1       4.099   1.601   4.083  1.00  0.00    -0.014 A 
BRANCH  14  15
ATOM     15  C   UNL     1       5.061   2.212   5.028  1.00  0.00     0.031 A 
ATOM     16  C   UNL     1       5.780   1.309   5.989  1.00  0.00     0.074 A 
ATOM     17  C   UNL     1       5.385   3.514   4.936  1.00  0.00     0.049 A 
ATOM     18  N   UNL     1       6.595   1.610   6.965  1.00  0.00    -0.248 NA
ATOM     19  C   UNL     1       5.550  -0.137   5.825  1.00  0.00     0.031 C 
ATOM     20  C   UNL     1       4.838   4.453   3.956  1.00  0.00     0.029 A 
ATOM     21  N   UNL     1       6.288   4.261   5.645  1.00  0.00    -0.354 N 
ATOM     22  C   UNL     1       6.913   0.402   7.572  1.00  0.00     0.074 A 
ATOM     23  C   UNL     1       6.221  -0.639   6.848  1.00  0.00     0.031 C 
ATOM     24  C   UNL     1       5.461   5.636   4.087  1.00  0.00     0.029 A 
ATOM     25  C   UNL     1       6.391   5.559   5.208  1.00  0.00     0.049 A 
ATOM     26  H   UNL     1       6.813   3.902   6.397  1.00  0.00     0.167 HD
ATOM     27  C   UNL     1       7.707   0.189   8.646  1.00  0.00     0.037 A 
ATOM     28  C   UNL     1       7.143   6.572   5.682  1.00  0.00     0.037 A 
ATOM     29  C   UNL     1       8.432   1.232   9.316  1.00  0.00     0.049 A 
ATOM     30  C   UNL     1       8.007   6.315   6.888  1.00  0.00     0.074 A 
ATOM     31  C   UNL     1       9.217   1.158  10.451  1.00  0.00     0.029 A 
ATOM     32  N   UNL     1       8.475   2.550   8.880  1.00  0.00    -0.354 N 
ATOM     33  N   UNL     1       8.211   5.193   7.536  1.00  0.00    -0.248 NA
ATOM     34  C   UNL     1       8.722   7.470   7.446  1.00  0.00     0.031 C 
ATOM     35  C   UNL     1       9.723   2.438  10.711  1.00  0.00     0.029 A 
ATOM     36  C   UNL     1       9.276   3.300   9.720  1.00  0.00     0.049 A 
ATOM     37  H   UNL     1       8.004   2.898   8.088  1.00  0.00     0.167 HD
ATOM     38  C   UNL     1       9.077   5.503   8.575  1.00  0.00     0.074 A 
ATOM     39  C   UNL     1       9.383   6.915   8.453  1.00  0.00     0.031 C 
ATOM     40  C   UNL     1       9.564   4.701   9.553  1.00  0.00     0.037 A 
BRANCH  27  41
ATOM     41  C   UNL     1       7.755  -1.209   9.185  1.00  0.00     0.064 A 
ATOM     42  C   UNL     1       8.445  -2.239   8.529  1.00  0.00     0.173 A 
ATOM     43  C   UNL     1       7.046  -1.532  10.352  1.00  0.00     0.173 A 
ATOM     44  F   UNL     1       9.110  -1.988   7.391  1.00  0.00    -0.203 F 
ATOM     45  C   UNL     1       8.393  -3.548   9.002  1.00  0.00     0.198 A 
ATOM     46  C   UNL     1       7.016  -2.837  10.836  1.00  0.00     0.198 A 
ATOM     47  F   UNL     1       6.362  -0.585  11.011  1.00  0.00    -0.203 F 
ATOM     48  F   UNL     1       9.003  -4.529   8.323  1.00  0.00    -0.200 F 
ATOM     49  C   UNL     1       7.680  -3.846  10.155  1.00  0.00     0.200 A 
ATOM     50  F   UNL     1       6.325  -3.123  11.948  1.00  0.00    -0.200 F 
ATOM     51  F   UNL     1       7.617  -5.109  10.598  1.00  0.00    -0.200 F 
ENDBRANCH  27  41
BRANCH  28  52
ATOM     52  C   UNL     1       7.091   7.912   5.038  1.00  0.00     0.064 A 
ATOM     53  C   UNL     1       8.209   8.440   4.378  1.00  0.00     0.173 A 
ATOM     54  C   UNL     1       5.926   8.694   5.070  1.00  0.00     0.173 A 
ATOM     55  F   UNL     1       9.355   7.745   4.342  1.00  0.00    -0.203 F 
ATOM     56  C   UNL     1       8.167   9.700   3.781  1.00  0.00     0.198 A 
ATOM     57  C   UNL     1       5.876   9.941   4.448  1.00  0.00     0.198 A 
ATOM     58  F   UNL     1       4.829   8.242   5.694  1.00  0.00    -0.203 F 
ATOM     59  F   UNL     1       9.262  10.197   3.191  1.00  0.00    -0.200 F 
ATOM     60  C   UNL     1       6.998  10.445   3.810  1.00  0.00     0.200 A 
ATOM     61  F   UNL     1       4.741  10.652   4.470  1.00  0.00    -0.200 F 
ATOM     62  F   UNL     1       6.956  11.653   3.231  1.00  0.00    -0.200 F 
ENDBRANCH  28  52
BRANCH  40  63
ATOM     63  C   UNL     1      10.490   5.332  10.545  1.00  0.00     0.064 A 
ATOM     64  C   UNL     1      10.004   6.152  11.572  1.00  0.00     0.173 A 
ATOM     65  C   UNL     1      11.867   5.077  10.492  1.00  0.00     0.173 A 
ATOM     66  F   UNL     1       8.695   6.433  11.650  1.00  0.00    -0.203 F 
ATOM     67  C   UNL     1      10.871   6.711  12.506  1.00  0.00     0.198 A 
ATOM     68  C   UNL     1      12.728   5.621  11.439  1.00  0.00     0.198 A 
ATOM     69  F   UNL     1      12.373   4.294   9.528  1.00  0.00    -0.203 F 
ATOM     70  F   UNL     1      10.393   7.520  13.461  1.00  0.00    -0.200 F 
ATOM     71  C   UNL     1      12.230   6.440  12.442  1.00  0.00     0.200 A 
ATOM     72  F   UNL     1      14.040   5.353  11.383  1.00  0.00    -0.200 F 
ATOM     73  F   UNL     1      13.063   6.975  13.345  1.00  0.00    -0.200 F 
ENDBRANCH  40  63
ENDBRANCH  14  15
ENDBRANCH   7   9
ENDBRANCH   6   7
ENDBRANCH   5   6
ENDBRANCH   4   5
ENDBRANCH   3   4
ENDBRANCH   2   3
ENDBRANCH   1   2
BRANCH   1  74
ATOM     74  O   UNL     1       2.694   1.762  -3.562  1.00  0.00    -0.377 OA
BRANCH  74  75
ATOM     75  C   UNL     1       4.107   1.657  -3.468  1.00  0.00     0.188 C 
BRANCH  75  76
ATOM     76  C   UNL     1       4.890   2.713  -2.673  1.00  0.00     0.188 C 
BRANCH  76  77
ATOM     77  O   UNL     1       4.189   3.689  -1.920  1.00  0.00    -0.376 OA
BRANCH  77  78
ATOM     78  C   UNL     1       3.301   4.574  -2.602  1.00  0.00     0.202 C 
BRANCH  78  79
ATOM     79  C   UNL     1       3.824   5.296  -3.851  1.00  0.00     0.261 C 
BRANCH  79  80
ATOM     80  O   UNL     1       3.819   4.419  -4.995  1.00  0.00    -0.457 OA
BRANCH  80  81
ATOM     81  C   UNL     1       4.995   4.293  -5.682  1.00  0.00     0.374 C 
ATOM     82  O   UNL     1       5.989   4.974  -5.492  1.00  0.00    -0.242 OA
BRANCH  81  83
ATOM     83  C   UNL     1       4.915   3.120  -6.525  1.00  0.00     0.212 A 
ATOM     84  C   UNL     1       3.898   2.582  -7.293  1.00  0.00     0.059 A 
ATOM     85  O   UNL     1       5.965   2.233  -6.484  1.00  0.00    -0.449 OA
ATOM     86  C   UNL     1       4.329   1.296  -7.704  1.00  0.00     0.052 A 
ATOM     87  C   UNL     1       5.572   1.103  -7.139  1.00  0.00     0.135 A 
BRANCH  87  88
ATOM     88  C   UNL     1       6.492  -0.027  -7.070  1.00  0.00     0.025 A 
ATOM     89  C   UNL     1       7.680   0.067  -7.806  1.00  0.00     0.014 A 
ATOM     90  C   UNL     1       6.212  -1.200  -6.302  1.00  0.00    -0.006 A 
ATOM     91  C   UNL     1       8.581  -0.991  -7.829  1.00  0.00     0.022 A 
ATOM     92  C   UNL     1       7.143  -2.278  -6.314  1.00  0.00     0.001 A 
ATOM     93  C   UNL     1       5.044  -1.349  -5.510  1.00  0.00     0.009 A 
ATOM     94  C   UNL     1       8.315  -2.151  -7.100  1.00  0.00     0.048 A 
ATOM     95  C   UNL     1       6.859  -3.432  -5.540  1.00  0.00     0.010 A 
ATOM     96  C   UNL     1       4.794  -2.497  -4.754  1.00  0.00     0.001 A 
ATOM     97  Cl  UNL     1       9.492  -3.421  -7.216  1.00  0.00    -0.084 Cl
ATOM     98  C   UNL     1       5.704  -3.539  -4.766  1.00  0.00     0.001 A 
ENDBRANCH  87  88
ENDBRANCH  81  83
ENDBRANCH  80  81
ENDBRANCH  79  80
ENDBRANCH  78  79
ENDBRANCH  77  78
ENDBRANCH  76  77
ENDBRANCH  75  76
ENDBRANCH  74  75
ENDBRANCH   1  74
TORSDOF 21
