REMARK SMILES Cc1cc(C(=O)N[C@H](C(=O)OCCOCCOCCOCCOC(=O)c2ccc(-c3c4nc(c(-c5c(F)c(F)c(F)c(F)c5F)c5ccc([nH]5)c(-c5c(F)c(F)c(F)c(F)c5F)c5nc(c(-c6c(F)c(F)c(F)c(F)c6F)c6ccc3[nH]6)C=C5)C=C4)cc2)c2c(C)n[nH]c2C)c2ccc(C)c(C)c2n1
REMARK SMILES IDX 17 1 16 2 15 3 14 4 13 5 12 6 11 7 9 8 10 9 8 10 7 11 5 12
REMARK SMILES IDX 6 13 4 15 1 16 2 17 3 18 104 19 103 20 96 21 101 22 97 23
REMARK SMILES IDX 99 24 102 25 98 26 100 27 89 28 90 29 94 30 91 31 92 32
REMARK SMILES IDX 93 33 95 34 18 36 19 37 20 38 21 39 22 40 23 41 24 42 25 43
REMARK SMILES IDX 26 44 27 45 88 46 28 47 87 48 29 49 30 50 31 51 81 52 32 53
REMARK SMILES IDX 86 54 80 55 82 56 33 57 85 58 79 59 78 60 34 62 66 63 46 64
REMARK SMILES IDX 65 65 47 66 50 67 64 68 83 69 48 70 49 71 63 73 84 74 51 75
REMARK SMILES IDX 35 76 36 77 44 78 37 79 38 80 42 81 45 82 39 83 40 84 43 85
REMARK SMILES IDX 41 86 67 87 68 88 76 89 69 90 70 91 74 92 77 93 71 94 72 95
REMARK SMILES IDX 75 96 73 97 52 98 53 99 61 100 54 101 55 102 59 103 62 104
REMARK SMILES IDX 56 105 57 106 60 107 58 108
REMARK H PARENT 7 14 93 35 82 61 50 72
REMARK Flexibility Score: inf
ROOT
ATOM      1  O   UNL     1       1.444   2.841  -4.946  1.00  0.00    -0.377 OA
ENDROOT
BRANCH   1   2
ATOM      2  C   UNL     1       1.081   1.775  -4.092  1.00  0.00     0.188 C 
BRANCH   2   3
ATOM      3  C   UNL     1      -0.376   1.286  -4.266  1.00  0.00     0.188 C 
BRANCH   3   4
ATOM      4  O   UNL     1      -1.106   1.519  -5.463  1.00  0.00    -0.376 OA
BRANCH   4   5
ATOM      5  C   UNL     1      -1.224   2.803  -6.056  1.00  0.00     0.202 C 
BRANCH   5   6
ATOM      6  C   UNL     1      -1.380   4.080  -5.237  1.00  0.00     0.261 C 
BRANCH   6   7
ATOM      7  O   UNL     1      -0.556   4.149  -4.076  1.00  0.00    -0.461 OA
BRANCH   7   8
ATOM      8  C   UNL     1      -1.180   4.017  -2.881  1.00  0.00     0.333 C 
ATOM      9  O   UNL     1      -2.376   3.775  -2.769  1.00  0.00    -0.249 OA
BRANCH   8  10
ATOM     10  C   UNL     1      -0.183   4.143  -1.693  1.00  0.00     0.227 C 
BRANCH  10  11
ATOM     11  N   UNL     1       1.164   4.686  -1.874  1.00  0.00    -0.335 N 
ATOM     12  C   UNL     1       1.688   5.812  -2.457  1.00  0.00     0.252 C 
ATOM     13  O   UNL     1       2.861   6.056  -2.171  1.00  0.00    -0.269 OA
ATOM     14  H   UNL     1       1.858   4.106  -1.485  1.00  0.00     0.165 HD
BRANCH  12  15
ATOM     15  C   UNL     1       0.928   6.691  -3.405  1.00  0.00     0.051 A 
ATOM     16  C   UNL     1      -2.680   7.359  -4.253  1.00  0.00     0.067 C 
ATOM     17  C   UNL     1      -1.187   7.455  -4.241  1.00  0.00     0.039 A 
ATOM     18  C   UNL     1      -0.448   6.833  -3.263  1.00  0.00     0.038 A 
ATOM     19  N   UNL     1      -0.604   8.092  -5.258  1.00  0.00    -0.253 NA
ATOM     20  C   UNL     1       0.733   8.163  -5.309  1.00  0.00     0.074 A 
ATOM     21  C   UNL     1       1.569   7.436  -4.428  1.00  0.00     0.013 A 
ATOM     22  C   UNL     1       1.279   9.040  -6.247  1.00  0.00    -0.022 A 
ATOM     23  C   UNL     1       2.964   7.552  -4.603  1.00  0.00     0.011 A 
ATOM     24  C   UNL     1       2.660   9.278  -6.273  1.00  0.00    -0.046 A 
ATOM     25  C   UNL     1       0.329   9.804  -7.141  1.00  0.00     0.047 C 
ATOM     26  C   UNL     1       3.494   8.494  -5.474  1.00  0.00     0.004 A 
ATOM     27  C   UNL     1       3.242  10.359  -7.128  1.00  0.00     0.044 C 
ENDBRANCH  12  15
ENDBRANCH  10  11
BRANCH  10  28
ATOM     28  C   UNL     1      -0.859   4.678  -0.457  1.00  0.00     0.029 A 
ATOM     29  C   UNL     1      -1.800   3.921   0.316  1.00  0.00     0.065 A 
ATOM     30  C   UNL     1      -0.789   5.898   0.208  1.00  0.00     0.038 A 
ATOM     31  C   UNL     1      -2.172   2.487   0.171  1.00  0.00     0.069 C 
ATOM     32  N   UNL     1      -2.359   4.658   1.277  1.00  0.00    -0.180 NA
ATOM     33  N   UNL     1      -1.779   5.853   1.153  1.00  0.00    -0.282 N 
ATOM     34  C   UNL     1       0.047   7.119   0.082  1.00  0.00     0.066 C 
ATOM     35  H   UNL     1      -2.039   6.633   1.694  1.00  0.00     0.190 HD
ENDBRANCH  10  28
ENDBRANCH   8  10
ENDBRANCH   7   8
ENDBRANCH   6   7
ENDBRANCH   5   6
ENDBRANCH   4   5
ENDBRANCH   3   4
ENDBRANCH   2   3
ENDBRANCH   1   2
BRANCH   1  36
ATOM     36  C   UNL     1       2.095   2.510  -6.165  1.00  0.00     0.188 C 
BRANCH  36  37
ATOM     37  C   UNL     1       1.682   1.216  -6.905  1.00  0.00     0.188 C 
BRANCH  37  38
ATOM     38  O   UNL     1       1.558   0.086  -6.058  1.00  0.00    -0.376 OA
BRANCH  38  39
ATOM     39  C   UNL     1       2.607  -0.865  -6.028  1.00  0.00     0.202 C 
BRANCH  39  40
ATOM     40  C   UNL     1       3.979  -0.399  -5.520  1.00  0.00     0.261 C 
BRANCH  40  41
ATOM     41  O   UNL     1       4.547   0.753  -6.160  1.00  0.00    -0.460 OA
BRANCH  41  42
ATOM     42  C   UNL     1       4.810   0.680  -7.479  1.00  0.00     0.338 C 
ATOM     43  O   UNL     1       4.641  -0.278  -8.218  1.00  0.00    -0.246 OA
BRANCH  42  44
ATOM     44  C   UNL     1       5.203   2.028  -7.929  1.00  0.00     0.060 A 
ATOM     45  C   UNL     1       4.379   2.745  -8.809  1.00  0.00     0.016 A 
ATOM     46  C   UNL     1       6.413   2.568  -7.490  1.00  0.00     0.016 A 
ATOM     47  C   UNL     1       4.785   3.991  -9.287  1.00  0.00     0.010 A 
ATOM     48  C   UNL     1       6.837   3.795  -7.999  1.00  0.00     0.010 A 
ATOM     49  C   UNL     1       6.045   4.489  -8.929  1.00  0.00    -0.014 A 
BRANCH  49  50
ATOM     50  C   UNL     1       6.653   5.598  -9.697  1.00  0.00     0.031 A 
ATOM     51  C   UNL     1       7.465   5.256 -10.907  1.00  0.00     0.074 A 
ATOM     52  C   UNL     1       6.579   6.871  -9.281  1.00  0.00     0.049 A 
ATOM     53  N   UNL     1       8.186   6.038 -11.666  1.00  0.00    -0.248 NA
ATOM     54  C   UNL     1       7.501   3.835 -11.286  1.00  0.00     0.031 C 
ATOM     55  C   UNL     1       5.880   7.306  -8.083  1.00  0.00     0.029 A 
ATOM     56  N   UNL     1       7.135   8.019  -9.794  1.00  0.00    -0.354 N 
ATOM     57  C   UNL     1       8.776   5.203 -12.601  1.00  0.00     0.074 A 
ATOM     58  C   UNL     1       8.351   3.853 -12.300  1.00  0.00     0.031 C 
ATOM     59  C   UNL     1       6.075   8.626  -7.943  1.00  0.00     0.029 A 
ATOM     60  C   UNL     1       6.865   9.139  -9.049  1.00  0.00     0.049 A 
ATOM     61  H   UNL     1       7.675   8.036 -10.618  1.00  0.00     0.167 HD
ATOM     62  C   UNL     1       9.604   5.537 -13.617  1.00  0.00     0.037 A 
ATOM     63  C   UNL     1       7.206  10.430  -9.228  1.00  0.00     0.037 A 
ATOM     64  C   UNL     1      10.057   6.876 -13.884  1.00  0.00     0.049 A 
ATOM     65  C   UNL     1       8.110  10.781 -10.373  1.00  0.00     0.074 A 
ATOM     66  C   UNL     1      10.903   7.314 -14.886  1.00  0.00     0.029 A 
ATOM     67  N   UNL     1       9.713   7.994 -13.135  1.00  0.00    -0.354 N 
ATOM     68  N   UNL     1       8.634   9.992 -11.278  1.00  0.00    -0.248 NA
ATOM     69  C   UNL     1       8.492  12.193 -10.508  1.00  0.00     0.031 C 
ATOM     70  C   UNL     1      11.113   8.685 -14.714  1.00  0.00     0.029 A 
ATOM     71  C   UNL     1      10.343   9.118 -13.646  1.00  0.00     0.049 A 
ATOM     72  H   UNL     1       9.110   7.989 -12.356  1.00  0.00     0.167 HD
ATOM     73  C   UNL     1       9.408  10.807 -12.088  1.00  0.00     0.074 A 
ATOM     74  C   UNL     1       9.254  12.160 -11.592  1.00  0.00     0.031 C 
ATOM     75  C   UNL     1      10.191  10.459 -13.138  1.00  0.00     0.037 A 
BRANCH  62  76
ATOM     76  C   UNL     1      10.092   4.420 -14.490  1.00  0.00     0.064 A 
ATOM     77  C   UNL     1       9.225   3.728 -15.349  1.00  0.00     0.173 A 
ATOM     78  C   UNL     1      11.443   4.044 -14.477  1.00  0.00     0.173 A 
ATOM     79  F   UNL     1       7.918   4.033 -15.379  1.00  0.00    -0.203 F 
ATOM     80  C   UNL     1       9.687   2.682 -16.142  1.00  0.00     0.198 A 
ATOM     81  C   UNL     1      11.909   3.022 -15.299  1.00  0.00     0.198 A 
ATOM     82  F   UNL     1      12.313   4.670 -13.670  1.00  0.00    -0.203 F 
ATOM     83  F   UNL     1       8.829   1.997 -16.911  1.00  0.00    -0.200 F 
ATOM     84  C   UNL     1      11.030   2.337 -16.124  1.00  0.00     0.200 A 
ATOM     85  F   UNL     1      13.209   2.697 -15.289  1.00  0.00    -0.200 F 
ATOM     86  F   UNL     1      11.476   1.337 -16.896  1.00  0.00    -0.200 F 
ENDBRANCH  62  76
BRANCH  63  87
ATOM     87  C   UNL     1       6.644  11.495  -8.349  1.00  0.00     0.064 A 
ATOM     88  C   UNL     1       5.711  12.410  -8.863  1.00  0.00     0.173 A 
ATOM     89  C   UNL     1       6.976  11.604  -6.991  1.00  0.00     0.173 A 
ATOM     90  F   UNL     1       5.369  12.360 -10.159  1.00  0.00    -0.203 F 
ATOM     91  C   UNL     1       5.129  13.385  -8.054  1.00  0.00     0.198 A 
ATOM     92  C   UNL     1       6.369  12.560  -6.175  1.00  0.00     0.198 A 
ATOM     93  F   UNL     1       7.850  10.748  -6.443  1.00  0.00    -0.203 F 
ATOM     94  F   UNL     1       4.248  14.249  -8.577  1.00  0.00    -0.200 F 
ATOM     95  C   UNL     1       5.447  13.450  -6.707  1.00  0.00     0.200 A 
ATOM     96  F   UNL     1       6.652  12.595  -4.865  1.00  0.00    -0.200 F 
ATOM     97  F   UNL     1       4.854  14.357  -5.919  1.00  0.00    -0.200 F 
ENDBRANCH  63  87
BRANCH  75  98
ATOM     98  C   UNL     1      10.937  11.559 -13.832  1.00  0.00     0.064 A 
ATOM     99  C   UNL     1      12.014  12.219 -13.221  1.00  0.00     0.173 A 
ATOM    100  C   UNL     1      10.601  11.925 -15.145  1.00  0.00     0.173 A 
ATOM    101  F   UNL     1      12.363  11.918 -11.961  1.00  0.00    -0.203 F 
ATOM    102  C   UNL     1      12.713  13.219 -13.890  1.00  0.00     0.198 A 
ATOM    103  C   UNL     1      11.325  12.900 -15.823  1.00  0.00     0.198 A 
ATOM    104  F   UNL     1       9.582  11.322 -15.775  1.00  0.00    -0.203 F 
ATOM    105  F   UNL     1      13.707  13.869 -13.269  1.00  0.00    -0.200 F 
ATOM    106  C   UNL     1      12.375  13.551 -15.194  1.00  0.00     0.200 A 
ATOM    107  F   UNL     1      11.007  13.209 -17.088  1.00  0.00    -0.200 F 
ATOM    108  F   UNL     1      13.058  14.505 -15.841  1.00  0.00    -0.200 F 
ENDBRANCH  75  98
ENDBRANCH  49  50
ENDBRANCH  42  44
ENDBRANCH  41  42
ENDBRANCH  40  41
ENDBRANCH  39  40
ENDBRANCH  38  39
ENDBRANCH  37  38
ENDBRANCH  36  37
ENDBRANCH   1  36
TORSDOF 23
