REMARK SMILES CCc1nc(N2CC[N@H+](CC=C(C)C)[C@H](C(=O)OCCOCCOCCOCCOC(=O)c3ccc(-c4c5nc(c(-c6c(F)c(F)c(F)c(F)c6F)c6ccc([nH]6)c(-c6c(F)c(F)c(F)c(F)c6F)c6nc(c(-c7c(F)c(F)c(F)c(F)c7F)c7ccc4[nH]7)C=C6)C=C5)cc3)C2)no1
REMARK SMILES IDX 24 1 23 2 22 3 21 4 20 5 19 6 18 7 16 8 17 9 15 10 6 11 7 12
REMARK SMILES IDX 96 13 8 14 9 15 5 17 3 18 4 19 98 20 97 21 2 22 1 23 10 24
REMARK SMILES IDX 11 25 12 26 13 27 14 28 25 29 26 30 27 31 28 32 29 33 30 34
REMARK SMILES IDX 31 35 32 36 33 37 34 38 95 39 35 40 94 41 36 42 37 43 38 44
REMARK SMILES IDX 88 45 39 46 93 47 87 48 89 49 40 50 92 51 86 52 85 53 41 55
REMARK SMILES IDX 73 56 53 57 72 58 54 59 57 60 71 61 90 62 55 63 56 64 70 66
REMARK SMILES IDX 91 67 58 68 42 69 43 70 51 71 44 72 45 73 49 74 52 75 46 76
REMARK SMILES IDX 47 77 50 78 48 79 74 80 75 81 83 82 76 83 77 84 81 85 84 86
REMARK SMILES IDX 78 87 79 88 82 89 80 90 59 91 60 92 68 93 61 94 62 95 66 96
REMARK SMILES IDX 69 97 63 98 64 99 67 100 65 101
REMARK H PARENT 9 16 89 54 57 65
REMARK Flexibility Score: inf
ROOT
ATOM      1  O   UNL     1       1.265   3.656  -8.906  1.00  0.00    -0.377 OA
ENDROOT
BRANCH   1   2
ATOM      2  C   UNL     1       2.402   3.875  -8.091  1.00  0.00     0.188 C 
BRANCH   2   3
ATOM      3  C   UNL     1       3.618   2.974  -8.433  1.00  0.00     0.188 C 
BRANCH   3   4
ATOM      4  O   UNL     1       3.423   1.695  -9.023  1.00  0.00    -0.376 OA
BRANCH   4   5
ATOM      5  C   UNL     1       2.173   1.058  -8.875  1.00  0.00     0.202 C 
BRANCH   5   6
ATOM      6  C   UNL     1       1.698   0.697  -7.455  1.00  0.00     0.261 C 
BRANCH   6   7
ATOM      7  O   UNL     1       1.906   1.661  -6.395  1.00  0.00    -0.459 OA
BRANCH   7   8
ATOM      8  C   UNL     1       3.103   1.617  -5.738  1.00  0.00     0.366 C 
ATOM      9  O   UNL     1       3.990   0.813  -6.014  1.00  0.00    -0.245 OA
BRANCH   8  10
ATOM     10  C   UNL     1       3.218   2.627  -4.577  1.00  0.00     0.315 C 
ATOM     11  N   UNL     1       2.143   3.779  -2.670  1.00  0.00    -0.326 N 
ATOM     12  C   UNL     1       3.324   4.636  -2.505  1.00  0.00     0.181 C 
ATOM     13  C   UNL     1       1.897   3.073  -3.940  1.00  0.00     0.197 C 
ATOM     14  C   UNL     1       4.559   4.101  -3.262  1.00  0.00     0.285 C 
ATOM     15  N   UNL     1       4.296   3.687  -4.660  1.00  0.00    -0.317 N 
ATOM     16  H   UNL     1       5.036   3.208  -5.174  1.00  0.00     0.349 HD
BRANCH  11  17
ATOM     17  C   UNL     1       1.405   3.512  -1.577  1.00  0.00     0.266 A 
ATOM     18  C   UNL     1       0.559   2.243  -0.163  1.00  0.00     0.227 A 
ATOM     19  N   UNL     1       0.939   2.242  -1.416  1.00  0.00    -0.176 NA
ATOM     20  O   UNL     1       0.641   3.466   0.428  1.00  0.00    -0.337 OA
ATOM     21  N   UNL     1       1.217   4.309  -0.516  1.00  0.00    -0.038 NA
BRANCH  18  22
ATOM     22  C   UNL     1       0.178   1.106   0.697  1.00  0.00     0.097 C 
ATOM     23  C   UNL     1       0.777  -0.195   0.183  1.00  0.00     0.014 C 
ENDBRANCH  18  22
ENDBRANCH  11  17
BRANCH  15  24
ATOM     24  C   UNL     1       4.181   4.891  -5.503  1.00  0.00     0.291 C 
BRANCH  24  25
ATOM     25  C   UNL     1       3.000   5.817  -5.337  1.00  0.00     0.032 C 
ATOM     26  C   UNL     1       2.982   7.146  -5.096  1.00  0.00    -0.075 C 
ATOM     27  C   UNL     1       1.676   7.851  -4.819  1.00  0.00     0.039 C 
ATOM     28  C   UNL     1       4.203   8.017  -5.029  1.00  0.00     0.039 C 
ENDBRANCH  24  25
ENDBRANCH  15  24
ENDBRANCH   8  10
ENDBRANCH   7   8
ENDBRANCH   6   7
ENDBRANCH   5   6
ENDBRANCH   4   5
ENDBRANCH   3   4
ENDBRANCH   2   3
ENDBRANCH   1   2
BRANCH   1  29
ATOM     29  C   UNL     1       1.066   4.644  -9.901  1.00  0.00     0.188 C 
BRANCH  29  30
ATOM     30  C   UNL     1       2.271   4.884 -10.828  1.00  0.00     0.188 C 
BRANCH  30  31
ATOM     31  O   UNL     1       3.447   5.230 -10.109  1.00  0.00    -0.376 OA
BRANCH  31  32
ATOM     32  C   UNL     1       3.919   6.560 -10.056  1.00  0.00     0.202 C 
BRANCH  32  33
ATOM     33  C   UNL     1       3.112   7.605  -9.271  1.00  0.00     0.261 C 
BRANCH  33  34
ATOM     34  O   UNL     1       1.696   7.605  -9.469  1.00  0.00    -0.460 OA
BRANCH  34  35
ATOM     35  C   UNL     1       1.250   7.972 -10.686  1.00  0.00     0.338 C 
ATOM     36  O   UNL     1       1.922   8.326 -11.642  1.00  0.00    -0.246 OA
BRANCH  35  37
ATOM     37  C   UNL     1      -0.193   7.669 -10.741  1.00  0.00     0.060 A 
ATOM     38  C   UNL     1      -0.649   6.790 -11.731  1.00  0.00     0.016 A 
ATOM     39  C   UNL     1      -1.082   8.213  -9.809  1.00  0.00     0.016 A 
ATOM     40  C   UNL     1      -2.002   6.480 -11.817  1.00  0.00     0.010 A 
ATOM     41  C   UNL     1      -2.446   7.933  -9.918  1.00  0.00     0.010 A 
ATOM     42  C   UNL     1      -2.911   7.100 -10.951  1.00  0.00    -0.014 A 
BRANCH  42  43
ATOM     43  C   UNL     1      -4.345   7.076 -11.313  1.00  0.00     0.031 A 
ATOM     44  C   UNL     1      -4.878   8.226 -12.121  1.00  0.00     0.074 A 
ATOM     45  C   UNL     1      -5.128   6.028 -11.009  1.00  0.00     0.049 A 
ATOM     46  N   UNL     1      -6.078   8.425 -12.601  1.00  0.00    -0.248 NA
ATOM     47  C   UNL     1      -3.920   9.300 -12.435  1.00  0.00     0.031 C 
ATOM     48  C   UNL     1      -4.702   4.839 -10.276  1.00  0.00     0.029 A 
ATOM     49  N   UNL     1      -6.450   5.798 -11.291  1.00  0.00    -0.354 N 
ATOM     50  C   UNL     1      -6.017   9.641 -13.270  1.00  0.00     0.074 A 
ATOM     51  C   UNL     1      -4.677  10.155 -13.103  1.00  0.00     0.031 C 
ATOM     52  C   UNL     1      -5.749   4.003 -10.159  1.00  0.00     0.029 A 
ATOM     53  C   UNL     1      -6.921   4.612 -10.787  1.00  0.00     0.049 A 
ATOM     54  H   UNL     1      -7.009   6.425 -11.806  1.00  0.00     0.167 HD
ATOM     55  C   UNL     1      -6.990  10.265 -13.973  1.00  0.00     0.037 A 
ATOM     56  C   UNL     1      -8.163   4.092 -10.822  1.00  0.00     0.037 A 
ATOM     57  C   UNL     1      -8.323   9.749 -14.125  1.00  0.00     0.049 A 
ATOM     58  C   UNL     1      -9.252   4.847 -11.544  1.00  0.00     0.074 A 
ATOM     59  C   UNL     1      -9.386  10.296 -14.820  1.00  0.00     0.029 A 
ATOM     60  N   UNL     1      -8.778   8.566 -13.560  1.00  0.00    -0.354 N 
ATOM     61  N   UNL     1      -9.184   5.982 -12.199  1.00  0.00    -0.248 NA
ATOM     62  C   UNL     1     -10.590   4.240 -11.541  1.00  0.00     0.031 C 
ATOM     63  C   UNL     1     -10.503   9.478 -14.620  1.00  0.00     0.029 A 
ATOM     64  C   UNL     1     -10.117   8.381 -13.865  1.00  0.00     0.049 A 
ATOM     65  H   UNL     1      -8.231   7.949 -13.023  1.00  0.00     0.167 HD
ATOM     66  C   UNL     1     -10.455   6.207 -12.713  1.00  0.00     0.074 A 
ATOM     67  C   UNL     1     -11.270   5.080 -12.308  1.00  0.00     0.031 C 
ATOM     68  C   UNL     1     -10.909   7.248 -13.456  1.00  0.00     0.037 A 
BRANCH  55  69
ATOM     69  C   UNL     1      -6.654  11.592 -14.591  1.00  0.00     0.064 A 
ATOM     70  C   UNL     1      -5.758  11.706 -15.665  1.00  0.00     0.173 A 
ATOM     71  C   UNL     1      -7.248  12.767 -14.107  1.00  0.00     0.173 A 
ATOM     72  F   UNL     1      -5.145  10.617 -16.153  1.00  0.00    -0.203 F 
ATOM     73  C   UNL     1      -5.448  12.950 -16.211  1.00  0.00     0.198 A 
ATOM     74  C   UNL     1      -6.963  14.004 -14.678  1.00  0.00     0.198 A 
ATOM     75  F   UNL     1      -8.109  12.716 -13.079  1.00  0.00    -0.203 F 
ATOM     76  F   UNL     1      -4.546  13.040 -17.198  1.00  0.00    -0.200 F 
ATOM     77  C   UNL     1      -6.056  14.096 -15.723  1.00  0.00     0.200 A 
ATOM     78  F   UNL     1      -7.561  15.109 -14.212  1.00  0.00    -0.200 F 
ATOM     79  F   UNL     1      -5.762  15.291 -16.253  1.00  0.00    -0.200 F 
ENDBRANCH  55  69
BRANCH  56  80
ATOM     80  C   UNL     1      -8.450   2.798 -10.148  1.00  0.00     0.064 A 
ATOM     81  C   UNL     1      -8.814   1.659 -10.880  1.00  0.00     0.173 A 
ATOM     82  C   UNL     1      -8.393   2.681  -8.750  1.00  0.00     0.173 A 
ATOM     83  F   UNL     1      -8.908   1.725 -12.216  1.00  0.00    -0.203 F 
ATOM     84  C   UNL     1      -9.133   0.462 -10.241  1.00  0.00     0.198 A 
ATOM     85  C   UNL     1      -8.679   1.474  -8.114  1.00  0.00     0.198 A 
ATOM     86  F   UNL     1      -8.052   3.739  -8.001  1.00  0.00    -0.203 F 
ATOM     87  F   UNL     1      -9.533  -0.594 -10.963  1.00  0.00    -0.200 F 
ATOM     88  C   UNL     1      -9.060   0.369  -8.859  1.00  0.00     0.200 A 
ATOM     89  F   UNL     1      -8.594   1.386  -6.780  1.00  0.00    -0.200 F 
ATOM     90  F   UNL     1      -9.365  -0.782  -8.246  1.00  0.00    -0.200 F 
ENDBRANCH  56  80
BRANCH  68  91
ATOM     91  C   UNL     1     -12.339   7.194 -13.918  1.00  0.00     0.064 A 
ATOM     92  C   UNL     1     -13.414   7.317 -13.026  1.00  0.00     0.173 A 
ATOM     93  C   UNL     1     -12.634   7.047 -15.283  1.00  0.00     0.173 A 
ATOM     94  F   UNL     1     -13.188   7.451 -11.710  1.00  0.00    -0.203 F 
ATOM     95  C   UNL     1     -14.730   7.253 -13.477  1.00  0.00     0.198 A 
ATOM     96  C   UNL     1     -13.950   7.023 -15.735  1.00  0.00     0.198 A 
ATOM     97  F   UNL     1     -11.645   6.938 -16.183  1.00  0.00    -0.203 F 
ATOM     98  F   UNL     1     -15.740   7.307 -12.598  1.00  0.00    -0.200 F 
ATOM     99  C   UNL     1     -14.997   7.113 -14.831  1.00  0.00     0.200 A 
ATOM    100  F   UNL     1     -14.205   6.910 -17.046  1.00  0.00    -0.200 F 
ATOM    101  F   UNL     1     -16.264   7.056 -15.263  1.00  0.00    -0.200 F 
ENDBRANCH  68  91
ENDBRANCH  42  43
ENDBRANCH  35  37
ENDBRANCH  34  35
ENDBRANCH  33  34
ENDBRANCH  32  33
ENDBRANCH  31  32
ENDBRANCH  30  31
ENDBRANCH  29  30
ENDBRANCH   1  29
TORSDOF 24
