REMARK SMILES O=C(CCCN1C(=O)C(=O)/C(=C(/[O-])c2ccc(Cl)cc2)[C@@H]1c1ccccc1[N+](=O)[O-])OCCOCCOCCOCCOC(=O)c1ccc(-c2c3nc(c(-c4c(F)c(F)c(F)c(F)c4F)c4ccc([nH]4)c(-c4c(F)c(F)c(F)c(F)c4F)c4nc(c(-c5c(F)c(F)c(F)c(F)c5F)c5ccc2[nH]5)C=C4)C=C3)cc1
REMARK SMILES IDX 35 1 34 2 33 3 32 4 31 5 2 6 1 7 3 8 4 9 5 10 6 11 7 12
REMARK SMILES IDX 21 13 8 14 9 15 11 16 10 17 12 18 13 19 22 20 23 21 27 22
REMARK SMILES IDX 24 23 26 24 25 25 28 26 29 27 30 28 14 29 15 30 20 31 16 32
REMARK SMILES IDX 19 33 17 34 18 35 36 36 37 37 38 38 39 39 40 40 41 41 42 42
REMARK SMILES IDX 43 43 44 44 45 45 46 46 47 47 108 48 48 49 107 50 49 51
REMARK SMILES IDX 50 52 51 53 101 54 52 55 106 56 100 57 102 58 53 59 105 60
REMARK SMILES IDX 99 61 98 62 54 64 86 65 66 66 85 67 67 68 70 69 84 70 103 71
REMARK SMILES IDX 68 72 69 73 83 75 104 76 71 77 55 78 56 79 64 80 57 81 58 82
REMARK SMILES IDX 62 83 65 84 59 85 60 86 63 87 61 88 87 89 88 90 96 91 89 92
REMARK SMILES IDX 90 93 94 94 97 95 91 96 92 97 95 98 93 99 72 100 73 101
REMARK SMILES IDX 81 102 74 103 75 104 79 105 82 106 76 107 77 108 80 109
REMARK SMILES IDX 78 110
REMARK H PARENT 102 63 70 74
REMARK Flexibility Score: inf
ROOT
ATOM      1  C   UNL     1       1.988   1.418   0.737  1.00  0.00     0.188 C 
ENDROOT
BRANCH   1   2
ATOM      2  O   UNL     1       3.008   0.894  -0.106  1.00  0.00    -0.376 OA
BRANCH   2   3
ATOM      3  C   UNL     1       2.913   1.140  -1.498  1.00  0.00     0.202 C 
BRANCH   3   4
ATOM      4  C   UNL     1       2.924  -0.183  -2.278  1.00  0.00     0.261 C 
BRANCH   4   5
ATOM      5  O   UNL     1       3.395  -1.265  -1.457  1.00  0.00    -0.463 OA
BRANCH   5   6
ATOM      6  C   UNL     1       2.460  -1.776  -0.615  1.00  0.00     0.305 C 
ATOM      7  O   UNL     1       1.248  -1.660  -0.778  1.00  0.00    -0.252 OA
BRANCH   6   8
ATOM      8  C   UNL     1       3.054  -2.353   0.653  1.00  0.00     0.124 C 
BRANCH   8   9
ATOM      9  C   UNL     1       4.368  -3.138   0.611  1.00  0.00     0.033 C 
BRANCH   9  10
ATOM     10  C   UNL     1       5.635  -2.557  -0.030  1.00  0.00     0.121 C 
BRANCH  10  11
ATOM     11  N   UNL     1       6.401  -1.501   0.630  1.00  0.00    -0.324 N 
ATOM     12  C   UNL     1       5.868  -0.326   1.111  1.00  0.00     0.295 C 
ATOM     13  C   UNL     1       7.862  -1.487   0.758  1.00  0.00     0.157 C 
ATOM     14  O   UNL     1       4.800  -0.131   1.624  1.00  0.00    -0.265 OA
ATOM     15  C   UNL     1       6.998   0.705   1.065  1.00  0.00     0.248 C 
ATOM     16  C   UNL     1       8.231  -0.085   1.204  1.00  0.00     0.025 C 
ATOM     17  O   UNL     1       6.883   1.893   0.874  1.00  0.00    -0.283 OA
ATOM     18  C   UNL     1       9.353   0.383   1.772  1.00  0.00    -0.092 C 
ATOM     19  O   UNL     1      10.391  -0.481   2.071  1.00  0.00    -0.872 OA
BRANCH  13  20
ATOM     20  C   UNL     1       8.682  -2.003  -0.416  1.00  0.00     0.057 A 
ATOM     21  C   UNL     1       9.833  -2.753  -0.081  1.00  0.00     0.013 A 
ATOM     22  C   UNL     1       8.448  -1.802  -1.791  1.00  0.00     0.275 A 
ATOM     23  C   UNL     1      10.678  -3.295  -1.053  1.00  0.00     0.001 A 
ATOM     24  C   UNL     1       9.277  -2.376  -2.775  1.00  0.00     0.086 A 
ATOM     25  C   UNL     1      10.391  -3.121  -2.400  1.00  0.00     0.007 A 
BRANCH  22  26
ATOM     26  N   UNL     1       7.358  -0.977  -2.295  1.00  0.00     0.063 N 
ATOM     27  O   UNL     1       6.653  -1.459  -3.193  1.00  0.00    -0.258 OA
ATOM     28  O   UNL     1       7.232   0.155  -1.817  1.00  0.00    -0.258 OA
ENDBRANCH  22  26
ENDBRANCH  13  20
BRANCH  18  29
ATOM     29  C   UNL     1       9.620   1.798   2.107  1.00  0.00    -0.033 A 
ATOM     30  C   UNL     1       8.871   2.513   3.052  1.00  0.00     0.009 A 
ATOM     31  C   UNL     1      10.664   2.455   1.436  1.00  0.00     0.009 A 
ATOM     32  C   UNL     1       9.126   3.871   3.281  1.00  0.00     0.021 A 
ATOM     33  C   UNL     1      10.931   3.806   1.676  1.00  0.00     0.021 A 
ATOM     34  C   UNL     1      10.151   4.512   2.588  1.00  0.00     0.041 A 
ATOM     35  Cl  UNL     1      10.451   6.186   2.851  1.00  0.00    -0.084 Cl
ENDBRANCH  18  29
ENDBRANCH  10  11
ENDBRANCH   9  10
ENDBRANCH   8   9
ENDBRANCH   6   8
ENDBRANCH   5   6
ENDBRANCH   4   5
ENDBRANCH   3   4
ENDBRANCH   2   3
ENDBRANCH   1   2
BRANCH   1  36
ATOM     36  C   UNL     1       1.955   2.950   0.764  1.00  0.00     0.188 C 
BRANCH  36  37
ATOM     37  O   UNL     1       2.917   3.608   1.590  1.00  0.00    -0.377 OA
BRANCH  37  38
ATOM     38  C   UNL     1       4.248   3.113   1.573  1.00  0.00     0.188 C 
BRANCH  38  39
ATOM     39  C   UNL     1       4.877   3.066   2.976  1.00  0.00     0.188 C 
BRANCH  39  40
ATOM     40  O   UNL     1       4.092   2.529   4.038  1.00  0.00    -0.376 OA
BRANCH  40  41
ATOM     41  C   UNL     1       2.891   3.220   4.384  1.00  0.00     0.202 C 
BRANCH  41  42
ATOM     42  C   UNL     1       3.025   4.711   4.736  1.00  0.00     0.261 C 
BRANCH  42  43
ATOM     43  O   UNL     1       3.214   5.536   3.568  1.00  0.00    -0.460 OA
BRANCH  43  44
ATOM     44  C   UNL     1       4.367   6.241   3.509  1.00  0.00     0.338 C 
ATOM     45  O   UNL     1       5.194   6.382   4.395  1.00  0.00    -0.246 OA
BRANCH  44  46
ATOM     46  C   UNL     1       4.613   6.685   2.120  1.00  0.00     0.060 A 
ATOM     47  C   UNL     1       5.864   6.410   1.545  1.00  0.00     0.016 A 
ATOM     48  C   UNL     1       3.662   7.425   1.417  1.00  0.00     0.016 A 
ATOM     49  C   UNL     1       6.188   6.914   0.285  1.00  0.00     0.010 A 
ATOM     50  C   UNL     1       3.999   7.960   0.172  1.00  0.00     0.010 A 
ATOM     51  C   UNL     1       5.276   7.742  -0.378  1.00  0.00    -0.014 A 
BRANCH  51  52
ATOM     52  C   UNL     1       5.717   8.596  -1.507  1.00  0.00     0.031 A 
ATOM     53  C   UNL     1       6.279   9.951  -1.181  1.00  0.00     0.074 A 
ATOM     54  C   UNL     1       5.551   8.221  -2.785  1.00  0.00     0.049 A 
ATOM     55  N   UNL     1       6.538  10.960  -1.971  1.00  0.00    -0.248 NA
ATOM     56  C   UNL     1       6.574  10.204   0.239  1.00  0.00     0.031 C 
ATOM     57  C   UNL     1       5.065   6.918  -3.228  1.00  0.00     0.029 A 
ATOM     58  N   UNL     1       5.740   8.929  -3.946  1.00  0.00    -0.354 N 
ATOM     59  C   UNL     1       7.002  11.973  -1.142  1.00  0.00     0.074 A 
ATOM     60  C   UNL     1       6.989  11.460   0.209  1.00  0.00     0.031 C 
ATOM     61  C   UNL     1       4.947   6.934  -4.567  1.00  0.00     0.029 A 
ATOM     62  C   UNL     1       5.311   8.261  -5.066  1.00  0.00     0.049 A 
ATOM     63  H   UNL     1       6.144   9.827  -3.973  1.00  0.00     0.167 HD
ATOM     64  C   UNL     1       7.389  13.226  -1.477  1.00  0.00     0.037 A 
ATOM     65  C   UNL     1       5.182   8.692  -6.336  1.00  0.00     0.037 A 
ATOM     66  C   UNL     1       7.382  13.740  -2.818  1.00  0.00     0.049 A 
ATOM     67  C   UNL     1       5.559  10.110  -6.683  1.00  0.00     0.074 A 
ATOM     68  C   UNL     1       7.767  14.990  -3.267  1.00  0.00     0.029 A 
ATOM     69  N   UNL     1       6.952  13.027  -3.928  1.00  0.00    -0.354 N 
ATOM     70  N   UNL     1       6.010  11.062  -5.902  1.00  0.00    -0.248 NA
ATOM     71  C   UNL     1       5.402  10.516  -8.088  1.00  0.00     0.031 C 
ATOM     72  C   UNL     1       7.527  15.049  -4.645  1.00  0.00     0.029 A 
ATOM     73  C   UNL     1       7.038  13.820  -5.059  1.00  0.00     0.049 A 
ATOM     74  H   UNL     1       6.633  12.096  -3.913  1.00  0.00     0.167 HD
ATOM     75  C   UNL     1       6.212  12.168  -6.718  1.00  0.00     0.074 A 
ATOM     76  C   UNL     1       5.837  11.769  -8.059  1.00  0.00     0.031 C 
ATOM     77  C   UNL     1       6.670  13.400  -6.388  1.00  0.00     0.037 A 
BRANCH  64  78
ATOM     78  C   UNL     1       7.792  14.133  -0.355  1.00  0.00     0.064 A 
ATOM     79  C   UNL     1       8.999  13.960   0.339  1.00  0.00     0.173 A 
ATOM     80  C   UNL     1       6.945  15.177   0.047  1.00  0.00     0.173 A 
ATOM     81  F   UNL     1       9.833  12.963   0.004  1.00  0.00    -0.203 F 
ATOM     82  C   UNL     1       9.326  14.776   1.418  1.00  0.00     0.198 A 
ATOM     83  C   UNL     1       7.288  16.008   1.110  1.00  0.00     0.198 A 
ATOM     84  F   UNL     1       5.780  15.384  -0.584  1.00  0.00    -0.203 F 
ATOM     85  F   UNL     1      10.457  14.557   2.104  1.00  0.00    -0.200 F 
ATOM     86  C   UNL     1       8.472  15.800   1.801  1.00  0.00     0.200 A 
ATOM     87  F   UNL     1       6.466  17.001   1.474  1.00  0.00    -0.200 F 
ATOM     88  F   UNL     1       8.786  16.581   2.844  1.00  0.00    -0.200 F 
ENDBRANCH  64  78
BRANCH  65  89
ATOM     89  C   UNL     1       4.631   7.777  -7.367  1.00  0.00     0.064 A 
ATOM     90  C   UNL     1       5.450   7.238  -8.367  1.00  0.00     0.173 A 
ATOM     91  C   UNL     1       3.275   7.414  -7.365  1.00  0.00     0.173 A 
ATOM     92  F   UNL     1       6.745   7.579  -8.428  1.00  0.00    -0.203 F 
ATOM     93  C   UNL     1       4.933   6.373  -9.330  1.00  0.00     0.198 A 
ATOM     94  C   UNL     1       2.765   6.531  -8.314  1.00  0.00     0.198 A 
ATOM     95  F   UNL     1       2.449   7.909  -6.431  1.00  0.00    -0.203 F 
ATOM     96  F   UNL     1       5.731   5.895 -10.295  1.00  0.00    -0.200 F 
ATOM     97  C   UNL     1       3.594   6.014  -9.298  1.00  0.00     0.200 A 
ATOM     98  F   UNL     1       1.472   6.181  -8.274  1.00  0.00    -0.200 F 
ATOM     99  F   UNL     1       3.100   5.175 -10.218  1.00  0.00    -0.200 F 
ENDBRANCH  65  89
BRANCH  77 100
ATOM    100  C   UNL     1       6.833  14.402  -7.492  1.00  0.00     0.064 A 
ATOM    101  C   UNL     1       5.732  15.061  -8.056  1.00  0.00     0.173 A 
ATOM    102  C   UNL     1       8.115  14.765  -7.932  1.00  0.00     0.173 A 
ATOM    103  F   UNL     1       4.486  14.740  -7.676  1.00  0.00    -0.203 F 
ATOM    104  C   UNL     1       5.908  16.043  -9.028  1.00  0.00     0.198 A 
ATOM    105  C   UNL     1       8.289  15.763  -8.886  1.00  0.00     0.198 A 
ATOM    106  F   UNL     1       9.200  14.167  -7.417  1.00  0.00    -0.203 F 
ATOM    107  F   UNL     1       4.842  16.644  -9.572  1.00  0.00    -0.200 F 
ATOM    108  C   UNL     1       7.186  16.399  -9.435  1.00  0.00     0.200 A 
ATOM    109  F   UNL     1       9.524  16.114  -9.269  1.00  0.00    -0.200 F 
ATOM    110  F   UNL     1       7.354  17.356 -10.358  1.00  0.00    -0.200 F 
ENDBRANCH  77 100
ENDBRANCH  51  52
ENDBRANCH  44  46
ENDBRANCH  43  44
ENDBRANCH  42  43
ENDBRANCH  41  42
ENDBRANCH  40  41
ENDBRANCH  39  40
ENDBRANCH  38  39
ENDBRANCH  37  38
ENDBRANCH  36  37
ENDBRANCH   1  36
TORSDOF 26
