REMARK SMILES [NH3+][C@@]1(C(=O)OCCOCCOCCOCCOC(=O)c2ccc(-c3c4nc(c(-c5c(F)c(F)c(F)c(F)c5F)c5ccc([nH]5)c(-c5c(F)c(F)c(F)c(F)c5F)c5nc(c(-c6c(F)c(F)c(F)c(F)c6F)c6ccc3[nH]6)C=C5)C=C4)cc2)CCC[C@@H](Oc2ccccc2[N+](=O)[O-])C1
REMARK SMILES IDX 10 1 9 2 8 3 7 4 6 5 5 6 3 7 4 8 2 9 83 10 97 11 84 12 86 13
REMARK SMILES IDX 85 14 1 15 87 19 88 20 89 21 93 22 90 23 92 24 91 25 94 26
REMARK SMILES IDX 95 27 96 28 11 29 12 30 13 31 14 32 15 33 16 34 17 35 18 36
REMARK SMILES IDX 19 37 20 38 21 39 82 40 22 41 81 42 23 43 24 44 25 45 75 46
REMARK SMILES IDX 26 47 80 48 74 49 76 50 27 51 79 52 73 53 72 54 28 56 60 57
REMARK SMILES IDX 40 58 59 59 41 60 44 61 58 62 77 63 42 64 43 65 57 67 78 68
REMARK SMILES IDX 45 69 29 70 30 71 38 72 31 73 32 74 36 75 39 76 33 77 34 78
REMARK SMILES IDX 37 79 35 80 61 81 62 82 70 83 63 84 64 85 68 86 71 87 65 88
REMARK SMILES IDX 66 89 69 90 67 91 46 92 47 93 55 94 48 95 49 96 53 97 56 98
REMARK SMILES IDX 50 99 51 100 54 101 52 102
REMARK H PARENT 1 16 1 17 1 18 76 55 44 66
REMARK Flexibility Score: inf
ROOT
ATOM      1  C   UNL     1      -3.122  -2.241   0.419  1.00  0.00     0.188 C 
ENDROOT
BRANCH   1   2
ATOM      2  C   UNL     1      -3.164  -1.550   1.802  1.00  0.00     0.188 C 
BRANCH   2   3
ATOM      3  O   UNL     1      -4.303  -0.816   2.232  1.00  0.00    -0.376 OA
BRANCH   3   4
ATOM      4  C   UNL     1      -5.060  -0.034   1.324  1.00  0.00     0.202 C 
BRANCH   4   5
ATOM      5  C   UNL     1      -4.383   0.974   0.385  1.00  0.00     0.261 C 
BRANCH   5   6
ATOM      6  O   UNL     1      -3.068   0.632  -0.046  1.00  0.00    -0.459 OA
BRANCH   6   7
ATOM      7  C   UNL     1      -2.009   1.090   0.693  1.00  0.00     0.368 C 
ATOM      8  O   UNL     1      -2.097   1.764   1.708  1.00  0.00    -0.245 OA
BRANCH   7   9
ATOM      9  C   UNL     1      -0.673   0.584   0.052  1.00  0.00     0.196 C 
ATOM     10  C   UNL     1       0.115  -0.409   0.927  1.00  0.00     0.081 C 
ATOM     11  C   UNL     1       0.189   1.829  -0.188  1.00  0.00     0.126 C 
ATOM     12  C   UNL     1       1.447  -0.815   0.285  1.00  0.00     0.011 C 
ATOM     13  C   UNL     1       1.581   1.556  -0.770  1.00  0.00     0.180 C 
ATOM     14  C   UNL     1       2.315   0.384  -0.090  1.00  0.00     0.046 C 
BRANCH   9  15
ATOM     15  N   UNL     1      -0.987  -0.089  -1.223  1.00  0.00    -0.343 N 
ATOM     16  H   UNL     1      -0.124  -0.424  -1.652  1.00  0.00     0.345 HD
ATOM     17  H   UNL     1      -1.445   0.570  -1.852  1.00  0.00     0.345 HD
ATOM     18  H   UNL     1      -1.608  -0.879  -1.047  1.00  0.00     0.345 HD
ENDBRANCH   9  15
BRANCH  13  19
ATOM     19  O   UNL     1       1.697   1.663  -2.209  1.00  0.00    -0.483 OA
BRANCH  19  20
ATOM     20  C   UNL     1       1.080   0.745  -3.006  1.00  0.00     0.197 A 
ATOM     21  C   UNL     1       1.761  -0.446  -3.279  1.00  0.00     0.054 A 
ATOM     22  C   UNL     1      -0.162   0.960  -3.630  1.00  0.00     0.310 A 
ATOM     23  C   UNL     1       1.164  -1.452  -4.046  1.00  0.00     0.004 A 
ATOM     24  C   UNL     1      -0.772  -0.058  -4.390  1.00  0.00     0.090 A 
ATOM     25  C   UNL     1      -0.111  -1.270  -4.580  1.00  0.00     0.007 A 
BRANCH  22  26
ATOM     26  N   UNL     1      -0.935   2.178  -3.397  1.00  0.00     0.066 N 
ATOM     27  O   UNL     1      -2.172   2.065  -3.325  1.00  0.00    -0.258 OA
ATOM     28  O   UNL     1      -0.330   3.255  -3.320  1.00  0.00    -0.258 OA
ENDBRANCH  22  26
ENDBRANCH  19  20
ENDBRANCH  13  19
ENDBRANCH   7   9
ENDBRANCH   6   7
ENDBRANCH   5   6
ENDBRANCH   4   5
ENDBRANCH   3   4
ENDBRANCH   2   3
ENDBRANCH   1   2
BRANCH   1  29
ATOM     29  O   UNL     1      -4.303  -2.102  -0.348  1.00  0.00    -0.377 OA
BRANCH  29  30
ATOM     30  C   UNL     1      -5.179  -3.222  -0.267  1.00  0.00     0.188 C 
BRANCH  30  31
ATOM     31  C   UNL     1      -5.495  -3.746   1.151  1.00  0.00     0.188 C 
BRANCH  31  32
ATOM     32  O   UNL     1      -4.334  -4.017   1.926  1.00  0.00    -0.376 OA
BRANCH  32  33
ATOM     33  C   UNL     1      -3.922  -5.351   2.160  1.00  0.00     0.202 C 
BRANCH  33  34
ATOM     34  C   UNL     1      -3.267  -6.081   0.979  1.00  0.00     0.261 C 
BRANCH  34  35
ATOM     35  O   UNL     1      -4.035  -6.107  -0.229  1.00  0.00    -0.460 OA
BRANCH  35  36
ATOM     36  C   UNL     1      -5.218  -6.756  -0.185  1.00  0.00     0.338 C 
ATOM     37  O   UNL     1      -5.692  -7.367   0.757  1.00  0.00    -0.246 OA
BRANCH  36  38
ATOM     38  C   UNL     1      -5.949  -6.411  -1.419  1.00  0.00     0.060 A 
ATOM     39  C   UNL     1      -7.182  -5.756  -1.308  1.00  0.00     0.016 A 
ATOM     40  C   UNL     1      -5.394  -6.676  -2.673  1.00  0.00     0.016 A 
ATOM     41  C   UNL     1      -7.867  -5.363  -2.455  1.00  0.00     0.010 A 
ATOM     42  C   UNL     1      -6.099  -6.318  -3.823  1.00  0.00     0.010 A 
ATOM     43  C   UNL     1      -7.346  -5.677  -3.716  1.00  0.00    -0.014 A 
BRANCH  43  44
ATOM     44  C   UNL     1      -8.196  -5.511  -4.915  1.00  0.00     0.031 A 
ATOM     45  C   UNL     1      -9.000  -6.691  -5.379  1.00  0.00     0.074 A 
ATOM     46  C   UNL     1      -8.262  -4.338  -5.566  1.00  0.00     0.049 A 
ATOM     47  N   UNL     1      -9.768  -6.814  -6.429  1.00  0.00    -0.248 NA
ATOM     48  C   UNL     1      -8.926  -7.898  -4.540  1.00  0.00     0.031 C 
ATOM     49  C   UNL     1      -7.566  -3.114  -5.178  1.00  0.00     0.029 A 
ATOM     50  N   UNL     1      -8.945  -3.993  -6.706  1.00  0.00    -0.354 N 
ATOM     51  C   UNL     1     -10.264  -8.109  -6.380  1.00  0.00     0.074 A 
ATOM     52  C   UNL     1      -9.693  -8.742  -5.212  1.00  0.00     0.031 C 
ATOM     53  C   UNL     1      -7.840  -2.154  -6.078  1.00  0.00     0.029 A 
ATOM     54  C   UNL     1      -8.701  -2.708  -7.123  1.00  0.00     0.049 A 
ATOM     55  H   UNL     1      -9.551  -4.608  -7.178  1.00  0.00     0.167 HD
ATOM     56  C   UNL     1     -11.123  -8.713  -7.233  1.00  0.00     0.037 A 
ATOM     57  C   UNL     1      -9.103  -2.070  -8.240  1.00  0.00     0.037 A 
ATOM     58  C   UNL     1     -11.679  -8.078  -8.398  1.00  0.00     0.049 A 
ATOM     59  C   UNL     1      -9.988  -2.797  -9.223  1.00  0.00     0.074 A 
ATOM     60  C   UNL     1     -12.575  -8.595  -9.316  1.00  0.00     0.029 A 
ATOM     61  N   UNL     1     -11.377  -6.789  -8.814  1.00  0.00    -0.354 N 
ATOM     62  N   UNL     1     -10.480  -4.011  -9.158  1.00  0.00    -0.248 NA
ATOM     63  C   UNL     1     -10.371  -2.063 -10.438  1.00  0.00     0.031 C 
ATOM     64  C   UNL     1     -12.765  -7.643 -10.322  1.00  0.00     0.029 A 
ATOM     65  C   UNL     1     -12.040  -6.508  -9.997  1.00  0.00     0.049 A 
ATOM     66  H   UNL     1     -10.781  -6.167  -8.338  1.00  0.00     0.167 HD
ATOM     67  C   UNL     1     -11.248  -4.176 -10.304  1.00  0.00     0.074 A 
ATOM     68  C   UNL     1     -11.172  -2.931 -11.039  1.00  0.00     0.031 C 
ATOM     69  C   UNL     1     -11.952  -5.261 -10.715  1.00  0.00     0.037 A 
BRANCH  56  70
ATOM     70  C   UNL     1     -11.480 -10.144  -6.961  1.00  0.00     0.064 A 
ATOM     71  C   UNL     1     -12.292 -10.512  -5.878  1.00  0.00     0.173 A 
ATOM     72  C   UNL     1     -11.029 -11.159  -7.818  1.00  0.00     0.173 A 
ATOM     73  F   UNL     1     -12.733  -9.582  -5.017  1.00  0.00    -0.203 F 
ATOM     74  C   UNL     1     -12.620 -11.847  -5.651  1.00  0.00     0.198 A 
ATOM     75  C   UNL     1     -11.385 -12.488  -7.606  1.00  0.00     0.198 A 
ATOM     76  F   UNL     1     -10.248 -10.861  -8.867  1.00  0.00    -0.203 F 
ATOM     77  F   UNL     1     -13.357 -12.181  -4.582  1.00  0.00    -0.200 F 
ATOM     78  C   UNL     1     -12.175 -12.831  -6.519  1.00  0.00     0.200 A 
ATOM     79  F   UNL     1     -10.962 -13.436  -8.453  1.00  0.00    -0.200 F 
ATOM     80  F   UNL     1     -12.500 -14.114  -6.305  1.00  0.00    -0.200 F 
ENDBRANCH  56  70
BRANCH  57  81
ATOM     81  C   UNL     1      -8.649  -0.680  -8.510  1.00  0.00     0.064 A 
ATOM     82  C   UNL     1      -9.555   0.389  -8.535  1.00  0.00     0.173 A 
ATOM     83  C   UNL     1      -7.302  -0.397  -8.784  1.00  0.00     0.173 A 
ATOM     84  F   UNL     1     -10.858   0.167  -8.309  1.00  0.00    -0.203 F 
ATOM     85  C   UNL     1      -9.136   1.683  -8.844  1.00  0.00     0.198 A 
ATOM     86  C   UNL     1      -6.879   0.901  -9.061  1.00  0.00     0.198 A 
ATOM     87  F   UNL     1      -6.394  -1.384  -8.780  1.00  0.00    -0.203 F 
ATOM     88  F   UNL     1     -10.033   2.675  -8.917  1.00  0.00    -0.200 F 
ATOM     89  C   UNL     1      -7.797   1.938  -9.101  1.00  0.00     0.200 A 
ATOM     90  F   UNL     1      -5.582   1.144  -9.299  1.00  0.00    -0.200 F 
ATOM     91  F   UNL     1      -7.396   3.181  -9.400  1.00  0.00    -0.200 F 
ENDBRANCH  57  81
BRANCH  69  92
ATOM     92  C   UNL     1     -12.717  -5.144 -12.003  1.00  0.00     0.064 A 
ATOM     93  C   UNL     1     -12.067  -5.085 -13.244  1.00  0.00     0.173 A 
ATOM     94  C   UNL     1     -14.121  -5.137 -11.997  1.00  0.00     0.173 A 
ATOM     95  F   UNL     1     -10.727  -5.075 -13.305  1.00  0.00    -0.203 F 
ATOM     96  C   UNL     1     -12.793  -4.997 -14.430  1.00  0.00     0.198 A 
ATOM     97  C   UNL     1     -14.843  -5.085 -13.186  1.00  0.00     0.198 A 
ATOM     98  F   UNL     1     -14.794  -5.202 -10.838  1.00  0.00    -0.203 F 
ATOM     99  F   UNL     1     -12.149  -4.891 -15.600  1.00  0.00    -0.200 F 
ATOM    100  C   UNL     1     -14.179  -5.005 -14.400  1.00  0.00     0.200 A 
ATOM    101  F   UNL     1     -16.183  -5.112 -13.156  1.00  0.00    -0.200 F 
ATOM    102  F   UNL     1     -14.876  -4.931 -15.543  1.00  0.00    -0.200 F 
ENDBRANCH  69  92
ENDBRANCH  43  44
ENDBRANCH  36  38
ENDBRANCH  35  36
ENDBRANCH  34  35
ENDBRANCH  33  34
ENDBRANCH  32  33
ENDBRANCH  31  32
ENDBRANCH  30  31
ENDBRANCH  29  30
ENDBRANCH   1  29
TORSDOF 24
