REMARK SMILES CC1(C)CSC[C@H]([NH2+][C@H](C(=O)OCCOCCOCCOCCOC(=O)c2ccc(-c3c4nc(c(-c5c(F)c(F)c(F)c(F)c5F)c5ccc([nH]5)c(-c5c(F)c(F)c(F)c(F)c5F)c5nc(c(-c6c(F)c(F)c(F)c(F)c6F)c6ccc3[nH]6)C=C5)C=C4)cc2)c2ccccc2)C1
REMARK SMILES IDX 18 1 17 2 16 3 15 4 14 5 13 6 12 7 10 8 11 9 9 10 8 11 7 14
REMARK SMILES IDX 1 15 2 16 3 17 4 18 96 19 5 20 6 21 90 22 91 23 95 24 92 25
REMARK SMILES IDX 94 26 93 27 19 28 20 29 21 30 22 31 23 32 24 33 25 34 26 35
REMARK SMILES IDX 27 36 28 37 89 38 29 39 88 40 30 41 31 42 32 43 82 44 33 45
REMARK SMILES IDX 87 46 81 47 83 48 34 49 86 50 80 51 79 52 35 54 67 55 47 56
REMARK SMILES IDX 66 57 48 58 51 59 65 60 84 61 49 62 50 63 64 65 85 66 52 67
REMARK SMILES IDX 36 68 37 69 45 70 38 71 39 72 43 73 46 74 40 75 41 76 44 77
REMARK SMILES IDX 42 78 68 79 69 80 77 81 70 82 71 83 75 84 78 85 72 86 73 87
REMARK SMILES IDX 76 88 74 89 53 90 54 91 62 92 55 93 56 94 60 95 63 96 57 97
REMARK SMILES IDX 58 98 61 99 59 100
REMARK H PARENT 8 12 8 13 83 53 51 64
REMARK Flexibility Score: inf
ROOT
ATOM      1  O   UNL     1       1.468  -1.090  -1.812  1.00  0.00    -0.377 OA
ENDROOT
BRANCH   1   2
ATOM      2  C   UNL     1       0.911   0.172  -2.165  1.00  0.00     0.188 C 
BRANCH   2   3
ATOM      3  C   UNL     1       0.210   1.097  -1.134  1.00  0.00     0.188 C 
BRANCH   3   4
ATOM      4  O   UNL     1      -0.438   0.419  -0.070  1.00  0.00    -0.376 OA
BRANCH   4   5
ATOM      5  C   UNL     1      -1.842   0.270  -0.080  1.00  0.00     0.202 C 
BRANCH   5   6
ATOM      6  C   UNL     1      -2.442  -0.591  -1.203  1.00  0.00     0.261 C 
BRANCH   6   7
ATOM      7  O   UNL     1      -2.064  -0.281  -2.556  1.00  0.00    -0.459 OA
BRANCH   7   8
ATOM      8  C   UNL     1      -2.228   1.015  -2.938  1.00  0.00     0.369 C 
ATOM      9  O   UNL     1      -2.574   1.903  -2.168  1.00  0.00    -0.245 OA
BRANCH   8  10
ATOM     10  C   UNL     1      -2.054   1.209  -4.474  1.00  0.00     0.325 C 
BRANCH  10  11
ATOM     11  N   UNL     1      -3.339   0.885  -5.163  1.00  0.00    -0.328 N 
ATOM     12  H   UNL     1      -3.421   1.484  -5.985  1.00  0.00     0.347 HD
ATOM     13  H   UNL     1      -3.304  -0.107  -5.397  1.00  0.00     0.347 HD
BRANCH  11  14
ATOM     14  C   UNL     1      -4.540   1.080  -4.329  1.00  0.00     0.193 C 
ATOM     15  C   UNL     1      -6.653  -0.935  -3.114  1.00  0.00     0.012 C 
ATOM     16  C   UNL     1      -6.961   0.302  -3.994  1.00  0.00    -0.021 C 
ATOM     17  C   UNL     1      -8.245  -0.002  -4.787  1.00  0.00     0.012 C 
ATOM     18  C   UNL     1      -7.280   1.541  -3.116  1.00  0.00     0.076 C 
ATOM     19  C   UNL     1      -5.800   0.526  -5.011  1.00  0.00     0.073 C 
ATOM     20  S   UNL     1      -5.892   2.411  -2.365  1.00  0.00    -0.155 SA
ATOM     21  C   UNL     1      -4.840   2.513  -3.840  1.00  0.00     0.134 C 
ENDBRANCH  11  14
ENDBRANCH  10  11
BRANCH  10  22
ATOM     22  C   UNL     1      -1.483   2.605  -4.772  1.00  0.00     0.021 A 
ATOM     23  C   UNL     1      -0.226   2.965  -4.247  1.00  0.00     0.010 A 
ATOM     24  C   UNL     1      -2.199   3.601  -5.449  1.00  0.00     0.010 A 
ATOM     25  C   UNL     1       0.215   4.290  -4.248  1.00  0.00     0.001 A 
ATOM     26  C   UNL     1      -1.758   4.926  -5.460  1.00  0.00     0.001 A 
ATOM     27  C   UNL     1      -0.570   5.277  -4.829  1.00  0.00     0.000 A 
ENDBRANCH  10  22
ENDBRANCH   8  10
ENDBRANCH   7   8
ENDBRANCH   6   7
ENDBRANCH   5   6
ENDBRANCH   4   5
ENDBRANCH   3   4
ENDBRANCH   2   3
ENDBRANCH   1   2
BRANCH   1  28
ATOM     28  C   UNL     1       1.257  -1.572  -0.497  1.00  0.00     0.188 C 
BRANCH  28  29
ATOM     29  C   UNL     1       1.978  -0.774   0.612  1.00  0.00     0.188 C 
BRANCH  29  30
ATOM     30  O   UNL     1       2.456   0.491   0.192  1.00  0.00    -0.376 OA
BRANCH  30  31
ATOM     31  C   UNL     1       3.800   0.655  -0.218  1.00  0.00     0.202 C 
BRANCH  31  32
ATOM     32  C   UNL     1       4.434  -0.274  -1.265  1.00  0.00     0.261 C 
BRANCH  32  33
ATOM     33  O   UNL     1       4.188  -1.679  -1.132  1.00  0.00    -0.460 OA
BRANCH  33  34
ATOM     34  C   UNL     1       4.678  -2.306  -0.046  1.00  0.00     0.338 C 
ATOM     35  O   UNL     1       5.365  -1.826   0.840  1.00  0.00    -0.246 OA
BRANCH  34  36
ATOM     36  C   UNL     1       4.035  -3.637   0.006  1.00  0.00     0.060 A 
ATOM     37  C   UNL     1       3.267  -3.976   1.130  1.00  0.00     0.016 A 
ATOM     38  C   UNL     1       4.131  -4.516  -1.076  1.00  0.00     0.016 A 
ATOM     39  C   UNL     1       2.606  -5.200   1.182  1.00  0.00     0.010 A 
ATOM     40  C   UNL     1       3.513  -5.765  -1.002  1.00  0.00     0.010 A 
ATOM     41  C   UNL     1       2.777  -6.121   0.143  1.00  0.00    -0.014 A 
BRANCH  41  42
ATOM     42  C   UNL     1       2.424  -7.536   0.384  1.00  0.00     0.031 A 
ATOM     43  C   UNL     1       3.501  -8.436   0.918  1.00  0.00     0.074 A 
ATOM     44  C   UNL     1       1.183  -8.003   0.175  1.00  0.00     0.049 A 
ATOM     45  N   UNL     1       3.467  -9.715   1.184  1.00  0.00    -0.248 NA
ATOM     46  C   UNL     1       4.802  -7.799   1.186  1.00  0.00     0.031 C 
ATOM     47  C   UNL     1       0.047  -7.212  -0.289  1.00  0.00     0.029 A 
ATOM     48  N   UNL     1       0.679  -9.271   0.322  1.00  0.00    -0.354 N 
ATOM     49  C   UNL     1       4.738 -10.035   1.641  1.00  0.00     0.074 A 
ATOM     50  C   UNL     1       5.530  -8.827   1.588  1.00  0.00     0.031 C 
ATOM     51  C   UNL     1      -1.022  -8.019  -0.408  1.00  0.00     0.029 A 
ATOM     52  C   UNL     1      -0.634  -9.386  -0.059  1.00  0.00     0.049 A 
ATOM     53  H   UNL     1       1.208 -10.025   0.669  1.00  0.00     0.167 HD
ATOM     54  C   UNL     1       5.202 -11.231   2.071  1.00  0.00     0.037 A 
ATOM     55  C   UNL     1      -1.417 -10.479  -0.141  1.00  0.00     0.037 A 
ATOM     56  C   UNL     1       4.410 -12.430   2.109  1.00  0.00     0.049 A 
ATOM     57  C   UNL     1      -0.856 -11.819   0.266  1.00  0.00     0.074 A 
ATOM     58  C   UNL     1       4.774 -13.691   2.544  1.00  0.00     0.029 A 
ATOM     59  N   UNL     1       3.094 -12.519   1.676  1.00  0.00    -0.354 N 
ATOM     60  N   UNL     1       0.337 -12.116   0.724  1.00  0.00    -0.248 NA
ATOM     61  C   UNL     1      -1.754 -12.976   0.147  1.00  0.00     0.031 C 
ATOM     62  C   UNL     1       3.701 -14.558   2.310  1.00  0.00     0.029 A 
ATOM     63  C   UNL     1       2.643 -13.823   1.799  1.00  0.00     0.049 A 
ATOM     64  H   UNL     1       2.560 -11.766   1.333  1.00  0.00     0.167 HD
ATOM     65  C   UNL     1       0.325 -13.483   0.973  1.00  0.00     0.074 A 
ATOM     66  C   UNL     1      -1.000 -13.955   0.628  1.00  0.00     0.031 C 
ATOM     67  C   UNL     1       1.319 -14.275   1.448  1.00  0.00     0.037 A 
BRANCH  54  68
ATOM     68  C   UNL     1       6.644 -11.301   2.481  1.00  0.00     0.064 A 
ATOM     69  C   UNL     1       7.125 -10.652   3.629  1.00  0.00     0.173 A 
ATOM     70  C   UNL     1       7.562 -12.027   1.706  1.00  0.00     0.173 A 
ATOM     71  F   UNL     1       6.295  -9.927   4.394  1.00  0.00    -0.203 F 
ATOM     72  C   UNL     1       8.477 -10.696   3.964  1.00  0.00     0.198 A 
ATOM     73  C   UNL     1       8.905 -12.099   2.065  1.00  0.00     0.198 A 
ATOM     74  F   UNL     1       7.157 -12.666   0.599  1.00  0.00    -0.203 F 
ATOM     75  F   UNL     1       8.924 -10.014   5.027  1.00  0.00    -0.200 F 
ATOM     76  C   UNL     1       9.364 -11.424   3.186  1.00  0.00     0.200 A 
ATOM     77  F   UNL     1       9.758 -12.814   1.318  1.00  0.00    -0.200 F 
ATOM     78  F   UNL     1      10.663 -11.467   3.510  1.00  0.00    -0.200 F 
ENDBRANCH  54  68
BRANCH  55  79
ATOM     79  C   UNL     1      -2.810 -10.352  -0.644  1.00  0.00     0.064 A 
ATOM     80  C   UNL     1      -3.909 -10.560   0.200  1.00  0.00     0.173 A 
ATOM     81  C   UNL     1      -3.070 -10.020  -1.982  1.00  0.00     0.173 A 
ATOM     82  F   UNL     1      -3.714 -10.907   1.481  1.00  0.00    -0.203 F 
ATOM     83  C   UNL     1      -5.214 -10.452  -0.277  1.00  0.00     0.198 A 
ATOM     84  C   UNL     1      -4.375  -9.882  -2.451  1.00  0.00     0.198 A 
ATOM     85  F   UNL     1      -2.054  -9.816  -2.833  1.00  0.00    -0.203 F 
ATOM     86  F   UNL     1      -6.247 -10.696   0.541  1.00  0.00    -0.200 F 
ATOM     87  C   UNL     1      -5.446 -10.104  -1.599  1.00  0.00     0.200 A 
ATOM     88  F   UNL     1      -4.593  -9.534  -3.726  1.00  0.00    -0.200 F 
ATOM     89  F   UNL     1      -6.701  -9.989  -2.055  1.00  0.00    -0.200 F 
ENDBRANCH  55  79
BRANCH  67  90
ATOM     90  C   UNL     1       1.005 -15.731   1.657  1.00  0.00     0.064 A 
ATOM     91  C   UNL     1       0.802 -16.607   0.580  1.00  0.00     0.173 A 
ATOM     92  C   UNL     1       0.953 -16.265   2.954  1.00  0.00     0.173 A 
ATOM     93  F   UNL     1       0.829 -16.147  -0.680  1.00  0.00    -0.203 F 
ATOM     94  C   UNL     1       0.529 -17.956   0.796  1.00  0.00     0.198 A 
ATOM     95  C   UNL     1       0.716 -17.621   3.165  1.00  0.00     0.198 A 
ATOM     96  F   UNL     1       1.150 -15.475   4.020  1.00  0.00    -0.203 F 
ATOM     97  F   UNL     1       0.285 -18.763  -0.246  1.00  0.00    -0.200 F 
ATOM     98  C   UNL     1       0.495 -18.463   2.086  1.00  0.00     0.200 A 
ATOM     99  F   UNL     1       0.703 -18.111   4.412  1.00  0.00    -0.200 F 
ATOM    100  F   UNL     1       0.241 -19.763   2.291  1.00  0.00    -0.200 F 
ENDBRANCH  67  90
ENDBRANCH  41  42
ENDBRANCH  34  36
ENDBRANCH  33  34
ENDBRANCH  32  33
ENDBRANCH  31  32
ENDBRANCH  30  31
ENDBRANCH  29  30
ENDBRANCH  28  29
ENDBRANCH   1  28
TORSDOF 23
