REMARK SMILES CC[C@H]1CC[C@](C(=O)OCCOCCOCCOCCOC(=O)c2ccc(-c3c4nc(c(-c5c(F)c(F)c(F)c(F)c5F)c5ccc([nH]5)c(-c5c(F)c(F)c(F)c(F)c5F)c5nc(c(-c6c(F)c(F)c(F)c(F)c6F)c6ccc3[nH]6)C=C5)C=C4)cc2)([C@H]2CCC[C@@H](S(C)(=O)=O)C2)CC1
REMARK SMILES IDX 15 1 14 2 13 3 12 4 11 5 10 6 9 7 7 8 8 9 6 10 3 11 98 12
REMARK SMILES IDX 4 13 97 14 5 15 2 16 1 17 87 18 88 19 96 20 89 21 91 22
REMARK SMILES IDX 90 23 92 24 93 25 94 26 95 27 16 28 17 29 18 30 19 31 20 32
REMARK SMILES IDX 21 33 22 34 23 35 24 36 25 37 86 38 26 39 85 40 27 41 28 42
REMARK SMILES IDX 29 43 79 44 30 45 84 46 78 47 80 48 31 49 83 50 77 51 76 52
REMARK SMILES IDX 32 54 64 55 44 56 63 57 45 58 48 59 62 60 81 61 46 62 47 63
REMARK SMILES IDX 61 65 82 66 49 67 33 68 34 69 42 70 35 71 36 72 40 73 43 74
REMARK SMILES IDX 37 75 38 76 41 77 39 78 65 79 66 80 74 81 67 82 68 83 72 84
REMARK SMILES IDX 75 85 69 86 70 87 73 88 71 89 50 90 51 91 59 92 52 93 53 94
REMARK SMILES IDX 57 95 60 96 54 97 55 98 58 99 56 100
REMARK H PARENT 80 53 48 64
REMARK Flexibility Score: inf
ROOT
ATOM      1  O   UNL     1       0.937  10.747   4.297  1.00  0.00    -0.377 OA
ENDROOT
BRANCH   1   2
ATOM      2  C   UNL     1       2.066   9.911   4.256  1.00  0.00     0.188 C 
BRANCH   2   3
ATOM      3  C   UNL     1       3.351  10.533   3.725  1.00  0.00     0.188 C 
BRANCH   3   4
ATOM      4  O   UNL     1       3.325  11.340   2.552  1.00  0.00    -0.376 OA
BRANCH   4   5
ATOM      5  C   UNL     1       2.093  11.853   2.049  1.00  0.00     0.202 C 
BRANCH   5   6
ATOM      6  C   UNL     1       1.229  10.963   1.107  1.00  0.00     0.261 C 
BRANCH   6   7
ATOM      7  O   UNL     1       0.969   9.607   1.550  1.00  0.00    -0.463 OA
BRANCH   7   8
ATOM      8  C   UNL     1       0.952   8.632   0.587  1.00  0.00     0.312 C 
ATOM      9  O   UNL     1       1.076   8.852  -0.615  1.00  0.00    -0.252 OA
BRANCH   8  10
ATOM     10  C   UNL     1       0.685   7.197   1.142  1.00  0.00     0.071 C 
ATOM     11  C   UNL     1      -2.359   7.591   1.318  1.00  0.00    -0.011 C 
ATOM     12  C   UNL     1      -1.636   7.309  -0.009  1.00  0.00     0.005 C 
ATOM     13  C   UNL     1      -1.405   7.996   2.451  1.00  0.00     0.005 C 
ATOM     14  C   UNL     1      -0.312   6.535   0.135  1.00  0.00     0.019 C 
ATOM     15  C   UNL     1      -0.097   7.204   2.488  1.00  0.00     0.019 C 
BRANCH  11  16
ATOM     16  C   UNL     1      -3.424   8.701   1.149  1.00  0.00    -0.000 C 
ATOM     17  C   UNL     1      -4.743   8.200   0.585  1.00  0.00     0.004 C 
ENDBRANCH  11  16
BRANCH  10  18
ATOM     18  C   UNL     1       2.028   6.296   1.312  1.00  0.00     0.008 C 
ATOM     19  C   UNL     1       2.579   5.614   0.039  1.00  0.00     0.005 C 
ATOM     20  C   UNL     1       3.146   6.878   2.203  1.00  0.00     0.024 C 
ATOM     21  C   UNL     1       4.085   5.287  -0.070  1.00  0.00     0.002 C 
ATOM     22  C   UNL     1       4.509   7.183   1.552  1.00  0.00     0.108 C 
ATOM     23  C   UNL     1       5.048   5.915   0.933  1.00  0.00     0.020 C 
BRANCH  22  24
ATOM     24  S   UNL     1       4.491   8.553   0.383  1.00  0.00     0.150 S 
ATOM     25  C   UNL     1       5.969   9.484   0.643  1.00  0.00     0.158 C 
ATOM     26  O   UNL     1       4.513   8.066  -0.981  1.00  0.00    -0.229 OA
ATOM     27  O   UNL     1       3.450   9.434   0.818  1.00  0.00    -0.229 OA
ENDBRANCH  22  24
ENDBRANCH  10  18
ENDBRANCH   8  10
ENDBRANCH   7   8
ENDBRANCH   6   7
ENDBRANCH   5   6
ENDBRANCH   4   5
ENDBRANCH   3   4
ENDBRANCH   2   3
ENDBRANCH   1   2
BRANCH   1  28
ATOM     28  C   UNL     1       0.794  11.708   5.319  1.00  0.00     0.188 C 
BRANCH  28  29
ATOM     29  C   UNL     1       2.025  12.369   5.950  1.00  0.00     0.188 C 
BRANCH  29  30
ATOM     30  O   UNL     1       2.660  11.826   7.105  1.00  0.00    -0.376 OA
BRANCH  30  31
ATOM     31  C   UNL     1       2.205  10.642   7.733  1.00  0.00     0.202 C 
BRANCH  31  32
ATOM     32  C   UNL     1       0.960  10.688   8.635  1.00  0.00     0.261 C 
BRANCH  32  33
ATOM     33  O   UNL     1      -0.095  11.530   8.170  1.00  0.00    -0.460 OA
BRANCH  33  34
ATOM     34  C   UNL     1       0.045  12.847   8.447  1.00  0.00     0.338 C 
ATOM     35  O   UNL     1       0.862  13.363   9.186  1.00  0.00    -0.246 OA
BRANCH  34  36
ATOM     36  C   UNL     1      -0.833  13.598   7.518  1.00  0.00     0.060 A 
ATOM     37  C   UNL     1      -0.308  14.743   6.902  1.00  0.00     0.016 A 
ATOM     38  C   UNL     1      -2.124  13.158   7.206  1.00  0.00     0.016 A 
ATOM     39  C   UNL     1      -1.071  15.459   5.985  1.00  0.00     0.010 A 
ATOM     40  C   UNL     1      -2.915  13.909   6.335  1.00  0.00     0.010 A 
ATOM     41  C   UNL     1      -2.403  15.085   5.762  1.00  0.00    -0.014 A 
BRANCH  41  42
ATOM     42  C   UNL     1      -3.337  16.119   5.266  1.00  0.00     0.031 A 
ATOM     43  C   UNL     1      -3.855  17.095   6.287  1.00  0.00     0.074 A 
ATOM     44  C   UNL     1      -3.694  16.210   3.976  1.00  0.00     0.049 A 
ATOM     45  N   UNL     1      -4.668  18.108   6.141  1.00  0.00    -0.248 NA
ATOM     46  C   UNL     1      -3.379  16.904   7.670  1.00  0.00     0.031 C 
ATOM     47  C   UNL     1      -3.220  15.349   2.897  1.00  0.00     0.029 A 
ATOM     48  N   UNL     1      -4.552  17.086   3.360  1.00  0.00    -0.354 N 
ATOM     49  C   UNL     1      -4.778  18.679   7.402  1.00  0.00     0.074 A 
ATOM     50  C   UNL     1      -3.979  17.892   8.309  1.00  0.00     0.031 C 
ATOM     51  C   UNL     1      -3.807  15.731   1.747  1.00  0.00     0.029 A 
ATOM     52  C   UNL     1      -4.712  16.847   2.019  1.00  0.00     0.049 A 
ATOM     53  H   UNL     1      -5.010  17.816   3.836  1.00  0.00     0.167 HD
ATOM     54  C   UNL     1      -5.484  19.769   7.775  1.00  0.00     0.037 A 
ATOM     55  C   UNL     1      -5.517  17.459   1.127  1.00  0.00     0.037 A 
ATOM     56  C   UNL     1      -6.323  20.516   6.884  1.00  0.00     0.049 A 
ATOM     57  C   UNL     1      -6.385  18.604   1.590  1.00  0.00     0.074 A 
ATOM     58  C   UNL     1      -7.106  21.621   7.155  1.00  0.00     0.029 A 
ATOM     59  N   UNL     1      -6.502  20.209   5.542  1.00  0.00    -0.354 N 
ATOM     60  N   UNL     1      -6.464  19.160   2.776  1.00  0.00    -0.248 NA
ATOM     61  C   UNL     1      -7.278  19.205   0.588  1.00  0.00     0.031 C 
ATOM     62  C   UNL     1      -7.800  21.954   5.987  1.00  0.00     0.029 A 
ATOM     63  C   UNL     1      -7.408  21.088   4.976  1.00  0.00     0.049 A 
ATOM     64  H   UNL     1      -6.052  19.476   5.065  1.00  0.00     0.167 HD
ATOM     65  C   UNL     1      -7.391  20.189   2.658  1.00  0.00     0.074 A 
ATOM     66  C   UNL     1      -7.841  20.186   1.281  1.00  0.00     0.031 C 
ATOM     67  C   UNL     1      -7.831  21.060   3.600  1.00  0.00     0.037 A 
BRANCH  54  68
ATOM     68  C   UNL     1      -5.405  20.165   9.218  1.00  0.00     0.064 A 
ATOM     69  C   UNL     1      -4.240  20.727   9.762  1.00  0.00     0.173 A 
ATOM     70  C   UNL     1      -6.492  19.942  10.075  1.00  0.00     0.173 A 
ATOM     71  F   UNL     1      -3.162  20.928   8.988  1.00  0.00    -0.203 F 
ATOM     72  C   UNL     1      -4.157  21.025  11.119  1.00  0.00     0.198 A 
ATOM     73  C   UNL     1      -6.414  20.266  11.426  1.00  0.00     0.198 A 
ATOM     74  F   UNL     1      -7.622  19.393   9.605  1.00  0.00    -0.203 F 
ATOM     75  F   UNL     1      -3.014  21.505  11.630  1.00  0.00    -0.200 F 
ATOM     76  C   UNL     1      -5.245  20.799  11.949  1.00  0.00     0.200 A 
ATOM     77  F   UNL     1      -7.465  20.046  12.227  1.00  0.00    -0.200 F 
ATOM     78  F   UNL     1      -5.161  21.079  13.257  1.00  0.00    -0.200 F 
ENDBRANCH  54  68
BRANCH  55  79
ATOM     79  C   UNL     1      -5.552  17.000  -0.286  1.00  0.00     0.064 A 
ATOM     80  C   UNL     1      -5.052  17.802  -1.321  1.00  0.00     0.173 A 
ATOM     81  C   UNL     1      -6.108  15.759  -0.633  1.00  0.00     0.173 A 
ATOM     82  F   UNL     1      -4.539  19.009  -1.043  1.00  0.00    -0.203 F 
ATOM     83  C   UNL     1      -5.117  17.386  -2.650  1.00  0.00     0.198 A 
ATOM     84  C   UNL     1      -6.151  15.335  -1.960  1.00  0.00     0.198 A 
ATOM     85  F   UNL     1      -6.610  14.958   0.318  1.00  0.00    -0.203 F 
ATOM     86  F   UNL     1      -4.671  18.191  -3.624  1.00  0.00    -0.200 F 
ATOM     87  C   UNL     1      -5.661  16.151  -2.968  1.00  0.00     0.200 A 
ATOM     88  F   UNL     1      -6.674  14.139  -2.262  1.00  0.00    -0.200 F 
ATOM     89  F   UNL     1      -5.724  15.753  -4.246  1.00  0.00    -0.200 F 
ENDBRANCH  55  79
BRANCH  67  90
ATOM     90  C   UNL     1      -8.825  22.098   3.169  1.00  0.00     0.064 A 
ATOM     91  C   UNL     1     -10.162  21.771   2.908  1.00  0.00     0.173 A 
ATOM     92  C   UNL     1      -8.445  23.447   3.084  1.00  0.00     0.173 A 
ATOM     93  F   UNL     1     -10.569  20.494   2.967  1.00  0.00    -0.203 F 
ATOM     94  C   UNL     1     -11.081  22.756   2.555  1.00  0.00     0.198 A 
ATOM     95  C   UNL     1      -9.373  24.431   2.759  1.00  0.00     0.198 A 
ATOM     96  F   UNL     1      -7.179  23.811   3.337  1.00  0.00    -0.203 F 
ATOM     97  F   UNL     1     -12.347  22.417   2.271  1.00  0.00    -0.200 F 
ATOM     98  C   UNL     1     -10.688  24.085   2.490  1.00  0.00     0.200 A 
ATOM     99  F   UNL     1      -8.996  25.716   2.713  1.00  0.00    -0.200 F 
ATOM    100  F   UNL     1     -11.578  25.032   2.162  1.00  0.00    -0.200 F 
ENDBRANCH  67  90
ENDBRANCH  41  42
ENDBRANCH  34  36
ENDBRANCH  33  34
ENDBRANCH  32  33
ENDBRANCH  31  32
ENDBRANCH  30  31
ENDBRANCH  29  30
ENDBRANCH  28  29
ENDBRANCH   1  28
TORSDOF 23
