REMARK SMILES C[C@@H](C(=O)OCCOCCOCCOCCOC(=O)c1ccc(-c2c3nc(c(-c4c(F)c(F)c(F)c(F)c4F)c4ccc([nH]4)c(-c4c(F)c(F)c(F)c(F)c4F)c4nc(c(-c5c(F)c(F)c(F)c(F)c5F)c5ccc2[nH]5)C=C4)C=C3)cc1)N1C(=O)CSc2cccn2-c2ccccc21
REMARK SMILES IDX 9 1 8 2 7 3 6 4 5 5 3 6 4 7 2 8 1 9 83 10 84 11 85 12 98 14
REMARK SMILES IDX 93 15 97 16 94 17 96 18 95 19 92 20 88 21 91 22 89 23 90 24
REMARK SMILES IDX 87 25 86 26 10 28 11 29 12 30 13 31 14 32 15 33 16 34 17 35
REMARK SMILES IDX 18 36 19 37 20 38 21 39 82 40 22 41 81 42 23 43 24 44 25 45
REMARK SMILES IDX 75 46 26 47 80 48 74 49 76 50 27 51 79 52 73 53 72 54 28 56
REMARK SMILES IDX 60 57 40 58 59 59 41 60 44 61 58 62 77 63 42 64 43 65 57 67
REMARK SMILES IDX 78 68 45 69 29 70 30 71 38 72 31 73 32 74 36 75 39 76 33 77
REMARK SMILES IDX 34 78 37 79 35 80 61 81 62 82 70 83 63 84 64 85 68 86 71 87
REMARK SMILES IDX 65 88 66 89 69 90 67 91 46 92 47 93 55 94 48 95 49 96 53 97
REMARK SMILES IDX 56 98 50 99 51 100 54 101 52 102
REMARK H PARENT 76 55 44 66
REMARK Flexibility Score: 80.00
ROOT
ATOM      1  C   UNL     1       0.926  -3.757   0.875  1.00  0.00     0.188 C 
ENDROOT
BRANCH   1   2
ATOM      2  O   UNL     1       1.970  -4.480   0.231  1.00  0.00    -0.376 OA
BRANCH   2   3
ATOM      3  C   UNL     1       1.922  -4.473  -1.189  1.00  0.00     0.202 C 
BRANCH   3   4
ATOM      4  C   UNL     1       2.206  -3.118  -1.865  1.00  0.00     0.261 C 
BRANCH   4   5
ATOM      5  O   UNL     1       1.475  -1.969  -1.372  1.00  0.00    -0.462 OA
BRANCH   5   6
ATOM      6  C   UNL     1       0.132  -1.901  -1.585  1.00  0.00     0.329 C 
ATOM      7  O   UNL     1      -0.462  -2.753  -2.232  1.00  0.00    -0.250 OA
BRANCH   6   8
ATOM      8  C   UNL     1      -0.529  -0.644  -0.908  1.00  0.00     0.197 C 
ATOM      9  C   UNL     1       0.415   0.297  -0.144  1.00  0.00     0.044 C 
BRANCH   8  10
ATOM     10  N   UNL     1      -1.831  -0.893  -0.225  1.00  0.00    -0.296 N 
BRANCH  10  11
ATOM     11  C   UNL     1      -2.950  -1.064  -1.038  1.00  0.00     0.238 CG0
ATOM     12  O   UNL     1      -2.875  -1.263  -2.251  1.00  0.00    -0.274 OA
ATOM     13  G   UNL     1      -4.286  -0.840  -0.365  1.00  0.00     0.000 G0
ENDBRANCH  10  11
BRANCH  10  14
ATOM     14  C   UNL     1      -1.994  -1.050   1.185  1.00  0.00     0.069 A 
ATOM     15  C   UNL     1      -2.379  -0.022   2.067  1.00  0.00     0.070 A 
ATOM     16  C   UNL     1      -2.049  -2.369   1.679  1.00  0.00     0.028 A 
ATOM     17  C   UNL     1      -2.608  -0.310   3.437  1.00  0.00     0.029 A 
ATOM     18  C   UNL     1      -2.357  -2.650   3.017  1.00  0.00     0.002 A 
ATOM     19  C   UNL     1      -2.600  -1.617   3.907  1.00  0.00     0.002 A 
BRANCH  15  20
ATOM     20  N   UNL     1      -2.702   1.306   1.667  1.00  0.00    -0.310 N 
ATOM     21  C   UNL     1      -3.534   1.779   0.653  1.00  0.00     0.080 A 
ATOM     22  C   UNL     1      -2.358   2.408   2.452  1.00  0.00     0.092 A 
ATOM     23  C   UNL     1      -3.588   3.161   0.759  1.00  0.00     0.035 A 
ATOM     24  C   UNL     1      -2.895   3.551   1.917  1.00  0.00     0.021 A 
BRANCH  21  25
ATOM     25  S   UNL     1      -4.620   0.925  -0.423  1.00  0.00    -0.098 SA
BRANCH  25  26
ATOM     26  C   UNL     1      -4.286  -0.840  -0.365  1.00  0.00     0.177 CG0
ATOM     27  G   UNL     1      -2.950  -1.064  -1.038  1.00  0.00     0.000 G0
ENDBRANCH  25  26
ENDBRANCH  21  25
ENDBRANCH  15  20
ENDBRANCH  10  14
ENDBRANCH   8  10
ENDBRANCH   6   8
ENDBRANCH   5   6
ENDBRANCH   4   5
ENDBRANCH   3   4
ENDBRANCH   2   3
ENDBRANCH   1   2
BRANCH   1  28
ATOM     28  C   UNL     1       1.458  -2.455   1.502  1.00  0.00     0.188 C 
BRANCH  28  29
ATOM     29  O   UNL     1       2.416  -2.484   2.546  1.00  0.00    -0.377 OA
BRANCH  29  30
ATOM     30  C   UNL     1       3.299  -3.586   2.550  1.00  0.00     0.188 C 
BRANCH  30  31
ATOM     31  C   UNL     1       2.705  -4.779   3.312  1.00  0.00     0.188 C 
BRANCH  31  32
ATOM     32  O   UNL     1       1.316  -4.670   3.575  1.00  0.00    -0.376 OA
BRANCH  32  33
ATOM     33  C   UNL     1       0.811  -3.928   4.675  1.00  0.00     0.202 C 
BRANCH  33  34
ATOM     34  C   UNL     1       1.378  -2.592   5.197  1.00  0.00     0.261 C 
BRANCH  34  35
ATOM     35  O   UNL     1       2.795  -2.435   5.245  1.00  0.00    -0.460 OA
BRANCH  35  36
ATOM     36  C   UNL     1       3.499  -3.239   6.058  1.00  0.00     0.338 C 
ATOM     37  O   UNL     1       3.070  -4.059   6.848  1.00  0.00    -0.246 OA
BRANCH  36  38
ATOM     38  C   UNL     1       4.904  -3.117   5.615  1.00  0.00     0.060 A 
ATOM     39  C   UNL     1       5.579  -4.290   5.254  1.00  0.00     0.016 A 
ATOM     40  C   UNL     1       5.501  -1.863   5.430  1.00  0.00     0.016 A 
ATOM     41  C   UNL     1       6.852  -4.215   4.706  1.00  0.00     0.010 A 
ATOM     42  C   UNL     1       6.802  -1.790   4.933  1.00  0.00     0.010 A 
ATOM     43  C   UNL     1       7.486  -2.970   4.601  1.00  0.00    -0.014 A 
BRANCH  43  44
ATOM     44  C   UNL     1       8.953  -2.963   4.449  1.00  0.00     0.031 A 
ATOM     45  C   UNL     1       9.760  -3.077   5.710  1.00  0.00     0.074 A 
ATOM     46  C   UNL     1       9.536  -2.935   3.241  1.00  0.00     0.049 A 
ATOM     47  N   UNL     1      11.054  -3.142   5.870  1.00  0.00    -0.248 NA
ATOM     48  C   UNL     1       8.993  -3.142   6.968  1.00  0.00     0.031 C 
ATOM     49  C   UNL     1       8.834  -2.885   1.961  1.00  0.00     0.029 A 
ATOM     50  N   UNL     1      10.863  -2.953   2.900  1.00  0.00    -0.354 N 
ATOM     51  C   UNL     1      11.252  -3.265   7.239  1.00  0.00     0.074 A 
ATOM     52  C   UNL     1       9.954  -3.239   7.871  1.00  0.00     0.031 C 
ATOM     53  C   UNL     1       9.741  -2.866   0.969  1.00  0.00     0.029 A 
ATOM     54  C   UNL     1      11.084  -2.878   1.548  1.00  0.00     0.049 A 
ATOM     55  H   UNL     1      11.589  -3.014   3.562  1.00  0.00     0.167 HD
ATOM     56  C   UNL     1      12.419  -3.393   7.907  1.00  0.00     0.037 A 
ATOM     57  C   UNL     1      12.246  -2.808   0.871  1.00  0.00     0.037 A 
ATOM     58  C   UNL     1      13.703  -3.388   7.265  1.00  0.00     0.049 A 
ATOM     59  C   UNL     1      13.538  -2.856   1.649  1.00  0.00     0.074 A 
ATOM     60  C   UNL     1      14.956  -3.494   7.837  1.00  0.00     0.029 A 
ATOM     61  N   UNL     1      13.892  -3.250   5.897  1.00  0.00    -0.354 N 
ATOM     62  N   UNL     1      13.725  -2.991   2.941  1.00  0.00    -0.248 NA
ATOM     63  C   UNL     1      14.782  -2.744   0.874  1.00  0.00     0.031 C 
ATOM     64  C   UNL     1      15.906  -3.364   6.819  1.00  0.00     0.029 A 
ATOM     65  C   UNL     1      15.245  -3.240   5.607  1.00  0.00     0.049 A 
ATOM     66  H   UNL     1      13.171  -3.172   5.231  1.00  0.00     0.167 HD
ATOM     67  C   UNL     1      15.100  -3.009   3.132  1.00  0.00     0.074 A 
ATOM     68  C   UNL     1      15.701  -2.884   1.819  1.00  0.00     0.031 C 
ATOM     69  C   UNL     1      15.807  -3.120   4.285  1.00  0.00     0.037 A 
BRANCH  56  70
ATOM     70  C   UNL     1      12.347  -3.495   9.402  1.00  0.00     0.064 A 
ATOM     71  C   UNL     1      11.839  -4.636  10.043  1.00  0.00     0.173 A 
ATOM     72  C   UNL     1      12.779  -2.429  10.204  1.00  0.00     0.173 A 
ATOM     73  F   UNL     1      11.384  -5.671   9.320  1.00  0.00    -0.203 F 
ATOM     74  C   UNL     1      11.744  -4.694  11.431  1.00  0.00     0.198 A 
ATOM     75  C   UNL     1      12.710  -2.503  11.592  1.00  0.00     0.198 A 
ATOM     76  F   UNL     1      13.262  -1.312   9.640  1.00  0.00    -0.203 F 
ATOM     77  F   UNL     1      11.204  -5.771  12.020  1.00  0.00    -0.200 F 
ATOM     78  C   UNL     1      12.186  -3.631  12.204  1.00  0.00     0.200 A 
ATOM     79  F   UNL     1      13.143  -1.476  12.337  1.00  0.00    -0.200 F 
ATOM     80  F   UNL     1      12.096  -3.689  13.540  1.00  0.00    -0.200 F 
ENDBRANCH  56  70
BRANCH  57  81
ATOM     81  C   UNL     1      12.243  -2.672  -0.609  1.00  0.00     0.064 A 
ATOM     82  C   UNL     1      12.729  -3.693  -1.437  1.00  0.00     0.173 A 
ATOM     83  C   UNL     1      11.767  -1.506  -1.228  1.00  0.00     0.173 A 
ATOM     84  F   UNL     1      13.219  -4.818  -0.895  1.00  0.00    -0.203 F 
ATOM     85  C   UNL     1      12.755  -3.547  -2.824  1.00  0.00     0.198 A 
ATOM     86  C   UNL     1      11.766  -1.372  -2.615  1.00  0.00     0.198 A 
ATOM     87  F   UNL     1      11.294  -0.495  -0.484  1.00  0.00    -0.203 F 
ATOM     88  F   UNL     1      13.267  -4.521  -3.588  1.00  0.00    -0.200 F 
ATOM     89  C   UNL     1      12.267  -2.390  -3.412  1.00  0.00     0.200 A 
ATOM     90  F   UNL     1      11.283  -0.257  -3.179  1.00  0.00    -0.200 F 
ATOM     91  F   UNL     1      12.289  -2.252  -4.745  1.00  0.00    -0.200 F 
ENDBRANCH  57  81
BRANCH  69  92
ATOM     92  C   UNL     1      17.303  -3.147   4.173  1.00  0.00     0.064 A 
ATOM     93  C   UNL     1      18.039  -1.999   3.848  1.00  0.00     0.173 A 
ATOM     94  C   UNL     1      18.010  -4.327   4.452  1.00  0.00     0.173 A 
ATOM     95  F   UNL     1      17.408  -0.851   3.562  1.00  0.00    -0.203 F 
ATOM     96  C   UNL     1      19.429  -2.039   3.779  1.00  0.00     0.198 A 
ATOM     97  C   UNL     1      19.401  -4.354   4.415  1.00  0.00     0.198 A 
ATOM     98  F   UNL     1      17.352  -5.449   4.780  1.00  0.00    -0.203 F 
ATOM     99  F   UNL     1      20.111  -0.943   3.418  1.00  0.00    -0.200 F 
ATOM    100  C   UNL     1      20.108  -3.212   4.071  1.00  0.00     0.200 A 
ATOM    101  F   UNL     1      20.055  -5.484   4.715  1.00  0.00    -0.200 F 
ATOM    102  F   UNL     1      21.447  -3.245   4.014  1.00  0.00    -0.200 F 
ENDBRANCH  69  92
ENDBRANCH  43  44
ENDBRANCH  36  38
ENDBRANCH  35  36
ENDBRANCH  34  35
ENDBRANCH  33  34
ENDBRANCH  32  33
ENDBRANCH  31  32
ENDBRANCH  30  31
ENDBRANCH  29  30
ENDBRANCH  28  29
ENDBRANCH   1  28
TORSDOF 21
