REMARK SMILES CC(=O)Nc1cnc(N2CC=C(c3ccccc3C)CC2)c(C(=O)OCCOCCOCCOCCOC(=O)c2ccc(-c3c4nc(c(-c5c(F)c(F)c(F)c(F)c5F)c5ccc([nH]5)c(-c5c(F)c(F)c(F)c(F)c5F)c5nc(c(-c6c(F)c(F)c(F)c(F)c6F)c6ccc3[nH]6)C=C5)C=C4)cc2)c1
REMARK SMILES IDX 31 1 30 2 29 3 28 4 27 5 26 6 25 7 23 8 24 9 22 10 5 11 6 12
REMARK SMILES IDX 103 13 7 14 8 15 4 16 1 17 2 18 3 19 9 21 10 22 21 23 11 24
REMARK SMILES IDX 20 25 12 26 13 27 14 28 18 29 15 30 17 31 19 32 16 33 32 34
REMARK SMILES IDX 33 35 34 36 35 37 36 38 37 39 38 40 39 41 40 42 41 43 102 44
REMARK SMILES IDX 42 45 101 46 43 47 44 48 45 49 95 50 46 51 100 52 94 53
REMARK SMILES IDX 96 54 47 55 99 56 93 57 92 58 48 60 80 61 60 62 79 63 61 64
REMARK SMILES IDX 64 65 78 66 97 67 62 68 63 69 77 71 98 72 65 73 49 74 50 75
REMARK SMILES IDX 58 76 51 77 52 78 56 79 59 80 53 81 54 82 57 83 55 84 81 85
REMARK SMILES IDX 82 86 90 87 83 88 84 89 88 90 91 91 85 92 86 93 89 94 87 95
REMARK SMILES IDX 66 96 67 97 75 98 68 99 69 100 73 101 76 102 70 103 71 104
REMARK SMILES IDX 74 105 72 106
REMARK H PARENT 4 20 96 59 64 70
REMARK Flexibility Score: inf
ROOT
ATOM      1  O   UNL     1       5.414   0.153  -2.684  1.00  0.00    -0.377 OA
ENDROOT
BRANCH   1   2
ATOM      2  C   UNL     1       5.178   0.889  -3.856  1.00  0.00     0.188 C 
BRANCH   2   3
ATOM      3  C   UNL     1       5.365   2.406  -3.862  1.00  0.00     0.188 C 
BRANCH   3   4
ATOM      4  O   UNL     1       6.425   3.203  -3.360  1.00  0.00    -0.376 OA
BRANCH   4   5
ATOM      5  C   UNL     1       6.430   3.551  -1.985  1.00  0.00     0.202 C 
BRANCH   5   6
ATOM      6  C   UNL     1       5.257   4.307  -1.338  1.00  0.00     0.261 C 
BRANCH   6   7
ATOM      7  O   UNL     1       4.028   3.622  -1.558  1.00  0.00    -0.460 OA
BRANCH   7   8
ATOM      8  C   UNL     1       2.953   4.406  -1.694  1.00  0.00     0.342 C 
ATOM      9  O   UNL     1       2.842   5.588  -1.386  1.00  0.00    -0.246 OA
BRANCH   8  10
ATOM     10  C   UNL     1       2.063   3.666  -2.571  1.00  0.00     0.104 A 
ATOM     11  C   UNL     1       0.917   1.598  -3.012  1.00  0.00     0.060 A 
ATOM     12  C   UNL     1       0.807   2.070  -4.320  1.00  0.00     0.139 A 
ATOM     13  C   UNL     1       1.590   2.418  -2.130  1.00  0.00     0.047 A 
ATOM     14  N   UNL     1       1.289   3.262  -4.775  1.00  0.00    -0.236 NA
ATOM     15  C   UNL     1       1.923   4.078  -3.906  1.00  0.00     0.143 A 
BRANCH  11  16
ATOM     16  N   UNL     1       0.426   0.318  -2.697  1.00  0.00    -0.325 N 
ATOM     17  C   UNL     1       0.005   0.536  -0.242  1.00  0.00     0.114 C 
ATOM     18  C   UNL     1       0.108  -0.273  -1.506  1.00  0.00     0.221 C 
ATOM     19  O   UNL     1      -0.171  -1.475  -1.501  1.00  0.00    -0.275 OA
ATOM     20  H   UNL     1       0.286  -0.261  -3.481  1.00  0.00     0.169 HD
ENDBRANCH  11  16
BRANCH  15  21
ATOM     21  N   UNL     1       2.586   5.187  -4.450  1.00  0.00    -0.352 N 
ATOM     22  C   UNL     1       2.092   6.499  -4.060  1.00  0.00     0.146 C 
ATOM     23  C   UNL     1       4.021   4.985  -4.601  1.00  0.00     0.123 C 
ATOM     24  C   UNL     1       3.063   7.589  -4.405  1.00  0.00    -0.002 C 
ATOM     25  C   UNL     1       4.812   6.067  -5.286  1.00  0.00     0.057 C 
ATOM     26  C   UNL     1       4.259   7.416  -4.996  1.00  0.00    -0.041 C 
BRANCH  26  27
ATOM     27  C   UNL     1       4.953   8.585  -5.545  1.00  0.00    -0.020 A 
ATOM     28  C   UNL     1       5.392   9.593  -4.672  1.00  0.00     0.008 A 
ATOM     29  C   UNL     1       5.045   8.771  -6.942  1.00  0.00    -0.044 A 
ATOM     30  C   UNL     1       5.857  10.805  -5.176  1.00  0.00     0.001 A 
ATOM     31  C   UNL     1       5.524   9.993  -7.428  1.00  0.00     0.004 A 
ATOM     32  C   UNL     1       4.659   7.710  -7.939  1.00  0.00     0.045 C 
ATOM     33  C   UNL     1       5.901  11.010  -6.553  1.00  0.00     0.000 A 
ENDBRANCH  26  27
ENDBRANCH  15  21
ENDBRANCH   8  10
ENDBRANCH   7   8
ENDBRANCH   6   7
ENDBRANCH   5   6
ENDBRANCH   4   5
ENDBRANCH   3   4
ENDBRANCH   2   3
ENDBRANCH   1   2
BRANCH   1  34
ATOM     34  C   UNL     1       6.764  -0.191  -2.441  1.00  0.00     0.188 C 
BRANCH  34  35
ATOM     35  C   UNL     1       7.737  -0.325  -3.597  1.00  0.00     0.188 C 
BRANCH  35  36
ATOM     36  O   UNL     1       8.017   0.957  -4.147  1.00  0.00    -0.376 OA
BRANCH  36  37
ATOM     37  C   UNL     1       8.618   0.938  -5.439  1.00  0.00     0.202 C 
BRANCH  37  38
ATOM     38  C   UNL     1       9.889   0.077  -5.511  1.00  0.00     0.261 C 
BRANCH  38  39
ATOM     39  O   UNL     1      10.846   0.560  -4.543  1.00  0.00    -0.460 OA
BRANCH  39  40
ATOM     40  C   UNL     1      11.106  -0.257  -3.481  1.00  0.00     0.338 C 
ATOM     41  O   UNL     1      11.245  -1.467  -3.539  1.00  0.00    -0.246 OA
BRANCH  40  42
ATOM     42  C   UNL     1      10.833   0.481  -2.204  1.00  0.00     0.060 A 
ATOM     43  C   UNL     1      10.660  -0.221  -0.994  1.00  0.00     0.016 A 
ATOM     44  C   UNL     1      10.370   1.783  -2.293  1.00  0.00     0.016 A 
ATOM     45  C   UNL     1       9.858   0.308   0.044  1.00  0.00     0.010 A 
ATOM     46  C   UNL     1       9.518   2.247  -1.309  1.00  0.00     0.010 A 
ATOM     47  C   UNL     1       9.193   1.516  -0.146  1.00  0.00    -0.014 A 
BRANCH  47  48
ATOM     48  C   UNL     1       8.035   2.045   0.654  1.00  0.00     0.031 A 
ATOM     49  C   UNL     1       8.004   3.543   0.923  1.00  0.00     0.074 A 
ATOM     50  C   UNL     1       6.901   1.281   0.709  1.00  0.00     0.049 A 
ATOM     51  N   UNL     1       7.006   4.234   1.365  1.00  0.00    -0.248 NA
ATOM     52  C   UNL     1       9.165   4.410   0.683  1.00  0.00     0.031 C 
ATOM     53  C   UNL     1       5.521   1.700   0.453  1.00  0.00     0.029 A 
ATOM     54  N   UNL     1       6.730  -0.101   0.761  1.00  0.00    -0.354 N 
ATOM     55  C   UNL     1       7.269   5.600   1.188  1.00  0.00     0.074 A 
ATOM     56  C   UNL     1       8.656   5.640   0.811  1.00  0.00     0.031 C 
ATOM     57  C   UNL     1       4.641   0.702   0.503  1.00  0.00     0.029 A 
ATOM     58  C   UNL     1       5.368  -0.408   0.996  1.00  0.00     0.049 A 
ATOM     59  H   UNL     1       7.449  -0.764   0.651  1.00  0.00     0.167 HD
ATOM     60  C   UNL     1       6.246   6.518   1.273  1.00  0.00     0.037 A 
ATOM     61  C   UNL     1       4.977  -1.063   2.116  1.00  0.00     0.037 A 
ATOM     62  C   UNL     1       5.017   5.863   1.771  1.00  0.00     0.049 A 
ATOM     63  C   UNL     1       4.390  -0.057   3.112  1.00  0.00     0.074 A 
ATOM     64  C   UNL     1       3.703   5.820   1.351  1.00  0.00     0.029 A 
ATOM     65  N   UNL     1       5.089   4.935   2.817  1.00  0.00    -0.354 N 
ATOM     66  N   UNL     1       4.687   1.232   3.100  1.00  0.00    -0.248 NA
ATOM     67  C   UNL     1       3.264  -0.340   4.005  1.00  0.00     0.031 C 
ATOM     68  C   UNL     1       3.078   4.691   1.951  1.00  0.00     0.029 A 
ATOM     69  C   UNL     1       3.951   4.159   2.888  1.00  0.00     0.049 A 
ATOM     70  H   UNL     1       5.857   4.847   3.426  1.00  0.00     0.167 HD
ATOM     71  C   UNL     1       3.800   1.922   3.885  1.00  0.00     0.074 A 
ATOM     72  C   UNL     1       2.949   0.890   4.454  1.00  0.00     0.031 C 
ATOM     73  C   UNL     1       3.718   3.282   4.023  1.00  0.00     0.037 A 
BRANCH  60  74
ATOM     74  C   UNL     1       6.230   7.981   0.723  1.00  0.00     0.064 A 
ATOM     75  C   UNL     1       5.073   8.800   0.853  1.00  0.00     0.173 A 
ATOM     76  C   UNL     1       7.255   8.613  -0.020  1.00  0.00     0.173 A 
ATOM     77  F   UNL     1       4.035   8.425   1.611  1.00  0.00    -0.203 F 
ATOM     78  C   UNL     1       4.928  10.060   0.238  1.00  0.00     0.198 A 
ATOM     79  C   UNL     1       7.135   9.902  -0.581  1.00  0.00     0.198 A 
ATOM     80  F   UNL     1       8.424   8.021  -0.265  1.00  0.00    -0.203 F 
ATOM     81  F   UNL     1       3.773  10.732   0.352  1.00  0.00    -0.200 F 
ATOM     82  C   UNL     1       5.963  10.615  -0.476  1.00  0.00     0.200 A 
ATOM     83  F   UNL     1       8.174  10.440  -1.240  1.00  0.00    -0.200 F 
ATOM     84  F   UNL     1       5.840  11.822  -1.047  1.00  0.00    -0.200 F 
ENDBRANCH  60  74
BRANCH  61  85
ATOM     85  C   UNL     1       5.725  -2.369   2.112  1.00  0.00     0.064 A 
ATOM     86  C   UNL     1       5.369  -3.160   0.975  1.00  0.00     0.173 A 
ATOM     87  C   UNL     1       7.093  -2.357   2.449  1.00  0.00     0.173 A 
ATOM     88  F   UNL     1       4.082  -3.215   0.591  1.00  0.00    -0.203 F 
ATOM     89  C   UNL     1       6.333  -3.588   0.054  1.00  0.00     0.198 A 
ATOM     90  C   UNL     1       8.055  -2.823   1.533  1.00  0.00     0.198 A 
ATOM     91  F   UNL     1       7.513  -1.632   3.496  1.00  0.00    -0.203 F 
ATOM     92  F   UNL     1       5.957  -4.039  -1.153  1.00  0.00    -0.200 F 
ATOM     93  C   UNL     1       7.673  -3.367   0.312  1.00  0.00     0.200 A 
ATOM     94  F   UNL     1       9.355  -2.569   1.747  1.00  0.00    -0.200 F 
ATOM     95  F   UNL     1       8.583  -3.563  -0.656  1.00  0.00    -0.200 F 
ENDBRANCH  61  85
BRANCH  73  96
ATOM     96  C   UNL     1       3.340   3.941   5.332  1.00  0.00     0.064 A 
ATOM     97  C   UNL     1       3.542   3.293   6.561  1.00  0.00     0.173 A 
ATOM     98  C   UNL     1       3.011   5.319   5.413  1.00  0.00     0.173 A 
ATOM     99  F   UNL     1       3.978   2.027   6.619  1.00  0.00    -0.203 F 
ATOM    100  C   UNL     1       3.367   3.949   7.777  1.00  0.00     0.198 A 
ATOM    101  C   UNL     1       2.898   5.985   6.631  1.00  0.00     0.198 A 
ATOM    102  F   UNL     1       2.834   6.078   4.324  1.00  0.00    -0.203 F 
ATOM    103  F   UNL     1       3.540   3.271   8.919  1.00  0.00    -0.200 F 
ATOM    104  C   UNL     1       3.059   5.295   7.813  1.00  0.00     0.200 A 
ATOM    105  F   UNL     1       2.664   7.305   6.648  1.00  0.00    -0.200 F 
ATOM    106  F   UNL     1       2.942   5.931   8.985  1.00  0.00    -0.200 F 
ENDBRANCH  73  96
ENDBRANCH  47  48
ENDBRANCH  40  42
ENDBRANCH  39  40
ENDBRANCH  38  39
ENDBRANCH  37  38
ENDBRANCH  36  37
ENDBRANCH  35  36
ENDBRANCH  34  35
ENDBRANCH   1  34
TORSDOF 23
