REMARK SMILES Cc1cccc(C(=O)OCCOCCOCCOCCOC(=O)c2ccc(-c3c4nc(c(-c5c(F)c(F)c(F)c(F)c5F)c5ccc([nH]5)c(-c5c(F)c(F)c(F)c(F)c5F)c5nc(c(-c6c(F)c(F)c(F)c(F)c6F)c6ccc3[nH]6)C=C5)C=C4)cc2)c1OC[C@@H]1C[C@H]2CC[C@@H]1C2
REMARK SMILES IDX 14 1 13 2 12 3 11 4 10 5 9 6 7 7 8 8 6 9 1 10 2 11 3 12
REMARK SMILES IDX 87 13 4 14 5 15 88 16 89 17 90 18 91 19 95 20 92 21 94 22
REMARK SMILES IDX 96 23 93 24 15 25 16 26 17 27 18 28 19 29 20 30 21 31 22 32
REMARK SMILES IDX 23 33 24 34 25 35 86 36 26 37 85 38 27 39 28 40 29 41 79 42
REMARK SMILES IDX 30 43 84 44 78 45 80 46 31 47 83 48 77 49 76 50 32 52 64 53
REMARK SMILES IDX 44 54 63 55 45 56 48 57 62 58 81 59 46 60 47 61 61 63 82 64
REMARK SMILES IDX 49 65 33 66 34 67 42 68 35 69 36 70 40 71 43 72 37 73 38 74
REMARK SMILES IDX 41 75 39 76 65 77 66 78 74 79 67 80 68 81 72 82 75 83 69 84
REMARK SMILES IDX 70 85 73 86 71 87 50 88 51 89 59 90 52 91 53 92 57 93 60 94
REMARK SMILES IDX 54 95 55 96 58 97 56 98
REMARK H PARENT 80 51 48 62
REMARK Flexibility Score: inf
ROOT
ATOM      1  C   UNL     1      -1.315   1.254  -2.711  1.00  0.00     0.188 C 
ENDROOT
BRANCH   1   2
ATOM      2  C   UNL     1      -2.700   0.733  -2.269  1.00  0.00     0.188 C 
BRANCH   2   3
ATOM      3  O   UNL     1      -3.783   1.645  -2.126  1.00  0.00    -0.376 OA
BRANCH   3   4
ATOM      4  C   UNL     1      -3.700   2.527  -1.005  1.00  0.00     0.202 C 
BRANCH   4   5
ATOM      5  C   UNL     1      -3.434   1.871   0.342  1.00  0.00     0.261 C 
BRANCH   5   6
ATOM      6  O   UNL     1      -2.042   1.542   0.407  1.00  0.00    -0.460 OA
BRANCH   6   7
ATOM      7  C   UNL     1      -1.713   0.645   1.357  1.00  0.00     0.342 C 
ATOM      8  O   UNL     1      -2.307   0.401   2.384  1.00  0.00    -0.246 OA
BRANCH   7   9
ATOM      9  C   UNL     1      -0.869  -0.363   0.697  1.00  0.00     0.102 A 
ATOM     10  C   UNL     1       2.207  -1.228  -1.425  1.00  0.00     0.048 C 
ATOM     11  C   UNL     1       0.970  -1.209  -0.578  1.00  0.00    -0.008 A 
ATOM     12  C   UNL     1       0.286  -2.460  -0.612  1.00  0.00     0.007 A 
ATOM     13  C   UNL     1       0.408  -0.130   0.128  1.00  0.00     0.136 A 
ATOM     14  C   UNL     1      -0.974  -2.645  -0.071  1.00  0.00     0.001 A 
ATOM     15  C   UNL     1      -1.560  -1.586   0.575  1.00  0.00     0.019 A 
BRANCH  13  16
ATOM     16  O   UNL     1       0.853   1.151   0.260  1.00  0.00    -0.492 OA
BRANCH  16  17
ATOM     17  C   UNL     1       2.202   1.637   0.199  1.00  0.00     0.233 C 
BRANCH  17  18
ATOM     18  C   UNL     1       2.990   1.255   1.448  1.00  0.00     0.030 C 
ATOM     19  C   UNL     1       4.040   2.268   1.959  1.00  0.00     0.011 C 
ATOM     20  C   UNL     1       3.854  -0.023   1.306  1.00  0.00    -0.004 C 
ATOM     21  C   UNL     1       5.188   1.346   2.425  1.00  0.00    -0.010 C 
ATOM     22  C   UNL     1       3.869  -0.677   2.686  1.00  0.00     0.004 C 
ATOM     23  C   UNL     1       5.303   0.463   1.193  1.00  0.00     0.007 C 
ATOM     24  C   UNL     1       4.696   0.336   3.494  1.00  0.00     0.004 C 
ENDBRANCH  17  18
ENDBRANCH  16  17
ENDBRANCH  13  16
ENDBRANCH   7   9
ENDBRANCH   6   7
ENDBRANCH   5   6
ENDBRANCH   4   5
ENDBRANCH   3   4
ENDBRANCH   2   3
ENDBRANCH   1   2
BRANCH   1  25
ATOM     25  O   UNL     1      -0.848   2.426  -2.065  1.00  0.00    -0.377 OA
BRANCH  25  26
ATOM     26  C   UNL     1      -0.639   3.591  -2.855  1.00  0.00     0.188 C 
BRANCH  26  27
ATOM     27  C   UNL     1      -1.208   3.693  -4.248  1.00  0.00     0.188 C 
BRANCH  27  28
ATOM     28  O   UNL     1      -2.594   3.395  -4.169  1.00  0.00    -0.376 OA
BRANCH  28  29
ATOM     29  C   UNL     1      -3.157   2.832  -5.344  1.00  0.00     0.202 C 
BRANCH  29  30
ATOM     30  C   UNL     1      -3.002   3.754  -6.557  1.00  0.00     0.261 C 
BRANCH  30  31
ATOM     31  O   UNL     1      -3.737   4.976  -6.320  1.00  0.00    -0.460 OA
BRANCH  31  32
ATOM     32  C   UNL     1      -2.992   6.043  -5.912  1.00  0.00     0.338 C 
ATOM     33  O   UNL     1      -1.991   6.452  -6.478  1.00  0.00    -0.246 OA
BRANCH  32  34
ATOM     34  C   UNL     1      -3.385   6.451  -4.524  1.00  0.00     0.060 A 
ATOM     35  C   UNL     1      -2.585   7.340  -3.786  1.00  0.00     0.016 A 
ATOM     36  C   UNL     1      -4.319   5.683  -3.851  1.00  0.00     0.016 A 
ATOM     37  C   UNL     1      -2.570   7.287  -2.374  1.00  0.00     0.010 A 
ATOM     38  C   UNL     1      -4.210   5.566  -2.476  1.00  0.00     0.010 A 
ATOM     39  C   UNL     1      -3.293   6.308  -1.706  1.00  0.00    -0.014 A 
BRANCH  39  40
ATOM     40  C   UNL     1      -3.143   5.891  -0.278  1.00  0.00     0.031 A 
ATOM     41  C   UNL     1      -4.425   5.632   0.489  1.00  0.00     0.074 A 
ATOM     42  C   UNL     1      -1.964   5.384   0.208  1.00  0.00     0.049 A 
ATOM     43  N   UNL     1      -4.503   4.992   1.603  1.00  0.00    -0.248 NA
ATOM     44  C   UNL     1      -5.766   5.997   0.015  1.00  0.00     0.031 C 
ATOM     45  C   UNL     1      -1.821   4.410   1.299  1.00  0.00     0.029 A 
ATOM     46  N   UNL     1      -0.613   5.536  -0.186  1.00  0.00    -0.354 N 
ATOM     47  C   UNL     1      -5.795   4.554   1.796  1.00  0.00     0.074 A 
ATOM     48  C   UNL     1      -6.561   5.263   0.807  1.00  0.00     0.031 C 
ATOM     49  C   UNL     1      -0.540   4.138   1.577  1.00  0.00     0.029 A 
ATOM     50  C   UNL     1       0.191   5.186   0.935  1.00  0.00     0.049 A 
ATOM     51  H   UNL     1      -0.290   5.827  -1.070  1.00  0.00     0.167 HD
ATOM     52  C   UNL     1      -6.009   3.555   2.705  1.00  0.00     0.037 A 
ATOM     53  C   UNL     1       0.921   6.110   1.621  1.00  0.00     0.037 A 
ATOM     54  C   UNL     1      -4.815   3.341   3.538  1.00  0.00     0.049 A 
ATOM     55  C   UNL     1       0.377   6.194   3.037  1.00  0.00     0.074 A 
ATOM     56  C   UNL     1      -4.036   2.248   3.862  1.00  0.00     0.029 A 
ATOM     57  N   UNL     1      -4.144   4.451   4.064  1.00  0.00    -0.354 N 
ATOM     58  N   UNL     1      -0.898   6.045   3.333  1.00  0.00    -0.248 NA
ATOM     59  C   UNL     1       1.237   6.123   4.216  1.00  0.00     0.031 C 
ATOM     60  C   UNL     1      -2.809   2.733   4.410  1.00  0.00     0.029 A 
ATOM     61  C   UNL     1      -2.889   4.115   4.528  1.00  0.00     0.049 A 
ATOM     62  H   UNL     1      -4.521   5.359   4.099  1.00  0.00     0.167 HD
ATOM     63  C   UNL     1      -1.004   5.673   4.649  1.00  0.00     0.074 A 
ATOM     64  C   UNL     1       0.349   5.807   5.175  1.00  0.00     0.031 C 
ATOM     65  C   UNL     1      -2.084   5.084   5.251  1.00  0.00     0.037 A 
BRANCH  52  66
ATOM     66  C   UNL     1      -7.229   2.637   2.784  1.00  0.00     0.064 A 
ATOM     67  C   UNL     1      -7.391   1.748   3.877  1.00  0.00     0.173 A 
ATOM     68  C   UNL     1      -8.205   2.489   1.774  1.00  0.00     0.173 A 
ATOM     69  F   UNL     1      -6.553   1.775   4.922  1.00  0.00    -0.203 F 
ATOM     70  C   UNL     1      -8.416   0.794   3.942  1.00  0.00     0.198 A 
ATOM     71  C   UNL     1      -9.266   1.573   1.869  1.00  0.00     0.198 A 
ATOM     72  F   UNL     1      -8.149   3.186   0.634  1.00  0.00    -0.203 F 
ATOM     73  F   UNL     1      -8.475  -0.055   4.979  1.00  0.00    -0.200 F 
ATOM     74  C   UNL     1      -9.364   0.715   2.945  1.00  0.00     0.200 A 
ATOM     75  F   UNL     1     -10.184   1.514   0.892  1.00  0.00    -0.200 F 
ATOM     76  F   UNL     1     -10.357  -0.183   3.014  1.00  0.00    -0.200 F 
ENDBRANCH  52  66
BRANCH  53  77
ATOM     77  C   UNL     1       1.491   7.105   0.661  1.00  0.00     0.064 A 
ATOM     78  C   UNL     1       2.394   6.528  -0.270  1.00  0.00     0.173 A 
ATOM     79  C   UNL     1       0.703   8.170   0.202  1.00  0.00     0.173 A 
ATOM     80  F   UNL     1       3.214   5.538   0.124  1.00  0.00    -0.203 F 
ATOM     81  C   UNL     1       2.270   6.770  -1.638  1.00  0.00     0.198 A 
ATOM     82  C   UNL     1       0.641   8.461  -1.168  1.00  0.00     0.198 A 
ATOM     83  F   UNL     1      -0.152   8.784   1.031  1.00  0.00    -0.203 F 
ATOM     84  F   UNL     1       2.941   6.010  -2.517  1.00  0.00    -0.200 F 
ATOM     85  C   UNL     1       1.350   7.698  -2.088  1.00  0.00     0.200 A 
ATOM     86  F   UNL     1      -0.210   9.396  -1.615  1.00  0.00    -0.200 F 
ATOM     87  F   UNL     1       1.096   7.810  -3.402  1.00  0.00    -0.200 F 
ENDBRANCH  53  77
BRANCH  65  88
ATOM     88  C   UNL     1      -2.479   5.379   6.680  1.00  0.00     0.064 A 
ATOM     89  C   UNL     1      -1.964   6.472   7.393  1.00  0.00     0.173 A 
ATOM     90  C   UNL     1      -3.570   4.708   7.294  1.00  0.00     0.173 A 
ATOM     91  F   UNL     1      -1.011   7.261   6.880  1.00  0.00    -0.203 F 
ATOM     92  C   UNL     1      -2.461   6.832   8.644  1.00  0.00     0.198 A 
ATOM     93  C   UNL     1      -4.102   5.111   8.513  1.00  0.00     0.198 A 
ATOM     94  F   UNL     1      -4.198   3.675   6.716  1.00  0.00    -0.203 F 
ATOM     95  F   UNL     1      -1.909   7.864   9.295  1.00  0.00    -0.200 F 
ATOM     96  C   UNL     1      -3.536   6.163   9.197  1.00  0.00     0.200 A 
ATOM     97  F   UNL     1      -5.186   4.493   9.002  1.00  0.00    -0.200 F 
ATOM     98  F   UNL     1      -4.039   6.549  10.375  1.00  0.00    -0.200 F 
ENDBRANCH  65  88
ENDBRANCH  39  40
ENDBRANCH  32  34
ENDBRANCH  31  32
ENDBRANCH  30  31
ENDBRANCH  29  30
ENDBRANCH  28  29
ENDBRANCH  27  28
ENDBRANCH  26  27
ENDBRANCH  25  26
ENDBRANCH   1  25
TORSDOF 23
