REMARK SMILES O=C(OCCOCCOCCOCCOC(=O)c1ccc(-n2cc(CSc3nc4ccccc4c(=O)n3-c3ccc(Cl)cc3)nn2)cc1)c1ccc(-c2c3nc(c(-c4c(F)c(F)c(F)c(F)c4F)c4ccc([nH]4)c(-c4c(F)c(F)c(F)c(F)c4F)c4nc(c(-c5c(F)c(F)c(F)c(F)c5F)c5ccc2[nH]5)C=C4)C=C3)cc1
REMARK SMILES IDX 10 1 9 2 8 3 7 4 6 5 5 6 4 7 3 8 2 9 1 10 49 11 50 12 111 13
REMARK SMILES IDX 51 14 110 15 52 16 53 17 54 18 104 19 55 20 109 21 103 22
REMARK SMILES IDX 105 23 56 24 108 25 102 26 101 27 57 29 89 30 69 31 88 32
REMARK SMILES IDX 70 33 73 34 87 35 106 36 71 37 72 38 86 40 107 41 74 42
REMARK SMILES IDX 58 43 59 44 67 45 60 46 61 47 65 48 68 49 62 50 63 51 66 52
REMARK SMILES IDX 64 53 90 54 91 55 99 56 92 57 93 58 97 59 100 60 94 61 95 62
REMARK SMILES IDX 98 63 96 64 75 65 76 66 84 67 77 68 78 69 82 70 85 71 79 72
REMARK SMILES IDX 80 73 83 74 81 75 11 76 12 77 13 78 14 79 15 80 16 81 17 82
REMARK SMILES IDX 18 83 19 84 48 85 20 86 47 87 21 88 22 89 23 90 46 91 24 92
REMARK SMILES IDX 45 93 25 94 26 95 27 96 28 97 37 98 29 99 35 100 30 101
REMARK SMILES IDX 34 102 36 103 31 104 33 105 32 106 38 107 39 108 44 109
REMARK SMILES IDX 40 110 43 111 41 112 42 113
REMARK H PARENT 105 28 73 39
REMARK Flexibility Score: inf
ROOT
ATOM      1  C   UNL     1       4.102  -3.013  -1.634  1.00  0.00     0.188 C 
ENDROOT
BRANCH   1   2
ATOM      2  O   UNL     1       2.773  -2.693  -1.972  1.00  0.00    -0.377 OA
BRANCH   2   3
ATOM      3  C   UNL     1       2.293  -1.516  -1.348  1.00  0.00     0.188 C 
BRANCH   3   4
ATOM      4  C   UNL     1       3.011  -0.192  -1.676  1.00  0.00     0.188 C 
BRANCH   4   5
ATOM      5  O   UNL     1       4.234   0.307  -1.139  1.00  0.00    -0.376 OA
BRANCH   5   6
ATOM      6  C   UNL     1       5.093  -0.253  -0.172  1.00  0.00     0.202 C 
BRANCH   6   7
ATOM      7  C   UNL     1       4.649  -0.420   1.281  1.00  0.00     0.261 C 
BRANCH   7   8
ATOM      8  O   UNL     1       3.290  -0.793   1.464  1.00  0.00    -0.460 OA
BRANCH   8   9
ATOM      9  C   UNL     1       2.195  -0.007   1.461  1.00  0.00     0.338 C 
ATOM     10  O   UNL     1       1.108  -0.532   1.704  1.00  0.00    -0.246 OA
BRANCH   9  11
ATOM     11  C   UNL     1       2.192   1.440   1.115  1.00  0.00     0.060 A 
ATOM     12  C   UNL     1       3.298   2.293   1.089  1.00  0.00     0.016 A 
ATOM     13  C   UNL     1       0.915   1.979   0.859  1.00  0.00     0.016 A 
ATOM     14  C   UNL     1       3.121   3.660   1.029  1.00  0.00     0.010 A 
ATOM     15  C   UNL     1       0.730   3.344   0.773  1.00  0.00     0.010 A 
ATOM     16  C   UNL     1       1.830   4.166   0.967  1.00  0.00    -0.014 A 
BRANCH  16  17
ATOM     17  C   UNL     1       1.676   5.585   1.195  1.00  0.00     0.031 A 
ATOM     18  C   UNL     1       2.186   6.460   0.116  1.00  0.00     0.074 A 
ATOM     19  C   UNL     1       1.084   6.016   2.325  1.00  0.00     0.049 A 
ATOM     20  N   UNL     1       3.122   7.349   0.186  1.00  0.00    -0.248 NA
ATOM     21  C   UNL     1       1.667   6.236  -1.241  1.00  0.00     0.031 C 
ATOM     22  C   UNL     1       0.354   5.225   3.321  1.00  0.00     0.029 A 
ATOM     23  N   UNL     1       0.923   7.288   2.770  1.00  0.00    -0.354 N 
ATOM     24  C   UNL     1       3.190   7.927  -1.078  1.00  0.00     0.074 A 
ATOM     25  C   UNL     1       2.382   7.111  -1.947  1.00  0.00     0.031 C 
ATOM     26  C   UNL     1      -0.374   6.055   4.099  1.00  0.00     0.029 A 
ATOM     27  C   UNL     1      -0.055   7.425   3.742  1.00  0.00     0.049 A 
ATOM     28  H   UNL     1       1.454   8.045   2.433  1.00  0.00     0.167 HD
ATOM     29  C   UNL     1       3.717   9.168  -1.259  1.00  0.00     0.037 A 
ATOM     30  C   UNL     1      -0.623   8.590   4.136  1.00  0.00     0.037 A 
ATOM     31  C   UNL     1       4.575   9.542  -0.167  1.00  0.00     0.049 A 
ATOM     32  C   UNL     1       0.283   9.691   3.719  1.00  0.00     0.074 A 
ATOM     33  C   UNL     1       5.748   9.037   0.358  1.00  0.00     0.029 A 
ATOM     34  N   UNL     1       4.078  10.396   0.786  1.00  0.00    -0.354 N 
ATOM     35  N   UNL     1       1.459   9.902   4.244  1.00  0.00    -0.248 NA
ATOM     36  C   UNL     1       0.079  10.273   2.399  1.00  0.00     0.031 C 
ATOM     37  C   UNL     1       5.639   9.233   1.766  1.00  0.00     0.029 A 
ATOM     38  C   UNL     1       4.433   9.890   2.010  1.00  0.00     0.049 A 
ATOM     39  H   UNL     1       3.564  11.219   0.622  1.00  0.00     0.167 HD
ATOM     40  C   UNL     1       2.267  10.259   3.174  1.00  0.00     0.074 A 
ATOM     41  C   UNL     1       1.345  10.556   2.081  1.00  0.00     0.031 C 
ATOM     42  C   UNL     1       3.607  10.001   3.188  1.00  0.00     0.037 A 
BRANCH  29  43
ATOM     43  C   UNL     1       3.160  10.178  -2.230  1.00  0.00     0.064 A 
ATOM     44  C   UNL     1       3.856  11.384  -2.442  1.00  0.00     0.173 A 
ATOM     45  C   UNL     1       1.831  10.149  -2.708  1.00  0.00     0.173 A 
ATOM     46  F   UNL     1       5.119  11.529  -2.011  1.00  0.00    -0.203 F 
ATOM     47  C   UNL     1       3.239  12.501  -3.010  1.00  0.00     0.198 A 
ATOM     48  C   UNL     1       1.237  11.248  -3.324  1.00  0.00     0.198 A 
ATOM     49  F   UNL     1       1.019   9.107  -2.497  1.00  0.00    -0.203 F 
ATOM     50  F   UNL     1       3.897  13.666  -3.070  1.00  0.00    -0.200 F 
ATOM     51  C   UNL     1       1.927  12.434  -3.443  1.00  0.00     0.200 A 
ATOM     52  F   UNL     1      -0.042  11.167  -3.720  1.00  0.00    -0.200 F 
ATOM     53  F   UNL     1       1.312  13.521  -3.926  1.00  0.00    -0.200 F 
ENDBRANCH  29  43
BRANCH  30  54
ATOM     54  C   UNL     1      -2.040   8.810   4.511  1.00  0.00     0.064 A 
ATOM     55  C   UNL     1      -2.436   9.976   5.182  1.00  0.00     0.173 A 
ATOM     56  C   UNL     1      -3.074   8.005   3.990  1.00  0.00     0.173 A 
ATOM     57  F   UNL     1      -1.514  10.821   5.665  1.00  0.00    -0.203 F 
ATOM     58  C   UNL     1      -3.785  10.325   5.309  1.00  0.00     0.198 A 
ATOM     59  C   UNL     1      -4.419   8.348   4.127  1.00  0.00     0.198 A 
ATOM     60  F   UNL     1      -2.801   6.917   3.255  1.00  0.00    -0.203 F 
ATOM     61  F   UNL     1      -4.123  11.478   5.903  1.00  0.00    -0.200 F 
ATOM     62  C   UNL     1      -4.774   9.515   4.774  1.00  0.00     0.200 A 
ATOM     63  F   UNL     1      -5.362   7.573   3.572  1.00  0.00    -0.200 F 
ATOM     64  F   UNL     1      -6.062   9.879   4.844  1.00  0.00    -0.200 F 
ENDBRANCH  30  54
BRANCH  42  65
ATOM     65  C   UNL     1       4.220   9.558   4.486  1.00  0.00     0.064 A 
ATOM     66  C   UNL     1       3.889   8.355   5.135  1.00  0.00     0.173 A 
ATOM     67  C   UNL     1       5.283  10.303   5.011  1.00  0.00     0.173 A 
ATOM     68  F   UNL     1       2.959   7.534   4.632  1.00  0.00    -0.203 F 
ATOM     69  C   UNL     1       4.561   7.947   6.286  1.00  0.00     0.198 A 
ATOM     70  C   UNL     1       5.977   9.874   6.138  1.00  0.00     0.198 A 
ATOM     71  F   UNL     1       5.683  11.427   4.396  1.00  0.00    -0.203 F 
ATOM     72  F   UNL     1       4.220   6.801   6.893  1.00  0.00    -0.200 F 
ATOM     73  C   UNL     1       5.609   8.704   6.782  1.00  0.00     0.200 A 
ATOM     74  F   UNL     1       7.026  10.581   6.583  1.00  0.00    -0.200 F 
ATOM     75  F   UNL     1       6.285   8.290   7.863  1.00  0.00    -0.200 F 
ENDBRANCH  42  65
ENDBRANCH  16  17
ENDBRANCH   9  11
ENDBRANCH   8   9
ENDBRANCH   7   8
ENDBRANCH   6   7
ENDBRANCH   5   6
ENDBRANCH   4   5
ENDBRANCH   3   4
ENDBRANCH   2   3
ENDBRANCH   1   2
BRANCH   1  76
ATOM     76  C   UNL     1       5.106  -2.605  -2.729  1.00  0.00     0.188 C 
BRANCH  76  77
ATOM     77  O   UNL     1       4.655  -1.966  -3.909  1.00  0.00    -0.376 OA
BRANCH  77  78
ATOM     78  C   UNL     1       3.519  -2.465  -4.599  1.00  0.00     0.202 C 
BRANCH  78  79
ATOM     79  C   UNL     1       3.237  -3.973  -4.785  1.00  0.00     0.261 C 
BRANCH  79  80
ATOM     80  O   UNL     1       3.671  -4.866  -3.750  1.00  0.00    -0.460 OA
BRANCH  80  81
ATOM     81  C   UNL     1       4.804  -5.571  -3.996  1.00  0.00     0.338 C 
ATOM     82  O   UNL     1       5.473  -5.570  -5.008  1.00  0.00    -0.246 OA
BRANCH  81  83
ATOM     83  C   UNL     1       5.232  -6.207  -2.728  1.00  0.00     0.060 A 
ATOM     84  C   UNL     1       6.385  -5.718  -2.092  1.00  0.00     0.018 A 
ATOM     85  C   UNL     1       4.503  -7.254  -2.166  1.00  0.00     0.018 A 
ATOM     86  C   UNL     1       6.792  -6.231  -0.866  1.00  0.00     0.029 A 
ATOM     87  C   UNL     1       4.982  -7.860  -1.000  1.00  0.00     0.029 A 
ATOM     88  C   UNL     1       6.126  -7.345  -0.362  1.00  0.00     0.066 A 
BRANCH  88  89
ATOM     89  N   UNL     1       6.798  -8.098   0.616  1.00  0.00    -0.220 N 
ATOM     90  C   UNL     1       7.126  -9.417   0.460  1.00  0.00     0.141 A 
ATOM     91  N   UNL     1       7.495  -7.576   1.647  1.00  0.00    -0.062 NA
ATOM     92  C   UNL     1       8.097  -9.668   1.401  1.00  0.00     0.093 A 
ATOM     93  N   UNL     1       8.240  -8.546   2.175  1.00  0.00    -0.134 NA
BRANCH  92  94
ATOM     94  C   UNL     1       8.734 -10.960   1.734  1.00  0.00     0.138 C 
BRANCH  94  95
ATOM     95  S   UNL     1      10.347 -11.462   1.138  1.00  0.00    -0.081 SA
BRANCH  95  96
ATOM     96  C   UNL     1      10.916 -10.570  -0.247  1.00  0.00     0.176 A 
ATOM     97  N   UNL     1      12.207 -10.396  -0.219  1.00  0.00    -0.223 NA
ATOM     98  N   UNL     1      10.147 -10.091  -1.296  1.00  0.00    -0.255 N 
ATOM     99  C   UNL     1      12.800  -9.612  -1.216  1.00  0.00     0.079 A 
ATOM    100  C   UNL     1      10.577  -8.855  -1.795  1.00  0.00     0.266 A 
ATOM    101  C   UNL     1      14.174  -9.657  -1.456  1.00  0.00     0.029 A 
ATOM    102  C   UNL     1      12.033  -8.698  -1.923  1.00  0.00     0.066 A 
ATOM    103  O   UNL     1       9.855  -7.915  -2.123  1.00  0.00    -0.268 OA
ATOM    104  C   UNL     1      14.764  -8.751  -2.347  1.00  0.00     0.002 A 
ATOM    105  C   UNL     1      12.610  -7.752  -2.775  1.00  0.00     0.016 A 
ATOM    106  C   UNL     1      13.988  -7.777  -2.979  1.00  0.00     0.001 A 
BRANCH  98 107
ATOM    107  C   UNL     1       8.992 -10.714  -1.908  1.00  0.00     0.051 A 
ATOM    108  C   UNL     1       8.434 -10.161  -3.082  1.00  0.00     0.028 A 
ATOM    109  C   UNL     1       8.376 -11.881  -1.439  1.00  0.00     0.028 A 
ATOM    110  C   UNL     1       7.208 -10.586  -3.603  1.00  0.00     0.022 A 
ATOM    111  C   UNL     1       7.116 -12.282  -1.916  1.00  0.00     0.022 A 
ATOM    112  C   UNL     1       6.517 -11.601  -2.967  1.00  0.00     0.041 A 
ATOM    113  Cl  UNL     1       4.920 -11.993  -3.458  1.00  0.00    -0.084 Cl
ENDBRANCH  98 107
ENDBRANCH  95  96
ENDBRANCH  94  95
ENDBRANCH  92  94
ENDBRANCH  88  89
ENDBRANCH  81  83
ENDBRANCH  80  81
ENDBRANCH  79  80
ENDBRANCH  78  79
ENDBRANCH  77  78
ENDBRANCH  76  77
ENDBRANCH   1  76
TORSDOF 25
