REMARK SMILES COc1ccc(/C=C2\SC(=S)N=C2OCCOCCOCCOCCOC(=O)c2ccc(-c3c4nc(c(-c5c(F)c(F)c(F)c(F)c5F)c5ccc([nH]5)c(-c5c(F)c(F)c(F)c(F)c5F)c5nc(c(-c6c(F)c(F)c(F)c(F)c6F)c6ccc3[nH]6)C=C5)C=C4)cc2)c(C(=O)[O-])c1OC
REMARK SMILES IDX 21 1 20 2 19 3 18 4 17 5 16 6 15 7 14 8 13 9 7 10 8 11 9 12
REMARK SMILES IDX 10 13 12 14 11 15 6 16 3 17 4 18 96 19 5 20 92 21 2 22 1 23
REMARK SMILES IDX 97 24 98 25 93 26 94 27 95 28 22 29 23 30 24 31 25 32 26 33
REMARK SMILES IDX 27 34 28 35 29 36 30 37 91 38 31 39 90 40 32 41 33 42 34 43
REMARK SMILES IDX 84 44 35 45 89 46 83 47 85 48 36 49 88 50 82 51 81 52 37 54
REMARK SMILES IDX 69 55 49 56 68 57 50 58 53 59 67 60 86 61 51 62 52 63 66 65
REMARK SMILES IDX 87 66 54 67 38 68 39 69 47 70 40 71 41 72 45 73 48 74 42 75
REMARK SMILES IDX 43 76 46 77 44 78 70 79 71 80 79 81 72 82 73 83 77 84 80 85
REMARK SMILES IDX 74 86 75 87 78 88 76 89 55 90 56 91 64 92 57 93 58 94 62 95
REMARK SMILES IDX 65 96 59 97 60 98 63 99 61 100
REMARK H PARENT 85 53 53 64
REMARK Flexibility Score: inf
ROOT
ATOM      1  C   UNL     1       1.224  -0.478  -9.598  1.00  0.00     0.188 C 
ENDROOT
BRANCH   1   2
ATOM      2  O   UNL     1       0.097  -1.333  -9.717  1.00  0.00    -0.377 OA
BRANCH   2   3
ATOM      3  C   UNL     1       0.227  -2.591  -9.066  1.00  0.00     0.188 C 
BRANCH   3   4
ATOM      4  C   UNL     1       0.239  -2.537  -7.543  1.00  0.00     0.188 C 
BRANCH   4   5
ATOM      5  O   UNL     1       1.442  -2.243  -6.836  1.00  0.00    -0.376 OA
BRANCH   5   6
ATOM      6  C   UNL     1       2.739  -2.510  -7.334  1.00  0.00     0.201 C 
BRANCH   6   7
ATOM      7  C   UNL     1       3.221  -3.939  -7.611  1.00  0.00     0.260 C 
BRANCH   7   8
ATOM      8  O   UNL     1       2.241  -4.964  -7.808  1.00  0.00    -0.474 OA
BRANCH   8   9
ATOM      9  C   UNL     1       1.307  -5.441  -6.978  1.00  0.00     0.229 C 
ATOM     10  C   UNL     1       1.841  -4.213  -4.819  1.00  0.00     0.030 C 
ATOM     11  C   UNL     1       1.101  -5.060  -5.552  1.00  0.00     0.077 C 
ATOM     12  S   UNL     1      -0.387  -5.819  -5.079  1.00  0.00    -0.053 SA
ATOM     13  C   UNL     1      -0.641  -6.439  -6.716  1.00  0.00     0.168 C 
ATOM     14  N   UNL     1       0.414  -6.189  -7.554  1.00  0.00    -0.194 NA
ATOM     15  S   UNL     1      -2.087  -7.134  -7.188  1.00  0.00    -0.050 S 
BRANCH  10  16
ATOM     16  C   UNL     1       1.598  -3.459  -3.560  1.00  0.00    -0.011 A 
ATOM     17  C   UNL     1       1.095  -1.934  -1.217  1.00  0.00     0.161 A 
ATOM     18  C   UNL     1       0.040  -2.401  -2.001  1.00  0.00     0.051 A 
ATOM     19  C   UNL     1       2.417  -2.158  -1.618  1.00  0.00     0.170 A 
ATOM     20  C   UNL     1       0.292  -3.143  -3.159  1.00  0.00     0.013 A 
ATOM     21  C   UNL     1       2.656  -2.866  -2.821  1.00  0.00     0.050 A 
BRANCH  17  22
ATOM     22  O   UNL     1       0.819  -1.361  -0.006  1.00  0.00    -0.493 OA
ATOM     23  C   UNL     1       0.112  -0.126  -0.123  1.00  0.00     0.278 C 
ENDBRANCH  17  22
BRANCH  19  24
ATOM     24  O   UNL     1       3.535  -1.817  -0.895  1.00  0.00    -0.492 OA
ATOM     25  C   UNL     1       3.463  -0.661  -0.072  1.00  0.00     0.278 C 
ENDBRANCH  19  24
BRANCH  21  26
ATOM     26  C   UNL     1       4.049  -2.895  -3.338  1.00  0.00     0.076 C 
ATOM     27  O   UNL     1       4.659  -3.856  -3.767  1.00  0.00    -0.545 OA
ATOM     28  O   UNL     1       4.554  -1.647  -3.437  1.00  0.00    -0.545 OA
ENDBRANCH  21  26
ENDBRANCH  10  16
ENDBRANCH   8   9
ENDBRANCH   7   8
ENDBRANCH   6   7
ENDBRANCH   5   6
ENDBRANCH   4   5
ENDBRANCH   3   4
ENDBRANCH   2   3
ENDBRANCH   1   2
BRANCH   1  29
ATOM     29  C   UNL     1       1.174   0.454  -8.373  1.00  0.00     0.188 C 
BRANCH  29  30
ATOM     30  O   UNL     1      -0.029   0.340  -7.634  1.00  0.00    -0.376 OA
BRANCH  30  31
ATOM     31  C   UNL     1      -1.116   1.198  -7.945  1.00  0.00     0.202 C 
BRANCH  31  32
ATOM     32  C   UNL     1      -1.631   1.296  -9.390  1.00  0.00     0.261 C 
BRANCH  32  33
ATOM     33  O   UNL     1      -0.667   1.583 -10.416  1.00  0.00    -0.460 OA
BRANCH  33  34
ATOM     34  C   UNL     1       0.047   2.725 -10.355  1.00  0.00     0.338 C 
ATOM     35  O   UNL     1      -0.064   3.627  -9.543  1.00  0.00    -0.246 OA
BRANCH  34  36
ATOM     36  C   UNL     1       1.169   2.573 -11.316  1.00  0.00     0.060 A 
ATOM     37  C   UNL     1       2.481   2.769 -10.863  1.00  0.00     0.016 A 
ATOM     38  C   UNL     1       0.936   2.131 -12.624  1.00  0.00     0.016 A 
ATOM     39  C   UNL     1       3.559   2.555 -11.725  1.00  0.00     0.010 A 
ATOM     40  C   UNL     1       2.014   1.940 -13.493  1.00  0.00     0.010 A 
ATOM     41  C   UNL     1       3.327   2.186 -13.057  1.00  0.00    -0.014 A 
BRANCH  41  42
ATOM     42  C   UNL     1       4.416   2.322 -14.054  1.00  0.00     0.031 A 
ATOM     43  C   UNL     1       4.513   3.628 -14.795  1.00  0.00     0.074 A 
ATOM     44  C   UNL     1       5.303   1.340 -14.290  1.00  0.00     0.049 A 
ATOM     45  N   UNL     1       5.343   3.997 -15.735  1.00  0.00    -0.248 NA
ATOM     46  C   UNL     1       3.531   4.660 -14.419  1.00  0.00     0.031 C 
ATOM     47  C   UNL     1       5.338   0.047 -13.612  1.00  0.00     0.029 A 
ATOM     48  N   UNL     1       6.347   1.284 -15.181  1.00  0.00    -0.354 N 
ATOM     49  C   UNL     1       4.984   5.298 -16.060  1.00  0.00     0.074 A 
ATOM     50  C   UNL     1       3.841   5.644 -15.246  1.00  0.00     0.031 C 
ATOM     51  C   UNL     1       6.349  -0.682 -14.120  1.00  0.00     0.029 A 
ATOM     52  C   UNL     1       7.011   0.082 -15.178  1.00  0.00     0.049 A 
ATOM     53  H   UNL     1       6.596   2.035 -15.767  1.00  0.00     0.167 HD
ATOM     54  C   UNL     1       5.561   6.136 -16.952  1.00  0.00     0.037 A 
ATOM     55  C   UNL     1       8.022  -0.351 -15.957  1.00  0.00     0.037 A 
ATOM     56  C   UNL     1       6.688   5.787 -17.772  1.00  0.00     0.049 A 
ATOM     57  C   UNL     1       8.594   0.572 -17.007  1.00  0.00     0.074 A 
ATOM     58  C   UNL     1       7.352   6.564 -18.703  1.00  0.00     0.029 A 
ATOM     59  N   UNL     1       7.310   4.547 -17.766  1.00  0.00    -0.354 N 
ATOM     60  N   UNL     1       8.272   1.812 -17.288  1.00  0.00    -0.248 NA
ATOM     61  C   UNL     1       9.675   0.033 -17.846  1.00  0.00     0.031 C 
ATOM     62  C   UNL     1       8.342   5.777 -19.299  1.00  0.00     0.029 A 
ATOM     63  C   UNL     1       8.335   4.529 -18.697  1.00  0.00     0.049 A 
ATOM     64  H   UNL     1       7.060   3.792 -17.186  1.00  0.00     0.167 HD
ATOM     65  C   UNL     1       9.127   2.210 -18.308  1.00  0.00     0.074 A 
ATOM     66  C   UNL     1       9.992   1.084 -18.590  1.00  0.00     0.031 C 
ATOM     67  C   UNL     1       9.194   3.401 -18.954  1.00  0.00     0.037 A 
BRANCH  54  68
ATOM     68  C   UNL     1       4.957   7.501 -17.102  1.00  0.00     0.064 A 
ATOM     69  C   UNL     1       5.069   8.471 -16.094  1.00  0.00     0.173 A 
ATOM     70  C   UNL     1       4.265   7.845 -18.272  1.00  0.00     0.173 A 
ATOM     71  F   UNL     1       5.701   8.183 -14.946  1.00  0.00    -0.203 F 
ATOM     72  C   UNL     1       4.486   9.726 -16.242  1.00  0.00     0.198 A 
ATOM     73  C   UNL     1       3.710   9.112 -18.429  1.00  0.00     0.198 A 
ATOM     74  F   UNL     1       4.128   6.953 -19.264  1.00  0.00    -0.203 F 
ATOM     75  F   UNL     1       4.558  10.619 -15.245  1.00  0.00    -0.200 F 
ATOM     76  C   UNL     1       3.814  10.048 -17.412  1.00  0.00     0.200 A 
ATOM     77  F   UNL     1       3.069   9.424 -19.564  1.00  0.00    -0.200 F 
ATOM     78  F   UNL     1       3.256  11.259 -17.555  1.00  0.00    -0.200 F 
ENDBRANCH  54  68
BRANCH  55  79
ATOM     79  C   UNL     1       8.562  -1.728 -15.791  1.00  0.00     0.064 A 
ATOM     80  C   UNL     1       9.865  -1.944 -15.320  1.00  0.00     0.173 A 
ATOM     81  C   UNL     1       7.800  -2.854 -16.134  1.00  0.00     0.173 A 
ATOM     82  F   UNL     1      10.644  -0.899 -15.006  1.00  0.00    -0.203 F 
ATOM     83  C   UNL     1      10.391  -3.231 -15.217  1.00  0.00     0.198 A 
ATOM     84  C   UNL     1       8.316  -4.142 -16.004  1.00  0.00     0.198 A 
ATOM     85  F   UNL     1       6.550  -2.704 -16.596  1.00  0.00    -0.203 F 
ATOM     86  F   UNL     1      11.656  -3.404 -14.812  1.00  0.00    -0.200 F 
ATOM     87  C   UNL     1       9.614  -4.329 -15.554  1.00  0.00     0.200 A 
ATOM     88  F   UNL     1       7.559  -5.201 -16.321  1.00  0.00    -0.200 F 
ATOM     89  F   UNL     1      10.120  -5.566 -15.454  1.00  0.00    -0.200 F 
ENDBRANCH  55  79
BRANCH  67  90
ATOM     90  C   UNL     1      10.264   3.569 -19.995  1.00  0.00     0.064 A 
ATOM     91  C   UNL     1      10.198   2.916 -21.235  1.00  0.00     0.173 A 
ATOM     92  C   UNL     1      11.343   4.437 -19.767  1.00  0.00     0.173 A 
ATOM     93  F   UNL     1       9.194   2.067 -21.498  1.00  0.00    -0.203 F 
ATOM     94  C   UNL     1      11.188   3.106 -22.196  1.00  0.00     0.198 A 
ATOM     95  C   UNL     1      12.312   4.649 -20.742  1.00  0.00     0.198 A 
ATOM     96  F   UNL     1      11.448   5.094 -18.602  1.00  0.00    -0.203 F 
ATOM     97  F   UNL     1      11.130   2.435 -23.355  1.00  0.00    -0.200 F 
ATOM     98  C   UNL     1      12.239   3.978 -21.953  1.00  0.00     0.200 A 
ATOM     99  F   UNL     1      13.317   5.505 -20.512  1.00  0.00    -0.200 F 
ATOM    100  F   UNL     1      13.184   4.166 -22.884  1.00  0.00    -0.200 F 
ENDBRANCH  67  90
ENDBRANCH  41  42
ENDBRANCH  34  36
ENDBRANCH  33  34
ENDBRANCH  32  33
ENDBRANCH  31  32
ENDBRANCH  30  31
ENDBRANCH  29  30
ENDBRANCH   1  29
TORSDOF 23
