REMARK SMILES Cc1cc(C)c(/C=N/NC(=O)C(=O)Nc2ccc(C(=O)OCCOCCOCCOCCOC(=O)c3ccc(-c4c5nc(c(-c6c(F)c(F)c(F)c(F)c6F)c6ccc([nH]6)c(-c6c(F)c(F)c(F)c(F)c6F)c6nc(c(-c7c(F)c(F)c(F)c(F)c7F)c7ccc4[nH]7)C=C6)C=C5)cc3)cc2)c(C)c1
REMARK SMILES IDX 26 1 25 2 24 3 23 4 22 5 21 6 19 7 20 8 18 9 15 10 16 11
REMARK SMILES IDX 100 12 17 13 99 14 14 15 12 16 13 17 10 19 9 20 11 22 8 23
REMARK SMILES IDX 7 24 6 25 1 26 2 27 3 28 103 29 4 30 101 31 5 32 102 33
REMARK SMILES IDX 27 34 28 35 29 36 30 37 31 38 32 39 33 40 34 41 35 42 36 43
REMARK SMILES IDX 37 44 98 45 38 46 97 47 39 48 40 49 41 50 91 51 42 52 96 53
REMARK SMILES IDX 90 54 92 55 43 56 95 57 89 58 88 59 44 61 76 62 56 63 75 64
REMARK SMILES IDX 57 65 60 66 74 67 93 68 58 69 59 70 73 72 94 73 61 74 45 75
REMARK SMILES IDX 46 76 54 77 47 78 48 79 52 80 55 81 49 82 50 83 53 84 51 85
REMARK SMILES IDX 77 86 78 87 86 88 79 89 80 90 84 91 87 92 81 93 82 94 85 95
REMARK SMILES IDX 83 96 62 97 63 98 71 99 64 100 65 101 69 102 72 103 66 104
REMARK SMILES IDX 67 105 70 106 68 107
REMARK H PARENT 14 18 9 21 92 60 60 71
REMARK Flexibility Score: inf
ROOT
ATOM      1  C   UNL     1      -6.011 -10.742  -1.629  1.00  0.00     0.188 C 
ENDROOT
BRANCH   1   2
ATOM      2  C   UNL     1      -6.570 -11.432  -0.365  1.00  0.00     0.188 C 
BRANCH   2   3
ATOM      3  O   UNL     1      -7.882 -11.948  -0.528  1.00  0.00    -0.376 OA
BRANCH   3   4
ATOM      4  C   UNL     1      -8.951 -11.367   0.195  1.00  0.00     0.202 C 
BRANCH   4   5
ATOM      5  C   UNL     1      -9.324  -9.909  -0.106  1.00  0.00     0.261 C 
BRANCH   5   6
ATOM      6  O   UNL     1      -8.222  -9.008  -0.210  1.00  0.00    -0.460 OA
BRANCH   6   7
ATOM      7  C   UNL     1      -7.590  -8.690   0.939  1.00  0.00     0.338 C 
ATOM      8  O   UNL     1      -7.900  -9.040   2.066  1.00  0.00    -0.246 OA
BRANCH   7   9
ATOM      9  C   UNL     1      -6.310  -8.047   0.575  1.00  0.00     0.060 A 
ATOM     10  C   UNL     1      -3.889  -6.862  -0.039  1.00  0.00     0.041 A 
ATOM     11  C   UNL     1      -3.928  -7.843   0.949  1.00  0.00     0.027 A 
ATOM     12  C   UNL     1      -5.011  -6.585  -0.826  1.00  0.00     0.027 A 
ATOM     13  C   UNL     1      -5.155  -8.408   1.285  1.00  0.00     0.018 A 
ATOM     14  C   UNL     1      -6.229  -7.177  -0.518  1.00  0.00     0.018 A 
BRANCH  10  15
ATOM     15  N   UNL     1      -2.730  -6.103  -0.170  1.00  0.00    -0.318 N 
ATOM     16  C   UNL     1      -2.672  -4.721  -0.260  1.00  0.00     0.315 C 
ATOM     17  O   UNL     1      -1.607  -4.207  -0.568  1.00  0.00    -0.263 OA
ATOM     18  H   UNL     1      -1.875  -6.590  -0.200  1.00  0.00     0.170 HD
BRANCH  16  19
ATOM     19  C   UNL     1      -3.917  -3.882   0.194  1.00  0.00     0.329 C 
ATOM     20  N   UNL     1      -4.046  -2.567  -0.213  1.00  0.00    -0.239 N 
ATOM     21  H   UNL     1      -4.971  -2.234  -0.263  1.00  0.00     0.194 HD
ATOM     22  O   UNL     1      -4.801  -4.370   0.894  1.00  0.00    -0.262 OA
BRANCH  20  23
ATOM     23  N   UNL     1      -3.086  -1.663  -0.554  1.00  0.00    -0.180 NA
ATOM     24  C   UNL     1      -2.047  -1.619   0.222  1.00  0.00     0.142 C 
BRANCH  24  25
ATOM     25  C   UNL     1      -0.955  -0.640   0.049  1.00  0.00     0.000 A 
ATOM     26  C   UNL     1       2.319   2.155  -0.017  1.00  0.00     0.044 C 
ATOM     27  C   UNL     1       1.183   1.178  -0.030  1.00  0.00    -0.051 A 
ATOM     28  C   UNL     1      -0.139   1.634  -0.049  1.00  0.00     0.007 A 
ATOM     29  C   UNL     1       1.429  -0.194   0.012  1.00  0.00     0.007 A 
ATOM     30  C   UNL     1      -1.226   0.741  -0.009  1.00  0.00    -0.042 A 
ATOM     31  C   UNL     1       0.375  -1.116   0.059  1.00  0.00    -0.042 A 
ATOM     32  C   UNL     1      -2.601   1.352   0.027  1.00  0.00     0.045 C 
ATOM     33  C   UNL     1       0.724  -2.579   0.053  1.00  0.00     0.045 C 
ENDBRANCH  24  25
ENDBRANCH  20  23
ENDBRANCH  16  19
ENDBRANCH  10  15
ENDBRANCH   7   9
ENDBRANCH   6   7
ENDBRANCH   5   6
ENDBRANCH   4   5
ENDBRANCH   3   4
ENDBRANCH   2   3
ENDBRANCH   1   2
BRANCH   1  34
ATOM     34  O   UNL     1      -6.912 -10.423  -2.681  1.00  0.00    -0.377 OA
BRANCH  34  35
ATOM     35  C   UNL     1      -7.788 -11.429  -3.185  1.00  0.00     0.188 C 
BRANCH  35  36
ATOM     36  C   UNL     1      -7.488 -12.941  -3.018  1.00  0.00     0.188 C 
BRANCH  36  37
ATOM     37  O   UNL     1      -6.195 -13.242  -2.525  1.00  0.00    -0.376 OA
BRANCH  37  38
ATOM     38  C   UNL     1      -5.252 -13.795  -3.423  1.00  0.00     0.202 C 
BRANCH  38  39
ATOM     39  C   UNL     1      -4.839 -12.930  -4.622  1.00  0.00     0.261 C 
BRANCH  39  40
ATOM     40  O   UNL     1      -5.910 -12.406  -5.422  1.00  0.00    -0.460 OA
BRANCH  40  41
ATOM     41  C   UNL     1      -6.655 -13.291  -6.116  1.00  0.00     0.338 C 
ATOM     42  O   UNL     1      -6.522 -14.504  -6.153  1.00  0.00    -0.246 OA
BRANCH  41  43
ATOM     43  C   UNL     1      -7.801 -12.556  -6.688  1.00  0.00     0.060 A 
ATOM     44  C   UNL     1      -9.103 -12.906  -6.305  1.00  0.00     0.016 A 
ATOM     45  C   UNL     1      -7.584 -11.512  -7.591  1.00  0.00     0.016 A 
ATOM     46  C   UNL     1     -10.195 -12.234  -6.851  1.00  0.00     0.010 A 
ATOM     47  C   UNL     1      -8.679 -10.856  -8.155  1.00  0.00     0.010 A 
ATOM     48  C   UNL     1      -9.990 -11.238  -7.815  1.00  0.00    -0.014 A 
BRANCH  48  49
ATOM     49  C   UNL     1     -11.135 -10.740  -8.614  1.00  0.00     0.031 A 
ATOM     50  C   UNL     1     -11.360 -11.331  -9.977  1.00  0.00     0.074 A 
ATOM     51  C   UNL     1     -11.965  -9.796  -8.139  1.00  0.00     0.049 A 
ATOM     52  N   UNL     1     -12.254 -11.027 -10.883  1.00  0.00    -0.248 NA
ATOM     53  C   UNL     1     -10.444 -12.412 -10.374  1.00  0.00     0.031 C 
ATOM     54  C   UNL     1     -11.873  -9.175  -6.821  1.00  0.00     0.029 A 
ATOM     55  N   UNL     1     -13.046  -9.187  -8.727  1.00  0.00    -0.354 N 
ATOM     56  C   UNL     1     -12.000 -11.868 -11.958  1.00  0.00     0.074 A 
ATOM     57  C   UNL     1     -10.850 -12.672 -11.607  1.00  0.00     0.031 C 
ATOM     58  C   UNL     1     -12.850  -8.259  -6.704  1.00  0.00     0.029 A 
ATOM     59  C   UNL     1     -13.611  -8.206  -7.952  1.00  0.00     0.049 A 
ATOM     60  H   UNL     1     -13.383  -9.431  -9.620  1.00  0.00     0.167 HD
ATOM     61  C   UNL     1     -12.671 -11.966 -13.130  1.00  0.00     0.037 A 
ATOM     62  C   UNL     1     -14.610  -7.346  -8.233  1.00  0.00     0.037 A 
ATOM     63  C   UNL     1     -13.812 -11.159 -13.475  1.00  0.00     0.049 A 
ATOM     64  C   UNL     1     -15.297  -7.423  -9.574  1.00  0.00     0.074 A 
ATOM     65  C   UNL     1     -14.580 -11.198 -14.625  1.00  0.00     0.029 A 
ATOM     66  N   UNL     1     -14.339 -10.154 -12.676  1.00  0.00    -0.354 N 
ATOM     67  N   UNL     1     -15.077  -8.242 -10.574  1.00  0.00    -0.248 NA
ATOM     68  C   UNL     1     -16.377  -6.456  -9.821  1.00  0.00     0.031 C 
ATOM     69  C   UNL     1     -15.526 -10.170 -14.553  1.00  0.00     0.029 A 
ATOM     70  C   UNL     1     -15.399  -9.541 -13.324  1.00  0.00     0.049 A 
ATOM     71  H   UNL     1     -14.008  -9.912 -11.780  1.00  0.00     0.167 HD
ATOM     72  C   UNL     1     -16.006  -7.912 -11.554  1.00  0.00     0.074 A 
ATOM     73  C   UNL     1     -16.802  -6.826 -11.021  1.00  0.00     0.031 C 
ATOM     74  C   UNL     1     -16.186  -8.460 -12.782  1.00  0.00     0.037 A 
BRANCH  61  75
ATOM     75  C   UNL     1     -12.157 -12.951 -14.141  1.00  0.00     0.064 A 
ATOM     76  C   UNL     1     -12.231 -14.337 -13.934  1.00  0.00     0.173 A 
ATOM     77  C   UNL     1     -11.590 -12.499 -15.342  1.00  0.00     0.173 A 
ATOM     78  F   UNL     1     -12.749 -14.824 -12.796  1.00  0.00    -0.203 F 
ATOM     79  C   UNL     1     -11.723 -15.231 -14.874  1.00  0.00     0.198 A 
ATOM     80  C   UNL     1     -11.118 -13.396 -16.296  1.00  0.00     0.198 A 
ATOM     81  F   UNL     1     -11.497 -11.185 -15.594  1.00  0.00    -0.203 F 
ATOM     82  F   UNL     1     -11.748 -16.548 -14.626  1.00  0.00    -0.200 F 
ATOM     83  C   UNL     1     -11.174 -14.760 -16.057  1.00  0.00     0.200 A 
ATOM     84  F   UNL     1     -10.601 -12.939 -17.445  1.00  0.00    -0.200 F 
ATOM     85  F   UNL     1     -10.690 -15.621 -16.963  1.00  0.00    -0.200 F 
ENDBRANCH  61  75
BRANCH  62  86
ATOM     86  C   UNL     1     -15.014  -6.327  -7.227  1.00  0.00     0.064 A 
ATOM     87  C   UNL     1     -16.267  -6.381  -6.602  1.00  0.00     0.173 A 
ATOM     88  C   UNL     1     -14.156  -5.272  -6.878  1.00  0.00     0.173 A 
ATOM     89  F   UNL     1     -17.134  -7.353  -6.922  1.00  0.00    -0.203 F 
ATOM     90  C   UNL     1     -16.653  -5.411  -5.678  1.00  0.00     0.198 A 
ATOM     91  C   UNL     1     -14.531  -4.322  -5.931  1.00  0.00     0.198 A 
ATOM     92  F   UNL     1     -12.947  -5.172  -7.450  1.00  0.00    -0.203 F 
ATOM     93  F   UNL     1     -17.875  -5.460  -5.130  1.00  0.00    -0.200 F 
ATOM     94  C   UNL     1     -15.781  -4.388  -5.337  1.00  0.00     0.200 A 
ATOM     95  F   UNL     1     -13.680  -3.343  -5.595  1.00  0.00    -0.200 F 
ATOM     96  F   UNL     1     -16.150  -3.461  -4.442  1.00  0.00    -0.200 F 
ENDBRANCH  62  86
BRANCH  74  97
ATOM     97  C   UNL     1     -17.313  -7.927 -13.623  1.00  0.00     0.064 A 
ATOM     98  C   UNL     1     -17.279  -6.640 -14.181  1.00  0.00     0.173 A 
ATOM     99  C   UNL     1     -18.427  -8.734 -13.908  1.00  0.00     0.173 A 
ATOM    100  F   UNL     1     -16.245  -5.823 -13.931  1.00  0.00    -0.203 F 
ATOM    101  C   UNL     1     -18.330  -6.171 -14.965  1.00  0.00     0.198 A 
ATOM    102  C   UNL     1     -19.458  -8.275 -14.723  1.00  0.00     0.198 A 
ATOM    103  F   UNL     1     -18.508  -9.976 -13.409  1.00  0.00    -0.203 F 
ATOM    104  F   UNL     1     -18.301  -4.918 -15.441  1.00  0.00    -0.200 F 
ATOM    105  C   UNL     1     -19.414  -6.991 -15.242  1.00  0.00     0.200 A 
ATOM    106  F   UNL     1     -20.494  -9.076 -15.005  1.00  0.00    -0.200 F 
ATOM    107  F   UNL     1     -20.420  -6.540 -16.005  1.00  0.00    -0.200 F 
ENDBRANCH  74  97
ENDBRANCH  48  49
ENDBRANCH  41  43
ENDBRANCH  40  41
ENDBRANCH  39  40
ENDBRANCH  38  39
ENDBRANCH  37  38
ENDBRANCH  36  37
ENDBRANCH  35  36
ENDBRANCH  34  35
ENDBRANCH   1  34
TORSDOF 24
