REMARK SMILES O=C(OCCOCCOCCOCCOC(=O)[C@@H](CO)NC(=O)[C@H]1CCCc2ccccc21)c1ccc(-c2c3nc(c(-c4c(F)c(F)c(F)c(F)c4F)c4ccc([nH]4)c(-c4c(F)c(F)c(F)c(F)c4F)c4nc(c(-c5c(F)c(F)c(F)c(F)c5F)c5ccc2[nH]5)C=C4)C=C3)cc1
REMARK SMILES IDX 9 1 8 2 7 3 6 4 5 5 4 6 3 7 2 8 1 9 34 10 35 11 96 12 36 13
REMARK SMILES IDX 95 14 37 15 38 16 39 17 89 18 40 19 94 20 88 21 90 22 41 23
REMARK SMILES IDX 93 24 87 25 86 26 42 28 74 29 54 30 73 31 55 32 58 33 72 34
REMARK SMILES IDX 91 35 56 36 57 37 71 39 92 40 59 41 43 42 44 43 52 44 45 45
REMARK SMILES IDX 46 46 50 47 53 48 47 49 48 50 51 51 49 52 75 53 76 54 84 55
REMARK SMILES IDX 77 56 78 57 82 58 85 59 79 60 80 61 83 62 81 63 60 64 61 65
REMARK SMILES IDX 69 66 62 67 63 68 67 69 70 70 64 71 65 72 68 73 66 74 10 75
REMARK SMILES IDX 11 76 12 77 13 78 14 79 15 80 16 81 17 82 18 83 19 84 20 85
REMARK SMILES IDX 21 87 22 88 23 90 24 91 25 92 33 93 26 94 28 95 32 96 27 97
REMARK SMILES IDX 29 98 31 99 30 100
REMARK H PARENT 90 27 58 38 20 86 21 89
REMARK Flexibility Score: inf
ROOT
ATOM      1  O   UNL     1       9.577   7.762  -5.080  1.00  0.00    -0.377 OA
ENDROOT
BRANCH   1   2
ATOM      2  C   UNL     1      10.496   8.707  -4.550  1.00  0.00     0.188 C 
BRANCH   2   3
ATOM      3  C   UNL     1      10.070   9.349  -3.245  1.00  0.00     0.188 C 
BRANCH   3   4
ATOM      4  O   UNL     1       9.749   8.340  -2.308  1.00  0.00    -0.376 OA
BRANCH   4   5
ATOM      5  C   UNL     1       8.806   8.574  -1.282  1.00  0.00     0.202 C 
BRANCH   5   6
ATOM      6  C   UNL     1       8.672   9.987  -0.750  1.00  0.00     0.261 C 
BRANCH   6   7
ATOM      7  O   UNL     1       9.785  10.905  -0.907  1.00  0.00    -0.460 OA
BRANCH   7   8
ATOM      8  C   UNL     1      11.109  10.910  -0.657  1.00  0.00     0.338 C 
ATOM      9  O   UNL     1      11.785  11.871  -1.030  1.00  0.00    -0.246 OA
BRANCH   8  10
ATOM     10  C   UNL     1      11.797   9.856   0.113  1.00  0.00     0.060 A 
ATOM     11  C   UNL     1      11.650   8.501  -0.128  1.00  0.00     0.016 A 
ATOM     12  C   UNL     1      12.752  10.245   1.056  1.00  0.00     0.016 A 
ATOM     13  C   UNL     1      12.143   7.553   0.736  1.00  0.00     0.010 A 
ATOM     14  C   UNL     1      13.405   9.283   1.833  1.00  0.00     0.010 A 
ATOM     15  C   UNL     1      13.020   7.939   1.734  1.00  0.00    -0.014 A 
BRANCH  15  16
ATOM     16  C   UNL     1      13.339   6.940   2.766  1.00  0.00     0.031 A 
ATOM     17  C   UNL     1      12.807   7.191   4.144  1.00  0.00     0.074 A 
ATOM     18  C   UNL     1      13.901   5.766   2.421  1.00  0.00     0.049 A 
ATOM     19  N   UNL     1      13.020   6.536   5.250  1.00  0.00    -0.248 NA
ATOM     20  C   UNL     1      11.902   8.346   4.298  1.00  0.00     0.031 C 
ATOM     21  C   UNL     1      14.271   5.368   1.058  1.00  0.00     0.029 A 
ATOM     22  N   UNL     1      14.204   4.668   3.176  1.00  0.00    -0.354 N 
ATOM     23  C   UNL     1      12.347   7.245   6.236  1.00  0.00     0.074 A 
ATOM     24  C   UNL     1      11.707   8.373   5.604  1.00  0.00     0.031 C 
ATOM     25  C   UNL     1      14.694   4.096   1.068  1.00  0.00     0.029 A 
ATOM     26  C   UNL     1      14.744   3.636   2.448  1.00  0.00     0.049 A 
ATOM     27  H   UNL     1      14.051   4.622   4.148  1.00  0.00     0.167 HD
ATOM     28  C   UNL     1      12.292   6.970   7.557  1.00  0.00     0.037 A 
ATOM     29  C   UNL     1      15.269   2.474   2.873  1.00  0.00     0.037 A 
ATOM     30  C   UNL     1      12.911   5.806   8.126  1.00  0.00     0.049 A 
ATOM     31  C   UNL     1      15.282   2.236   4.359  1.00  0.00     0.074 A 
ATOM     32  C   UNL     1      12.999   5.424   9.449  1.00  0.00     0.029 A 
ATOM     33  N   UNL     1      13.546   4.821   7.375  1.00  0.00    -0.354 N 
ATOM     34  N   UNL     1      14.760   2.966   5.318  1.00  0.00    -0.248 NA
ATOM     35  C   UNL     1      15.978   1.034   4.826  1.00  0.00     0.031 C 
ATOM     36  C   UNL     1      13.735   4.235   9.503  1.00  0.00     0.029 A 
ATOM     37  C   UNL     1      14.046   3.839   8.208  1.00  0.00     0.049 A 
ATOM     38  H   UNL     1      13.626   4.823   6.394  1.00  0.00     0.167 HD
ATOM     39  C   UNL     1      15.043   2.304   6.502  1.00  0.00     0.074 A 
ATOM     40  C   UNL     1      15.767   1.100   6.132  1.00  0.00     0.031 C 
ATOM     41  C   UNL     1      14.744   2.651   7.779  1.00  0.00     0.037 A 
BRANCH  28  42
ATOM     42  C   UNL     1      11.647   7.995   8.443  1.00  0.00     0.064 A 
ATOM     43  C   UNL     1      10.268   8.256   8.423  1.00  0.00     0.173 A 
ATOM     44  C   UNL     1      12.448   8.789   9.279  1.00  0.00     0.173 A 
ATOM     45  F   UNL     1       9.460   7.556   7.613  1.00  0.00    -0.203 F 
ATOM     46  C   UNL     1       9.724   9.297   9.174  1.00  0.00     0.198 A 
ATOM     47  C   UNL     1      11.897   9.806  10.053  1.00  0.00     0.198 A 
ATOM     48  F   UNL     1      13.775   8.595   9.325  1.00  0.00    -0.203 F 
ATOM     49  F   UNL     1       8.417   9.580   9.076  1.00  0.00    -0.200 F 
ATOM     50  C   UNL     1      10.538  10.068   9.990  1.00  0.00     0.200 A 
ATOM     51  F   UNL     1      12.687  10.549  10.840  1.00  0.00    -0.200 F 
ATOM     52  F   UNL     1      10.015  11.078  10.700  1.00  0.00    -0.200 F 
ENDBRANCH  28  42
BRANCH  29  53
ATOM     53  C   UNL     1      15.874   1.511   1.912  1.00  0.00     0.064 A 
ATOM     54  C   UNL     1      15.362   0.216   1.760  1.00  0.00     0.173 A 
ATOM     55  C   UNL     1      16.990   1.859   1.132  1.00  0.00     0.173 A 
ATOM     56  F   UNL     1      14.308  -0.178   2.490  1.00  0.00    -0.203 F 
ATOM     57  C   UNL     1      15.951  -0.697   0.884  1.00  0.00     0.198 A 
ATOM     58  C   UNL     1      17.556   0.959   0.232  1.00  0.00     0.198 A 
ATOM     59  F   UNL     1      17.527   3.084   1.234  1.00  0.00    -0.203 F 
ATOM     60  F   UNL     1      15.470  -1.944   0.797  1.00  0.00    -0.200 F 
ATOM     61  C   UNL     1      17.044  -0.323   0.117  1.00  0.00     0.200 A 
ATOM     62  F   UNL     1      18.599   1.335  -0.521  1.00  0.00    -0.200 F 
ATOM     63  F   UNL     1      17.608  -1.199  -0.726  1.00  0.00    -0.200 F 
ENDBRANCH  29  53
BRANCH  41  64
ATOM     64  C   UNL     1      15.147   1.682   8.846  1.00  0.00     0.064 A 
ATOM     65  C   UNL     1      16.488   1.501   9.212  1.00  0.00     0.173 A 
ATOM     66  C   UNL     1      14.166   0.956   9.537  1.00  0.00     0.173 A 
ATOM     67  F   UNL     1      17.460   2.163   8.566  1.00  0.00    -0.203 F 
ATOM     68  C   UNL     1      16.835   0.599  10.212  1.00  0.00     0.198 A 
ATOM     69  C   UNL     1      14.514   0.085  10.562  1.00  0.00     0.198 A 
ATOM     70  F   UNL     1      12.869   1.105   9.226  1.00  0.00    -0.203 F 
ATOM     71  F   UNL     1      18.126   0.395  10.507  1.00  0.00    -0.200 F 
ATOM     72  C   UNL     1      15.848  -0.100  10.891  1.00  0.00     0.200 A 
ATOM     73  F   UNL     1      13.558  -0.576  11.229  1.00  0.00    -0.200 F 
ATOM     74  F   UNL     1      16.184  -0.961  11.861  1.00  0.00    -0.200 F 
ENDBRANCH  41  64
ENDBRANCH  15  16
ENDBRANCH   8  10
ENDBRANCH   7   8
ENDBRANCH   6   7
ENDBRANCH   5   6
ENDBRANCH   4   5
ENDBRANCH   3   4
ENDBRANCH   2   3
ENDBRANCH   1   2
BRANCH   1  75
ATOM     75  C   UNL     1       9.176   6.666  -4.255  1.00  0.00     0.188 C 
BRANCH  75  76
ATOM     76  C   UNL     1      10.186   5.577  -3.845  1.00  0.00     0.188 C 
BRANCH  76  77
ATOM     77  O   UNL     1      11.477   6.049  -3.518  1.00  0.00    -0.376 OA
BRANCH  77  78
ATOM     78  C   UNL     1      12.512   5.942  -4.496  1.00  0.00     0.202 C 
BRANCH  78  79
ATOM     79  C   UNL     1      12.226   5.577  -5.971  1.00  0.00     0.261 C 
BRANCH  79  80
ATOM     80  O   UNL     1      10.991   6.100  -6.495  1.00  0.00    -0.462 OA
BRANCH  80  81
ATOM     81  C   UNL     1      10.302   5.275  -7.342  1.00  0.00     0.331 C 
ATOM     82  O   UNL     1      10.776   4.237  -7.797  1.00  0.00    -0.250 OA
BRANCH  81  83
ATOM     83  C   UNL     1       8.798   5.624  -7.446  1.00  0.00     0.218 C 
BRANCH  83  84
ATOM     84  C   UNL     1       8.371   7.102  -7.566  1.00  0.00     0.193 C 
BRANCH  84  85
ATOM     85  O   UNL     1       9.424   7.991  -7.902  1.00  0.00    -0.394 OA
ATOM     86  H   UNL     1      10.093   7.980  -7.200  1.00  0.00     0.210 HD
ENDBRANCH  84  85
ENDBRANCH  83  84
BRANCH  83  87
ATOM     87  N   UNL     1       8.158   4.894  -8.541  1.00  0.00    -0.340 N 
ATOM     88  C   UNL     1       7.055   4.109  -8.565  1.00  0.00     0.228 C 
ATOM     89  H   UNL     1       8.607   4.991  -9.412  1.00  0.00     0.164 HD
ATOM     90  O   UNL     1       6.540   3.968  -9.683  1.00  0.00    -0.274 OA
BRANCH  88  91
ATOM     91  C   UNL     1       6.524   3.256  -7.401  1.00  0.00     0.109 C 
ATOM     92  C   UNL     1       7.159   1.865  -7.601  1.00  0.00     0.018 C 
ATOM     93  C   UNL     1       6.560   3.736  -5.951  1.00  0.00    -0.032 A 
ATOM     94  C   UNL     1       6.844   0.932  -6.445  1.00  0.00     0.006 C 
ATOM     95  C   UNL     1       7.034   2.897  -4.913  1.00  0.00    -0.044 A 
ATOM     96  C   UNL     1       5.976   4.963  -5.587  1.00  0.00     0.005 A 
ATOM     97  C   UNL     1       7.489   1.483  -5.182  1.00  0.00     0.036 C 
ATOM     98  C   UNL     1       7.052   3.349  -3.583  1.00  0.00     0.004 A 
ATOM     99  C   UNL     1       5.954   5.381  -4.249  1.00  0.00     0.000 A 
ATOM    100  C   UNL     1       6.516   4.588  -3.252  1.00  0.00     0.000 A 
ENDBRANCH  88  91
ENDBRANCH  83  87
ENDBRANCH  81  83
ENDBRANCH  80  81
ENDBRANCH  79  80
ENDBRANCH  78  79
ENDBRANCH  77  78
ENDBRANCH  76  77
ENDBRANCH  75  76
ENDBRANCH   1  75
TORSDOF 24
