REMARK SMILES CC(C)(CC(=O)OCCOCCOCCOCCOC(=O)c1ccc(-c2c3nc(c(-c4c(F)c(F)c(F)c(F)c4F)c4ccc([nH]4)c(-c4c(F)c(F)c(F)c(F)c4F)c4nc(c(-c5c(F)c(F)c(F)c(F)c5F)c5ccc2[nH]5)C=C4)C=C3)cc1)CC(=O)N1CCN(c2nc3ccc(Cl)cc3s2)CC1
REMARK SMILES IDX 12 1 11 2 10 3 9 4 8 5 7 6 5 7 6 8 4 9 2 10 1 11 3 12 85 13
REMARK SMILES IDX 86 14 87 15 88 16 89 17 103 18 90 19 102 20 91 21 92 22
REMARK SMILES IDX 93 23 101 24 94 25 100 26 95 27 99 28 96 29 97 30 98 31
REMARK SMILES IDX 13 32 14 33 15 34 16 35 17 36 18 37 19 38 20 39 21 40 22 41
REMARK SMILES IDX 23 42 84 43 24 44 83 45 25 46 26 47 27 48 77 49 28 50 82 51
REMARK SMILES IDX 76 52 78 53 29 54 81 55 75 56 74 57 30 59 62 60 42 61 61 62
REMARK SMILES IDX 43 63 46 64 60 65 79 66 44 67 45 68 59 70 80 71 47 72 31 73
REMARK SMILES IDX 32 74 40 75 33 76 34 77 38 78 41 79 35 80 36 81 39 82 37 83
REMARK SMILES IDX 63 84 64 85 72 86 65 87 66 88 70 89 73 90 67 91 68 92 71 93
REMARK SMILES IDX 69 94 48 95 49 96 57 97 50 98 51 99 55 100 58 101 52 102
REMARK SMILES IDX 53 103 56 104 54 105
REMARK H PARENT 78 58 46 69
REMARK Flexibility Score: inf
ROOT
ATOM      1  C   UNL     1       0.848   2.186   3.023  1.00  0.00     0.188 C 
ENDROOT
BRANCH   1   2
ATOM      2  C   UNL     1      -0.602   2.740   3.171  1.00  0.00     0.188 C 
BRANCH   2   3
ATOM      3  O   UNL     1      -1.708   1.842   2.984  1.00  0.00    -0.376 OA
BRANCH   3   4
ATOM      4  C   UNL     1      -1.544   0.482   3.356  1.00  0.00     0.202 C 
BRANCH   4   5
ATOM      5  C   UNL     1      -1.994  -0.483   2.233  1.00  0.00     0.261 C 
BRANCH   5   6
ATOM      6  O   UNL     1      -1.189  -0.403   1.027  1.00  0.00    -0.463 OA
BRANCH   6   7
ATOM      7  C   UNL     1      -1.818  -0.700  -0.140  1.00  0.00     0.306 C 
ATOM      8  O   UNL     1      -2.948  -1.182  -0.196  1.00  0.00    -0.252 OA
BRANCH   7   9
ATOM      9  C   UNL     1      -1.031  -0.429  -1.438  1.00  0.00     0.129 C 
BRANCH   9  10
ATOM     10  C   UNL     1       0.083   0.646  -1.536  1.00  0.00    -0.016 C 
ATOM     11  C   UNL     1       1.230   0.283  -0.562  1.00  0.00     0.012 C 
ATOM     12  C   UNL     1       0.756   0.620  -2.936  1.00  0.00     0.012 C 
BRANCH  10  13
ATOM     13  C   UNL     1      -0.515   2.085  -1.466  1.00  0.00     0.107 C 
BRANCH  13  14
ATOM     14  C   UNL     1      -1.165   2.409  -0.174  1.00  0.00     0.223 C 
ATOM     15  O   UNL     1      -0.447   2.235   0.790  1.00  0.00    -0.275 OA
ATOM     16  N   UNL     1      -2.418   2.973  -0.138  1.00  0.00    -0.339 N 
ATOM     17  C   UNL     1      -2.749   4.002   0.870  1.00  0.00     0.141 C 
ATOM     18  C   UNL     1      -3.562   2.116  -0.431  1.00  0.00     0.141 C 
ATOM     19  C   UNL     1      -4.003   4.837   0.509  1.00  0.00     0.140 C 
ATOM     20  C   UNL     1      -4.725   2.957  -0.940  1.00  0.00     0.140 C 
ATOM     21  N   UNL     1      -5.093   3.969   0.060  1.00  0.00    -0.345 N 
BRANCH  21  22
ATOM     22  C   UNL     1      -6.176   3.690   0.829  1.00  0.00     0.186 A 
ATOM     23  N   UNL     1      -6.577   2.458   1.046  1.00  0.00    -0.220 NA
ATOM     24  S   UNL     1      -7.277   4.897   1.381  1.00  0.00    -0.097 S 
ATOM     25  C   UNL     1      -7.918   2.440   1.344  1.00  0.00     0.084 A 
ATOM     26  C   UNL     1      -8.508   3.692   1.508  1.00  0.00     0.058 A 
ATOM     27  C   UNL     1      -8.717   1.283   1.406  1.00  0.00     0.031 A 
ATOM     28  C   UNL     1      -9.892   3.836   1.700  1.00  0.00     0.042 A 
ATOM     29  C   UNL     1     -10.100   1.412   1.545  1.00  0.00     0.023 A 
ATOM     30  C   UNL     1     -10.672   2.674   1.678  1.00  0.00     0.042 A 
ATOM     31  Cl  UNL     1     -12.386   2.811   1.780  1.00  0.00    -0.084 Cl
ENDBRANCH  21  22
ENDBRANCH  13  14
ENDBRANCH  10  13
ENDBRANCH   9  10
ENDBRANCH   7   9
ENDBRANCH   6   7
ENDBRANCH   5   6
ENDBRANCH   4   5
ENDBRANCH   3   4
ENDBRANCH   2   3
ENDBRANCH   1   2
BRANCH   1  32
ATOM     32  O   UNL     1       1.474   1.756   4.237  1.00  0.00    -0.377 OA
BRANCH  32  33
ATOM     33  C   UNL     1       0.982   2.415   5.392  1.00  0.00     0.188 C 
BRANCH  33  34
ATOM     34  C   UNL     1       1.267   3.934   5.473  1.00  0.00     0.188 C 
BRANCH  34  35
ATOM     35  O   UNL     1       1.262   4.603   4.208  1.00  0.00    -0.376 OA
BRANCH  35  36
ATOM     36  C   UNL     1       2.383   5.451   3.954  1.00  0.00     0.202 C 
BRANCH  36  37
ATOM     37  C   UNL     1       3.635   4.756   3.381  1.00  0.00     0.261 C 
BRANCH  37  38
ATOM     38  O   UNL     1       3.982   3.510   3.995  1.00  0.00    -0.460 OA
BRANCH  38  39
ATOM     39  C   UNL     1       4.485   3.584   5.253  1.00  0.00     0.338 C 
ATOM     40  O   UNL     1       4.724   4.574   5.887  1.00  0.00    -0.246 OA
BRANCH  39  41
ATOM     41  C   UNL     1       4.462   2.210   5.811  1.00  0.00     0.060 A 
ATOM     42  C   UNL     1       3.799   2.022   7.029  1.00  0.00     0.016 A 
ATOM     43  C   UNL     1       5.051   1.131   5.146  1.00  0.00     0.016 A 
ATOM     44  C   UNL     1       3.694   0.749   7.573  1.00  0.00     0.010 A 
ATOM     45  C   UNL     1       5.016  -0.138   5.731  1.00  0.00     0.010 A 
ATOM     46  C   UNL     1       4.360  -0.319   6.960  1.00  0.00    -0.014 A 
BRANCH  46  47
ATOM     47  C   UNL     1       4.634  -1.494   7.813  1.00  0.00     0.031 A 
ATOM     48  C   UNL     1       5.800  -1.378   8.754  1.00  0.00     0.074 A 
ATOM     49  C   UNL     1       3.813  -2.554   7.847  1.00  0.00     0.049 A 
ATOM     50  N   UNL     1       6.175  -2.170   9.723  1.00  0.00    -0.248 NA
ATOM     51  C   UNL     1       6.646  -0.180   8.594  1.00  0.00     0.031 C 
ATOM     52  C   UNL     1       2.628  -2.739   7.013  1.00  0.00     0.029 A 
ATOM     53  N   UNL     1       3.849  -3.672   8.640  1.00  0.00    -0.354 N 
ATOM     54  C   UNL     1       7.279  -1.554  10.298  1.00  0.00     0.074 A 
ATOM     55  C   UNL     1       7.536  -0.342   9.557  1.00  0.00     0.031 C 
ATOM     56  C   UNL     1       2.050  -3.910   7.335  1.00  0.00     0.029 A 
ATOM     57  C   UNL     1       2.831  -4.557   8.389  1.00  0.00     0.049 A 
ATOM     58  H   UNL     1       4.540  -3.825   9.324  1.00  0.00     0.167 HD
ATOM     59  C   UNL     1       8.010  -1.963  11.359  1.00  0.00     0.037 A 
ATOM     60  C   UNL     1       2.575  -5.753   8.954  1.00  0.00     0.037 A 
ATOM     61  C   UNL     1       7.772  -3.193  12.061  1.00  0.00     0.049 A 
ATOM     62  C   UNL     1       3.458  -6.228  10.082  1.00  0.00     0.074 A 
ATOM     63  C   UNL     1       8.461  -3.724  13.134  1.00  0.00     0.029 A 
ATOM     64  N   UNL     1       6.769  -4.097  11.737  1.00  0.00    -0.354 N 
ATOM     65  N   UNL     1       4.482  -5.631  10.646  1.00  0.00    -0.248 NA
ATOM     66  C   UNL     1       3.136  -7.537  10.664  1.00  0.00     0.031 C 
ATOM     67  C   UNL     1       7.915  -4.979  13.420  1.00  0.00     0.029 A 
ATOM     68  C   UNL     1       6.838  -5.198  12.573  1.00  0.00     0.049 A 
ATOM     69  H   UNL     1       6.107  -3.974  11.019  1.00  0.00     0.167 HD
ATOM     70  C   UNL     1       4.906  -6.474  11.665  1.00  0.00     0.074 A 
ATOM     71  C   UNL     1       4.014  -7.615  11.653  1.00  0.00     0.031 C 
ATOM     72  C   UNL     1       5.937  -6.322  12.536  1.00  0.00     0.037 A 
BRANCH  59  73
ATOM     73  C   UNL     1       9.163  -1.096  11.770  1.00  0.00     0.064 A 
ATOM     74  C   UNL     1       8.971   0.163  12.361  1.00  0.00     0.173 A 
ATOM     75  C   UNL     1      10.480  -1.526  11.557  1.00  0.00     0.173 A 
ATOM     76  F   UNL     1       7.731   0.635  12.559  1.00  0.00    -0.203 F 
ATOM     77  C   UNL     1      10.056   0.969  12.699  1.00  0.00     0.198 A 
ATOM     78  C   UNL     1      11.563  -0.732  11.925  1.00  0.00     0.198 A 
ATOM     79  F   UNL     1      10.719  -2.716  10.985  1.00  0.00    -0.203 F 
ATOM     80  F   UNL     1       9.849   2.191  13.209  1.00  0.00    -0.200 F 
ATOM     81  C   UNL     1      11.350   0.517  12.488  1.00  0.00     0.200 A 
ATOM     82  F   UNL     1      12.812  -1.173  11.725  1.00  0.00    -0.200 F 
ATOM     83  F   UNL     1      12.394   1.291  12.816  1.00  0.00    -0.200 F 
ENDBRANCH  59  73
BRANCH  60  84
ATOM     84  C   UNL     1       1.441  -6.582   8.464  1.00  0.00     0.064 A 
ATOM     85  C   UNL     1       0.326  -6.851   9.269  1.00  0.00     0.173 A 
ATOM     86  C   UNL     1       1.465  -7.146   7.178  1.00  0.00     0.173 A 
ATOM     87  F   UNL     1       0.265  -6.359  10.515  1.00  0.00    -0.203 F 
ATOM     88  C   UNL     1      -0.710  -7.668   8.817  1.00  0.00     0.198 A 
ATOM     89  C   UNL     1       0.415  -7.936   6.716  1.00  0.00     0.198 A 
ATOM     90  F   UNL     1       2.511  -6.926   6.368  1.00  0.00    -0.203 F 
ATOM     91  F   UNL     1      -1.739  -7.951   9.628  1.00  0.00    -0.200 F 
ATOM     92  C   UNL     1      -0.667  -8.204   7.539  1.00  0.00     0.200 A 
ATOM     93  F   UNL     1       0.457  -8.444   5.477  1.00  0.00    -0.200 F 
ATOM     94  F   UNL     1      -1.664  -8.988   7.105  1.00  0.00    -0.200 F 
ENDBRANCH  60  84
BRANCH  72  95
ATOM     95  C   UNL     1       6.124  -7.397  13.570  1.00  0.00     0.064 A 
ATOM     96  C   UNL     1       6.551  -8.688  13.228  1.00  0.00     0.173 A 
ATOM     97  C   UNL     1       5.889  -7.121  14.926  1.00  0.00     0.173 A 
ATOM     98  F   UNL     1       6.783  -9.006  11.945  1.00  0.00    -0.203 F 
ATOM     99  C   UNL     1       6.688  -9.677  14.199  1.00  0.00     0.198 A 
ATOM    100  C   UNL     1       6.066  -8.101  15.898  1.00  0.00     0.198 A 
ATOM    101  F   UNL     1       5.494  -5.898  15.310  1.00  0.00    -0.203 F 
ATOM    102  F   UNL     1       7.029 -10.922  13.840  1.00  0.00    -0.200 F 
ATOM    103  C   UNL     1       6.451  -9.381  15.533  1.00  0.00     0.200 A 
ATOM    104  F   UNL     1       5.856  -7.807  17.189  1.00  0.00    -0.200 F 
ATOM    105  F   UNL     1       6.582 -10.334  16.465  1.00  0.00    -0.200 F 
ENDBRANCH  72  95
ENDBRANCH  46  47
ENDBRANCH  39  41
ENDBRANCH  38  39
ENDBRANCH  37  38
ENDBRANCH  36  37
ENDBRANCH  35  36
ENDBRANCH  34  35
ENDBRANCH  33  34
ENDBRANCH  32  33
ENDBRANCH   1  32
TORSDOF 24
