REMARK SMILES COc1cc(NS(=O)(=O)c2ccc(F)cc2)c(C(=O)OCCOCCOCCOCCOC(=O)c2ccc(-c3c4nc(c(-c5c(F)c(F)c(F)c(F)c5F)c5ccc([nH]5)c(-c5c(F)c(F)c(F)c(F)c5F)c5nc(c(-c6c(F)c(F)c(F)c(F)c6F)c6ccc3[nH]6)C=C5)C=C4)cc2)cc1OC
REMARK SMILES IDX 25 1 24 2 23 3 22 4 21 5 20 6 18 7 19 8 17 9 3 10 4 11 99 12
REMARK SMILES IDX 5 13 98 14 2 15 1 16 100 17 101 18 6 19 7 21 8 22 9 23 10 24
REMARK SMILES IDX 11 25 16 26 12 27 15 28 13 29 14 30 26 31 27 32 28 33 29 34
REMARK SMILES IDX 30 35 31 36 32 37 33 38 34 39 35 40 36 41 97 42 37 43 96 44
REMARK SMILES IDX 38 45 39 46 40 47 90 48 41 49 95 50 89 51 91 52 42 53 94 54
REMARK SMILES IDX 88 55 87 56 43 58 75 59 55 60 74 61 56 62 59 63 73 64 92 65
REMARK SMILES IDX 57 66 58 67 72 69 93 70 60 71 44 72 45 73 53 74 46 75 47 76
REMARK SMILES IDX 51 77 54 78 48 79 49 80 52 81 50 82 76 83 77 84 85 85 78 86
REMARK SMILES IDX 79 87 83 88 86 89 80 90 81 91 84 92 82 93 61 94 62 95 70 96
REMARK SMILES IDX 63 97 64 98 68 99 71 100 65 101 66 102 69 103 67 104
REMARK H PARENT 6 20 91 57 59 68
REMARK Flexibility Score: inf
ROOT
ATOM      1  C   UNL     1       2.730   5.294  -4.751  1.00  0.00     0.188 C 
ENDROOT
BRANCH   1   2
ATOM      2  C   UNL     1       1.788   6.500  -4.609  1.00  0.00     0.188 C 
BRANCH   2   3
ATOM      3  O   UNL     1       2.484   7.726  -4.369  1.00  0.00    -0.376 OA
BRANCH   3   4
ATOM      4  C   UNL     1       2.404   8.241  -3.045  1.00  0.00     0.202 C 
BRANCH   4   5
ATOM      5  C   UNL     1       3.304   7.543  -2.018  1.00  0.00     0.261 C 
BRANCH   5   6
ATOM      6  O   UNL     1       3.026   6.154  -1.789  1.00  0.00    -0.460 OA
BRANCH   6   7
ATOM      7  C   UNL     1       1.804   5.804  -1.341  1.00  0.00     0.340 C 
ATOM      8  O   UNL     1       0.871   6.542  -1.073  1.00  0.00    -0.246 OA
BRANCH   7   9
ATOM      9  C   UNL     1       1.707   4.330  -1.387  1.00  0.00     0.088 A 
ATOM     10  C   UNL     1       1.606   1.552  -1.435  1.00  0.00     0.162 A 
ATOM     11  C   UNL     1       0.555   2.316  -1.967  1.00  0.00     0.078 A 
ATOM     12  C   UNL     1       2.760   2.168  -0.957  1.00  0.00     0.161 A 
ATOM     13  C   UNL     1       0.565   3.711  -1.921  1.00  0.00     0.067 A 
ATOM     14  C   UNL     1       2.802   3.564  -0.948  1.00  0.00     0.068 A 
BRANCH  10  15
ATOM     15  O   UNL     1       1.442   0.192  -1.415  1.00  0.00    -0.493 OA
ATOM     16  C   UNL     1       0.507  -0.190  -0.398  1.00  0.00     0.278 C 
ENDBRANCH  10  15
BRANCH  12  17
ATOM     17  O   UNL     1       3.895   1.593  -0.463  1.00  0.00    -0.493 OA
ATOM     18  C   UNL     1       3.935   0.182  -0.316  1.00  0.00     0.278 C 
ENDBRANCH  12  17
BRANCH  13  19
ATOM     19  N   UNL     1      -0.584   4.493  -2.280  1.00  0.00    -0.279 N 
ATOM     20  H   UNL     1      -0.741   5.324  -1.776  1.00  0.00     0.180 HD
BRANCH  19  21
ATOM     21  S   UNL     1      -1.680   4.107  -3.489  1.00  0.00     0.261 S 
ATOM     22  O   UNL     1      -2.639   5.188  -3.555  1.00  0.00    -0.201 OA
ATOM     23  O   UNL     1      -0.928   3.684  -4.650  1.00  0.00    -0.201 OA
BRANCH  21  24
ATOM     24  C   UNL     1      -2.547   2.694  -2.835  1.00  0.00     0.088 A 
ATOM     25  C   UNL     1      -2.849   2.653  -1.467  1.00  0.00     0.025 A 
ATOM     26  C   UNL     1      -2.698   1.557  -3.641  1.00  0.00     0.025 A 
ATOM     27  C   UNL     1      -3.236   1.444  -0.891  1.00  0.00     0.040 A 
ATOM     28  C   UNL     1      -3.093   0.354  -3.056  1.00  0.00     0.040 A 
ATOM     29  C   UNL     1      -3.338   0.305  -1.686  1.00  0.00     0.123 A 
ATOM     30  F   UNL     1      -3.636  -0.869  -1.113  1.00  0.00    -0.207 F 
ENDBRANCH  21  24
ENDBRANCH  19  21
ENDBRANCH  13  19
ENDBRANCH   7   9
ENDBRANCH   6   7
ENDBRANCH   5   6
ENDBRANCH   4   5
ENDBRANCH   3   4
ENDBRANCH   2   3
ENDBRANCH   1   2
BRANCH   1  31
ATOM     31  O   UNL     1       4.092   5.624  -4.527  1.00  0.00    -0.377 OA
BRANCH  31  32
ATOM     32  C   UNL     1       4.812   6.234  -5.596  1.00  0.00     0.188 C 
BRANCH  32  33
ATOM     33  C   UNL     1       4.089   6.954  -6.755  1.00  0.00     0.188 C 
BRANCH  33  34
ATOM     34  O   UNL     1       3.029   6.202  -7.340  1.00  0.00    -0.376 OA
BRANCH  34  35
ATOM     35  C   UNL     1       3.266   5.654  -8.631  1.00  0.00     0.202 C 
BRANCH  35  36
ATOM     36  C   UNL     1       4.080   4.355  -8.597  1.00  0.00     0.261 C 
BRANCH  36  37
ATOM     37  O   UNL     1       5.434   4.515  -8.143  1.00  0.00    -0.460 OA
BRANCH  37  38
ATOM     38  C   UNL     1       6.225   5.342  -8.859  1.00  0.00     0.338 C 
ATOM     39  O   UNL     1       5.956   5.917  -9.897  1.00  0.00    -0.246 OA
BRANCH  38  40
ATOM     40  C   UNL     1       7.446   5.587  -8.071  1.00  0.00     0.060 A 
ATOM     41  C   UNL     1       7.817   6.909  -7.796  1.00  0.00     0.016 A 
ATOM     42  C   UNL     1       8.223   4.518  -7.617  1.00  0.00     0.016 A 
ATOM     43  C   UNL     1       8.998   7.167  -7.102  1.00  0.00     0.010 A 
ATOM     44  C   UNL     1       9.413   4.777  -6.939  1.00  0.00     0.010 A 
ATOM     45  C   UNL     1       9.822   6.102  -6.712  1.00  0.00    -0.014 A 
BRANCH  45  46
ATOM     46  C   UNL     1      11.207   6.368  -6.262  1.00  0.00     0.031 A 
ATOM     47  C   UNL     1      12.302   6.346  -7.291  1.00  0.00     0.074 A 
ATOM     48  C   UNL     1      11.488   6.613  -4.971  1.00  0.00     0.049 A 
ATOM     49  N   UNL     1      13.592   6.498  -7.139  1.00  0.00    -0.248 NA
ATOM     50  C   UNL     1      11.882   6.117  -8.684  1.00  0.00     0.031 C 
ATOM     51  C   UNL     1      10.510   6.684  -3.890  1.00  0.00     0.029 A 
ATOM     52  N   UNL     1      12.694   6.836  -4.355  1.00  0.00    -0.354 N 
ATOM     53  C   UNL     1      14.134   6.386  -8.412  1.00  0.00     0.074 A 
ATOM     54  C   UNL     1      13.042   6.123  -9.322  1.00  0.00     0.031 C 
ATOM     55  C   UNL     1      11.157   6.918  -2.734  1.00  0.00     0.029 A 
ATOM     56  C   UNL     1      12.594   6.988  -2.994  1.00  0.00     0.049 A 
ATOM     57  H   UNL     1      13.548   6.882  -4.841  1.00  0.00     0.167 HD
ATOM     58  C   UNL     1      15.428   6.501  -8.789  1.00  0.00     0.037 A 
ATOM     59  C   UNL     1      13.561   7.146  -2.069  1.00  0.00     0.037 A 
ATOM     60  C   UNL     1      16.516   6.749  -7.883  1.00  0.00     0.049 A 
ATOM     61  C   UNL     1      15.003   7.200  -2.507  1.00  0.00     0.074 A 
ATOM     62  C   UNL     1      17.862   6.894  -8.168  1.00  0.00     0.029 A 
ATOM     63  N   UNL     1      16.379   6.879  -6.509  1.00  0.00    -0.354 N 
ATOM     64  N   UNL     1      15.506   7.130  -3.716  1.00  0.00    -0.248 NA
ATOM     65  C   UNL     1      16.012   7.356  -1.449  1.00  0.00     0.031 C 
ATOM     66  C   UNL     1      18.546   7.068  -6.960  1.00  0.00     0.029 A 
ATOM     67  C   UNL     1      17.620   7.079  -5.929  1.00  0.00     0.049 A 
ATOM     68  H   UNL     1      15.526   6.835  -6.019  1.00  0.00     0.167 HD
ATOM     69  C   UNL     1      16.881   7.264  -3.567  1.00  0.00     0.074 A 
ATOM     70  C   UNL     1      17.134   7.428  -2.151  1.00  0.00     0.031 C 
ATOM     71  C   UNL     1      17.849   7.253  -4.518  1.00  0.00     0.037 A 
BRANCH  58  72
ATOM     72  C   UNL     1      15.736   6.336 -10.246  1.00  0.00     0.064 A 
ATOM     73  C   UNL     1      15.398   7.324 -11.183  1.00  0.00     0.173 A 
ATOM     74  C   UNL     1      16.392   5.186 -10.709  1.00  0.00     0.173 A 
ATOM     75  F   UNL     1      14.752   8.432 -10.792  1.00  0.00    -0.203 F 
ATOM     76  C   UNL     1      15.688   7.156 -12.534  1.00  0.00     0.198 A 
ATOM     77  C   UNL     1      16.703   5.034 -12.057  1.00  0.00     0.198 A 
ATOM     78  F   UNL     1      16.734   4.212  -9.852  1.00  0.00    -0.203 F 
ATOM     79  F   UNL     1      15.318   8.093 -13.419  1.00  0.00    -0.200 F 
ATOM     80  C   UNL     1      16.346   6.015 -12.969  1.00  0.00     0.200 A 
ATOM     81  F   UNL     1      17.345   3.934 -12.474  1.00  0.00    -0.200 F 
ATOM     82  F   UNL     1      16.628   5.857 -14.269  1.00  0.00    -0.200 F 
ENDBRANCH  58  72
BRANCH  59  83
ATOM     83  C   UNL     1      13.205   7.256  -0.631  1.00  0.00     0.064 A 
ATOM     84  C   UNL     1      13.375   8.461   0.065  1.00  0.00     0.173 A 
ATOM     85  C   UNL     1      12.717   6.152   0.084  1.00  0.00     0.173 A 
ATOM     86  F   UNL     1      13.866   9.536  -0.569  1.00  0.00    -0.203 F 
ATOM     87  C   UNL     1      13.089   8.553   1.425  1.00  0.00     0.198 A 
ATOM     88  C   UNL     1      12.408   6.252   1.438  1.00  0.00     0.198 A 
ATOM     89  F   UNL     1      12.543   4.975  -0.535  1.00  0.00    -0.203 F 
ATOM     90  F   UNL     1      13.308   9.703   2.077  1.00  0.00    -0.200 F 
ATOM     91  C   UNL     1      12.602   7.449   2.110  1.00  0.00     0.200 A 
ATOM     92  F   UNL     1      11.931   5.186   2.095  1.00  0.00    -0.200 F 
ATOM     93  F   UNL     1      12.330   7.537   3.419  1.00  0.00    -0.200 F 
ENDBRANCH  59  83
BRANCH  71  94
ATOM     94  C   UNL     1      19.264   7.461  -4.066  1.00  0.00     0.064 A 
ATOM     95  C   UNL     1      19.975   6.459  -3.391  1.00  0.00     0.173 A 
ATOM     96  C   UNL     1      19.933   8.659  -4.359  1.00  0.00     0.173 A 
ATOM     97  F   UNL     1      19.376   5.301  -3.075  1.00  0.00    -0.203 F 
ATOM     98  C   UNL     1      21.299   6.657  -3.008  1.00  0.00     0.198 A 
ATOM     99  C   UNL     1      21.264   8.843  -3.999  1.00  0.00     0.198 A 
ATOM    100  F   UNL     1      19.298   9.646  -5.011  1.00  0.00    -0.203 F 
ATOM    101  F   UNL     1      21.949   5.701  -2.329  1.00  0.00    -0.200 F 
ATOM    102  C   UNL     1      21.945   7.845  -3.319  1.00  0.00     0.200 A 
ATOM    103  F   UNL     1      21.890   9.986  -4.312  1.00  0.00    -0.200 F 
ATOM    104  F   UNL     1      23.222   8.030  -2.958  1.00  0.00    -0.200 F 
ENDBRANCH  71  94
ENDBRANCH  45  46
ENDBRANCH  38  40
ENDBRANCH  37  38
ENDBRANCH  36  37
ENDBRANCH  35  36
ENDBRANCH  34  35
ENDBRANCH  33  34
ENDBRANCH  32  33
ENDBRANCH  31  32
ENDBRANCH   1  31
TORSDOF 25
