REMARK SMILES C[C@@H]1CN(S(=O)(=O)c2ccc(Cl)c(C(=O)OCCOCCOCCOCCOC(=O)c3ccc(-c4c5nc(c(-c6c(F)c(F)c(F)c(F)c6F)c6ccc([nH]6)c(-c6c(F)c(F)c(F)c(F)c6F)c6nc(c(-c7c(F)c(F)c(F)c(F)c7F)c7ccc4[nH]7)C=C6)C=C5)cc3)c2Cl)C[C@H]1C
REMARK SMILES IDX 22 1 21 2 20 3 19 4 18 5 17 6 16 7 14 8 15 9 13 10 8 11 9 12
REMARK SMILES IDX 94 13 10 14 95 15 11 16 12 17 5 18 6 19 7 20 4 21 1 22 2 23
REMARK SMILES IDX 3 24 97 25 96 26 98 27 23 28 24 29 25 30 26 31 27 32 28 33
REMARK SMILES IDX 29 34 30 35 31 36 32 37 93 38 33 39 92 40 34 41 35 42 36 43
REMARK SMILES IDX 86 44 37 45 91 46 85 47 87 48 38 49 90 50 84 51 83 52 39 54
REMARK SMILES IDX 71 55 51 56 70 57 52 58 55 59 69 60 88 61 53 62 54 63 68 65
REMARK SMILES IDX 89 66 56 67 40 68 41 69 49 70 42 71 43 72 47 73 50 74 44 75
REMARK SMILES IDX 45 76 48 77 46 78 72 79 73 80 81 81 74 82 75 83 79 84 82 85
REMARK SMILES IDX 76 86 77 87 80 88 78 89 57 90 58 91 66 92 59 93 60 94 64 95
REMARK SMILES IDX 67 96 61 97 62 98 65 99 63 100
REMARK H PARENT 87 53 55 64
REMARK Flexibility Score: inf
ROOT
ATOM      1  O   UNL     1       0.750   6.166   9.051  1.00  0.00    -0.377 OA
ENDROOT
BRANCH   1   2
ATOM      2  C   UNL     1       0.717   4.748   8.996  1.00  0.00     0.188 C 
BRANCH   2   3
ATOM      3  C   UNL     1       1.730   3.942   9.835  1.00  0.00     0.188 C 
BRANCH   3   4
ATOM      4  O   UNL     1       2.569   4.739  10.666  1.00  0.00    -0.376 OA
BRANCH   4   5
ATOM      5  C   UNL     1       3.949   4.755  10.325  1.00  0.00     0.202 C 
BRANCH   5   6
ATOM      6  C   UNL     1       4.270   5.541   9.055  1.00  0.00     0.261 C 
BRANCH   6   7
ATOM      7  O   UNL     1       3.501   5.085   7.933  1.00  0.00    -0.460 OA
BRANCH   7   8
ATOM      8  C   UNL     1       4.020   4.146   7.115  1.00  0.00     0.341 C 
ATOM      9  O   UNL     1       5.103   3.601   7.213  1.00  0.00    -0.246 OA
BRANCH   8  10
ATOM     10  C   UNL     1       2.967   3.845   6.115  1.00  0.00     0.098 A 
ATOM     11  C   UNL     1       1.278   2.362   5.192  1.00  0.00     0.102 A 
ATOM     12  C   UNL     1       0.755   3.446   4.464  1.00  0.00     0.025 A 
ATOM     13  C   UNL     1       2.387   2.554   6.034  1.00  0.00     0.077 A 
ATOM     14  C   UNL     1       1.365   4.696   4.508  1.00  0.00     0.023 A 
ATOM     15  Cl  UNL     1       3.059   1.271   6.983  1.00  0.00    -0.082 Cl
ATOM     16  C   UNL     1       2.475   4.897   5.323  1.00  0.00     0.057 A 
ATOM     17  Cl  UNL     1       3.194   6.471   5.281  1.00  0.00    -0.083 Cl
BRANCH  11  18
ATOM     18  S   UNL     1       0.392   0.816   5.025  1.00  0.00     0.244 S 
ATOM     19  O   UNL     1      -0.952   1.136   4.583  1.00  0.00    -0.207 OA
ATOM     20  O   UNL     1       0.578   0.007   6.206  1.00  0.00    -0.207 OA
BRANCH  18  21
ATOM     21  N   UNL     1       1.177   0.064   3.715  1.00  0.00    -0.197 NA
ATOM     22  C   UNL     1       0.907  -0.075  -0.009  1.00  0.00     0.009 C 
ATOM     23  C   UNL     1       0.490  -0.311   1.435  1.00  0.00     0.005 C 
ATOM     24  C   UNL     1       1.081   0.730   2.384  1.00  0.00     0.106 C 
ATOM     25  C   UNL     1       0.992  -1.626   2.027  1.00  0.00     0.005 C 
ATOM     26  C   UNL     1       0.827  -1.377   3.529  1.00  0.00     0.106 C 
ATOM     27  C   UNL     1       0.216  -2.842   1.543  1.00  0.00     0.009 C 
ENDBRANCH  18  21
ENDBRANCH  11  18
ENDBRANCH   8  10
ENDBRANCH   7   8
ENDBRANCH   6   7
ENDBRANCH   5   6
ENDBRANCH   4   5
ENDBRANCH   3   4
ENDBRANCH   2   3
ENDBRANCH   1   2
BRANCH   1  28
ATOM     28  C   UNL     1       0.798   6.820  10.315  1.00  0.00     0.188 C 
BRANCH  28  29
ATOM     29  C   UNL     1       0.252   6.144  11.591  1.00  0.00     0.188 C 
BRANCH  29  30
ATOM     30  O   UNL     1      -0.583   5.019  11.358  1.00  0.00    -0.376 OA
BRANCH  30  31
ATOM     31  C   UNL     1      -1.965   5.187  11.632  1.00  0.00     0.202 C 
BRANCH  31  32
ATOM     32  C   UNL     1      -2.706   6.059  10.612  1.00  0.00     0.261 C 
BRANCH  32  33
ATOM     33  O   UNL     1      -2.255   7.421  10.537  1.00  0.00    -0.460 OA
BRANCH  33  34
ATOM     34  C   UNL     1      -2.375   8.173  11.653  1.00  0.00     0.338 C 
ATOM     35  O   UNL     1      -2.856   7.848  12.722  1.00  0.00    -0.246 OA
BRANCH  34  36
ATOM     36  C   UNL     1      -1.654   9.437  11.414  1.00  0.00     0.060 A 
ATOM     37  C   UNL     1      -0.596   9.788  12.262  1.00  0.00     0.016 A 
ATOM     38  C   UNL     1      -2.022  10.265  10.352  1.00  0.00     0.016 A 
ATOM     39  C   UNL     1       0.080  10.993  12.065  1.00  0.00     0.010 A 
ATOM     40  C   UNL     1      -1.359  11.478  10.168  1.00  0.00     0.010 A 
ATOM     41  C   UNL     1      -0.327  11.861  11.043  1.00  0.00    -0.014 A 
BRANCH  41  42
ATOM     42  C   UNL     1       0.180  13.253  11.009  1.00  0.00     0.031 A 
ATOM     43  C   UNL     1      -0.646  14.324  11.664  1.00  0.00     0.074 A 
ATOM     44  C   UNL     1       1.345  13.562  10.415  1.00  0.00     0.049 A 
ATOM     45  N   UNL     1      -0.445  15.615  11.722  1.00  0.00    -0.248 NA
ATOM     46  C   UNL     1      -1.873  13.873  12.343  1.00  0.00     0.031 C 
ATOM     47  C   UNL     1       2.250  12.609   9.778  1.00  0.00     0.029 A 
ATOM     48  N   UNL     1       1.958  14.779  10.246  1.00  0.00    -0.354 N 
ATOM     49  C   UNL     1      -1.516  16.129  12.441  1.00  0.00     0.074 A 
ATOM     50  C   UNL     1      -2.383  15.018  12.769  1.00  0.00     0.031 C 
ATOM     51  C   UNL     1       3.301  13.280   9.274  1.00  0.00     0.029 A 
ATOM     52  C   UNL     1       3.126  14.710   9.527  1.00  0.00     0.049 A 
ATOM     53  H   UNL     1       1.596  15.620  10.605  1.00  0.00     0.167 HD
ATOM     54  C   UNL     1      -1.751  17.412  12.803  1.00  0.00     0.037 A 
ATOM     55  C   UNL     1       3.943  15.695   9.105  1.00  0.00     0.037 A 
ATOM     56  C   UNL     1      -0.893  18.516  12.467  1.00  0.00     0.049 A 
ATOM     57  C   UNL     1       3.616  17.127   9.451  1.00  0.00     0.074 A 
ATOM     58  C   UNL     1      -1.035  19.851  12.800  1.00  0.00     0.029 A 
ATOM     59  N   UNL     1       0.263  18.413  11.708  1.00  0.00    -0.354 N 
ATOM     60  N   UNL     1       2.620  17.604  10.158  1.00  0.00    -0.248 NA
ATOM     61  C   UNL     1       4.531  18.158   8.938  1.00  0.00     0.031 C 
ATOM     62  C   UNL     1       0.007  20.564  12.197  1.00  0.00     0.029 A 
ATOM     63  C   UNL     1       0.829  19.665  11.537  1.00  0.00     0.049 A 
ATOM     64  H   UNL     1       0.627  17.573  11.345  1.00  0.00     0.167 HD
ATOM     65  C   UNL     1       2.803  18.981  10.199  1.00  0.00     0.074 A 
ATOM     66  C   UNL     1       4.014  19.263   9.457  1.00  0.00     0.031 C 
ATOM     67  C   UNL     1       2.039  19.928  10.799  1.00  0.00     0.037 A 
BRANCH  54  68
ATOM     68  C   UNL     1      -3.004  17.688  13.580  1.00  0.00     0.064 A 
ATOM     69  C   UNL     1      -3.152  17.274  14.912  1.00  0.00     0.173 A 
ATOM     70  C   UNL     1      -4.065  18.391  12.989  1.00  0.00     0.173 A 
ATOM     71  F   UNL     1      -2.174  16.583  15.518  1.00  0.00    -0.203 F 
ATOM     72  C   UNL     1      -4.327  17.528  15.615  1.00  0.00     0.198 A 
ATOM     73  C   UNL     1      -5.226  18.669  13.704  1.00  0.00     0.198 A 
ATOM     74  F   UNL     1      -3.974  18.810  11.718  1.00  0.00    -0.203 F 
ATOM     75  F   UNL     1      -4.467  17.077  16.869  1.00  0.00    -0.200 F 
ATOM     76  C   UNL     1      -5.360  18.231  15.013  1.00  0.00     0.200 A 
ATOM     77  F   UNL     1      -6.219  19.358  13.124  1.00  0.00    -0.200 F 
ATOM     78  F   UNL     1      -6.489  18.478  15.691  1.00  0.00    -0.200 F 
ENDBRANCH  54  68
BRANCH  55  79
ATOM     79  C   UNL     1       5.148  15.369   8.297  1.00  0.00     0.064 A 
ATOM     80  C   UNL     1       6.437  15.561   8.812  1.00  0.00     0.173 A 
ATOM     81  C   UNL     1       5.035  14.886   6.985  1.00  0.00     0.173 A 
ATOM     82  F   UNL     1       6.598  16.050  10.050  1.00  0.00    -0.203 F 
ATOM     83  C   UNL     1       7.567  15.300   8.039  1.00  0.00     0.198 A 
ATOM     84  C   UNL     1       6.166  14.598   6.223  1.00  0.00     0.198 A 
ATOM     85  F   UNL     1       3.824  14.693   6.442  1.00  0.00    -0.203 F 
ATOM     86  F   UNL     1       8.788  15.540   8.538  1.00  0.00    -0.200 F 
ATOM     87  C   UNL     1       7.431  14.813   6.748  1.00  0.00     0.200 A 
ATOM     88  F   UNL     1       6.029  14.121   4.979  1.00  0.00    -0.200 F 
ATOM     89  F   UNL     1       8.518  14.562   6.006  1.00  0.00    -0.200 F 
ENDBRANCH  55  79
BRANCH  67  90
ATOM     90  C   UNL     1       2.503  21.354  10.708  1.00  0.00     0.064 A 
ATOM     91  C   UNL     1       2.437  22.076   9.508  1.00  0.00     0.173 A 
ATOM     92  C   UNL     1       2.976  22.020  11.850  1.00  0.00     0.173 A 
ATOM     93  F   UNL     1       2.005  21.483   8.385  1.00  0.00    -0.203 F 
ATOM     94  C   UNL     1       2.850  23.405   9.449  1.00  0.00     0.198 A 
ATOM     95  C   UNL     1       3.358  23.357  11.794  1.00  0.00     0.198 A 
ATOM     96  F   UNL     1       3.052  21.377  13.025  1.00  0.00    -0.203 F 
ATOM     97  F   UNL     1       2.822  24.062   8.281  1.00  0.00    -0.200 F 
ATOM     98  C   UNL     1       3.302  24.046  10.593  1.00  0.00     0.200 A 
ATOM     99  F   UNL     1       3.780  23.979  12.904  1.00  0.00    -0.200 F 
ATOM    100  F   UNL     1       3.690  25.328  10.536  1.00  0.00    -0.200 F 
ENDBRANCH  67  90
ENDBRANCH  41  42
ENDBRANCH  34  36
ENDBRANCH  33  34
ENDBRANCH  32  33
ENDBRANCH  31  32
ENDBRANCH  30  31
ENDBRANCH  29  30
ENDBRANCH  28  29
ENDBRANCH   1  28
TORSDOF 22
