REMARK SMILES CCC(CC)(C(=O)OCCOCCOCCOCCOC(=O)c1ccc(-c2c3nc(c(-c4c(F)c(F)c(F)c(F)c4F)c4ccc([nH]4)c(-c4c(F)c(F)c(F)c(F)c4F)c4nc(c(-c5c(F)c(F)c(F)c(F)c5F)c5ccc2[nH]5)C=C4)C=C3)cc1)n1nnnc1CC[C@@H]1CCCO1
REMARK SMILES IDX 13 1 12 2 11 3 10 4 9 5 8 6 6 7 7 8 3 9 2 10 1 11 4 12 5 13
REMARK SMILES IDX 86 14 87 15 90 16 88 17 89 18 91 19 92 20 93 21 94 22 97 23
REMARK SMILES IDX 95 24 96 25 14 26 15 27 16 28 17 29 18 30 19 31 20 32 21 33
REMARK SMILES IDX 22 34 23 35 24 36 85 37 25 38 84 39 26 40 27 41 28 42 78 43
REMARK SMILES IDX 29 44 83 45 77 46 79 47 30 48 82 49 76 50 75 51 31 53 63 54
REMARK SMILES IDX 43 55 62 56 44 57 47 58 61 59 80 60 45 61 46 62 60 64 81 65
REMARK SMILES IDX 48 66 32 67 33 68 41 69 34 70 35 71 39 72 42 73 36 74 37 75
REMARK SMILES IDX 40 76 38 77 64 78 65 79 73 80 66 81 67 82 71 83 74 84 68 85
REMARK SMILES IDX 69 86 72 87 70 88 49 89 50 90 58 91 51 92 52 93 56 94 59 95
REMARK SMILES IDX 53 96 54 97 57 98 55 99
REMARK H PARENT 79 52 47 63
REMARK Flexibility Score: inf
ROOT
ATOM      1  C   UNL     1       1.055   4.264   1.394  1.00  0.00     0.188 C 
ENDROOT
BRANCH   1   2
ATOM      2  C   UNL     1       1.449   5.463   0.523  1.00  0.00     0.188 C 
BRANCH   2   3
ATOM      3  O   UNL     1       0.483   6.484   0.433  1.00  0.00    -0.376 OA
BRANCH   3   4
ATOM      4  C   UNL     1      -0.529   6.434  -0.556  1.00  0.00     0.202 C 
BRANCH   4   5
ATOM      5  C   UNL     1      -0.836   5.239  -1.485  1.00  0.00     0.261 C 
BRANCH   5   6
ATOM      6  O   UNL     1      -0.411   3.928  -1.085  1.00  0.00    -0.461 OA
BRANCH   6   7
ATOM      7  C   UNL     1       0.474   3.301  -1.907  1.00  0.00     0.334 C 
ATOM      8  O   UNL     1       0.902   3.818  -2.938  1.00  0.00    -0.249 OA
BRANCH   7   9
ATOM      9  C   UNL     1       0.839   1.832  -1.486  1.00  0.00     0.163 C 
BRANCH   9  10
ATOM     10  C   UNL     1       0.092   1.340  -0.195  1.00  0.00     0.039 C 
ATOM     11  C   UNL     1      -0.015  -0.160   0.081  1.00  0.00     0.007 C 
ENDBRANCH   9  10
BRANCH   9  12
ATOM     12  C   UNL     1       0.390   1.027  -2.744  1.00  0.00     0.039 C 
ATOM     13  C   UNL     1      -1.127   1.043  -2.966  1.00  0.00     0.007 C 
ENDBRANCH   9  12
BRANCH   9  14
ATOM     14  N   UNL     1       2.302   1.808  -1.280  1.00  0.00    -0.212 N 
ATOM     15  N   UNL     1       2.954   2.975  -1.054  1.00  0.00    -0.044 NA
ATOM     16  C   UNL     1       3.216   0.789  -1.106  1.00  0.00     0.152 A 
ATOM     17  N   UNL     1       4.190   2.668  -0.717  1.00  0.00    -0.024 NA
ATOM     18  N   UNL     1       4.361   1.323  -0.722  1.00  0.00    -0.114 NA
BRANCH  16  19
ATOM     19  C   UNL     1       3.017  -0.669  -1.250  1.00  0.00     0.082 C 
BRANCH  19  20
ATOM     20  C   UNL     1       3.686  -1.262  -2.484  1.00  0.00     0.040 C 
BRANCH  20  21
ATOM     21  C   UNL     1       5.213  -1.153  -2.498  1.00  0.00     0.118 C 
ATOM     22  C   UNL     1       5.754   0.012  -3.319  1.00  0.00     0.034 C 
ATOM     23  O   UNL     1       5.730  -2.350  -3.119  1.00  0.00    -0.378 OA
ATOM     24  C   UNL     1       7.065  -0.535  -3.824  1.00  0.00     0.031 C 
ATOM     25  C   UNL     1       6.717  -1.981  -4.087  1.00  0.00     0.160 C 
ENDBRANCH  20  21
ENDBRANCH  19  20
ENDBRANCH  16  19
ENDBRANCH   9  14
ENDBRANCH   7   9
ENDBRANCH   6   7
ENDBRANCH   5   6
ENDBRANCH   4   5
ENDBRANCH   3   4
ENDBRANCH   2   3
ENDBRANCH   1   2
BRANCH   1  26
ATOM     26  O   UNL     1      -0.327   3.967   1.528  1.00  0.00    -0.377 OA
BRANCH  26  27
ATOM     27  C   UNL     1      -1.161   4.831   2.294  1.00  0.00     0.188 C 
BRANCH  27  28
ATOM     28  C   UNL     1      -0.560   5.984   3.122  1.00  0.00     0.188 C 
BRANCH  28  29
ATOM     29  O   UNL     1       0.759   5.769   3.583  1.00  0.00    -0.376 OA
BRANCH  29  30
ATOM     30  C   UNL     1       0.962   5.197   4.865  1.00  0.00     0.202 C 
BRANCH  30  31
ATOM     31  C   UNL     1       0.306   3.843   5.182  1.00  0.00     0.261 C 
BRANCH  31  32
ATOM     32  O   UNL     1      -1.128   3.786   5.104  1.00  0.00    -0.460 OA
BRANCH  32  33
ATOM     33  C   UNL     1      -1.842   4.671   5.833  1.00  0.00     0.338 C 
ATOM     34  O   UNL     1      -1.427   5.489   6.624  1.00  0.00    -0.246 OA
BRANCH  33  35
ATOM     35  C   UNL     1      -3.241   4.604   5.356  1.00  0.00     0.060 A 
ATOM     36  C   UNL     1      -3.819   5.746   4.785  1.00  0.00     0.016 A 
ATOM     37  C   UNL     1      -3.977   3.426   5.486  1.00  0.00     0.016 A 
ATOM     38  C   UNL     1      -5.152   5.724   4.377  1.00  0.00     0.010 A 
ATOM     39  C   UNL     1      -5.319   3.412   5.100  1.00  0.00     0.010 A 
ATOM     40  C   UNL     1      -5.922   4.572   4.580  1.00  0.00    -0.014 A 
BRANCH  40  41
ATOM     41  C   UNL     1      -7.396   4.649   4.456  1.00  0.00     0.031 A 
ATOM     42  C   UNL     1      -8.205   4.841   5.710  1.00  0.00     0.074 A 
ATOM     43  C   UNL     1      -8.006   4.578   3.260  1.00  0.00     0.049 A 
ATOM     44  N   UNL     1      -9.503   4.880   5.868  1.00  0.00    -0.248 NA
ATOM     45  C   UNL     1      -7.440   5.008   6.957  1.00  0.00     0.031 C 
ATOM     46  C   UNL     1      -7.328   4.449   1.973  1.00  0.00     0.029 A 
ATOM     47  N   UNL     1      -9.341   4.597   2.941  1.00  0.00    -0.354 N 
ATOM     48  C   UNL     1      -9.709   5.064   7.230  1.00  0.00     0.074 A 
ATOM     49  C   UNL     1      -8.406   5.096   7.857  1.00  0.00     0.031 C 
ATOM     50  C   UNL     1      -8.254   4.387   1.000  1.00  0.00     0.029 A 
ATOM     51  C   UNL     1      -9.587   4.434   1.601  1.00  0.00     0.049 A 
ATOM     52  H   UNL     1     -10.053   4.716   3.610  1.00  0.00     0.167 HD
ATOM     53  C   UNL     1     -10.880   5.199   7.895  1.00  0.00     0.037 A 
ATOM     54  C   UNL     1     -10.757   4.310   0.943  1.00  0.00     0.037 A 
ATOM     55  C   UNL     1     -12.173   5.164   7.265  1.00  0.00     0.049 A 
ATOM     56  C   UNL     1     -12.050   4.377   1.718  1.00  0.00     0.074 A 
ATOM     57  C   UNL     1     -13.420   5.310   7.845  1.00  0.00     0.029 A 
ATOM     58  N   UNL     1     -12.384   4.956   5.909  1.00  0.00    -0.354 N 
ATOM     59  N   UNL     1     -12.240   4.572   3.001  1.00  0.00    -0.248 NA
ATOM     60  C   UNL     1     -13.292   4.207   0.951  1.00  0.00     0.031 C 
ATOM     61  C   UNL     1     -14.387   5.122   6.854  1.00  0.00     0.029 A 
ATOM     62  C   UNL     1     -13.744   4.935   5.641  1.00  0.00     0.049 A 
ATOM     63  H   UNL     1     -11.674   4.841   5.237  1.00  0.00     0.167 HD
ATOM     64  C   UNL     1     -13.618   4.586   3.188  1.00  0.00     0.074 A 
ATOM     65  C   UNL     1     -14.215   4.390   1.884  1.00  0.00     0.031 C 
ATOM     66  C   UNL     1     -14.324   4.748   4.335  1.00  0.00     0.037 A 
BRANCH  53  67
ATOM     67  C   UNL     1     -10.816   5.356   9.387  1.00  0.00     0.064 A 
ATOM     68  C   UNL     1     -10.305   6.514   9.993  1.00  0.00     0.173 A 
ATOM     69  C   UNL     1     -11.296   4.337  10.225  1.00  0.00     0.173 A 
ATOM     70  F   UNL     1      -9.818   7.512   9.239  1.00  0.00    -0.203 F 
ATOM     71  C   UNL     1     -10.247   6.633  11.380  1.00  0.00     0.198 A 
ATOM     72  C   UNL     1     -11.270   4.474  11.610  1.00  0.00     0.198 A 
ATOM     73  F   UNL     1     -11.797   3.209   9.700  1.00  0.00    -0.203 F 
ATOM     74  F   UNL     1      -9.703   7.724  11.935  1.00  0.00    -0.200 F 
ATOM     75  C   UNL     1     -10.737   5.617  12.187  1.00  0.00     0.200 A 
ATOM     76  F   UNL     1     -11.757   3.497  12.387  1.00  0.00    -0.200 F 
ATOM     77  F   UNL     1     -10.688   5.735  13.521  1.00  0.00    -0.200 F 
ENDBRANCH  53  67
BRANCH  54  78
ATOM     78  C   UNL     1     -10.766   4.094  -0.529  1.00  0.00     0.064 A 
ATOM     79  C   UNL     1     -11.287   5.062  -1.400  1.00  0.00     0.173 A 
ATOM     80  C   UNL     1     -10.278   2.906  -1.094  1.00  0.00     0.173 A 
ATOM     81  F   UNL     1     -11.790   6.204  -0.908  1.00  0.00    -0.203 F 
ATOM     82  C   UNL     1     -11.338   4.841  -2.775  1.00  0.00     0.198 A 
ATOM     83  C   UNL     1     -10.299   2.701  -2.472  1.00  0.00     0.198 A 
ATOM     84  F   UNL     1      -9.771   1.946  -0.307  1.00  0.00    -0.203 F 
ATOM     85  F   UNL     1     -11.889   5.761  -3.579  1.00  0.00    -0.200 F 
ATOM     86  C   UNL     1     -10.838   3.664  -3.311  1.00  0.00     0.200 A 
ATOM     87  F   UNL     1      -9.802   1.568  -2.986  1.00  0.00    -0.200 F 
ATOM     88  F   UNL     1     -10.883   3.454  -4.633  1.00  0.00    -0.200 F 
ENDBRANCH  54  78
BRANCH  66  89
ATOM     89  C   UNL     1     -15.824   4.771   4.229  1.00  0.00     0.064 A 
ATOM     90  C   UNL     1     -16.565   3.621   3.919  1.00  0.00     0.173 A 
ATOM     91  C   UNL     1     -16.533   5.956   4.489  1.00  0.00     0.173 A 
ATOM     92  F   UNL     1     -15.938   2.466   3.650  1.00  0.00    -0.203 F 
ATOM     93  C   UNL     1     -17.956   3.664   3.842  1.00  0.00     0.198 A 
ATOM     94  C   UNL     1     -17.924   5.985   4.449  1.00  0.00     0.198 A 
ATOM     95  F   UNL     1     -15.876   7.083   4.801  1.00  0.00    -0.203 F 
ATOM     96  F   UNL     1     -18.639   2.566   3.490  1.00  0.00    -0.200 F 
ATOM     97  C   UNL     1     -18.634   4.842   4.116  1.00  0.00     0.200 A 
ATOM     98  F   UNL     1     -18.577   7.121   4.732  1.00  0.00    -0.200 F 
ATOM     99  F   UNL     1     -19.972   4.878   4.051  1.00  0.00    -0.200 F 
ENDBRANCH  66  89
ENDBRANCH  40  41
ENDBRANCH  33  35
ENDBRANCH  32  33
ENDBRANCH  31  32
ENDBRANCH  30  31
ENDBRANCH  29  30
ENDBRANCH  28  29
ENDBRANCH  27  28
ENDBRANCH  26  27
ENDBRANCH   1  26
TORSDOF 26
