REMARK SMILES O=C(OCCOCCOCCOCCOC(=O)[C@@H]1CCCN1S(=O)(=O)c1ccc2c3c(cccc13)C(=O)N2)c1ccc(-c2c3nc(c(-c4c(F)c(F)c(F)c(F)c4F)c4ccc([nH]4)c(-c4c(F)c(F)c(F)c(F)c4F)c4nc(c(-c5c(F)c(F)c(F)c(F)c5F)c5ccc2[nH]5)C=C4)C=C3)cc1
REMARK SMILES IDX 9 1 8 2 7 3 6 4 5 5 4 6 3 7 2 8 1 9 39 10 40 11 101 12 41 13
REMARK SMILES IDX 100 14 42 15 43 16 44 17 94 18 45 19 99 20 93 21 95 22 46 23
REMARK SMILES IDX 98 24 92 25 91 26 47 28 79 29 59 30 78 31 60 32 63 33 77 34
REMARK SMILES IDX 96 35 61 36 62 37 76 39 97 40 64 41 48 42 49 43 57 44 50 45
REMARK SMILES IDX 51 46 55 47 58 48 52 49 53 50 56 51 54 52 80 53 81 54 89 55
REMARK SMILES IDX 82 56 83 57 87 58 90 59 84 60 85 61 88 62 86 63 65 64 66 65
REMARK SMILES IDX 74 66 67 67 68 68 72 69 75 70 69 71 70 72 73 73 71 74 10 75
REMARK SMILES IDX 11 76 12 77 13 78 14 79 15 80 16 81 17 82 18 83 19 84 22 85
REMARK SMILES IDX 20 86 21 87 23 88 24 89 25 90 26 91 27 92 35 93 28 94 30 95
REMARK SMILES IDX 34 96 29 97 31 98 33 99 38 100 32 101 36 102 37 104
REMARK H PARENT 95 27 63 38 38 103
REMARK Flexibility Score: inf
ROOT
ATOM      1  O   UNL     1       2.551  -1.303  -3.874  1.00  0.00    -0.377 OA
ENDROOT
BRANCH   1   2
ATOM      2  C   UNL     1       1.680  -1.283  -2.689  1.00  0.00     0.188 C 
BRANCH   2   3
ATOM      3  C   UNL     1       1.929  -0.469  -1.368  1.00  0.00     0.188 C 
BRANCH   3   4
ATOM      4  O   UNL     1       3.192  -0.543  -0.735  1.00  0.00    -0.376 OA
BRANCH   4   5
ATOM      5  C   UNL     1       3.575  -1.687   0.001  1.00  0.00     0.202 C 
BRANCH   5   6
ATOM      6  C   UNL     1       3.756  -1.375   1.484  1.00  0.00     0.261 C 
BRANCH   6   7
ATOM      7  O   UNL     1       2.533  -0.907   2.059  1.00  0.00    -0.460 OA
BRANCH   7   8
ATOM      8  C   UNL     1       1.991   0.330   2.039  1.00  0.00     0.338 C 
ATOM      9  O   UNL     1       0.814   0.431   2.390  1.00  0.00    -0.246 OA
BRANCH   8  10
ATOM     10  C   UNL     1       2.697   1.609   1.677  1.00  0.00     0.060 A 
ATOM     11  C   UNL     1       3.824   1.747   0.869  1.00  0.00     0.016 A 
ATOM     12  C   UNL     1       2.105   2.798   2.150  1.00  0.00     0.016 A 
ATOM     13  C   UNL     1       4.317   3.005   0.508  1.00  0.00     0.010 A 
ATOM     14  C   UNL     1       2.639   4.062   1.857  1.00  0.00     0.010 A 
ATOM     15  C   UNL     1       3.771   4.166   1.048  1.00  0.00    -0.014 A 
BRANCH  15  16
ATOM     16  C   UNL     1       4.594   5.394   1.004  1.00  0.00     0.031 A 
ATOM     17  C   UNL     1       5.668   5.527   2.050  1.00  0.00     0.074 A 
ATOM     18  C   UNL     1       4.498   6.297   0.013  1.00  0.00     0.049 A 
ATOM     19  N   UNL     1       6.513   6.501   2.261  1.00  0.00    -0.248 NA
ATOM     20  C   UNL     1       5.830   4.385   2.970  1.00  0.00     0.031 C 
ATOM     21  C   UNL     1       3.621   6.188  -1.149  1.00  0.00     0.029 A 
ATOM     22  N   UNL     1       5.178   7.474  -0.186  1.00  0.00    -0.354 N 
ATOM     23  C   UNL     1       7.287   6.095   3.338  1.00  0.00     0.074 A 
ATOM     24  C   UNL     1       6.838   4.781   3.729  1.00  0.00     0.031 C 
ATOM     25  C   UNL     1       3.828   7.250  -1.950  1.00  0.00     0.029 A 
ATOM     26  C   UNL     1       4.810   8.141  -1.330  1.00  0.00     0.049 A 
ATOM     27  H   UNL     1       5.865   7.809   0.434  1.00  0.00     0.167 HD
ATOM     28  C   UNL     1       8.272   6.774   3.964  1.00  0.00     0.037 A 
ATOM     29  C   UNL     1       5.208   9.344  -1.797  1.00  0.00     0.037 A 
ATOM     30  C   UNL     1       8.701   8.090   3.587  1.00  0.00     0.049 A 
ATOM     31  C   UNL     1       6.218  10.139  -0.997  1.00  0.00     0.074 A 
ATOM     32  C   UNL     1       9.636   8.897   4.207  1.00  0.00     0.029 A 
ATOM     33  N   UNL     1       8.218   8.792   2.494  1.00  0.00    -0.354 N 
ATOM     34  N   UNL     1       6.896   9.790   0.071  1.00  0.00    -0.248 NA
ATOM     35  C   UNL     1       6.498  11.511  -1.451  1.00  0.00     0.031 C 
ATOM     36  C   UNL     1       9.669  10.117   3.530  1.00  0.00     0.029 A 
ATOM     37  C   UNL     1       8.810  10.041   2.445  1.00  0.00     0.049 A 
ATOM     38  H   UNL     1       7.554   8.453   1.851  1.00  0.00     0.167 HD
ATOM     39  C   UNL     1       7.692  10.881   0.398  1.00  0.00     0.074 A 
ATOM     40  C   UNL     1       7.436  11.898  -0.598  1.00  0.00     0.031 C 
ATOM     41  C   UNL     1       8.547  11.037   1.438  1.00  0.00     0.037 A 
BRANCH  28  42
ATOM     42  C   UNL     1       8.896   6.149   5.172  1.00  0.00     0.064 A 
ATOM     43  C   UNL     1       9.804   5.087   5.075  1.00  0.00     0.173 A 
ATOM     44  C   UNL     1       8.628   6.676   6.445  1.00  0.00     0.173 A 
ATOM     45  F   UNL     1      10.062   4.524   3.884  1.00  0.00    -0.203 F 
ATOM     46  C   UNL     1      10.432   4.582   6.210  1.00  0.00     0.198 A 
ATOM     47  C   UNL     1       9.280   6.190   7.572  1.00  0.00     0.198 A 
ATOM     48  F   UNL     1       7.752   7.683   6.589  1.00  0.00    -0.203 F 
ATOM     49  F   UNL     1      11.280   3.550   6.102  1.00  0.00    -0.200 F 
ATOM     50  C   UNL     1      10.183   5.145   7.454  1.00  0.00     0.200 A 
ATOM     51  F   UNL     1       9.043   6.741   8.771  1.00  0.00    -0.200 F 
ATOM     52  F   UNL     1      10.813   4.678   8.541  1.00  0.00    -0.200 F 
ENDBRANCH  28  42
BRANCH  29  53
ATOM     53  C   UNL     1       4.624   9.910  -3.049  1.00  0.00     0.064 A 
ATOM     54  C   UNL     1       5.431  10.238  -4.149  1.00  0.00     0.173 A 
ATOM     55  C   UNL     1       3.252  10.194  -3.153  1.00  0.00     0.173 A 
ATOM     56  F   UNL     1       6.756  10.034  -4.095  1.00  0.00    -0.203 F 
ATOM     57  C   UNL     1       4.896  10.840  -5.288  1.00  0.00     0.198 A 
ATOM     58  C   UNL     1       2.712  10.757  -4.308  1.00  0.00     0.198 A 
ATOM     59  F   UNL     1       2.428   9.927  -2.128  1.00  0.00    -0.203 F 
ATOM     60  F   UNL     1       5.702  11.203  -6.295  1.00  0.00    -0.200 F 
ATOM     61  C   UNL     1       3.535  11.090  -5.371  1.00  0.00     0.200 A 
ATOM     62  F   UNL     1       1.393  10.986  -4.385  1.00  0.00    -0.200 F 
ATOM     63  F   UNL     1       3.020  11.665  -6.466  1.00  0.00    -0.200 F 
ENDBRANCH  29  53
BRANCH  41  64
ATOM     64  C   UNL     1       9.278  12.343   1.568  1.00  0.00     0.064 A 
ATOM     65  C   UNL     1       8.611  13.519   1.938  1.00  0.00     0.173 A 
ATOM     66  C   UNL     1      10.675  12.395   1.436  1.00  0.00     0.173 A 
ATOM     67  F   UNL     1       7.276  13.524   2.076  1.00  0.00    -0.203 F 
ATOM     68  C   UNL     1       9.312  14.702   2.154  1.00  0.00     0.198 A 
ATOM     69  C   UNL     1      11.377  13.570   1.690  1.00  0.00     0.198 A 
ATOM     70  F   UNL     1      11.366  11.293   1.105  1.00  0.00    -0.203 F 
ATOM     71  F   UNL     1       8.649  15.822   2.474  1.00  0.00    -0.200 F 
ATOM     72  C   UNL     1      10.694  14.723   2.044  1.00  0.00     0.200 A 
ATOM     73  F   UNL     1      12.715  13.580   1.611  1.00  0.00    -0.200 F 
ATOM     74  F   UNL     1      11.369  15.856   2.281  1.00  0.00    -0.200 F 
ENDBRANCH  41  64
ENDBRANCH  15  16
ENDBRANCH   8  10
ENDBRANCH   7   8
ENDBRANCH   6   7
ENDBRANCH   5   6
ENDBRANCH   4   5
ENDBRANCH   3   4
ENDBRANCH   2   3
ENDBRANCH   1   2
BRANCH   1  75
ATOM     75  C   UNL     1       4.031  -1.311  -3.717  1.00  0.00     0.188 C 
BRANCH  75  76
ATOM     76  C   UNL     1       5.404   0.187  -4.202  1.00  0.00     0.188 C 
BRANCH  76  77
ATOM     77  O   UNL     1       4.769   1.981  -3.311  1.00  0.00    -0.376 OA
BRANCH  77  78
ATOM     78  C   UNL     1       3.132   2.667  -3.942  1.00  0.00     0.202 C 
BRANCH  78  79
ATOM     79  C   UNL     1       2.281   1.711  -5.380  1.00  0.00     0.261 C 
BRANCH  79  80
ATOM     80  O   UNL     1       2.771   0.118  -5.772  1.00  0.00    -0.462 OA
BRANCH  80  81
ATOM     81  C   UNL     1       3.813  -0.425  -6.549  1.00  0.00     0.324 C 
ATOM     82  O   UNL     1       4.180   0.175  -7.565  1.00  0.00    -0.250 OA
BRANCH  81  83
ATOM     83  C   UNL     1       4.707  -1.798  -6.029  1.00  0.00     0.183 C 
ATOM     84  C   UNL     1       4.013  -3.169  -6.082  1.00  0.00     0.034 C 
ATOM     85  N   UNL     1       6.068  -2.043  -4.867  1.00  0.00    -0.184 NA
ATOM     86  C   UNL     1       5.050  -4.207  -5.640  1.00  0.00     0.019 C 
ATOM     87  C   UNL     1       6.282  -3.558  -4.980  1.00  0.00     0.103 C 
BRANCH  85  88
ATOM     88  S   UNL     1       6.224  -1.645  -2.785  1.00  0.00     0.244 S 
ATOM     89  O   UNL     1       5.638  -2.772  -2.084  1.00  0.00    -0.207 OA
ATOM     90  O   UNL     1       7.617  -1.298  -2.588  1.00  0.00    -0.207 OA
BRANCH  88  91
ATOM     91  C   UNL     1       4.937   0.233  -2.303  1.00  0.00     0.090 A 
ATOM     92  C   UNL     1       3.759   0.685  -3.726  1.00  0.00     0.024 A 
ATOM     93  C   UNL     1       6.310   1.116  -2.079  1.00  0.00     0.005 A 
ATOM     94  C   UNL     1       4.613   1.753  -5.134  1.00  0.00     0.028 A 
ATOM     95  C   UNL     1       6.820   2.128  -3.187  1.00  0.00     0.019 A 
ATOM     96  C   UNL     1       7.019   1.134  -0.888  1.00  0.00     0.010 A 
ATOM     97  C   UNL     1       6.133   2.454  -4.609  1.00  0.00     0.050 A 
ATOM     98  C   UNL     1       7.364   3.321  -2.719  1.00  0.00     0.050 A 
ATOM     99  C   UNL     1       7.816   2.246  -0.588  1.00  0.00     0.002 A 
ATOM    100  N   UNL     1       6.403   3.829  -4.756  1.00  0.00    -0.321 N 
ATOM    101  C   UNL     1       7.897   3.384  -1.422  1.00  0.00     0.014 A 
ATOM    102  C   UNL     1       7.049   4.413  -3.634  1.00  0.00     0.256 C 
ATOM    103  H   UNL     1       6.165   4.339  -5.564  1.00  0.00     0.170 HD
ATOM    104  O   UNL     1       7.149   5.628  -3.496  1.00  0.00    -0.269 OA
ENDBRANCH  88  91
ENDBRANCH  85  88
ENDBRANCH  81  83
ENDBRANCH  80  81
ENDBRANCH  79  80
ENDBRANCH  78  79
ENDBRANCH  77  78
ENDBRANCH  76  77
ENDBRANCH  75  76
ENDBRANCH   1  75
TORSDOF 22
