REMARK SMILES O=C(NC(C1CC1)C1CC1)N[C@H]1CCCCC[C@H]1C(=O)OCCOCCOCCOCCOC(=O)c1ccc(-c2c3nc(c(-c4c(F)c(F)c(F)c(F)c4F)c4ccc([nH]4)c(-c4c(F)c(F)c(F)c(F)c4F)c4nc(c(-c5c(F)c(F)c(F)c(F)c5F)c5ccc2[nH]5)C=C4)C=C3)cc1
REMARK SMILES IDX 26 1 25 2 24 3 23 4 22 5 21 6 19 7 20 8 18 9 12 10 11 11
REMARK SMILES IDX 1 12 2 13 3 14 4 17 5 18 6 19 7 20 8 21 9 22 10 23 13 24
REMARK SMILES IDX 14 25 17 27 16 28 15 29 27 31 28 32 29 33 30 34 31 35 32 36
REMARK SMILES IDX 33 37 34 38 35 39 36 40 37 41 98 42 38 43 97 44 39 45 40 46
REMARK SMILES IDX 41 47 91 48 42 49 96 50 90 51 92 52 43 53 95 54 89 55 88 56
REMARK SMILES IDX 44 58 76 59 56 60 75 61 57 62 60 63 74 64 93 65 58 66 59 67
REMARK SMILES IDX 73 69 94 70 61 71 45 72 46 73 54 74 47 75 48 76 52 77 55 78
REMARK SMILES IDX 49 79 50 80 53 81 51 82 77 83 78 84 86 85 79 86 80 87 84 88
REMARK SMILES IDX 87 89 81 90 82 91 85 92 83 93 62 94 63 95 71 96 64 97 65 98
REMARK SMILES IDX 69 99 72 100 66 101 67 102 70 103 68 104
REMARK H PARENT 3 15 11 16 92 57 60 68
REMARK Flexibility Score: 100.00
ROOT
ATOM      1  C   UNL     1       1.087  -1.667   2.159  1.00  0.00     0.188 C 
ENDROOT
BRANCH   1   2
ATOM      2  C   UNL     1       0.968  -1.423   0.323  1.00  0.00     0.188 C 
BRANCH   2   3
ATOM      3  O   UNL     1      -0.200  -1.597  -0.527  1.00  0.00    -0.376 OA
BRANCH   3   4
ATOM      4  C   UNL     1      -0.413  -2.457  -1.687  1.00  0.00     0.202 C 
BRANCH   4   5
ATOM      5  C   UNL     1      -1.051  -3.924  -1.646  1.00  0.00     0.261 C 
BRANCH   5   6
ATOM      6  O   UNL     1      -0.281  -4.861  -0.905  1.00  0.00    -0.463 OA
BRANCH   6   7
ATOM      7  C   UNL     1       0.918  -5.010  -1.473  1.00  0.00     0.311 C 
ATOM      8  O   UNL     1       1.105  -5.200  -2.670  1.00  0.00    -0.252 OA
BRANCH   7   9
ATOM      9  C   UNL     1       2.011  -4.657  -0.523  1.00  0.00     0.121 C 
BRANCH   9  10
ATOM     10  C   UNL     1       1.659  -4.122   0.901  1.00  0.00     0.098 C 
BRANCH  10  11
ATOM     11  N   UNL     1       0.201  -3.685   1.497  1.00  0.00    -0.335 N 
ATOM     12  O   UNL     1      -1.874  -3.005   0.525  1.00  0.00    -0.249 OA
ATOM     13  C   UNL     1      -1.027  -2.608   1.321  1.00  0.00     0.315 C 
ATOM     14  N   UNL     1      -1.306  -1.411   2.675  1.00  0.00    -0.335 N 
ATOM     15  H   UNL     1      -0.464  -1.213   3.146  1.00  0.00     0.165 HD
ATOM     16  H   UNL     1      -0.025  -4.294   2.236  1.00  0.00     0.165 HD
BRANCH  14  17
ATOM     17  C   UNL     1      -2.799  -0.405   3.462  1.00  0.00     0.090 C 
BRANCH  17  18
ATOM     18  C   UNL     1      -4.305  -0.100   2.835  1.00  0.00     0.012 C 
ATOM     19  C   UNL     1      -5.357  -0.950   2.120  1.00  0.00     0.006 C 
ATOM     20  C   UNL     1      -5.554  -0.598   3.551  1.00  0.00     0.006 C 
ENDBRANCH  17  18
BRANCH  17  21
ATOM     21  C   UNL     1      -2.745   0.451   4.893  1.00  0.00     0.012 C 
ATOM     22  C   UNL     1      -3.838   1.431   5.327  1.00  0.00     0.006 C 
ATOM     23  C   UNL     1      -3.622   0.167   6.093  1.00  0.00     0.006 C 
ENDBRANCH  17  21
ENDBRANCH  14  17
ENDBRANCH  10  11
BRANCH  10  24
ATOM     24  C   UNL     1       2.628  -4.591   2.041  1.00  0.00     0.026 C 
BRANCH  24  25
ATOM     25  C   UNL     1       2.604  -6.049   2.439  1.00  0.00     0.002 CG0
ATOM     26  G   UNL     1       3.457  -6.928   1.537  1.00  0.00     0.000 G0
ENDBRANCH  24  25
ENDBRANCH  10  24
ENDBRANCH   9  10
BRANCH   9  27
ATOM     27  C   UNL     1       3.161  -5.678  -0.651  1.00  0.00     0.017 C 
BRANCH  27  28
ATOM     28  C   UNL     1       2.956  -6.985   0.102  1.00  0.00     0.001 C 
BRANCH  28  29
ATOM     29  C   UNL     1       3.457  -6.928   1.537  1.00  0.00     0.000 CG0
ATOM     30  G   UNL     1       2.604  -6.049   2.439  1.00  0.00     0.000 G0
ENDBRANCH  28  29
ENDBRANCH  27  28
ENDBRANCH   9  27
ENDBRANCH   7   9
ENDBRANCH   6   7
ENDBRANCH   5   6
ENDBRANCH   4   5
ENDBRANCH   3   4
ENDBRANCH   2   3
ENDBRANCH   1   2
BRANCH   1  31
ATOM     31  O   UNL     1       0.286  -2.683   3.376  1.00  0.00    -0.377 OA
BRANCH  31  32
ATOM     32  C   UNL     1      -1.377  -3.401   3.420  1.00  0.00     0.188 C 
BRANCH  32  33
ATOM     33  C   UNL     1      -2.912  -2.655   2.593  1.00  0.00     0.188 C 
BRANCH  33  34
ATOM     34  O   UNL     1      -2.871  -1.234   1.417  1.00  0.00    -0.376 OA
BRANCH  34  35
ATOM     35  C   UNL     1      -1.692   0.123   1.379  1.00  0.00     0.202 C 
BRANCH  35  36
ATOM     36  C   UNL     1      -0.546   0.801   2.766  1.00  0.00     0.261 C 
BRANCH  36  37
ATOM     37  O   UNL     1       0.115   0.188   4.278  1.00  0.00    -0.460 OA
BRANCH  37  38
ATOM     38  C   UNL     1      -0.327  -0.744   5.241  1.00  0.00     0.338 C 
ATOM     39  O   UNL     1      -1.298  -1.408   4.886  1.00  0.00    -0.246 OA
BRANCH  38  40
ATOM     40  C   UNL     1      -0.121  -1.361   6.622  1.00  0.00     0.060 A 
ATOM     41  C   UNL     1      -1.312  -2.045   7.087  1.00  0.00     0.016 A 
ATOM     42  C   UNL     1       1.012  -1.645   7.372  1.00  0.00     0.016 A 
ATOM     43  C   UNL     1      -1.377  -3.029   8.056  1.00  0.00     0.010 A 
ATOM     44  C   UNL     1       0.935  -2.604   8.462  1.00  0.00     0.010 A 
ATOM     45  C   UNL     1      -0.247  -3.326   8.780  1.00  0.00    -0.014 A 
BRANCH  45  46
ATOM     46  C   UNL     1      -0.469  -4.353   9.845  1.00  0.00     0.031 A 
ATOM     47  C   UNL     1      -1.192  -3.955  11.113  1.00  0.00     0.074 A 
ATOM     48  C   UNL     1      -0.395  -5.674   9.567  1.00  0.00     0.049 A 
ATOM     49  N   UNL     1      -1.492  -4.670  12.170  1.00  0.00    -0.248 NA
ATOM     50  C   UNL     1      -1.703  -2.575  11.165  1.00  0.00     0.031 C 
ATOM     51  C   UNL     1      -0.073  -6.245   8.259  1.00  0.00     0.029 A 
ATOM     52  N   UNL     1      -0.647  -6.779  10.352  1.00  0.00    -0.354 N 
ATOM     53  C   UNL     1      -2.186  -3.818  13.022  1.00  0.00     0.074 A 
ATOM     54  C   UNL     1      -2.320  -2.552  12.336  1.00  0.00     0.031 C 
ATOM     55  C   UNL     1      -0.126  -7.587   8.338  1.00  0.00     0.029 A 
ATOM     56  C   UNL     1      -0.419  -7.978   9.716  1.00  0.00     0.049 A 
ATOM     57  H   UNL     1      -0.962  -6.716  11.283  1.00  0.00     0.167 HD
ATOM     58  C   UNL     1      -2.632  -4.056  14.280  1.00  0.00     0.037 A 
ATOM     59  C   UNL     1      -0.393  -9.238  10.202  1.00  0.00     0.037 A 
ATOM     60  C   UNL     1      -2.488  -5.315  14.959  1.00  0.00     0.049 A 
ATOM     61  C   UNL     1      -0.667  -9.455  11.670  1.00  0.00     0.074 A 
ATOM     62  C   UNL     1      -2.755  -5.631  16.279  1.00  0.00     0.029 A 
ATOM     63  N   UNL     1      -2.037  -6.478  14.353  1.00  0.00    -0.354 N 
ATOM     64  N   UNL     1      -1.108  -8.601  12.562  1.00  0.00    -0.248 NA
ATOM     65  C   UNL     1      -0.400 -10.797  12.210  1.00  0.00     0.031 C 
ATOM     66  C   UNL     1      -2.421  -6.976  16.482  1.00  0.00     0.029 A 
ATOM     67  C   UNL     1      -1.989  -7.508  15.277  1.00  0.00     0.049 A 
ATOM     68  H   UNL     1      -1.786  -6.559  13.405  1.00  0.00     0.167 HD
ATOM     69  C   UNL     1      -1.179  -9.298  13.761  1.00  0.00     0.074 A 
ATOM     70  C   UNL     1      -0.750 -10.653  13.482  1.00  0.00     0.031 C 
ATOM     71  C   UNL     1      -1.559  -8.851  14.984  1.00  0.00     0.037 A 
BRANCH  58  72
ATOM     72  C   UNL     1      -3.172  -2.878  15.036  1.00  0.00     0.064 A 
ATOM     73  C   UNL     1      -4.444  -2.341  14.794  1.00  0.00     0.173 A 
ATOM     74  C   UNL     1      -2.361  -2.239  15.988  1.00  0.00     0.173 A 
ATOM     75  F   UNL     1      -5.247  -2.896  13.874  1.00  0.00    -0.203 F 
ATOM     76  C   UNL     1      -4.869  -1.186  15.450  1.00  0.00     0.198 A 
ATOM     77  C   UNL     1      -2.796  -1.100  16.657  1.00  0.00     0.198 A 
ATOM     78  F   UNL     1      -1.133  -2.711  16.253  1.00  0.00    -0.203 F 
ATOM     79  F   UNL     1      -6.062  -0.650  15.158  1.00  0.00    -0.200 F 
ATOM     80  C   UNL     1      -4.045  -0.567  16.380  1.00  0.00     0.200 A 
ATOM     81  F   UNL     1      -1.997  -0.505  17.554  1.00  0.00    -0.200 F 
ATOM     82  F   UNL     1      -4.446   0.556  16.993  1.00  0.00    -0.200 F 
ENDBRANCH  58  72
BRANCH  59  83
ATOM     83  C   UNL     1       0.017 -10.377   9.332  1.00  0.00     0.064 A 
ATOM     84  C   UNL     1      -0.852 -11.439   9.042  1.00  0.00     0.173 A 
ATOM     85  C   UNL     1       1.316 -10.445   8.800  1.00  0.00     0.173 A 
ATOM     86  F   UNL     1      -2.087 -11.455   9.564  1.00  0.00    -0.203 F 
ATOM     87  C   UNL     1      -0.443 -12.513   8.248  1.00  0.00     0.198 A 
ATOM     88  C   UNL     1       1.715 -11.503   7.985  1.00  0.00     0.198 A 
ATOM     89  F   UNL     1       2.204  -9.477   9.072  1.00  0.00    -0.203 F 
ATOM     90  F   UNL     1      -1.282 -13.532   8.017  1.00  0.00    -0.200 F 
ATOM     91  C   UNL     1       0.836 -12.538   7.712  1.00  0.00     0.200 A 
ATOM     92  F   UNL     1       2.952 -11.519   7.470  1.00  0.00    -0.200 F 
ATOM     93  F   UNL     1       1.226 -13.565   6.943  1.00  0.00    -0.200 F 
ENDBRANCH  59  83
BRANCH  71  94
ATOM     94  C   UNL     1      -1.547  -9.839  16.110  1.00  0.00     0.064 A 
ATOM     95  C   UNL     1      -0.349 -10.246  16.713  1.00  0.00     0.173 A 
ATOM     96  C   UNL     1      -2.750 -10.348  16.623  1.00  0.00     0.173 A 
ATOM     97  F   UNL     1       0.827  -9.797  16.249  1.00  0.00    -0.203 F 
ATOM     98  C   UNL     1      -0.354 -11.142  17.780  1.00  0.00     0.198 A 
ATOM     99  C   UNL     1      -2.753 -11.226  17.703  1.00  0.00     0.198 A 
ATOM    100  F   UNL     1      -3.922  -9.983  16.082  1.00  0.00    -0.203 F 
ATOM    101  F   UNL     1       0.804 -11.544  18.320  1.00  0.00    -0.200 F 
ATOM    102  C   UNL     1      -1.555 -11.625  18.277  1.00  0.00     0.200 A 
ATOM    103  F   UNL     1      -3.914 -11.685  18.188  1.00  0.00    -0.200 F 
ATOM    104  F   UNL     1      -1.559 -12.482  19.308  1.00  0.00    -0.200 F 
ENDBRANCH  71  94
ENDBRANCH  45  46
ENDBRANCH  38  40
ENDBRANCH  37  38
ENDBRANCH  36  37
ENDBRANCH  35  36
ENDBRANCH  34  35
ENDBRANCH  33  34
ENDBRANCH  32  33
ENDBRANCH  31  32
ENDBRANCH   1  31
TORSDOF 24
