REMARK SMILES O=C1O[C@@H](c2ccc(O)c(O)c2)[C@H](C(=O)OCCOCCOCCOCCOC(=O)c2ccc(-c3c4nc(c(-c5c(F)c(F)c(F)c(F)c5F)c5ccc([nH]5)c(-c5c(F)c(F)c(F)c(F)c5F)c5nc(c(-c6c(F)c(F)c(F)c(F)c6F)c6ccc3[nH]6)C=C5)C=C4)cc2)/C1=C\c1ccc(O)c(O)c1
REMARK SMILES IDX 22 1 21 2 20 3 19 4 18 5 17 6 16 7 14 8 15 9 13 10 1 11 2 12
REMARK SMILES IDX 3 13 94 14 4 15 95 16 5 17 6 18 12 19 7 20 10 21 8 22 11 23
REMARK SMILES IDX 9 25 96 27 97 28 103 29 98 30 101 31 99 32 102 33 100 35
REMARK SMILES IDX 23 37 24 38 25 39 26 40 27 41 28 42 29 43 30 44 31 45 32 46
REMARK SMILES IDX 93 47 33 48 92 49 34 50 35 51 36 52 86 53 37 54 91 55 85 56
REMARK SMILES IDX 87 57 38 58 90 59 84 60 83 61 39 63 71 64 51 65 70 66 52 67
REMARK SMILES IDX 55 68 69 69 88 70 53 71 54 72 68 74 89 75 56 76 40 77 41 78
REMARK SMILES IDX 49 79 42 80 43 81 47 82 50 83 44 84 45 85 48 86 46 87 72 88
REMARK SMILES IDX 73 89 81 90 74 91 75 92 79 93 82 94 76 95 77 96 80 97 78 98
REMARK SMILES IDX 57 99 58 100 66 101 59 102 60 103 64 104 67 105 61 106
REMARK SMILES IDX 62 107 65 108 63 109
REMARK H PARENT 11 24 9 26 102 34 100 36 87 62 55 73
REMARK Flexibility Score: inf
ROOT
ATOM      1  O   UNL     1       3.811   3.285   1.540  1.00  0.00    -0.377 OA
ENDROOT
BRANCH   1   2
ATOM      2  C   UNL     1       2.464   3.593   1.228  1.00  0.00     0.188 C 
BRANCH   2   3
ATOM      3  C   UNL     1       1.427   3.401   2.354  1.00  0.00     0.188 C 
BRANCH   3   4
ATOM      4  O   UNL     1       2.024   3.297   3.638  1.00  0.00    -0.376 OA
BRANCH   4   5
ATOM      5  C   UNL     1       1.947   2.067   4.330  1.00  0.00     0.202 C 
BRANCH   5   6
ATOM      6  C   UNL     1       2.627   0.847   3.693  1.00  0.00     0.261 C 
BRANCH   6   7
ATOM      7  O   UNL     1       2.407   0.689   2.284  1.00  0.00    -0.463 OA
BRANCH   7   8
ATOM      8  C   UNL     1       1.175   0.261   1.895  1.00  0.00     0.317 C 
ATOM      9  O   UNL     1       0.303  -0.126   2.658  1.00  0.00    -0.251 OA
BRANCH   8  10
ATOM     10  C   UNL     1       1.058   0.398   0.384  1.00  0.00     0.182 C 
ATOM     11  O   UNL     1      -1.972  -1.238  -0.395  1.00  0.00    -0.247 OA
ATOM     12  C   UNL     1      -0.814  -0.874  -0.262  1.00  0.00     0.335 C 
ATOM     13  O   UNL     1       0.280  -1.685  -0.307  1.00  0.00    -0.453 OA
ATOM     14  C   UNL     1      -0.354   0.517  -0.056  1.00  0.00     0.056 C 
ATOM     15  C   UNL     1       1.493  -0.912  -0.234  1.00  0.00     0.226 C 
ATOM     16  C   UNL     1      -1.161   1.555  -0.344  1.00  0.00     0.020 C 
BRANCH  15  17
ATOM     17  C   UNL     1       2.171  -0.765  -1.594  1.00  0.00    -0.002 A 
ATOM     18  C   UNL     1       3.282   0.092  -1.763  1.00  0.00     0.012 A 
ATOM     19  C   UNL     1       1.748  -1.528  -2.693  1.00  0.00     0.057 A 
ATOM     20  C   UNL     1       3.929   0.208  -3.002  1.00  0.00     0.050 A 
ATOM     21  C   UNL     1       2.400  -1.413  -3.914  1.00  0.00     0.157 A 
ATOM     22  C   UNL     1       3.480  -0.552  -4.073  1.00  0.00     0.157 A 
BRANCH  21  23
ATOM     23  O   UNL     1       1.972  -2.173  -4.964  1.00  0.00    -0.504 OA
ATOM     24  H   UNL     1       2.401  -2.108  -5.794  1.00  0.00     0.293 HD
ENDBRANCH  21  23
BRANCH  22  25
ATOM     25  O   UNL     1       4.076  -0.501  -5.302  1.00  0.00    -0.504 OA
ATOM     26  H   UNL     1       4.806   0.068  -5.445  1.00  0.00     0.293 HD
ENDBRANCH  22  25
ENDBRANCH  15  17
BRANCH  16  27
ATOM     27  C   UNL     1      -0.866   2.997  -0.329  1.00  0.00    -0.021 A 
ATOM     28  C   UNL     1      -0.021   3.580  -1.289  1.00  0.00     0.012 A 
ATOM     29  C   UNL     1      -1.521   3.832   0.587  1.00  0.00     0.058 A 
ATOM     30  C   UNL     1       0.185   4.970  -1.323  1.00  0.00     0.051 A 
ATOM     31  C   UNL     1      -1.300   5.208   0.556  1.00  0.00     0.157 A 
ATOM     32  C   UNL     1      -0.455   5.777  -0.392  1.00  0.00     0.157 A 
BRANCH  31  33
ATOM     33  O   UNL     1      -1.918   6.003   1.480  1.00  0.00    -0.504 OA
ATOM     34  H   UNL     1      -1.778   6.929   1.470  1.00  0.00     0.293 HD
ENDBRANCH  31  33
BRANCH  32  35
ATOM     35  O   UNL     1      -0.285   7.134  -0.365  1.00  0.00    -0.504 OA
ATOM     36  H   UNL     1       0.277   7.548  -0.990  1.00  0.00     0.293 HD
ENDBRANCH  32  35
ENDBRANCH  16  27
ENDBRANCH   8  10
ENDBRANCH   7   8
ENDBRANCH   6   7
ENDBRANCH   5   6
ENDBRANCH   4   5
ENDBRANCH   3   4
ENDBRANCH   2   3
ENDBRANCH   1   2
BRANCH   1  37
ATOM     37  C   UNL     1       4.435   4.024   2.591  1.00  0.00     0.188 C 
BRANCH  37  38
ATOM     38  C   UNL     1       3.808   5.309   3.206  1.00  0.00     0.188 C 
BRANCH  38  39
ATOM     39  O   UNL     1       2.709   5.868   2.508  1.00  0.00    -0.376 OA
BRANCH  39  40
ATOM     40  C   UNL     1       2.892   7.076   1.794  1.00  0.00     0.202 C 
BRANCH  40  41
ATOM     41  C   UNL     1       3.828   7.014   0.579  1.00  0.00     0.261 C 
BRANCH  41  42
ATOM     42  O   UNL     1       5.144   6.514   0.849  1.00  0.00    -0.460 OA
BRANCH  42  43
ATOM     43  C   UNL     1       5.906   7.248   1.691  1.00  0.00     0.338 C 
ATOM     44  O   UNL     1       5.625   8.311   2.211  1.00  0.00    -0.246 OA
BRANCH  43  45
ATOM     45  C   UNL     1       7.077   6.423   2.042  1.00  0.00     0.060 A 
ATOM     46  C   UNL     1       7.275   6.053   3.381  1.00  0.00     0.016 A 
ATOM     47  C   UNL     1       7.944   5.981   1.042  1.00  0.00     0.016 A 
ATOM     48  C   UNL     1       8.351   5.241   3.726  1.00  0.00     0.010 A 
ATOM     49  C   UNL     1       9.045   5.204   1.395  1.00  0.00     0.010 A 
ATOM     50  C   UNL     1       9.266   4.856   2.740  1.00  0.00    -0.014 A 
BRANCH  50  51
ATOM     51  C   UNL     1      10.579   4.306   3.135  1.00  0.00     0.031 A 
ATOM     52  C   UNL     1      11.726   5.269   3.250  1.00  0.00     0.074 A 
ATOM     53  C   UNL     1      10.752   2.996   3.372  1.00  0.00     0.049 A 
ATOM     54  N   UNL     1      12.995   5.033   3.451  1.00  0.00    -0.248 NA
ATOM     55  C   UNL     1      11.391   6.697   3.110  1.00  0.00     0.031 C 
ATOM     56  C   UNL     1       9.698   1.986   3.349  1.00  0.00     0.029 A 
ATOM     57  N   UNL     1      11.893   2.292   3.662  1.00  0.00    -0.354 N 
ATOM     58  C   UNL     1      13.609   6.278   3.445  1.00  0.00     0.074 A 
ATOM     59  C   UNL     1      12.583   7.264   3.196  1.00  0.00     0.031 C 
ATOM     60  C   UNL     1      10.247   0.782   3.589  1.00  0.00     0.029 A 
ATOM     61  C   UNL     1      11.694   0.936   3.737  1.00  0.00     0.049 A 
ATOM     62  H   UNL     1      12.769   2.718   3.802  1.00  0.00     0.167 HD
ATOM     63  C   UNL     1      14.917   6.568   3.634  1.00  0.00     0.037 A 
ATOM     64  C   UNL     1      12.591  -0.061   3.870  1.00  0.00     0.037 A 
ATOM     65  C   UNL     1      15.928   5.576   3.874  1.00  0.00     0.049 A 
ATOM     66  C   UNL     1      14.057   0.280   3.985  1.00  0.00     0.074 A 
ATOM     67  C   UNL     1      17.281   5.759   4.091  1.00  0.00     0.029 A 
ATOM     68  N   UNL     1      15.695   4.208   3.918  1.00  0.00    -0.354 N 
ATOM     69  N   UNL     1      14.636   1.457   3.993  1.00  0.00    -0.248 NA
ATOM     70  C   UNL     1      14.995  -0.846   4.104  1.00  0.00     0.031 C 
ATOM     71  C   UNL     1      17.878   4.500   4.198  1.00  0.00     0.029 A 
ATOM     72  C   UNL     1      16.886   3.534   4.125  1.00  0.00     0.049 A 
ATOM     73  H   UNL     1      14.813   3.782   3.817  1.00  0.00     0.167 HD
ATOM     74  C   UNL     1      15.995   1.216   4.158  1.00  0.00     0.074 A 
ATOM     75  C   UNL     1      16.154  -0.220   4.249  1.00  0.00     0.031 C 
ATOM     76  C   UNL     1      17.019   2.103   4.233  1.00  0.00     0.037 A 
BRANCH  63  77
ATOM     77  C   UNL     1      15.329   8.008   3.542  1.00  0.00     0.064 A 
ATOM     78  C   UNL     1      14.954   8.951   4.511  1.00  0.00     0.173 A 
ATOM     79  C   UNL     1      16.132   8.445   2.478  1.00  0.00     0.173 A 
ATOM     80  F   UNL     1      14.169   8.589   5.538  1.00  0.00    -0.203 F 
ATOM     81  C   UNL     1      15.345  10.283   4.403  1.00  0.00     0.198 A 
ATOM     82  C   UNL     1      16.551   9.770   2.392  1.00  0.00     0.198 A 
ATOM     83  F   UNL     1      16.517   7.585   1.523  1.00  0.00    -0.203 F 
ATOM     84  F   UNL     1      14.929  11.177   5.311  1.00  0.00    -0.200 F 
ATOM     85  C   UNL     1      16.150  10.689   3.350  1.00  0.00     0.200 A 
ATOM     86  F   UNL     1      17.339  10.157   1.380  1.00  0.00    -0.200 F 
ATOM     87  F   UNL     1      16.534  11.969   3.252  1.00  0.00    -0.200 F 
ENDBRANCH  63  77
BRANCH  64  88
ATOM     88  C   UNL     1      12.136  -1.478   3.876  1.00  0.00     0.064 A 
ATOM     89  C   UNL     1      12.268  -2.276   5.021  1.00  0.00     0.173 A 
ATOM     90  C   UNL     1      11.583  -2.070   2.731  1.00  0.00     0.173 A 
ATOM     91  F   UNL     1      12.814  -1.764   6.134  1.00  0.00    -0.203 F 
ATOM     92  C   UNL     1      11.885  -3.616   5.013  1.00  0.00     0.198 A 
ATOM     93  C   UNL     1      11.170  -3.401   2.734  1.00  0.00     0.198 A 
ATOM     94  F   UNL     1      11.436  -1.353   1.607  1.00  0.00    -0.203 F 
ATOM     95  F   UNL     1      12.072  -4.369   6.106  1.00  0.00    -0.200 F 
ATOM     96  C   UNL     1      11.331  -4.176   3.873  1.00  0.00     0.200 A 
ATOM     97  F   UNL     1      10.622  -3.933   1.633  1.00  0.00    -0.200 F 
ATOM     98  F   UNL     1      10.960  -5.463   3.867  1.00  0.00    -0.200 F 
ENDBRANCH  64  88
BRANCH  76  99
ATOM     99  C   UNL     1      18.398   1.561   4.479  1.00  0.00     0.064 A 
ATOM    100  C   UNL     1      19.108   0.864   3.492  1.00  0.00     0.173 A 
ATOM    101  C   UNL     1      19.047   1.819   5.698  1.00  0.00     0.173 A 
ATOM    102  F   UNL     1      18.530   0.582   2.315  1.00  0.00    -0.203 F 
ATOM    103  C   UNL     1      20.412   0.430   3.722  1.00  0.00     0.198 A 
ATOM    104  C   UNL     1      20.361   1.414   5.911  1.00  0.00     0.198 A 
ATOM    105  F   UNL     1      18.415   2.491   6.672  1.00  0.00    -0.203 F 
ATOM    106  F   UNL     1      21.059  -0.268   2.779  1.00  0.00    -0.200 F 
ATOM    107  C   UNL     1      21.041   0.716   4.925  1.00  0.00     0.200 A 
ATOM    108  F   UNL     1      20.972   1.710   7.066  1.00  0.00    -0.200 F 
ATOM    109  F   UNL     1      22.302   0.316   5.136  1.00  0.00    -0.200 F 
ENDBRANCH  76  99
ENDBRANCH  50  51
ENDBRANCH  43  45
ENDBRANCH  42  43
ENDBRANCH  41  42
ENDBRANCH  40  41
ENDBRANCH  39  40
ENDBRANCH  38  39
ENDBRANCH  37  38
ENDBRANCH   1  37
TORSDOF 26
