REMARK SMILES Cc1nc(S(=O)(=O)N[C@H]2C=C[C@H](C(=O)OCCOCCOCCOCCOC(=O)c3ccc(-c4c5nc(c(-c6c(F)c(F)c(F)c(F)c6F)c6ccc([nH]6)c(-c6c(F)c(F)c(F)c(F)c6F)c6nc(c(-c7c(F)c(F)c(F)c(F)c7F)c7ccc4[nH]7)C=C6)C=C5)cc3)C2)cn1C
REMARK SMILES IDX 20 1 19 2 18 3 17 4 16 5 15 6 13 7 14 8 12 9 9 10 10 11
REMARK SMILES IDX 93 12 11 13 8 14 5 16 6 17 7 18 4 19 1 20 2 21 3 22 95 23
REMARK SMILES IDX 94 24 96 25 21 26 22 27 23 28 24 29 25 30 26 31 27 32 28 33
REMARK SMILES IDX 29 34 30 35 31 36 92 37 32 38 91 39 33 40 34 41 35 42 85 43
REMARK SMILES IDX 36 44 90 45 84 46 86 47 37 48 89 49 83 50 82 51 38 53 70 54
REMARK SMILES IDX 50 55 69 56 51 57 54 58 68 59 87 60 52 61 53 62 67 64 88 65
REMARK SMILES IDX 55 66 39 67 40 68 48 69 41 70 42 71 46 72 49 73 43 74 44 75
REMARK SMILES IDX 47 76 45 77 71 78 72 79 80 80 73 81 74 82 78 83 81 84 75 85
REMARK SMILES IDX 76 86 79 87 77 88 56 89 57 90 65 91 58 92 59 93 63 94 66 95
REMARK SMILES IDX 60 96 61 97 64 98 62 99
REMARK H PARENT 8 15 86 52 54 63
REMARK Flexibility Score: inf
ROOT
ATOM      1  C   UNL     1       1.200   4.591   2.718  1.00  0.00     0.188 C 
ENDROOT
BRANCH   1   2
ATOM      2  C   UNL     1       1.829   4.232   4.079  1.00  0.00     0.188 C 
BRANCH   2   3
ATOM      3  O   UNL     1       2.163   5.218   5.051  1.00  0.00    -0.376 OA
BRANCH   3   4
ATOM      4  C   UNL     1       2.001   6.592   4.759  1.00  0.00     0.202 C 
BRANCH   4   5
ATOM      5  C   UNL     1       3.016   7.210   3.785  1.00  0.00     0.261 C 
BRANCH   5   6
ATOM      6  O   UNL     1       3.538   6.331   2.767  1.00  0.00    -0.463 OA
BRANCH   6   7
ATOM      7  C   UNL     1       4.697   5.696   3.084  1.00  0.00     0.312 C 
ATOM      8  O   UNL     1       5.300   5.865   4.141  1.00  0.00    -0.252 OA
BRANCH   7   9
ATOM      9  C   UNL     1       5.254   4.826   1.948  1.00  0.00     0.123 C 
ATOM     10  C   UNL     1       4.022   2.789   1.206  1.00  0.00     0.093 C 
ATOM     11  C   UNL     1       5.125   2.477   2.159  1.00  0.00    -0.011 C 
ATOM     12  C   UNL     1       4.338   4.263   0.845  1.00  0.00     0.043 C 
ATOM     13  C   UNL     1       5.800   3.564   2.547  1.00  0.00    -0.015 C 
BRANCH  10  14
ATOM     14  N   UNL     1       4.126   1.952   0.006  1.00  0.00    -0.203 NA
ATOM     15  H   UNL     1       3.580   2.408  -0.725  1.00  0.00     0.142 HD
BRANCH  14  16
ATOM     16  S   UNL     1       3.605   0.337   0.085  1.00  0.00     0.260 S 
ATOM     17  O   UNL     1       3.868  -0.174   1.407  1.00  0.00    -0.205 OA
ATOM     18  O   UNL     1       4.146  -0.289  -1.108  1.00  0.00    -0.205 OA
BRANCH  16  19
ATOM     19  C   UNL     1       1.876   0.210  -0.124  1.00  0.00     0.188 A 
ATOM     20  C   UNL     1      -1.183  -1.708  -0.031  1.00  0.00     0.088 C 
ATOM     21  C   UNL     1      -0.077  -0.723  -0.161  1.00  0.00     0.106 A 
ATOM     22  N   UNL     1       1.152  -0.904   0.274  1.00  0.00    -0.221 NA
ATOM     23  N   UNL     1      -0.184   0.491  -0.800  1.00  0.00    -0.337 N 
ATOM     24  C   UNL     1       1.044   1.103  -0.768  1.00  0.00     0.129 A 
ATOM     25  C   UNL     1      -1.367   1.024  -1.431  1.00  0.00     0.151 C 
ENDBRANCH  16  19
ENDBRANCH  14  16
ENDBRANCH  10  14
ENDBRANCH   7   9
ENDBRANCH   6   7
ENDBRANCH   5   6
ENDBRANCH   4   5
ENDBRANCH   3   4
ENDBRANCH   2   3
ENDBRANCH   1   2
BRANCH   1  26
ATOM     26  O   UNL     1       0.427   5.779   2.697  1.00  0.00    -0.377 OA
BRANCH  26  27
ATOM     27  C   UNL     1      -0.974   5.586   2.616  1.00  0.00     0.188 C 
BRANCH  27  28
ATOM     28  C   UNL     1      -1.574   4.786   3.777  1.00  0.00     0.188 C 
BRANCH  28  29
ATOM     29  O   UNL     1      -1.099   3.442   3.817  1.00  0.00    -0.376 OA
BRANCH  29  30
ATOM     30  C   UNL     1      -1.995   2.437   3.355  1.00  0.00     0.202 C 
BRANCH  30  31
ATOM     31  C   UNL     1      -1.939   2.218   1.839  1.00  0.00     0.261 C 
BRANCH  31  32
ATOM     32  O   UNL     1      -2.362   3.338   1.037  1.00  0.00    -0.460 OA
BRANCH  32  33
ATOM     33  C   UNL     1      -3.642   3.747   1.188  1.00  0.00     0.338 C 
ATOM     34  O   UNL     1      -4.512   3.196   1.835  1.00  0.00    -0.246 OA
BRANCH  33  35
ATOM     35  C   UNL     1      -3.777   5.100   0.601  1.00  0.00     0.060 A 
ATOM     36  C   UNL     1      -4.206   6.140   1.435  1.00  0.00     0.016 A 
ATOM     37  C   UNL     1      -3.486   5.351  -0.743  1.00  0.00     0.016 A 
ATOM     38  C   UNL     1      -4.369   7.429   0.922  1.00  0.00     0.010 A 
ATOM     39  C   UNL     1      -3.677   6.639  -1.262  1.00  0.00     0.010 A 
ATOM     40  C   UNL     1      -4.145   7.679  -0.438  1.00  0.00    -0.014 A 
BRANCH  40  41
ATOM     41  C   UNL     1      -4.592   8.968  -1.028  1.00  0.00     0.031 A 
ATOM     42  C   UNL     1      -5.976   9.042  -1.616  1.00  0.00     0.074 A 
ATOM     43  C   UNL     1      -3.813  10.065  -1.010  1.00  0.00     0.049 A 
ATOM     44  N   UNL     1      -6.584  10.047  -2.193  1.00  0.00    -0.248 NA
ATOM     45  C   UNL     1      -6.785   7.815  -1.536  1.00  0.00     0.031 C 
ATOM     46  C   UNL     1      -2.474  10.145  -0.431  1.00  0.00     0.029 A 
ATOM     47  N   UNL     1      -4.043  11.329  -1.500  1.00  0.00    -0.354 N 
ATOM     48  C   UNL     1      -7.846   9.579  -2.532  1.00  0.00     0.074 A 
ATOM     49  C   UNL     1      -7.908   8.190  -2.130  1.00  0.00     0.031 C 
ATOM     50  C   UNL     1      -1.996  11.390  -0.609  1.00  0.00     0.029 A 
ATOM     51  C   UNL     1      -2.984  12.187  -1.338  1.00  0.00     0.049 A 
ATOM     52  H   UNL     1      -4.890  11.593  -1.928  1.00  0.00     0.167 HD
ATOM     53  C   UNL     1      -8.870  10.246  -3.115  1.00  0.00     0.037 A 
ATOM     54  C   UNL     1      -2.825  13.462  -1.748  1.00  0.00     0.037 A 
ATOM     55  C   UNL     1      -8.813  11.621  -3.531  1.00  0.00     0.049 A 
ATOM     56  C   UNL     1      -3.947  14.152  -2.487  1.00  0.00     0.074 A 
ATOM     57  C   UNL     1      -9.800  12.380  -4.137  1.00  0.00     0.029 A 
ATOM     58  N   UNL     1      -7.705  12.442  -3.391  1.00  0.00    -0.354 N 
ATOM     59  N   UNL     1      -5.144  13.708  -2.781  1.00  0.00    -0.248 NA
ATOM     60  C   UNL     1      -3.691  15.525  -2.953  1.00  0.00     0.031 C 
ATOM     61  C   UNL     1      -9.274  13.648  -4.404  1.00  0.00     0.029 A 
ATOM     62  C   UNL     1      -7.976  13.693  -3.921  1.00  0.00     0.049 A 
ATOM     63  H   UNL     1      -6.853  12.176  -2.977  1.00  0.00     0.167 HD
ATOM     64  C   UNL     1      -5.791  14.752  -3.434  1.00  0.00     0.074 A 
ATOM     65  C   UNL     1      -4.859  15.857  -3.483  1.00  0.00     0.031 C 
ATOM     66  C   UNL     1      -7.045  14.790  -3.948  1.00  0.00     0.037 A 
BRANCH  53  67
ATOM     67  C   UNL     1     -10.143   9.491  -3.352  1.00  0.00     0.064 A 
ATOM     68  C   UNL     1     -11.008   9.168  -2.296  1.00  0.00     0.173 A 
ATOM     69  C   UNL     1     -10.525   9.130  -4.652  1.00  0.00     0.173 A 
ATOM     70  F   UNL     1     -10.676   9.476  -1.033  1.00  0.00    -0.203 F 
ATOM     71  C   UNL     1     -12.204   8.497  -2.533  1.00  0.00     0.198 A 
ATOM     72  C   UNL     1     -11.734   8.482  -4.887  1.00  0.00     0.198 A 
ATOM     73  F   UNL     1      -9.731   9.418  -5.694  1.00  0.00    -0.203 F 
ATOM     74  F   UNL     1     -12.999   8.166  -1.506  1.00  0.00    -0.200 F 
ATOM     75  C   UNL     1     -12.570   8.162  -3.828  1.00  0.00     0.200 A 
ATOM     76  F   UNL     1     -12.090   8.166  -6.140  1.00  0.00    -0.200 F 
ATOM     77  F   UNL     1     -13.727   7.525  -4.056  1.00  0.00    -0.200 F 
ENDBRANCH  53  67
BRANCH  54  78
ATOM     78  C   UNL     1      -1.546  14.181  -1.499  1.00  0.00     0.064 A 
ATOM     79  C   UNL     1      -1.491  15.292  -0.644  1.00  0.00     0.173 A 
ATOM     80  C   UNL     1      -0.366  13.812  -2.162  1.00  0.00     0.173 A 
ATOM     81  F   UNL     1      -2.599  15.705  -0.013  1.00  0.00    -0.203 F 
ATOM     82  C   UNL     1      -0.313  16.020  -0.483  1.00  0.00     0.198 A 
ATOM     83  C   UNL     1       0.818  14.523  -1.978  1.00  0.00     0.198 A 
ATOM     84  F   UNL     1      -0.366  12.764  -2.998  1.00  0.00    -0.203 F 
ATOM     85  F   UNL     1      -0.305  17.113   0.292  1.00  0.00    -0.200 F 
ATOM     86  C   UNL     1       0.841  15.633  -1.147  1.00  0.00     0.200 A 
ATOM     87  F   UNL     1       1.932  14.141  -2.616  1.00  0.00    -0.200 F 
ATOM     88  F   UNL     1       1.971  16.337  -0.998  1.00  0.00    -0.200 F 
ENDBRANCH  54  78
BRANCH  66  89
ATOM     89  C   UNL     1      -7.502  16.076  -4.575  1.00  0.00     0.064 A 
ATOM     90  C   UNL     1      -7.016  16.500  -5.820  1.00  0.00     0.173 A 
ATOM     91  C   UNL     1      -8.479  16.863  -3.946  1.00  0.00     0.173 A 
ATOM     92  F   UNL     1      -6.073  15.789  -6.454  1.00  0.00    -0.203 F 
ATOM     93  C   UNL     1      -7.478  17.678  -6.404  1.00  0.00     0.198 A 
ATOM     94  C   UNL     1      -8.958  18.025  -4.546  1.00  0.00     0.198 A 
ATOM     95  F   UNL     1      -8.982  16.496  -2.758  1.00  0.00    -0.203 F 
ATOM     96  F   UNL     1      -6.971  18.085  -7.575  1.00  0.00    -0.200 F 
ATOM     97  C   UNL     1      -8.453  18.434  -5.771  1.00  0.00     0.200 A 
ATOM     98  F   UNL     1      -9.911  18.747  -3.940  1.00  0.00    -0.200 F 
ATOM     99  F   UNL     1      -8.903  19.561  -6.339  1.00  0.00    -0.200 F 
ENDBRANCH  66  89
ENDBRANCH  40  41
ENDBRANCH  33  35
ENDBRANCH  32  33
ENDBRANCH  31  32
ENDBRANCH  30  31
ENDBRANCH  29  30
ENDBRANCH  28  29
ENDBRANCH  27  28
ENDBRANCH  26  27
ENDBRANCH   1  26
TORSDOF 23
