REMARK SMILES O=C(Nc1ccc(-c2nc3ccccc3[nH]2)cc1)c1ccc(C(=O)OCCOCCOCCOCCOC(=O)c2ccc(-c3c4nc(c(-c5c(F)c(F)c(F)c(F)c5F)c5ccc([nH]5)c(-c5c(F)c(F)c(F)c(F)c5F)c5nc(c(-c6c(F)c(F)c(F)c(F)c6F)c6ccc3[nH]6)C=C5)C=C4)cc2)cc1
REMARK SMILES IDX 30 1 29 2 28 3 27 4 26 5 25 6 23 7 24 8 22 9 19 10 20 11
REMARK SMILES IDX 104 12 21 13 103 14 2 15 1 16 3 17 4 19 5 20 18 21 6 22
REMARK SMILES IDX 17 23 7 24 8 25 9 26 16 27 10 28 15 29 11 31 14 32 12 33
REMARK SMILES IDX 13 34 31 35 32 36 33 37 34 38 35 39 36 40 37 41 38 42 39 43
REMARK SMILES IDX 40 44 41 45 102 46 42 47 101 48 43 49 44 50 45 51 95 52
REMARK SMILES IDX 46 53 100 54 94 55 96 56 47 57 99 58 93 59 92 60 48 62 80 63
REMARK SMILES IDX 60 64 79 65 61 66 64 67 78 68 97 69 62 70 63 71 77 73 98 74
REMARK SMILES IDX 65 75 49 76 50 77 58 78 51 79 52 80 56 81 59 82 53 83 54 84
REMARK SMILES IDX 57 85 55 86 81 87 82 88 90 89 83 90 84 91 88 92 91 93 85 94
REMARK SMILES IDX 86 95 89 96 87 97 66 98 67 99 75 100 68 101 69 102 73 103
REMARK SMILES IDX 76 104 70 105 71 106 74 107 72 108
REMARK H PARENT 3 18 16 30 96 61 64 72
REMARK Flexibility Score: inf
ROOT
ATOM      1  C   UNL     1       6.578  -3.304   2.917  1.00  0.00     0.188 C 
ENDROOT
BRANCH   1   2
ATOM      2  C   UNL     1       7.249  -2.375   3.949  1.00  0.00     0.188 C 
BRANCH   2   3
ATOM      3  O   UNL     1       7.637  -3.041   5.138  1.00  0.00    -0.376 OA
BRANCH   3   4
ATOM      4  C   UNL     1       6.874  -2.857   6.316  1.00  0.00     0.202 C 
BRANCH   4   5
ATOM      5  C   UNL     1       5.366  -3.163   6.308  1.00  0.00     0.261 C 
BRANCH   5   6
ATOM      6  O   UNL     1       4.625  -2.705   5.170  1.00  0.00    -0.460 OA
BRANCH   6   7
ATOM      7  C   UNL     1       4.374  -1.380   5.103  1.00  0.00     0.338 C 
ATOM      8  O   UNL     1       4.689  -0.542   5.930  1.00  0.00    -0.246 OA
BRANCH   7   9
ATOM      9  C   UNL     1       3.844  -1.061   3.753  1.00  0.00     0.060 A 
ATOM     10  C   UNL     1       2.957  -0.374   1.181  1.00  0.00     0.040 A 
ATOM     11  C   UNL     1       3.873   0.445   1.856  1.00  0.00     0.015 A 
ATOM     12  C   UNL     1       2.481  -1.538   1.800  1.00  0.00     0.015 A 
ATOM     13  C   UNL     1       4.318   0.100   3.133  1.00  0.00     0.016 A 
ATOM     14  C   UNL     1       2.936  -1.891   3.079  1.00  0.00     0.016 A 
BRANCH  10  15
ATOM     15  C   UNL     1       2.420   0.036  -0.151  1.00  0.00     0.255 C 
ATOM     16  O   UNL     1       1.214  -0.061  -0.361  1.00  0.00    -0.269 OA
ATOM     17  N   UNL     1       3.253   0.648  -1.070  1.00  0.00    -0.322 N 
ATOM     18  H   UNL     1       2.825   1.288  -1.684  1.00  0.00     0.170 HD
BRANCH  17  19
ATOM     19  C   UNL     1       4.637   0.466  -1.233  1.00  0.00     0.041 A 
ATOM     20  C   UNL     1       5.408   1.495  -1.784  1.00  0.00     0.027 A 
ATOM     21  C   UNL     1       5.250  -0.731  -0.875  1.00  0.00     0.027 A 
ATOM     22  C   UNL     1       6.806   1.365  -1.873  1.00  0.00     0.014 A 
ATOM     23  C   UNL     1       6.628  -0.868  -0.989  1.00  0.00     0.014 A 
ATOM     24  C   UNL     1       7.428   0.181  -1.460  1.00  0.00     0.017 A 
BRANCH  24  25
ATOM     25  C   UNL     1       8.870  -0.058  -1.489  1.00  0.00     0.138 A 
ATOM     26  N   UNL     1       9.408  -1.260  -1.586  1.00  0.00    -0.229 NA
ATOM     27  N   UNL     1       9.852   0.887  -1.286  1.00  0.00    -0.338 N 
ATOM     28  C   UNL     1      10.744  -1.102  -1.361  1.00  0.00     0.089 A 
ATOM     29  C   UNL     1      11.057   0.235  -1.155  1.00  0.00     0.066 A 
ATOM     30  H   UNL     1       9.715   1.861  -1.242  1.00  0.00     0.168 HD
ATOM     31  C   UNL     1      11.746  -2.076  -1.289  1.00  0.00     0.030 A 
ATOM     32  C   UNL     1      12.352   0.670  -0.863  1.00  0.00     0.028 A 
ATOM     33  C   UNL     1      13.049  -1.670  -0.991  1.00  0.00     0.002 A 
ATOM     34  C   UNL     1      13.343  -0.320  -0.781  1.00  0.00     0.002 A 
ENDBRANCH  24  25
ENDBRANCH  17  19
ENDBRANCH  10  15
ENDBRANCH   7   9
ENDBRANCH   6   7
ENDBRANCH   5   6
ENDBRANCH   4   5
ENDBRANCH   3   4
ENDBRANCH   2   3
ENDBRANCH   1   2
BRANCH   1  35
ATOM     35  O   UNL     1       6.132  -4.573   3.374  1.00  0.00    -0.377 OA
BRANCH  35  36
ATOM     36  C   UNL     1       7.057  -5.479   3.975  1.00  0.00     0.188 C 
BRANCH  36  37
ATOM     37  C   UNL     1       8.593  -5.289   3.906  1.00  0.00     0.188 C 
BRANCH  37  38
ATOM     38  O   UNL     1       9.034  -4.348   2.945  1.00  0.00    -0.376 OA
BRANCH  38  39
ATOM     39  C   UNL     1       9.687  -4.829   1.785  1.00  0.00     0.202 C 
BRANCH  39  40
ATOM     40  C   UNL     1       8.853  -5.696   0.833  1.00  0.00     0.261 C 
BRANCH  40  41
ATOM     41  O   UNL     1       8.166  -6.807   1.430  1.00  0.00    -0.460 OA
BRANCH  41  42
ATOM     42  C   UNL     1       8.922  -7.814   1.910  1.00  0.00     0.338 C 
ATOM     43  O   UNL     1      10.143  -7.895   1.897  1.00  0.00    -0.246 OA
BRANCH  42  44
ATOM     44  C   UNL     1       8.036  -8.750   2.629  1.00  0.00     0.060 A 
ATOM     45  C   UNL     1       8.270  -9.007   3.987  1.00  0.00     0.016 A 
ATOM     46  C   UNL     1       6.988  -9.385   1.958  1.00  0.00     0.016 A 
ATOM     47  C   UNL     1       7.493  -9.949   4.662  1.00  0.00     0.010 A 
ATOM     48  C   UNL     1       6.223 -10.341   2.630  1.00  0.00     0.010 A 
ATOM     49  C   UNL     1       6.505 -10.662   3.970  1.00  0.00    -0.014 A 
BRANCH  49  50
ATOM     50  C   UNL     1       5.953 -11.907   4.562  1.00  0.00     0.031 A 
ATOM     51  C   UNL     1       6.556 -13.217   4.128  1.00  0.00     0.074 A 
ATOM     52  C   UNL     1       4.976 -11.884   5.484  1.00  0.00     0.049 A 
ATOM     53  N   UNL     1       6.223 -14.440   4.454  1.00  0.00    -0.248 NA
ATOM     54  C   UNL     1       7.692 -13.133   3.195  1.00  0.00     0.031 C 
ATOM     55  C   UNL     1       4.348 -10.681   6.025  1.00  0.00     0.029 A 
ATOM     56  N   UNL     1       4.336 -12.917   6.124  1.00  0.00    -0.354 N 
ATOM     57  C   UNL     1       7.103 -15.265   3.764  1.00  0.00     0.074 A 
ATOM     58  C   UNL     1       7.957 -14.410   2.970  1.00  0.00     0.031 C 
ATOM     59  C   UNL     1       3.404 -11.045   6.912  1.00  0.00     0.029 A 
ATOM     60  C   UNL     1       3.338 -12.505   6.974  1.00  0.00     0.049 A 
ATOM     61  H   UNL     1       4.570 -13.863   5.988  1.00  0.00     0.167 HD
ATOM     62  C   UNL     1       7.203 -16.615   3.800  1.00  0.00     0.037 A 
ATOM     63  C   UNL     1       2.462 -13.230   7.697  1.00  0.00     0.037 A 
ATOM     64  C   UNL     1       6.350 -17.465   4.586  1.00  0.00     0.049 A 
ATOM     65  C   UNL     1       2.534 -14.738   7.647  1.00  0.00     0.074 A 
ATOM     66  C   UNL     1       6.359 -18.845   4.684  1.00  0.00     0.029 A 
ATOM     67  N   UNL     1       5.329 -17.011   5.409  1.00  0.00    -0.354 N 
ATOM     68  N   UNL     1       3.374 -15.512   7.001  1.00  0.00    -0.248 NA
ATOM     69  C   UNL     1       1.536 -15.474   8.438  1.00  0.00     0.031 C 
ATOM     70  C   UNL     1       5.309 -19.230   5.524  1.00  0.00     0.029 A 
ATOM     71  C   UNL     1       4.692 -18.087   6.006  1.00  0.00     0.049 A 
ATOM     72  H   UNL     1       5.093 -16.066   5.548  1.00  0.00     0.167 HD
ATOM     73  C   UNL     1       3.038 -16.816   7.347  1.00  0.00     0.074 A 
ATOM     74  C   UNL     1       1.925 -16.729   8.266  1.00  0.00     0.031 C 
ATOM     75  C   UNL     1       3.603 -17.982   6.943  1.00  0.00     0.037 A 
BRANCH  62  76
ATOM     76  C   UNL     1       8.259 -17.256   2.946  1.00  0.00     0.064 A 
ATOM     77  C   UNL     1       9.625 -17.122   3.239  1.00  0.00     0.173 A 
ATOM     78  C   UNL     1       7.900 -18.041   1.841  1.00  0.00     0.173 A 
ATOM     79  F   UNL     1      10.024 -16.368   4.274  1.00  0.00    -0.203 F 
ATOM     80  C   UNL     1      10.592 -17.730   2.441  1.00  0.00     0.198 A 
ATOM     81  C   UNL     1       8.867 -18.676   1.066  1.00  0.00     0.198 A 
ATOM     82  F   UNL     1       6.608 -18.203   1.517  1.00  0.00    -0.203 F 
ATOM     83  F   UNL     1      11.892 -17.548   2.710  1.00  0.00    -0.200 F 
ATOM     84  C   UNL     1      10.212 -18.514   1.362  1.00  0.00     0.200 A 
ATOM     85  F   UNL     1       8.497 -19.444   0.032  1.00  0.00    -0.200 F 
ATOM     86  F   UNL     1      11.142 -19.109   0.603  1.00  0.00    -0.200 F 
ENDBRANCH  62  76
BRANCH  63  87
ATOM     87  C   UNL     1       1.427 -12.557   8.529  1.00  0.00     0.064 A 
ATOM     88  C   UNL     1       1.427 -12.683   9.926  1.00  0.00     0.173 A 
ATOM     89  C   UNL     1       0.383 -11.826   7.943  1.00  0.00     0.173 A 
ATOM     90  F   UNL     1       2.388 -13.394  10.535  1.00  0.00    -0.203 F 
ATOM     91  C   UNL     1       0.403 -12.137  10.700  1.00  0.00     0.198 A 
ATOM     92  C   UNL     1      -0.620 -11.250   8.721  1.00  0.00     0.198 A 
ATOM     93  F   UNL     1       0.331 -11.676   6.612  1.00  0.00    -0.203 F 
ATOM     94  F   UNL     1       0.391 -12.336  12.025  1.00  0.00    -0.200 F 
ATOM     95  C   UNL     1      -0.617 -11.418  10.097  1.00  0.00     0.200 A 
ATOM     96  F   UNL     1      -1.598 -10.546   8.135  1.00  0.00    -0.200 F 
ATOM     97  F   UNL     1      -1.605 -10.901  10.840  1.00  0.00    -0.200 F 
ENDBRANCH  63  87
BRANCH  75  98
ATOM     98  C   UNL     1       3.083 -19.255   7.554  1.00  0.00     0.064 A 
ATOM     99  C   UNL     1       1.802 -19.750   7.272  1.00  0.00     0.173 A 
ATOM    100  C   UNL     1       3.900 -20.005   8.415  1.00  0.00     0.173 A 
ATOM    101  F   UNL     1       0.976 -19.069   6.464  1.00  0.00    -0.203 F 
ATOM    102  C   UNL     1       1.343 -20.926   7.862  1.00  0.00     0.198 A 
ATOM    103  C   UNL     1       3.453 -21.201   8.971  1.00  0.00     0.198 A 
ATOM    104  F   UNL     1       5.140 -19.586   8.709  1.00  0.00    -0.203 F 
ATOM    105  F   UNL     1       0.091 -21.346   7.629  1.00  0.00    -0.200 F 
ATOM    106  C   UNL     1       2.170 -21.653   8.704  1.00  0.00     0.200 A 
ATOM    107  F   UNL     1       4.262 -21.911   9.768  1.00  0.00    -0.200 F 
ATOM    108  F   UNL     1       1.728 -22.787   9.266  1.00  0.00    -0.200 F 
ENDBRANCH  75  98
ENDBRANCH  49  50
ENDBRANCH  42  44
ENDBRANCH  41  42
ENDBRANCH  40  41
ENDBRANCH  39  40
ENDBRANCH  38  39
ENDBRANCH  37  38
ENDBRANCH  36  37
ENDBRANCH  35  36
ENDBRANCH   1  35
TORSDOF 23
