REMARK SMILES Cc1coc2c(C)c3oc(=O)c(CC(=O)NCC(=O)N[C@H](C(=O)OCCOCCOCCOCCOC(=O)c4ccc(-c5c6nc(c(-c7c(F)c(F)c(F)c(F)c7F)c7ccc([nH]7)c(-c7c(F)c(F)c(F)c(F)c7F)c7nc(c(-c8c(F)c(F)c(F)c(F)c8F)c8ccc5[nH]8)C=C7)C=C6)cc4)C(C)C)c(C)c3cc12
REMARK SMILES IDX 28 1 27 2 26 3 25 4 24 5 22 6 23 7 21 8 20 9 18 10 19 11
REMARK SMILES IDX 17 13 16 14 14 15 15 16 13 18 12 19 1 20 2 21 3 22 109 23
REMARK SMILES IDX 4 24 5 25 108 26 6 27 107 28 7 29 8 30 105 31 9 32 106 33
REMARK SMILES IDX 10 34 11 35 102 36 103 37 104 38 29 39 30 40 31 41 32 42
REMARK SMILES IDX 33 43 34 44 35 45 36 46 37 47 38 48 39 49 40 50 101 51 41 52
REMARK SMILES IDX 100 53 42 54 43 55 44 56 94 57 45 58 99 59 93 60 95 61 46 62
REMARK SMILES IDX 98 63 92 64 91 65 47 67 79 68 59 69 78 70 60 71 63 72 77 73
REMARK SMILES IDX 96 74 61 75 62 76 76 78 97 79 64 80 48 81 49 82 57 83 50 84
REMARK SMILES IDX 51 85 55 86 58 87 52 88 53 89 56 90 54 91 80 92 81 93 89 94
REMARK SMILES IDX 82 95 83 96 87 97 90 98 84 99 85 100 88 101 86 102 65 103
REMARK SMILES IDX 66 104 74 105 67 106 68 107 72 108 75 109 69 110 70 111
REMARK SMILES IDX 73 112 71 113
REMARK H PARENT 20 12 16 17 95 66 63 77
REMARK Flexibility Score: inf
ROOT
ATOM      1  C   UNL     1      -4.701  -2.173   6.078  1.00  0.00     0.188 C 
ENDROOT
BRANCH   1   2
ATOM      2  O   UNL     1      -4.391  -2.654   7.360  1.00  0.00    -0.376 OA
BRANCH   2   3
ATOM      3  C   UNL     1      -3.049  -2.942   7.657  1.00  0.00     0.202 C 
BRANCH   3   4
ATOM      4  C   UNL     1      -1.882  -2.063   7.162  1.00  0.00     0.261 C 
BRANCH   4   5
ATOM      5  O   UNL     1      -2.072  -1.165   6.048  1.00  0.00    -0.462 OA
BRANCH   5   6
ATOM      6  C   UNL     1      -1.631  -1.605   4.833  1.00  0.00     0.328 C 
ATOM      7  O   UNL     1      -1.304  -2.768   4.618  1.00  0.00    -0.250 OA
BRANCH   6   8
ATOM      8  C   UNL     1      -1.535  -0.456   3.779  1.00  0.00     0.194 C 
BRANCH   8   9
ATOM      9  N   UNL     1      -0.255  -0.680   3.117  1.00  0.00    -0.341 N 
ATOM     10  C   UNL     1       0.093  -1.626   2.186  1.00  0.00     0.240 C 
ATOM     11  O   UNL     1       1.258  -1.515   1.776  1.00  0.00    -0.273 OA
ATOM     12  H   UNL     1       0.466  -0.062   3.378  1.00  0.00     0.164 HD
BRANCH  10  13
ATOM     13  C   UNL     1      -0.900  -2.689   1.461  1.00  0.00     0.216 C 
BRANCH  13  14
ATOM     14  N   UNL     1      -2.126  -3.320   2.062  1.00  0.00    -0.347 N 
ATOM     15  C   UNL     1      -3.440  -3.611   1.788  1.00  0.00     0.225 C 
ATOM     16  O   UNL     1      -3.990  -4.277   2.683  1.00  0.00    -0.275 OA
ATOM     17  H   UNL     1      -1.912  -3.633   2.971  1.00  0.00     0.164 HD
BRANCH  15  18
ATOM     18  C   UNL     1      -4.338  -3.254   0.532  1.00  0.00     0.143 C 
BRANCH  18  19
ATOM     19  C   UNL     1      -5.248  -1.977   0.456  1.00  0.00     0.051 A 
ATOM     20  C   UNL     1      -8.989   2.743   4.541  1.00  0.00     0.048 C 
ATOM     21  C   UNL     1      -8.087   2.927   3.381  1.00  0.00    -0.005 A 
ATOM     22  C   UNL     1      -7.666   4.166   2.936  1.00  0.00     0.199 A 
ATOM     23  C   UNL     1      -7.465   1.958   2.508  1.00  0.00     0.024 A 
ATOM     24  O   UNL     1      -6.833   4.043   1.883  1.00  0.00    -0.464 OA
ATOM     25  C   UNL     1      -6.712   2.714   1.617  1.00  0.00     0.140 A 
ATOM     26  C   UNL     1      -7.408   0.534   2.368  1.00  0.00     0.024 A 
ATOM     27  C   UNL     1      -5.920   2.193   0.595  1.00  0.00     0.036 A 
ATOM     28  C   UNL     1      -6.627  -0.079   1.339  1.00  0.00     0.022 A 
ATOM     29  C   UNL     1      -5.085   3.087  -0.266  1.00  0.00     0.052 C 
ATOM     30  C   UNL     1      -5.946   0.785   0.475  1.00  0.00     0.145 A 
ATOM     31  C   UNL     1      -6.277  -1.562   1.268  1.00  0.00    -0.029 A 
ATOM     32  O   UNL     1      -5.175   0.250  -0.576  1.00  0.00    -0.422 OA
ATOM     33  C   UNL     1      -6.872  -2.416   2.362  1.00  0.00     0.046 C 
ATOM     34  C   UNL     1      -4.830  -1.083  -0.659  1.00  0.00     0.340 A 
ATOM     35  O   UNL     1      -4.170  -1.496  -1.606  1.00  0.00    -0.246 OA
ENDBRANCH  18  19
ENDBRANCH  15  18
ENDBRANCH  13  14
ENDBRANCH  10  13
ENDBRANCH   8   9
BRANCH   8  36
ATOM     36  C   UNL     1      -2.572  -0.351   2.677  1.00  0.00     0.017 C 
ATOM     37  C   UNL     1      -3.930  -0.762   3.092  1.00  0.00     0.010 C 
ATOM     38  C   UNL     1      -2.578   0.884   1.784  1.00  0.00     0.010 C 
ENDBRANCH   8  36
ENDBRANCH   6   8
ENDBRANCH   5   6
ENDBRANCH   4   5
ENDBRANCH   3   4
ENDBRANCH   2   3
ENDBRANCH   1   2
BRANCH   1  39
ATOM     39  C   UNL     1      -4.972  -0.645   6.037  1.00  0.00     0.188 C 
BRANCH  39  40
ATOM     40  O   UNL     1      -4.817   0.206   7.160  1.00  0.00    -0.377 OA
BRANCH  40  41
ATOM     41  C   UNL     1      -5.102  -0.282   8.455  1.00  0.00     0.188 C 
BRANCH  41  42
ATOM     42  C   UNL     1      -6.309  -1.225   8.682  1.00  0.00     0.188 C 
BRANCH  42  43
ATOM     43  O   UNL     1      -6.915  -1.724   7.495  1.00  0.00    -0.376 OA
BRANCH  43  44
ATOM     44  C   UNL     1      -8.254  -1.399   7.182  1.00  0.00     0.202 C 
BRANCH  44  45
ATOM     45  C   UNL     1      -8.493   0.023   6.692  1.00  0.00     0.261 C 
BRANCH  45  46
ATOM     46  O   UNL     1      -7.755   1.001   7.401  1.00  0.00    -0.460 OA
BRANCH  46  47
ATOM     47  C   UNL     1      -8.133   1.175   8.668  1.00  0.00     0.338 C 
ATOM     48  O   UNL     1      -8.989   0.534   9.294  1.00  0.00    -0.246 OA
BRANCH  47  49
ATOM     49  C   UNL     1      -7.438   2.327   9.210  1.00  0.00     0.060 A 
ATOM     50  C   UNL     1      -7.418   2.464  10.600  1.00  0.00     0.016 A 
ATOM     51  C   UNL     1      -7.227   3.396   8.333  1.00  0.00     0.016 A 
ATOM     52  C   UNL     1      -7.495   3.734  11.110  1.00  0.00     0.010 A 
ATOM     53  C   UNL     1      -7.366   4.655   8.835  1.00  0.00     0.010 A 
ATOM     54  C   UNL     1      -7.603   4.789  10.201  1.00  0.00    -0.014 A 
BRANCH  54  55
ATOM     55  C   UNL     1      -7.976   6.088  10.697  1.00  0.00     0.031 A 
ATOM     56  C   UNL     1      -6.817   6.844  11.205  1.00  0.00     0.074 A 
ATOM     57  C   UNL     1      -9.236   6.536  10.541  1.00  0.00     0.049 A 
ATOM     58  N   UNL     1      -6.582   7.201  12.422  1.00  0.00    -0.248 NA
ATOM     59  C   UNL     1      -5.684   7.050  10.284  1.00  0.00     0.031 C 
ATOM     60  C   UNL     1     -10.336   5.912   9.797  1.00  0.00     0.029 A 
ATOM     61  N   UNL     1      -9.771   7.721  10.932  1.00  0.00    -0.354 N 
ATOM     62  C   UNL     1      -5.365   7.868  12.368  1.00  0.00     0.074 A 
ATOM     63  C   UNL     1      -4.759   7.535  11.109  1.00  0.00     0.031 C 
ATOM     64  C   UNL     1     -11.318   6.822   9.601  1.00  0.00     0.029 A 
ATOM     65  C   UNL     1     -10.970   8.043  10.303  1.00  0.00     0.049 A 
ATOM     66  H   UNL     1      -9.347   8.302  11.603  1.00  0.00     0.167 HD
ATOM     67  C   UNL     1      -5.097   8.894  13.215  1.00  0.00     0.037 A 
ATOM     68  C   UNL     1     -11.536   9.277  10.299  1.00  0.00     0.037 A 
ATOM     69  C   UNL     1      -5.963   8.868  14.362  1.00  0.00     0.049 A 
ATOM     70  C   UNL     1     -10.916  10.039  11.419  1.00  0.00     0.074 A 
ATOM     71  C   UNL     1      -6.179   7.967  15.386  1.00  0.00     0.029 A 
ATOM     72  N   UNL     1      -7.056   9.700  14.351  1.00  0.00    -0.354 N 
ATOM     73  N   UNL     1     -11.098   9.752  12.679  1.00  0.00    -0.248 NA
ATOM     74  C   UNL     1      -9.721  10.815  11.122  1.00  0.00     0.031 C 
ATOM     75  C   UNL     1      -7.580   8.020  15.642  1.00  0.00     0.029 A 
ATOM     76  C   UNL     1      -8.137   8.991  14.808  1.00  0.00     0.049 A 
ATOM     77  H   UNL     1      -7.062  10.642  14.064  1.00  0.00     0.167 HD
ATOM     78  C   UNL     1      -9.855   9.939  13.269  1.00  0.00     0.074 A 
ATOM     79  C   UNL     1      -9.066  10.663  12.277  1.00  0.00     0.031 C 
ATOM     80  C   UNL     1      -9.496   9.231  14.379  1.00  0.00     0.037 A 
BRANCH  67  81
ATOM     81  C   UNL     1      -4.329  10.116  12.793  1.00  0.00     0.064 A 
ATOM     82  C   UNL     1      -3.878  11.014  13.773  1.00  0.00     0.173 A 
ATOM     83  C   UNL     1      -4.252  10.575  11.458  1.00  0.00     0.173 A 
ATOM     84  F   UNL     1      -3.954  10.696  15.074  1.00  0.00    -0.203 F 
ATOM     85  C   UNL     1      -3.417  12.290  13.441  1.00  0.00     0.198 A 
ATOM     86  C   UNL     1      -3.730  11.821  11.125  1.00  0.00     0.198 A 
ATOM     87  F   UNL     1      -4.781   9.895  10.434  1.00  0.00    -0.203 F 
ATOM     88  F   UNL     1      -3.105  13.156  14.414  1.00  0.00    -0.200 F 
ATOM     89  C   UNL     1      -3.338  12.690  12.118  1.00  0.00     0.200 A 
ATOM     90  F   UNL     1      -3.689  12.195   9.838  1.00  0.00    -0.200 F 
ATOM     91  F   UNL     1      -2.938  13.928  11.802  1.00  0.00    -0.200 F 
ENDBRANCH  67  81
BRANCH  68  92
ATOM     92  C   UNL     1     -12.252   9.959   9.190  1.00  0.00     0.064 A 
ATOM     93  C   UNL     1     -12.959  11.151   9.421  1.00  0.00     0.173 A 
ATOM     94  C   UNL     1     -12.017   9.628   7.840  1.00  0.00     0.173 A 
ATOM     95  F   UNL     1     -13.191  11.563  10.676  1.00  0.00    -0.203 F 
ATOM     96  C   UNL     1     -13.369  11.980   8.371  1.00  0.00     0.198 A 
ATOM     97  C   UNL     1     -12.434  10.452   6.793  1.00  0.00     0.198 A 
ATOM     98  F   UNL     1     -11.291   8.551   7.509  1.00  0.00    -0.203 F 
ATOM     99  F   UNL     1     -13.976  13.146   8.637  1.00  0.00    -0.200 F 
ATOM    100  C   UNL     1     -13.094  11.636   7.059  1.00  0.00     0.200 A 
ATOM    101  F   UNL     1     -12.130  10.123   5.529  1.00  0.00    -0.200 F 
ATOM    102  F   UNL     1     -13.425  12.462   6.056  1.00  0.00    -0.200 F 
ENDBRANCH  68  92
BRANCH  80 103
ATOM    103  C   UNL     1     -10.569   8.450  15.087  1.00  0.00     0.064 A 
ATOM    104  C   UNL     1     -11.240   7.348  14.526  1.00  0.00     0.173 A 
ATOM    105  C   UNL     1     -10.801   8.723  16.441  1.00  0.00     0.173 A 
ATOM    106  F   UNL     1     -11.001   6.966  13.265  1.00  0.00    -0.203 F 
ATOM    107  C   UNL     1     -12.124   6.578  15.282  1.00  0.00     0.198 A 
ATOM    108  C   UNL     1     -11.654   7.931  17.203  1.00  0.00     0.198 A 
ATOM    109  F   UNL     1     -10.148   9.730  17.042  1.00  0.00    -0.203 F 
ATOM    110  F   UNL     1     -12.754   5.534  14.723  1.00  0.00    -0.200 F 
ATOM    111  C   UNL     1     -12.320   6.864  16.623  1.00  0.00     0.200 A 
ATOM    112  F   UNL     1     -11.801   8.180  18.511  1.00  0.00    -0.200 F 
ATOM    113  F   UNL     1     -13.128   6.092  17.364  1.00  0.00    -0.200 F 
ENDBRANCH  80 103
ENDBRANCH  54  55
ENDBRANCH  47  49
ENDBRANCH  46  47
ENDBRANCH  45  46
ENDBRANCH  44  45
ENDBRANCH  43  44
ENDBRANCH  42  43
ENDBRANCH  41  42
ENDBRANCH  40  41
ENDBRANCH  39  40
ENDBRANCH   1  39
TORSDOF 26
