REMARK SMILES CC1=C(CC(=O)OCCOCCOCCOCCOC(=O)c2ccc(-c3c4nc(c(-c5c(F)c(F)c(F)c(F)c5F)c5ccc([nH]5)c(-c5c(F)c(F)c(F)c(F)c5F)c5nc(c(-c6c(F)c(F)c(F)c(F)c6F)c6ccc3[nH]6)C=C5)C=C4)cc2)c2cc(F)ccc2/C1=C\c1ccc([S@@+](C)[O-])cc1
REMARK SMILES IDX 12 1 11 2 10 3 9 4 8 5 7 6 5 7 6 8 4 9 3 10 1 11 2 12 92 13
REMARK SMILES IDX 85 14 91 15 93 16 86 17 90 18 87 19 89 20 88 21 94 22 95 23
REMARK SMILES IDX 102 24 96 25 101 26 97 27 98 28 99 29 100 30 13 31 14 32
REMARK SMILES IDX 15 33 16 34 17 35 18 36 19 37 20 38 21 39 22 40 23 41 84 42
REMARK SMILES IDX 24 43 83 44 25 45 26 46 27 47 77 48 28 49 82 50 76 51 78 52
REMARK SMILES IDX 29 53 81 54 75 55 74 56 30 58 62 59 42 60 61 61 43 62 46 63
REMARK SMILES IDX 60 64 79 65 44 66 45 67 59 69 80 70 47 71 31 72 32 73 40 74
REMARK SMILES IDX 33 75 34 76 38 77 41 78 35 79 36 80 39 81 37 82 63 83 64 84
REMARK SMILES IDX 72 85 65 86 66 87 70 88 73 89 67 90 68 91 71 92 69 93 48 94
REMARK SMILES IDX 49 95 57 96 50 97 51 98 55 99 58 100 52 101 53 102 56 103
REMARK SMILES IDX 54 104
REMARK H PARENT 78 57 46 68
REMARK Flexibility Score: inf
ROOT
ATOM      1  C   UNL     1       2.428  -3.830   3.179  1.00  0.00     0.188 C 
ENDROOT
BRANCH   1   2
ATOM      2  C   UNL     1       2.957  -5.059   2.410  1.00  0.00     0.188 C 
BRANCH   2   3
ATOM      3  O   UNL     1       4.364  -5.064   2.274  1.00  0.00    -0.376 OA
BRANCH   3   4
ATOM      4  C   UNL     1       4.917  -4.685   1.029  1.00  0.00     0.202 C 
BRANCH   4   5
ATOM      5  C   UNL     1       4.541  -3.324   0.417  1.00  0.00     0.261 C 
BRANCH   5   6
ATOM      6  O   UNL     1       3.151  -2.939   0.466  1.00  0.00    -0.463 OA
BRANCH   6   7
ATOM      7  C   UNL     1       2.334  -3.350  -0.530  1.00  0.00     0.310 C 
ATOM      8  O   UNL     1       2.707  -4.061  -1.458  1.00  0.00    -0.252 OA
BRANCH   7   9
ATOM      9  C   UNL     1       0.881  -2.852  -0.410  1.00  0.00     0.159 C 
BRANCH   9  10
ATOM     10  C   UNL     1       0.413  -2.054   0.779  1.00  0.00    -0.025 C 
ATOM     11  C   UNL     1       1.205   0.279   0.146  1.00  0.00     0.045 C 
ATOM     12  C   UNL     1       0.537  -0.725   1.024  1.00  0.00    -0.039 C 
ATOM     13  C   UNL     1      -0.117  -0.374   2.304  1.00  0.00    -0.014 C 
ATOM     14  C   UNL     1      -0.393  -2.623   1.884  1.00  0.00    -0.011 A 
ATOM     15  C   UNL     1      -0.703  -1.622   2.829  1.00  0.00    -0.010 A 
ATOM     16  C   UNL     1      -0.150   0.858   2.854  1.00  0.00     0.017 C 
ATOM     17  C   UNL     1      -0.808  -3.933   2.095  1.00  0.00     0.048 A 
ATOM     18  C   UNL     1      -1.421  -1.927   3.981  1.00  0.00     0.012 A 
ATOM     19  C   UNL     1      -1.503  -4.230   3.268  1.00  0.00     0.123 A 
ATOM     20  C   UNL     1      -1.812  -3.246   4.206  1.00  0.00     0.040 A 
ATOM     21  F   UNL     1      -1.860  -5.497   3.517  1.00  0.00    -0.207 F 
BRANCH  16  22
ATOM     22  C   UNL     1      -0.776   1.218   4.136  1.00  0.00    -0.025 A 
ATOM     23  C   UNL     1      -0.101   0.977   5.339  1.00  0.00     0.013 A 
ATOM     24  C   UNL     1      -2.085   1.709   4.176  1.00  0.00     0.013 A 
ATOM     25  C   UNL     1      -0.756   1.142   6.566  1.00  0.00     0.061 A 
ATOM     26  C   UNL     1      -2.735   1.886   5.404  1.00  0.00     0.061 A 
ATOM     27  C   UNL     1      -2.086   1.578   6.607  1.00  0.00     0.152 A 
BRANCH  27  28
ATOM     28  S   UNL     1      -3.019   1.575   8.162  1.00  0.00    -0.018 S 
ATOM     29  C   UNL     1      -1.930   2.589   9.181  1.00  0.00     0.346 C 
ATOM     30  O   UNL     1      -4.339   2.390   7.912  1.00  0.00    -0.612 OA
ENDBRANCH  27  28
ENDBRANCH  16  22
ENDBRANCH   9  10
ENDBRANCH   7   9
ENDBRANCH   6   7
ENDBRANCH   5   6
ENDBRANCH   4   5
ENDBRANCH   3   4
ENDBRANCH   2   3
ENDBRANCH   1   2
BRANCH   1  31
ATOM     31  O   UNL     1       3.175  -3.135   4.171  1.00  0.00    -0.377 OA
BRANCH  31  32
ATOM     32  C   UNL     1       4.390  -3.692   4.622  1.00  0.00     0.188 C 
BRANCH  32  33
ATOM     33  C   UNL     1       4.274  -5.015   5.391  1.00  0.00     0.188 C 
BRANCH  33  34
ATOM     34  O   UNL     1       3.022  -5.673   5.226  1.00  0.00    -0.376 OA
BRANCH  34  35
ATOM     35  C   UNL     1       2.158  -5.677   6.356  1.00  0.00     0.202 C 
BRANCH  35  36
ATOM     36  C   UNL     1       1.416  -4.363   6.641  1.00  0.00     0.261 C 
BRANCH  36  37
ATOM     37  O   UNL     1       2.239  -3.215   6.889  1.00  0.00    -0.460 OA
BRANCH  37  38
ATOM     38  C   UNL     1       3.088  -3.251   7.934  1.00  0.00     0.338 C 
ATOM     39  O   UNL     1       3.223  -4.141   8.754  1.00  0.00    -0.246 OA
BRANCH  38  40
ATOM     40  C   UNL     1       3.972  -2.075   7.805  1.00  0.00     0.060 A 
ATOM     41  C   UNL     1       3.431  -0.800   7.611  1.00  0.00     0.016 A 
ATOM     42  C   UNL     1       5.360  -2.264   7.819  1.00  0.00     0.016 A 
ATOM     43  C   UNL     1       4.281   0.292   7.445  1.00  0.00     0.010 A 
ATOM     44  C   UNL     1       6.210  -1.175   7.628  1.00  0.00     0.010 A 
ATOM     45  C   UNL     1       5.675   0.112   7.465  1.00  0.00    -0.014 A 
BRANCH  45  46
ATOM     46  C   UNL     1       6.566   1.292   7.538  1.00  0.00     0.031 A 
ATOM     47  C   UNL     1       7.267   1.843   6.338  1.00  0.00     0.074 A 
ATOM     48  C   UNL     1       6.740   1.848   8.751  1.00  0.00     0.049 A 
ATOM     49  N   UNL     1       8.043   2.895   6.255  1.00  0.00    -0.248 NA
ATOM     50  C   UNL     1       7.085   1.125   5.069  1.00  0.00     0.031 C 
ATOM     51  C   UNL     1       6.116   1.366   9.985  1.00  0.00     0.029 A 
ATOM     52  N   UNL     1       7.484   2.926   9.150  1.00  0.00    -0.354 N 
ATOM     53  C   UNL     1       8.426   2.983   4.925  1.00  0.00     0.074 A 
ATOM     54  C   UNL     1       7.831   1.851   4.243  1.00  0.00     0.031 C 
ATOM     55  C   UNL     1       6.492   2.153  11.002  1.00  0.00     0.029 A 
ATOM     56  C   UNL     1       7.398   3.178  10.496  1.00  0.00     0.049 A 
ATOM     57  H   UNL     1       8.026   3.467   8.532  1.00  0.00     0.167 HD
ATOM     58  C   UNL     1       9.192   3.934   4.337  1.00  0.00     0.037 A 
ATOM     59  C   UNL     1       7.985   4.131  11.242  1.00  0.00     0.037 A 
ATOM     60  C   UNL     1       9.794   5.043   5.038  1.00  0.00     0.049 A 
ATOM     61  C   UNL     1       8.867   5.141  10.569  1.00  0.00     0.074 A 
ATOM     62  C   UNL     1      10.555   6.079   4.524  1.00  0.00     0.029 A 
ATOM     63  N   UNL     1       9.716   5.251   6.409  1.00  0.00    -0.354 N 
ATOM     64  N   UNL     1       9.164   5.259   9.298  1.00  0.00    -0.248 NA
ATOM     65  C   UNL     1       9.489   6.154  11.430  1.00  0.00     0.031 C 
ATOM     66  C   UNL     1      10.980   6.883   5.587  1.00  0.00     0.029 A 
ATOM     67  C   UNL     1      10.441   6.380   6.760  1.00  0.00     0.049 A 
ATOM     68  H   UNL     1       9.219   4.681   7.039  1.00  0.00     0.167 HD
ATOM     69  C   UNL     1       9.992   6.366   9.202  1.00  0.00     0.074 A 
ATOM     70  C   UNL     1      10.136   6.897  10.542  1.00  0.00     0.031 C 
ATOM     71  C   UNL     1      10.582   6.892   8.101  1.00  0.00     0.037 A 
BRANCH  58  72
ATOM     72  C   UNL     1       9.423   3.839   2.856  1.00  0.00     0.064 A 
ATOM     73  C   UNL     1       8.399   4.122   1.939  1.00  0.00     0.173 A 
ATOM     74  C   UNL     1      10.700   3.562   2.344  1.00  0.00     0.173 A 
ATOM     75  F   UNL     1       7.159   4.391   2.375  1.00  0.00    -0.203 F 
ATOM     76  C   UNL     1       8.642   4.118   0.568  1.00  0.00     0.198 A 
ATOM     77  C   UNL     1      10.945   3.584   0.973  1.00  0.00     0.198 A 
ATOM     78  F   UNL     1      11.719   3.296   3.176  1.00  0.00    -0.203 F 
ATOM     79  F   UNL     1       7.641   4.368  -0.289  1.00  0.00    -0.200 F 
ATOM     80  C   UNL     1       9.916   3.859   0.086  1.00  0.00     0.200 A 
ATOM     81  F   UNL     1      12.181   3.349   0.510  1.00  0.00    -0.200 F 
ATOM     82  F   UNL     1      10.152   3.875  -1.233  1.00  0.00    -0.200 F 
ENDBRANCH  58  72
BRANCH  59  83
ATOM     83  C   UNL     1       7.709   4.186  12.698  1.00  0.00     0.064 A 
ATOM     84  C   UNL     1       6.912   5.204  13.236  1.00  0.00     0.173 A 
ATOM     85  C   UNL     1       8.185   3.195  13.570  1.00  0.00     0.173 A 
ATOM     86  F   UNL     1       6.444   6.178  12.442  1.00  0.00    -0.203 F 
ATOM     87  C   UNL     1       6.607   5.234  14.595  1.00  0.00     0.198 A 
ATOM     88  C   UNL     1       7.857   3.212  14.923  1.00  0.00     0.198 A 
ATOM     89  F   UNL     1       8.941   2.192  13.098  1.00  0.00    -0.203 F 
ATOM     90  F   UNL     1       5.862   6.232  15.089  1.00  0.00    -0.200 F 
ATOM     91  C   UNL     1       7.072   4.233  15.435  1.00  0.00     0.200 A 
ATOM     92  F   UNL     1       8.291   2.232  15.728  1.00  0.00    -0.200 F 
ATOM     93  F   UNL     1       6.762   4.253  16.738  1.00  0.00    -0.200 F 
ENDBRANCH  59  83
BRANCH  71  94
ATOM     94  C   UNL     1      11.438   8.109   8.296  1.00  0.00     0.064 A 
ATOM     95  C   UNL     1      12.697   8.026   8.910  1.00  0.00     0.173 A 
ATOM     96  C   UNL     1      11.021   9.360   7.817  1.00  0.00     0.173 A 
ATOM     97  F   UNL     1      13.132   6.856   9.401  1.00  0.00    -0.203 F 
ATOM     98  C   UNL     1      13.500   9.154   9.051  1.00  0.00     0.198 A 
ATOM     99  C   UNL     1      11.840  10.480   7.933  1.00  0.00     0.198 A 
ATOM    100  F   UNL     1       9.828   9.492   7.218  1.00  0.00    -0.203 F 
ATOM    101  F   UNL     1      14.682   9.059   9.675  1.00  0.00    -0.200 F 
ATOM    102  C   UNL     1      13.075  10.377   8.554  1.00  0.00     0.200 A 
ATOM    103  F   UNL     1      11.434  11.659   7.441  1.00  0.00    -0.200 F 
ATOM    104  F   UNL     1      13.856  11.460   8.677  1.00  0.00    -0.200 F 
ENDBRANCH  71  94
ENDBRANCH  45  46
ENDBRANCH  38  40
ENDBRANCH  37  38
ENDBRANCH  36  37
ENDBRANCH  35  36
ENDBRANCH  34  35
ENDBRANCH  33  34
ENDBRANCH  32  33
ENDBRANCH  31  32
ENDBRANCH   1  31
TORSDOF 23
