REMARK SMILES Cc1cc(Cl)c2c(c1)C=C(C(=O)OCCOCCOCCOCCOC(=O)c1ccc(-c3c4nc(c(-c5c(F)c(F)c(F)c(F)c5F)c5ccc([nH]5)c(-c5c(F)c(F)c(F)c(F)c5F)c5nc(c(-c6c(F)c(F)c(F)c(F)c6F)c6ccc3[nH]6)C=C5)C=C4)cc1)[C@@H](C(F)(F)F)O2
REMARK SMILES IDX 20 1 19 2 18 3 17 4 16 5 15 6 14 7 13 8 11 9 12 10 10 11
REMARK SMILES IDX 1 12 2 13 3 14 8 15 4 16 7 17 5 18 6 19 9 20 96 21 91 22
REMARK SMILES IDX 92 23 93 24 94 25 95 26 21 27 22 28 23 29 24 30 25 31 26 32
REMARK SMILES IDX 27 33 28 34 29 35 90 36 30 37 89 38 31 39 32 40 33 41 83 42
REMARK SMILES IDX 34 43 88 44 82 45 84 46 35 47 87 48 81 49 80 50 36 52 68 53
REMARK SMILES IDX 48 54 67 55 49 56 52 57 66 58 85 59 50 60 51 61 65 63 86 64
REMARK SMILES IDX 53 65 37 66 38 67 46 68 39 69 40 70 44 71 47 72 41 73 42 74
REMARK SMILES IDX 45 75 43 76 69 77 70 78 78 79 71 80 72 81 76 82 79 83 73 84
REMARK SMILES IDX 74 85 77 86 75 87 54 88 55 89 63 90 56 91 57 92 61 93 64 94
REMARK SMILES IDX 58 95 59 96 62 97 60 98
REMARK H PARENT 84 51 52 62
REMARK Flexibility Score: inf
ROOT
ATOM      1  C   UNL     1      -1.405   9.929  -1.095  1.00  0.00     0.188 C 
ENDROOT
BRANCH   1   2
ATOM      2  O   UNL     1      -0.774   8.748  -1.590  1.00  0.00    -0.377 OA
BRANCH   2   3
ATOM      3  C   UNL     1      -0.553   7.690  -0.669  1.00  0.00     0.188 C 
BRANCH   3   4
ATOM      4  C   UNL     1       0.761   7.840   0.122  1.00  0.00     0.188 C 
BRANCH   4   5
ATOM      5  O   UNL     1       1.312   9.142   0.142  1.00  0.00    -0.376 OA
BRANCH   5   6
ATOM      6  C   UNL     1       2.062   9.682  -0.934  1.00  0.00     0.202 C 
BRANCH   6   7
ATOM      7  C   UNL     1       2.111   9.157  -2.383  1.00  0.00     0.261 C 
BRANCH   7   8
ATOM      8  O   UNL     1       1.567   7.869  -2.649  1.00  0.00    -0.460 OA
BRANCH   8   9
ATOM      9  C   UNL     1       2.374   6.814  -2.438  1.00  0.00     0.338 C 
ATOM     10  O   UNL     1       3.534   6.841  -2.070  1.00  0.00    -0.246 OA
BRANCH   9  11
ATOM     11  C   UNL     1       1.552   5.591  -2.557  1.00  0.00     0.087 C 
ATOM     12  C   UNL     1       0.874   0.069   0.033  1.00  0.00     0.044 C 
ATOM     13  C   UNL     1       0.565   1.170  -0.937  1.00  0.00    -0.049 A 
ATOM     14  C   UNL     1      -0.279   0.961  -2.033  1.00  0.00     0.028 A 
ATOM     15  C   UNL     1       1.155   2.426  -0.766  1.00  0.00     0.015 A 
ATOM     16  C   UNL     1      -0.531   1.998  -2.938  1.00  0.00     0.084 A 
ATOM     17  C   UNL     1       0.948   3.446  -1.702  1.00  0.00     0.019 A 
ATOM     18  Cl  UNL     1      -1.572   1.675  -4.279  1.00  0.00    -0.080 Cl
ATOM     19  C   UNL     1       0.082   3.247  -2.780  1.00  0.00     0.146 A 
ATOM     20  C   UNL     1       1.706   4.677  -1.593  1.00  0.00     0.027 C 
ATOM     21  O   UNL     1      -0.190   4.221  -3.702  1.00  0.00    -0.474 OA
ATOM     22  C   UNL     1       0.564   5.462  -3.685  1.00  0.00     0.316 C 
BRANCH  22  23
ATOM     23  C   UNL     1       1.229   5.648  -5.055  1.00  0.00     0.430 C 
ATOM     24  F   UNL     1       0.349   5.454  -6.066  1.00  0.00    -0.167 F 
ATOM     25  F   UNL     1       1.725   6.899  -5.208  1.00  0.00    -0.167 F 
ATOM     26  F   UNL     1       2.254   4.784  -5.234  1.00  0.00    -0.167 F 
ENDBRANCH  22  23
ENDBRANCH   9  11
ENDBRANCH   8   9
ENDBRANCH   7   8
ENDBRANCH   6   7
ENDBRANCH   5   6
ENDBRANCH   4   5
ENDBRANCH   3   4
ENDBRANCH   2   3
ENDBRANCH   1   2
BRANCH   1  27
ATOM     27  C   UNL     1      -1.279  10.343   0.391  1.00  0.00     0.188 C 
BRANCH  27  28
ATOM     28  O   UNL     1      -1.389   9.264   1.309  1.00  0.00    -0.376 OA
BRANCH  28  29
ATOM     29  C   UNL     1      -2.584   9.104   2.050  1.00  0.00     0.202 C 
BRANCH  29  30
ATOM     30  C   UNL     1      -3.840   8.718   1.257  1.00  0.00     0.261 C 
BRANCH  30  31
ATOM     31  O   UNL     1      -4.185   9.594   0.176  1.00  0.00    -0.460 OA
BRANCH  31  32
ATOM     32  C   UNL     1      -4.508  10.864   0.494  1.00  0.00     0.338 C 
ATOM     33  O   UNL     1      -4.569  11.357   1.609  1.00  0.00    -0.246 OA
BRANCH  32  34
ATOM     34  C   UNL     1      -4.606  11.629  -0.763  1.00  0.00     0.060 A 
ATOM     35  C   UNL     1      -3.764  12.731  -0.960  1.00  0.00     0.016 A 
ATOM     36  C   UNL     1      -5.536  11.259  -1.737  1.00  0.00     0.016 A 
ATOM     37  C   UNL     1      -3.881  13.498  -2.119  1.00  0.00     0.010 A 
ATOM     38  C   UNL     1      -5.670  12.041  -2.884  1.00  0.00     0.010 A 
ATOM     39  C   UNL     1      -4.870  13.184  -3.059  1.00  0.00    -0.014 A 
BRANCH  39  40
ATOM     40  C   UNL     1      -5.218  14.151  -4.125  1.00  0.00     0.031 A 
ATOM     41  C   UNL     1      -6.381  15.073  -3.890  1.00  0.00     0.074 A 
ATOM     42  C   UNL     1      -4.525  14.203  -5.274  1.00  0.00     0.049 A 
ATOM     43  N   UNL     1      -6.965  15.903  -4.714  1.00  0.00    -0.248 NA
ATOM     44  C   UNL     1      -6.967  15.054  -2.538  1.00  0.00     0.031 C 
ATOM     45  C   UNL     1      -3.340  13.408  -5.583  1.00  0.00     0.029 A 
ATOM     46  N   UNL     1      -4.737  14.953  -6.404  1.00  0.00    -0.354 N 
ATOM     47  C   UNL     1      -7.988  16.496  -3.986  1.00  0.00     0.074 A 
ATOM     48  C   UNL     1      -7.963  15.918  -2.661  1.00  0.00     0.031 C 
ATOM     49  C   UNL     1      -2.939  13.697  -6.834  1.00  0.00     0.029 A 
ATOM     50  C   UNL     1      -3.867  14.660  -7.425  1.00  0.00     0.049 A 
ATOM     51  H   UNL     1      -5.443  15.635  -6.475  1.00  0.00     0.167 HD
ATOM     52  C   UNL     1      -8.866  17.443  -4.391  1.00  0.00     0.037 A 
ATOM     53  C   UNL     1      -3.849  15.096  -8.700  1.00  0.00     0.037 A 
ATOM     54  C   UNL     1      -8.886  18.007  -5.715  1.00  0.00     0.049 A 
ATOM     55  C   UNL     1      -4.898  16.081  -9.154  1.00  0.00     0.074 A 
ATOM     56  C   UNL     1      -9.742  18.962  -6.231  1.00  0.00     0.029 A 
ATOM     57  N   UNL     1      -8.008  17.663  -6.734  1.00  0.00    -0.354 N 
ATOM     58  N   UNL     1      -5.875  16.627  -8.471  1.00  0.00    -0.248 NA
ATOM     59  C   UNL     1      -4.837  16.512 -10.558  1.00  0.00     0.031 C 
ATOM     60  C   UNL     1      -9.420  19.155  -7.577  1.00  0.00     0.029 A 
ATOM     61  C   UNL     1      -8.316  18.375  -7.881  1.00  0.00     0.049 A 
ATOM     62  H   UNL     1      -7.277  17.009  -6.653  1.00  0.00     0.167 HD
ATOM     63  C   UNL     1      -6.519  17.493  -9.347  1.00  0.00     0.074 A 
ATOM     64  C   UNL     1      -5.815  17.405 -10.609  1.00  0.00     0.031 C 
ATOM     65  C   UNL     1      -7.594  18.290  -9.126  1.00  0.00     0.037 A 
BRANCH  52  66
ATOM     66  C   UNL     1      -9.894  17.918  -3.407  1.00  0.00     0.064 A 
ATOM     67  C   UNL     1      -9.550  18.731  -2.317  1.00  0.00     0.173 A 
ATOM     68  C   UNL     1     -11.252  17.624  -3.604  1.00  0.00     0.173 A 
ATOM     69  F   UNL     1      -8.264  19.025  -2.073  1.00  0.00    -0.203 F 
ATOM     70  C   UNL     1     -10.527  19.230  -1.460  1.00  0.00     0.198 A 
ATOM     71  C   UNL     1     -12.229  18.149  -2.763  1.00  0.00     0.198 A 
ATOM     72  F   UNL     1     -11.634  16.848  -4.629  1.00  0.00    -0.203 F 
ATOM     73  F   UNL     1     -10.173  19.982  -0.408  1.00  0.00    -0.200 F 
ATOM     74  C   UNL     1     -11.866  18.950  -1.691  1.00  0.00     0.200 A 
ATOM     75  F   UNL     1     -13.522  17.889  -2.997  1.00  0.00    -0.200 F 
ATOM     76  F   UNL     1     -12.807  19.453  -0.880  1.00  0.00    -0.200 F 
ENDBRANCH  52  66
BRANCH  53  77
ATOM     77  C   UNL     1      -2.808  14.601  -9.639  1.00  0.00     0.064 A 
ATOM     78  C   UNL     1      -1.822  15.460 -10.141  1.00  0.00     0.173 A 
ATOM     79  C   UNL     1      -2.777  13.261 -10.055  1.00  0.00     0.173 A 
ATOM     80  F   UNL     1      -1.825  16.756  -9.796  1.00  0.00    -0.203 F 
ATOM     81  C   UNL     1      -0.852  15.003 -11.031  1.00  0.00     0.198 A 
ATOM     82  C   UNL     1      -1.787  12.797 -10.919  1.00  0.00     0.198 A 
ATOM     83  F   UNL     1      -3.700  12.396  -9.608  1.00  0.00    -0.203 F 
ATOM     84  F   UNL     1       0.051  15.857 -11.530  1.00  0.00    -0.200 F 
ATOM     85  C   UNL     1      -0.830  13.670 -11.412  1.00  0.00     0.200 A 
ATOM     86  F   UNL     1      -1.762  11.505 -11.274  1.00  0.00    -0.200 F 
ATOM     87  F   UNL     1       0.110  13.229 -12.260  1.00  0.00    -0.200 F 
ENDBRANCH  53  77
BRANCH  65  88
ATOM     88  C   UNL     1      -8.045  19.180 -10.250  1.00  0.00     0.064 A 
ATOM     89  C   UNL     1      -8.646  18.668 -11.409  1.00  0.00     0.173 A 
ATOM     90  C   UNL     1      -7.918  20.575 -10.140  1.00  0.00     0.173 A 
ATOM     91  F   UNL     1      -8.786  17.343 -11.569  1.00  0.00    -0.203 F 
ATOM     92  C   UNL     1      -9.071  19.515 -12.429  1.00  0.00     0.198 A 
ATOM     93  C   UNL     1      -8.379  21.420 -11.145  1.00  0.00     0.198 A 
ATOM     94  F   UNL     1      -7.364  21.120  -9.047  1.00  0.00    -0.203 F 
ATOM     95  F   UNL     1      -9.592  19.000 -13.552  1.00  0.00    -0.200 F 
ATOM     96  C   UNL     1      -8.945  20.890 -12.293  1.00  0.00     0.200 A 
ATOM     97  F   UNL     1      -8.276  22.749 -11.000  1.00  0.00    -0.200 F 
ATOM     98  F   UNL     1      -9.365  21.703 -13.272  1.00  0.00    -0.200 F 
ENDBRANCH  65  88
ENDBRANCH  39  40
ENDBRANCH  32  34
ENDBRANCH  31  32
ENDBRANCH  30  31
ENDBRANCH  29  30
ENDBRANCH  28  29
ENDBRANCH  27  28
ENDBRANCH   1  27
TORSDOF 21
