REMARK SMILES Cc1cc(C(=O)OCCOCCOCCOCCOC(=O)c2ccc(-c3c4nc(c(-c5c(F)c(F)c(F)c(F)c5F)c5ccc([nH]5)c(-c5c(F)c(F)c(F)c(F)c5F)c5nc(c(-c6c(F)c(F)c(F)c(F)c6F)c6ccc3[nH]6)C=C5)C=C4)cc2)cc(C)c1OC[C@H]1C[N@@H+](C)CCO1
REMARK SMILES IDX 12 1 11 2 10 3 9 4 8 5 7 6 5 7 6 8 4 9 1 10 2 11 3 12 88 13
REMARK SMILES IDX 86 14 85 15 87 16 89 17 90 18 91 19 92 20 97 21 93 22 96 23
REMARK SMILES IDX 94 24 95 25 13 27 14 28 15 29 16 30 17 31 18 32 19 33 20 34
REMARK SMILES IDX 21 35 22 36 23 37 84 38 24 39 83 40 25 41 26 42 27 43 77 44
REMARK SMILES IDX 28 45 82 46 76 47 78 48 29 49 81 50 75 51 74 52 30 54 62 55
REMARK SMILES IDX 42 56 61 57 43 58 46 59 60 60 79 61 44 62 45 63 59 65 80 66
REMARK SMILES IDX 47 67 31 68 32 69 40 70 33 71 34 72 38 73 41 74 35 75 36 76
REMARK SMILES IDX 39 77 37 78 63 79 64 80 72 81 65 82 66 83 70 84 73 85 67 86
REMARK SMILES IDX 68 87 71 88 69 89 48 90 49 91 57 92 50 93 51 94 55 95 58 96
REMARK SMILES IDX 52 97 53 98 56 99 54 100
REMARK H PARENT 93 26 78 53 46 64
REMARK Flexibility Score: inf
ROOT
ATOM      1  C   UNL     1      10.127  -2.999   0.841  1.00  0.00     0.188 C 
ENDROOT
BRANCH   1   2
ATOM      2  C   UNL     1      10.207  -2.131   2.116  1.00  0.00     0.188 C 
BRANCH   2   3
ATOM      3  O   UNL     1      10.937  -2.725   3.175  1.00  0.00    -0.376 OA
BRANCH   3   4
ATOM      4  C   UNL     1      10.224  -3.133   4.328  1.00  0.00     0.202 C 
BRANCH   4   5
ATOM      5  C   UNL     1       9.152  -4.226   4.173  1.00  0.00     0.261 C 
BRANCH   5   6
ATOM      6  O   UNL     1       8.262  -4.086   3.055  1.00  0.00    -0.460 OA
BRANCH   6   7
ATOM      7  C   UNL     1       7.258  -3.190   3.188  1.00  0.00     0.338 C 
ATOM      8  O   UNL     1       7.024  -2.502   4.166  1.00  0.00    -0.246 OA
BRANCH   7   9
ATOM      9  C   UNL     1       6.642  -2.981   1.857  1.00  0.00     0.060 A 
ATOM     10  C   UNL     1       7.005  -0.260  -0.652  1.00  0.00     0.048 C 
ATOM     11  C   UNL     1       6.368  -1.465  -0.031  1.00  0.00    -0.008 A 
ATOM     12  C   UNL     1       6.748  -1.708   1.300  1.00  0.00     0.023 A 
ATOM     13  C   UNL     1       5.614  -2.425  -0.713  1.00  0.00     0.125 A 
ATOM     14  C   UNL     1       5.568  -3.739  -0.181  1.00  0.00    -0.008 A 
ATOM     15  C   UNL     1       6.124  -4.017   1.087  1.00  0.00     0.023 A 
ATOM     16  C   UNL     1       5.047  -4.905  -0.985  1.00  0.00     0.048 C 
BRANCH  13  17
ATOM     17  O   UNL     1       4.933  -2.244  -1.883  1.00  0.00    -0.490 OA
BRANCH  17  18
ATOM     18  C   UNL     1       4.341  -0.991  -2.297  1.00  0.00     0.267 C 
BRANCH  18  19
ATOM     19  C   UNL     1       3.696  -0.070  -1.232  1.00  0.00     0.210 C 
ATOM     20  C   UNL     1       4.261   1.364  -1.332  1.00  0.00     0.298 C 
ATOM     21  O   UNL     1       2.264   0.064  -1.453  1.00  0.00    -0.363 OA
ATOM     22  N   UNL     1       3.830   2.080  -0.121  1.00  0.00    -0.333 N 
ATOM     23  C   UNL     1       1.667   0.896  -0.430  1.00  0.00     0.222 C 
ATOM     24  C   UNL     1       4.563   3.316   0.088  1.00  0.00     0.332 C 
ATOM     25  C   UNL     1       2.375   2.262  -0.230  1.00  0.00     0.290 C 
ATOM     26  H   UNL     1       4.042   1.536   0.715  1.00  0.00     0.348 HD
ENDBRANCH  18  19
ENDBRANCH  17  18
ENDBRANCH  13  17
ENDBRANCH   7   9
ENDBRANCH   6   7
ENDBRANCH   5   6
ENDBRANCH   4   5
ENDBRANCH   3   4
ENDBRANCH   2   3
ENDBRANCH   1   2
BRANCH   1  27
ATOM     27  O   UNL     1      10.572  -4.348   0.883  1.00  0.00    -0.377 OA
BRANCH  27  28
ATOM     28  C   UNL     1      11.798  -4.669   1.532  1.00  0.00     0.188 C 
BRANCH  28  29
ATOM     29  C   UNL     1      12.966  -3.656   1.593  1.00  0.00     0.188 C 
BRANCH  29  30
ATOM     30  O   UNL     1      12.753  -2.463   0.859  1.00  0.00    -0.376 OA
BRANCH  30  31
ATOM     31  C   UNL     1      13.498  -2.289  -0.333  1.00  0.00     0.202 C 
BRANCH  31  32
ATOM     32  C   UNL     1      13.236  -3.288  -1.468  1.00  0.00     0.261 C 
BRANCH  32  33
ATOM     33  O   UNL     1      13.339  -4.679  -1.124  1.00  0.00    -0.460 OA
BRANCH  33  34
ATOM     34  C   UNL     1      14.558  -5.152  -0.794  1.00  0.00     0.338 C 
ATOM     35  O   UNL     1      15.608  -4.530  -0.754  1.00  0.00    -0.246 OA
BRANCH  34  36
ATOM     36  C   UNL     1      14.380  -6.532  -0.299  1.00  0.00     0.060 A 
ATOM     37  C   UNL     1      14.733  -6.840   1.022  1.00  0.00     0.016 A 
ATOM     38  C   UNL     1      13.841  -7.513  -1.134  1.00  0.00     0.016 A 
ATOM     39  C   UNL     1      14.576  -8.141   1.502  1.00  0.00     0.010 A 
ATOM     40  C   UNL     1      13.706  -8.819  -0.661  1.00  0.00     0.010 A 
ATOM     41  C   UNL     1      14.103  -9.146   0.648  1.00  0.00    -0.014 A 
BRANCH  41  42
ATOM     42  C   UNL     1      14.214 -10.569   1.050  1.00  0.00     0.031 A 
ATOM     43  C   UNL     1      15.390 -11.359   0.546  1.00  0.00     0.074 A 
ATOM     44  C   UNL     1      13.303 -11.149   1.849  1.00  0.00     0.049 A 
ATOM     45  N   UNL     1      15.678 -12.625   0.707  1.00  0.00    -0.248 NA
ATOM     46  C   UNL     1      16.374 -10.614  -0.257  1.00  0.00     0.031 C 
ATOM     47  C   UNL     1      12.145 -10.480   2.435  1.00  0.00     0.029 A 
ATOM     48  N   UNL     1      13.209 -12.444   2.295  1.00  0.00    -0.354 N 
ATOM     49  C   UNL     1      16.867 -12.829   0.020  1.00  0.00     0.074 A 
ATOM     50  C   UNL     1      17.229 -11.568  -0.589  1.00  0.00     0.031 C 
ATOM     51  C   UNL     1      11.447 -11.374   3.158  1.00  0.00     0.029 A 
ATOM     52  C   UNL     1      12.090 -12.684   3.053  1.00  0.00     0.049 A 
ATOM     53  H   UNL     1      13.880 -13.135   2.091  1.00  0.00     0.167 HD
ATOM     54  C   UNL     1      17.597 -13.965  -0.087  1.00  0.00     0.037 A 
ATOM     55  C   UNL     1      11.629 -13.836   3.579  1.00  0.00     0.037 A 
ATOM     56  C   UNL     1      17.227 -15.220   0.513  1.00  0.00     0.049 A 
ATOM     57  C   UNL     1      12.413 -15.109   3.374  1.00  0.00     0.074 A 
ATOM     58  C   UNL     1      17.906 -16.425   0.481  1.00  0.00     0.029 A 
ATOM     59  N   UNL     1      16.066 -15.434   1.242  1.00  0.00    -0.354 N 
ATOM     60  N   UNL     1      13.552 -15.292   2.751  1.00  0.00    -0.248 NA
ATOM     61  C   UNL     1      11.845 -16.336   3.951  1.00  0.00     0.031 C 
ATOM     62  C   UNL     1      17.123 -17.383   1.133  1.00  0.00     0.029 A 
ATOM     63  C   UNL     1      15.992 -16.760   1.636  1.00  0.00     0.049 A 
ATOM     64  H   UNL     1      15.394 -14.744   1.450  1.00  0.00     0.167 HD
ATOM     65  C   UNL     1      13.853 -16.642   2.887  1.00  0.00     0.074 A 
ATOM     66  C   UNL     1      12.782 -17.229   3.665  1.00  0.00     0.031 C 
ATOM     67  C   UNL     1      14.921 -17.332   2.415  1.00  0.00     0.037 A 
BRANCH  54  68
ATOM     68  C   UNL     1      18.846 -13.906  -0.920  1.00  0.00     0.064 A 
ATOM     69  C   UNL     1      19.971 -13.168  -0.520  1.00  0.00     0.173 A 
ATOM     70  C   UNL     1      18.921 -14.607  -2.133  1.00  0.00     0.173 A 
ATOM     71  F   UNL     1      19.948 -12.467   0.624  1.00  0.00    -0.203 F 
ATOM     72  C   UNL     1      21.108 -13.103  -1.323  1.00  0.00     0.198 A 
ATOM     73  C   UNL     1      20.072 -14.569  -2.915  1.00  0.00     0.198 A 
ATOM     74  F   UNL     1      17.876 -15.332  -2.562  1.00  0.00    -0.203 F 
ATOM     75  F   UNL     1      22.145 -12.341  -0.951  1.00  0.00    -0.200 F 
ATOM     76  C   UNL     1      21.160 -13.809  -2.515  1.00  0.00     0.200 A 
ATOM     77  F   UNL     1      20.126 -15.264  -4.059  1.00  0.00    -0.200 F 
ATOM     78  F   UNL     1      22.256 -13.748  -3.284  1.00  0.00    -0.200 F 
ENDBRANCH  54  68
BRANCH  55  79
ATOM     79  C   UNL     1      10.354 -13.845   4.345  1.00  0.00     0.064 A 
ATOM     80  C   UNL     1      10.340 -14.108   5.722  1.00  0.00     0.173 A 
ATOM     81  C   UNL     1       9.123 -13.605   3.716  1.00  0.00     0.173 A 
ATOM     82  F   UNL     1      11.487 -14.372   6.365  1.00  0.00    -0.203 F 
ATOM     83  C   UNL     1       9.144 -14.147   6.436  1.00  0.00     0.198 A 
ATOM     84  C   UNL     1       7.931 -13.613   4.437  1.00  0.00     0.198 A 
ATOM     85  F   UNL     1       9.079 -13.354   2.400  1.00  0.00    -0.203 F 
ATOM     86  F   UNL     1       9.155 -14.448   7.742  1.00  0.00    -0.200 F 
ATOM     87  C   UNL     1       7.941 -13.891   5.795  1.00  0.00     0.200 A 
ATOM     88  F   UNL     1       6.772 -13.354   3.815  1.00  0.00    -0.200 F 
ATOM     89  F   UNL     1       6.792 -13.922   6.484  1.00  0.00    -0.200 F 
ENDBRANCH  55  79
BRANCH  67  90
ATOM     90  C   UNL     1      15.013 -18.793   2.760  1.00  0.00     0.064 A 
ATOM     91  C   UNL     1      14.140 -19.742   2.210  1.00  0.00     0.173 A 
ATOM     92  C   UNL     1      16.022 -19.255   3.621  1.00  0.00     0.173 A 
ATOM     93  F   UNL     1      13.150 -19.355   1.390  1.00  0.00    -0.203 F 
ATOM     94  C   UNL     1      14.254 -21.093   2.531  1.00  0.00     0.198 A 
ATOM     95  C   UNL     1      16.156 -20.609   3.912  1.00  0.00     0.198 A 
ATOM     96  F   UNL     1      16.892 -18.392   4.169  1.00  0.00    -0.203 F 
ATOM     97  F   UNL     1      13.374 -21.974   2.036  1.00  0.00    -0.200 F 
ATOM     98  C   UNL     1      15.266 -21.526   3.374  1.00  0.00     0.200 A 
ATOM     99  F   UNL     1      17.147 -21.027   4.711  1.00  0.00    -0.200 F 
ATOM    100  F   UNL     1      15.380 -22.827   3.675  1.00  0.00    -0.200 F 
ENDBRANCH  67  90
ENDBRANCH  41  42
ENDBRANCH  34  36
ENDBRANCH  33  34
ENDBRANCH  32  33
ENDBRANCH  31  32
ENDBRANCH  30  31
ENDBRANCH  29  30
ENDBRANCH  28  29
ENDBRANCH  27  28
ENDBRANCH   1  27
TORSDOF 23
