REMARK SMILES C[C@H](C(=O)OCCOCCOCCOCCOC(=O)c1ccc(-c2c3nc(c(-c4c(F)c(F)c(F)c(F)c4F)c4ccc([nH]4)c(-c4c(F)c(F)c(F)c(F)c4F)c4nc(c(-c5c(F)c(F)c(F)c(F)c5F)c5ccc2[nH]5)C=C4)C=C3)cc1)S(=O)(=O)Cc1ccc(O)cc1
REMARK SMILES IDX 10 1 9 2 8 3 7 4 6 5 5 6 3 7 4 8 2 9 1 10 83 11 84 12 85 13
REMARK SMILES IDX 86 14 87 15 88 16 93 17 89 18 92 19 90 20 91 21 11 23 12 24
REMARK SMILES IDX 13 25 14 26 15 27 16 28 17 29 18 30 19 31 20 32 21 33 82 34
REMARK SMILES IDX 22 35 81 36 23 37 24 38 25 39 75 40 26 41 80 42 74 43 76 44
REMARK SMILES IDX 27 45 79 46 73 47 72 48 28 50 60 51 40 52 59 53 41 54 44 55
REMARK SMILES IDX 58 56 77 57 42 58 43 59 57 61 78 62 45 63 29 64 30 65 38 66
REMARK SMILES IDX 31 67 32 68 36 69 39 70 33 71 34 72 37 73 35 74 61 75 62 76
REMARK SMILES IDX 70 77 63 78 64 79 68 80 71 81 65 82 66 83 69 84 67 85 46 86
REMARK SMILES IDX 47 87 55 88 48 89 49 90 53 91 56 92 50 93 51 94 54 95 52 96
REMARK H PARENT 91 22 76 49 44 60
REMARK Flexibility Score: inf
ROOT
ATOM      1  C   UNL     1      -1.026   0.017   1.356  1.00  0.00     0.188 C 
ENDROOT
BRANCH   1   2
ATOM      2  C   UNL     1       0.105  -0.977   1.728  1.00  0.00     0.188 C 
BRANCH   2   3
ATOM      3  O   UNL     1       1.018  -0.485   2.683  1.00  0.00    -0.376 OA
BRANCH   3   4
ATOM      4  C   UNL     1       2.196   0.144   2.217  1.00  0.00     0.202 C 
BRANCH   4   5
ATOM      5  C   UNL     1       2.081   1.268   1.168  1.00  0.00     0.261 C 
BRANCH   5   6
ATOM      6  O   UNL     1       1.391   1.016  -0.084  1.00  0.00    -0.462 OA
BRANCH   6   7
ATOM      7  C   UNL     1       1.757  -0.046  -0.836  1.00  0.00     0.324 C 
ATOM      8  O   UNL     1       2.588  -0.865  -0.453  1.00  0.00    -0.251 OA
BRANCH   7   9
ATOM      9  C   UNL     1       1.194  -0.049  -2.232  1.00  0.00     0.215 C 
ATOM     10  C   UNL     1       1.944  -1.092  -3.045  1.00  0.00     0.037 C 
BRANCH   9  11
ATOM     11  S   UNL     1      -0.582  -0.147  -2.451  1.00  0.00     0.167 S 
ATOM     12  O   UNL     1      -1.137   1.040  -1.819  1.00  0.00    -0.228 OA
ATOM     13  O   UNL     1      -0.832  -0.306  -3.876  1.00  0.00    -0.228 OA
BRANCH  11  14
ATOM     14  C   UNL     1      -1.338  -1.533  -1.614  1.00  0.00     0.173 C 
BRANCH  14  15
ATOM     15  C   UNL     1      -1.170  -2.946  -2.106  1.00  0.00    -0.033 A 
ATOM     16  C   UNL     1      -1.772  -3.954  -1.315  1.00  0.00     0.008 A 
ATOM     17  C   UNL     1      -0.439  -3.354  -3.219  1.00  0.00     0.008 A 
ATOM     18  C   UNL     1      -1.532  -5.307  -1.553  1.00  0.00     0.046 A 
ATOM     19  C   UNL     1      -0.155  -4.707  -3.433  1.00  0.00     0.046 A 
ATOM     20  C   UNL     1      -0.680  -5.670  -2.581  1.00  0.00     0.115 A 
BRANCH  20  21
ATOM     21  O   UNL     1      -0.371  -6.989  -2.722  1.00  0.00    -0.508 OA
ATOM     22  H   UNL     1      -0.738  -7.621  -2.135  1.00  0.00     0.293 HD
ENDBRANCH  20  21
ENDBRANCH  14  15
ENDBRANCH  11  14
ENDBRANCH   9  11
ENDBRANCH   7   9
ENDBRANCH   6   7
ENDBRANCH   5   6
ENDBRANCH   4   5
ENDBRANCH   3   4
ENDBRANCH   2   3
ENDBRANCH   1   2
BRANCH   1  23
ATOM     23  O   UNL     1      -1.534   1.002   2.241  1.00  0.00    -0.377 OA
BRANCH  23  24
ATOM     24  C   UNL     1      -1.085   0.997   3.577  1.00  0.00     0.188 C 
BRANCH  24  25
ATOM     25  C   UNL     1      -1.503  -0.227   4.410  1.00  0.00     0.188 C 
BRANCH  25  26
ATOM     26  O   UNL     1      -1.773  -1.376   3.627  1.00  0.00    -0.376 OA
BRANCH  26  27
ATOM     27  C   UNL     1      -3.103  -1.791   3.378  1.00  0.00     0.202 C 
BRANCH  27  28
ATOM     28  C   UNL     1      -4.170  -0.845   2.795  1.00  0.00     0.261 C 
BRANCH  28  29
ATOM     29  O   UNL     1      -4.120   0.529   3.174  1.00  0.00    -0.460 OA
BRANCH  29  30
ATOM     30  C   UNL     1      -4.545   0.843   4.416  1.00  0.00     0.338 C 
ATOM     31  O   UNL     1      -4.953   0.089   5.270  1.00  0.00    -0.246 OA
BRANCH  30  32
ATOM     32  C   UNL     1      -4.229   2.272   4.621  1.00  0.00     0.060 A 
ATOM     33  C   UNL     1      -3.326   2.619   5.633  1.00  0.00     0.016 A 
ATOM     34  C   UNL     1      -4.789   3.251   3.796  1.00  0.00     0.016 A 
ATOM     35  C   UNL     1      -2.968   3.950   5.819  1.00  0.00     0.010 A 
ATOM     36  C   UNL     1      -4.473   4.593   4.019  1.00  0.00     0.010 A 
ATOM     37  C   UNL     1      -3.581   4.944   5.046  1.00  0.00    -0.014 A 
BRANCH  37  38
ATOM     38  C   UNL     1      -3.477   6.349   5.492  1.00  0.00     0.031 A 
ATOM     39  C   UNL     1      -4.539   6.857   6.424  1.00  0.00     0.074 A 
ATOM     40  C   UNL     1      -2.451   7.131   5.119  1.00  0.00     0.049 A 
ATOM     41  N   UNL     1      -4.691   8.045   6.947  1.00  0.00    -0.248 NA
ATOM     42  C   UNL     1      -5.572   5.885   6.822  1.00  0.00     0.031 C 
ATOM     43  C   UNL     1      -1.339   6.719   4.266  1.00  0.00     0.029 A 
ATOM     44  N   UNL     1      -2.185   8.443   5.416  1.00  0.00    -0.354 N 
ATOM     45  C   UNL     1      -5.836   7.963   7.728  1.00  0.00     0.074 A 
ATOM     46  C   UNL     1      -6.356   6.622   7.592  1.00  0.00     0.031 C 
ATOM     47  C   UNL     1      -0.512   7.766   4.097  1.00  0.00     0.029 A 
ATOM     48  C   UNL     1      -1.056   8.926   4.802  1.00  0.00     0.049 A 
ATOM     49  H   UNL     1      -2.749   8.986   6.012  1.00  0.00     0.167 HD
ATOM     50  C   UNL     1      -6.399   8.926   8.493  1.00  0.00     0.037 A 
ATOM     51  C   UNL     1      -0.545  10.172   4.797  1.00  0.00     0.037 A 
ATOM     52  C   UNL     1      -5.879  10.261   8.610  1.00  0.00     0.049 A 
ATOM     53  C   UNL     1      -1.245  11.252   5.586  1.00  0.00     0.074 A 
ATOM     54  C   UNL     1      -6.363  11.312   9.364  1.00  0.00     0.029 A 
ATOM     55  N   UNL     1      -4.760  10.730   7.935  1.00  0.00    -0.354 N 
ATOM     56  N   UNL     1      -2.311  11.167   6.346  1.00  0.00    -0.248 NA
ATOM     57  C   UNL     1      -0.667  12.601   5.518  1.00  0.00     0.031 C 
ATOM     58  C   UNL     1      -5.577  12.437   9.095  1.00  0.00     0.029 A 
ATOM     59  C   UNL     1      -4.558  12.067   8.230  1.00  0.00     0.049 A 
ATOM     60  H   UNL     1      -4.194  10.191   7.336  1.00  0.00     0.167 HD
ATOM     61  C   UNL     1      -2.511  12.438   6.873  1.00  0.00     0.074 A 
ATOM     62  C   UNL     1      -1.446  13.272   6.355  1.00  0.00     0.031 C 
ATOM     63  C   UNL     1      -3.484  12.876   7.711  1.00  0.00     0.037 A 
BRANCH  50  64
ATOM     64  C   UNL     1      -7.665   8.579   9.220  1.00  0.00     0.064 A 
ATOM     65  C   UNL     1      -7.682   7.678  10.296  1.00  0.00     0.173 A 
ATOM     66  C   UNL     1      -8.880   9.169   8.841  1.00  0.00     0.173 A 
ATOM     67  F   UNL     1      -6.552   7.069  10.686  1.00  0.00    -0.203 F 
ATOM     68  C   UNL     1      -8.872   7.362  10.947  1.00  0.00     0.198 A 
ATOM     69  C   UNL     1     -10.062   8.877   9.516  1.00  0.00     0.198 A 
ATOM     70  F   UNL     1      -8.921  10.034   7.817  1.00  0.00    -0.203 F 
ATOM     71  F   UNL     1      -8.873   6.457  11.937  1.00  0.00    -0.200 F 
ATOM     72  C   UNL     1     -10.059   7.967  10.562  1.00  0.00     0.200 A 
ATOM     73  F   UNL     1     -11.205   9.472   9.149  1.00  0.00    -0.200 F 
ATOM     74  F   UNL     1     -11.202   7.668  11.194  1.00  0.00    -0.200 F 
ENDBRANCH  50  64
BRANCH  51  75
ATOM     75  C   UNL     1       0.682  10.477   4.013  1.00  0.00     0.064 A 
ATOM     76  C   UNL     1       1.874  10.851   4.649  1.00  0.00     0.173 A 
ATOM     77  C   UNL     1       0.681  10.430   2.611  1.00  0.00     0.173 A 
ATOM     78  F   UNL     1       1.921  10.936   5.987  1.00  0.00    -0.203 F 
ATOM     79  C   UNL     1       3.009  11.187   3.913  1.00  0.00     0.198 A 
ATOM     80  C   UNL     1       1.826  10.735   1.877  1.00  0.00     0.198 A 
ATOM     81  F   UNL     1      -0.434  10.083   1.950  1.00  0.00    -0.203 F 
ATOM     82  F   UNL     1       4.119  11.594   4.546  1.00  0.00    -0.200 F 
ATOM     83  C   UNL     1       2.986  11.123   2.528  1.00  0.00     0.200 A 
ATOM     84  F   UNL     1       1.802  10.659   0.539  1.00  0.00    -0.200 F 
ATOM     85  F   UNL     1       4.078  11.445   1.822  1.00  0.00    -0.200 F 
ENDBRANCH  51  75
BRANCH  63  86
ATOM     86  C   UNL     1      -3.416  14.308   8.161  1.00  0.00     0.064 A 
ATOM     87  C   UNL     1      -3.673  15.374   7.287  1.00  0.00     0.173 A 
ATOM     88  C   UNL     1      -3.138  14.613   9.503  1.00  0.00     0.173 A 
ATOM     89  F   UNL     1      -3.933  15.139   5.992  1.00  0.00    -0.203 F 
ATOM     90  C   UNL     1      -3.623  16.693   7.733  1.00  0.00     0.198 A 
ATOM     91  C   UNL     1      -3.126  15.930   9.953  1.00  0.00     0.198 A 
ATOM     92  F   UNL     1      -2.895  13.631  10.385  1.00  0.00    -0.203 F 
ATOM     93  F   UNL     1      -3.818  17.698   6.867  1.00  0.00    -0.200 F 
ATOM     94  C   UNL     1      -3.359  16.969   9.066  1.00  0.00     0.200 A 
ATOM     95  F   UNL     1      -2.891  16.192  11.246  1.00  0.00    -0.200 F 
ATOM     96  F   UNL     1      -3.323  18.238   9.495  1.00  0.00    -0.200 F 
ENDBRANCH  63  86
ENDBRANCH  37  38
ENDBRANCH  30  32
ENDBRANCH  29  30
ENDBRANCH  28  29
ENDBRANCH  27  28
ENDBRANCH  26  27
ENDBRANCH  25  26
ENDBRANCH  24  25
ENDBRANCH  23  24
ENDBRANCH   1  23
TORSDOF 24
