REMARK SMILES COc1cccc([C@@H]2CN(C(=O)CCSC)C[C@H]2C(=O)OCCOCCOCCOCCOC(=O)c2ccc(-c3c4nc(c(-c5c(F)c(F)c(F)c(F)c5F)c5ccc([nH]5)c(-c5c(F)c(F)c(F)c(F)c5F)c5nc(c(-c6c(F)c(F)c(F)c(F)c6F)c6ccc3[nH]6)C=C5)C=C4)cc2)c1OC
REMARK SMILES IDX 26 1 25 2 24 3 23 4 22 5 21 6 19 7 20 8 18 9 8 10 9 11 10 12
REMARK SMILES IDX 17 13 7 14 3 15 4 16 99 17 5 18 6 19 2 20 1 21 100 22 101 23
REMARK SMILES IDX 11 24 12 25 13 26 14 27 15 28 16 29 27 30 28 31 29 32 30 33
REMARK SMILES IDX 31 34 32 35 33 36 34 37 35 38 36 39 37 40 98 41 38 42 97 43
REMARK SMILES IDX 39 44 40 45 41 46 91 47 42 48 96 49 90 50 92 51 43 52 95 53
REMARK SMILES IDX 89 54 88 55 44 57 76 58 56 59 75 60 57 61 60 62 74 63 93 64
REMARK SMILES IDX 58 65 59 66 73 68 94 69 61 70 45 71 46 72 54 73 47 74 48 75
REMARK SMILES IDX 52 76 55 77 49 78 50 79 53 80 51 81 77 82 78 83 86 84 79 85
REMARK SMILES IDX 80 86 84 87 87 88 81 89 82 90 85 91 83 92 62 93 63 94 71 95
REMARK SMILES IDX 64 96 65 97 69 98 72 99 66 100 67 101 70 102 68 103
REMARK H PARENT 92 56 60 67
REMARK Flexibility Score: inf
ROOT
ATOM      1  C   UNL     1       2.008   3.019  -4.464  1.00  0.00     0.188 C 
ENDROOT
BRANCH   1   2
ATOM      2  C   UNL     1       2.226   4.359  -3.753  1.00  0.00     0.188 C 
BRANCH   2   3
ATOM      3  O   UNL     1       2.540   5.463  -4.560  1.00  0.00    -0.376 OA
BRANCH   3   4
ATOM      4  C   UNL     1       3.860   5.769  -4.952  1.00  0.00     0.202 C 
BRANCH   4   5
ATOM      5  C   UNL     1       5.069   4.818  -4.911  1.00  0.00     0.261 C 
BRANCH   5   6
ATOM      6  O   UNL     1       4.855   3.409  -4.753  1.00  0.00    -0.463 OA
BRANCH   6   7
ATOM      7  C   UNL     1       5.174   2.918  -3.527  1.00  0.00     0.311 C 
ATOM      8  O   UNL     1       5.495   3.626  -2.576  1.00  0.00    -0.252 OA
BRANCH   7   9
ATOM      9  C   UNL     1       5.213   1.408  -3.426  1.00  0.00     0.128 C 
ATOM     10  C   UNL     1       4.323   0.499  -4.317  1.00  0.00     0.059 C 
ATOM     11  C   UNL     1       5.216  -0.699  -4.653  1.00  0.00     0.129 C 
ATOM     12  N   UNL     1       6.567  -0.337  -4.280  1.00  0.00    -0.341 N 
ATOM     13  C   UNL     1       6.643   1.000  -3.743  1.00  0.00     0.135 C 
BRANCH  10  14
ATOM     14  C   UNL     1       2.960  -0.049  -3.827  1.00  0.00     0.004 A 
ATOM     15  C   UNL     1       1.296  -0.743  -2.173  1.00  0.00     0.161 A 
ATOM     16  C   UNL     1       0.384  -1.032  -3.193  1.00  0.00     0.050 A 
ATOM     17  C   UNL     1       2.599  -0.288  -2.475  1.00  0.00     0.164 A 
ATOM     18  C   UNL     1       0.754  -0.870  -4.522  1.00  0.00     0.004 A 
ATOM     19  C   UNL     1       2.023  -0.381  -4.834  1.00  0.00     0.008 A 
BRANCH  15  20
ATOM     20  O   UNL     1       0.901  -1.075  -0.902  1.00  0.00    -0.493 OA
ATOM     21  C   UNL     1       0.186  -0.021  -0.257  1.00  0.00     0.278 C 
ENDBRANCH  15  20
BRANCH  17  22
ATOM     22  O   UNL     1       3.604  -0.096  -1.575  1.00  0.00    -0.493 OA
ATOM     23  C   UNL     1       3.393  -0.250  -0.183  1.00  0.00     0.278 C 
ENDBRANCH  17  22
ENDBRANCH  10  14
BRANCH  12  24
ATOM     24  C   UNL     1       7.683  -1.135  -4.324  1.00  0.00     0.223 C 
ATOM     25  O   UNL     1       8.793  -0.718  -3.989  1.00  0.00    -0.275 OA
BRANCH  24  26
ATOM     26  C   UNL     1       7.508  -2.574  -4.750  1.00  0.00     0.111 C 
BRANCH  26  27
ATOM     27  C   UNL     1       7.577  -3.515  -3.550  1.00  0.00     0.079 C 
BRANCH  27  28
ATOM     28  S   UNL     1       5.976  -3.794  -2.712  1.00  0.00    -0.165 SA
ATOM     29  C   UNL     1       6.011  -2.454  -1.492  1.00  0.00     0.085 C 
ENDBRANCH  27  28
ENDBRANCH  26  27
ENDBRANCH  24  26
ENDBRANCH  12  24
ENDBRANCH   7   9
ENDBRANCH   6   7
ENDBRANCH   5   6
ENDBRANCH   4   5
ENDBRANCH   3   4
ENDBRANCH   2   3
ENDBRANCH   1   2
BRANCH   1  30
ATOM     30  O   UNL     1       2.226   2.809  -5.852  1.00  0.00    -0.377 OA
BRANCH  30  31
ATOM     31  C   UNL     1       1.917   3.829  -6.786  1.00  0.00     0.188 C 
BRANCH  31  32
ATOM     32  C   UNL     1       0.644   4.663  -6.576  1.00  0.00     0.188 C 
BRANCH  32  33
ATOM     33  O   UNL     1      -0.162   4.209  -5.504  1.00  0.00    -0.376 OA
BRANCH  33  34
ATOM     34  C   UNL     1      -1.228   3.324  -5.812  1.00  0.00     0.202 C 
BRANCH  34  35
ATOM     35  C   UNL     1      -0.917   2.011  -6.549  1.00  0.00     0.261 C 
BRANCH  35  36
ATOM     36  O   UNL     1      -0.248   2.107  -7.817  1.00  0.00    -0.460 OA
BRANCH  36  37
ATOM     37  C   UNL     1      -0.853   2.788  -8.809  1.00  0.00     0.338 C 
ATOM     38  O   UNL     1      -1.942   3.335  -8.781  1.00  0.00    -0.246 OA
BRANCH  37  39
ATOM     39  C   UNL     1       0.132   2.925  -9.902  1.00  0.00     0.060 A 
ATOM     40  C   UNL     1       0.582   4.205 -10.254  1.00  0.00     0.016 A 
ATOM     41  C   UNL     1       0.626   1.794 -10.557  1.00  0.00     0.016 A 
ATOM     42  C   UNL     1       1.509   4.359 -11.283  1.00  0.00     0.010 A 
ATOM     43  C   UNL     1       1.536   1.952 -11.606  1.00  0.00     0.010 A 
ATOM     44  C   UNL     1       1.955   3.237 -11.995  1.00  0.00    -0.014 A 
BRANCH  44  45
ATOM     45  C   UNL     1       2.671   3.432 -13.277  1.00  0.00     0.031 A 
ATOM     46  C   UNL     1       1.867   3.389 -14.547  1.00  0.00     0.074 A 
ATOM     47  C   UNL     1       3.991   3.683 -13.317  1.00  0.00     0.049 A 
ATOM     48  N   UNL     1       2.259   3.505 -15.789  1.00  0.00    -0.248 NA
ATOM     49  C   UNL     1       0.416   3.186 -14.390  1.00  0.00     0.031 C 
ATOM     50  C   UNL     1       4.865   3.798 -12.152  1.00  0.00     0.029 A 
ATOM     51  N   UNL     1       4.827   3.882 -14.388  1.00  0.00    -0.354 N 
ATOM     52  C   UNL     1       1.108   3.386 -16.558  1.00  0.00     0.074 A 
ATOM     53  C   UNL     1       0.009   3.154 -15.649  1.00  0.00     0.031 C 
ATOM     54  C   UNL     1       6.120   4.037 -12.572  1.00  0.00     0.029 A 
ATOM     55  C   UNL     1       6.142   4.058 -14.035  1.00  0.00     0.049 A 
ATOM     56  H   UNL     1       4.513   3.898 -15.321  1.00  0.00     0.167 HD
ATOM     57  C   UNL     1       0.980   3.473 -17.903  1.00  0.00     0.037 A 
ATOM     58  C   UNL     1       7.236   4.195 -14.810  1.00  0.00     0.037 A 
ATOM     59  C   UNL     1       2.080   3.698 -18.802  1.00  0.00     0.049 A 
ATOM     60  C   UNL     1       7.079   4.200 -16.311  1.00  0.00     0.074 A 
ATOM     61  C   UNL     1       2.057   3.812 -20.180  1.00  0.00     0.029 A 
ATOM     62  N   UNL     1       3.404   3.829 -18.410  1.00  0.00    -0.354 N 
ATOM     63  N   UNL     1       5.987   4.113 -17.032  1.00  0.00    -0.248 NA
ATOM     64  C   UNL     1       8.309   4.327 -17.107  1.00  0.00     0.031 C 
ATOM     65  C   UNL     1       3.375   3.949 -20.628  1.00  0.00     0.029 A 
ATOM     66  C   UNL     1       4.212   3.992 -19.524  1.00  0.00     0.049 A 
ATOM     67  H   UNL     1       3.723   3.810 -17.479  1.00  0.00     0.167 HD
ATOM     68  C   UNL     1       6.392   4.209 -18.358  1.00  0.00     0.074 A 
ATOM     69  C   UNL     1       7.830   4.374 -18.342  1.00  0.00     0.031 C 
ATOM     70  C   UNL     1       5.642   4.166 -19.488  1.00  0.00     0.037 A 
BRANCH  57  71
ATOM     71  C   UNL     1      -0.393   3.287 -18.482  1.00  0.00     0.064 A 
ATOM     72  C   UNL     1      -1.410   4.236 -18.299  1.00  0.00     0.173 A 
ATOM     73  C   UNL     1      -0.688   2.151 -19.250  1.00  0.00     0.173 A 
ATOM     74  F   UNL     1      -1.187   5.332 -17.558  1.00  0.00    -0.203 F 
ATOM     75  C   UNL     1      -2.678   4.041 -18.841  1.00  0.00     0.198 A 
ATOM     76  C   UNL     1      -1.946   1.975 -19.819  1.00  0.00     0.198 A 
ATOM     77  F   UNL     1       0.248   1.212 -19.456  1.00  0.00    -0.203 F 
ATOM     78  F   UNL     1      -3.649   4.935 -18.608  1.00  0.00    -0.200 F 
ATOM     79  C   UNL     1      -2.943   2.916 -19.607  1.00  0.00     0.200 A 
ATOM     80  F   UNL     1      -2.195   0.893 -20.569  1.00  0.00    -0.200 F 
ATOM     81  F   UNL     1      -4.161   2.733 -20.134  1.00  0.00    -0.200 F 
ENDBRANCH  57  71
BRANCH  58  82
ATOM     82  C   UNL     1       8.583   4.319 -14.188  1.00  0.00     0.064 A 
ATOM     83  C   UNL     1       9.332   5.499 -14.306  1.00  0.00     0.173 A 
ATOM     84  C   UNL     1       9.162   3.250 -13.488  1.00  0.00     0.173 A 
ATOM     85  F   UNL     1       8.836   6.542 -14.988  1.00  0.00    -0.203 F 
ATOM     86  C   UNL     1      10.615   5.595 -13.769  1.00  0.00     0.198 A 
ATOM     87  C   UNL     1      10.431   3.358 -12.924  1.00  0.00     0.198 A 
ATOM     88  F   UNL     1       8.491   2.097 -13.349  1.00  0.00    -0.203 F 
ATOM     89  F   UNL     1      11.330   6.715 -13.944  1.00  0.00    -0.200 F 
ATOM     90  C   UNL     1      11.161   4.527 -13.073  1.00  0.00     0.200 A 
ATOM     91  F   UNL     1      10.948   2.328 -12.241  1.00  0.00    -0.200 F 
ATOM     92  F   UNL     1      12.393   4.621 -12.555  1.00  0.00    -0.200 F 
ENDBRANCH  58  82
BRANCH  70  93
ATOM     93  C   UNL     1       6.352   4.346 -20.800  1.00  0.00     0.064 A 
ATOM     94  C   UNL     1       7.207   3.365 -21.323  1.00  0.00     0.173 A 
ATOM     95  C   UNL     1       6.131   5.500 -21.571  1.00  0.00     0.173 A 
ATOM     96  F   UNL     1       7.462   2.249 -20.622  1.00  0.00    -0.203 F 
ATOM     97  C   UNL     1       7.837   3.544 -22.552  1.00  0.00     0.198 A 
ATOM     98  C   UNL     1       6.733   5.659 -22.816  1.00  0.00     0.198 A 
ATOM     99  F   UNL     1       5.314   6.465 -21.124  1.00  0.00    -0.203 F 
ATOM    100  F   UNL     1       8.690   2.616 -23.007  1.00  0.00    -0.200 F 
ATOM    101  C   UNL     1       7.592   4.686 -23.301  1.00  0.00     0.200 A 
ATOM    102  F   UNL     1       6.479   6.753 -23.546  1.00  0.00    -0.200 F 
ATOM    103  F   UNL     1       8.190   4.850 -24.489  1.00  0.00    -0.200 F 
ENDBRANCH  70  93
ENDBRANCH  44  45
ENDBRANCH  37  39
ENDBRANCH  36  37
ENDBRANCH  35  36
ENDBRANCH  34  35
ENDBRANCH  33  34
ENDBRANCH  32  33
ENDBRANCH  31  32
ENDBRANCH  30  31
ENDBRANCH   1  30
TORSDOF 27
