REMARK SMILES C[C@@H](C(=O)OCCOCCOCCOCCOC(=O)c1ccc(-c2c3nc(c(-c4c(F)c(F)c(F)c(F)c4F)c4ccc([nH]4)c(-c4c(F)c(F)c(F)c(F)c4F)c4nc(c(-c5c(F)c(F)c(F)c(F)c5F)c5ccc2[nH]5)C=C4)C=C3)cc1)c1ccc(-c2cccc(OC(=O)Nc3ccccc3)c2)c(F)c1
REMARK SMILES IDX 9 1 8 2 7 3 6 4 5 5 3 6 4 7 2 8 1 9 83 10 84 11 105 12 85 13
REMARK SMILES IDX 103 14 86 15 104 16 87 17 88 18 102 19 89 20 91 21 90 22
REMARK SMILES IDX 92 23 93 24 94 25 95 26 96 28 97 29 101 30 98 31 100 32
REMARK SMILES IDX 99 33 10 34 11 35 12 36 13 37 14 38 15 39 16 40 17 41 18 42
REMARK SMILES IDX 19 43 20 44 21 45 82 46 22 47 81 48 23 49 24 50 25 51 75 52
REMARK SMILES IDX 26 53 80 54 74 55 76 56 27 57 79 58 73 59 72 60 28 62 60 63
REMARK SMILES IDX 40 64 59 65 41 66 44 67 58 68 77 69 42 70 43 71 57 73 78 74
REMARK SMILES IDX 45 75 29 76 30 77 38 78 31 79 32 80 36 81 39 82 33 83 34 84
REMARK SMILES IDX 37 85 35 86 61 87 62 88 70 89 63 90 64 91 68 92 71 93 65 94
REMARK SMILES IDX 66 95 69 96 67 97 46 98 47 99 55 100 48 101 49 102 53 103
REMARK SMILES IDX 56 104 50 105 51 106 54 107 52 108
REMARK H PARENT 95 27 76 61 44 72
REMARK Flexibility Score: inf
ROOT
ATOM      1  C   UNL     1       0.053  -1.575   3.175  1.00  0.00     0.188 C 
ENDROOT
BRANCH   1   2
ATOM      2  O   UNL     1       0.751  -2.375   4.108  1.00  0.00    -0.376 OA
BRANCH   2   3
ATOM      3  C   UNL     1       1.901  -3.116   3.729  1.00  0.00     0.202 C 
BRANCH   3   4
ATOM      4  C   UNL     1       2.380  -3.370   2.282  1.00  0.00     0.261 C 
BRANCH   4   5
ATOM      5  O   UNL     1       1.861  -2.512   1.260  1.00  0.00    -0.463 OA
BRANCH   5   6
ATOM      6  C   UNL     1       1.175  -3.095   0.248  1.00  0.00     0.313 C 
ATOM      7  O   UNL     1       1.000  -4.305   0.146  1.00  0.00    -0.252 OA
BRANCH   6   8
ATOM      8  C   UNL     1       0.563  -2.076  -0.730  1.00  0.00     0.126 C 
ATOM      9  C   UNL     1       1.446  -0.839  -0.951  1.00  0.00     0.025 C 
BRANCH   8  10
ATOM     10  C   UNL     1      -0.928  -1.841  -0.466  1.00  0.00    -0.031 A 
ATOM     11  C   UNL     1      -1.531  -0.581  -0.316  1.00  0.00     0.005 A 
ATOM     12  C   UNL     1      -1.770  -2.963  -0.391  1.00  0.00     0.044 A 
ATOM     13  C   UNL     1      -2.916  -0.457  -0.080  1.00  0.00     0.012 A 
ATOM     14  C   UNL     1      -3.137  -2.834  -0.157  1.00  0.00     0.131 A 
ATOM     15  C   UNL     1      -3.745  -1.586   0.004  1.00  0.00     0.018 A 
ATOM     16  F   UNL     1      -3.870  -3.957  -0.105  1.00  0.00    -0.206 F 
BRANCH  15  17
ATOM     17  C   UNL     1      -5.195  -1.489   0.248  1.00  0.00    -0.012 A 
ATOM     18  C   UNL     1      -6.038  -0.769  -0.613  1.00  0.00     0.009 A 
ATOM     19  C   UNL     1      -5.778  -2.179   1.328  1.00  0.00     0.056 A 
ATOM     20  C   UNL     1      -7.423  -0.757  -0.416  1.00  0.00     0.004 A 
ATOM     21  C   UNL     1      -7.157  -2.158   1.529  1.00  0.00     0.133 A 
ATOM     22  C   UNL     1      -7.984  -1.456   0.653  1.00  0.00     0.047 A 
BRANCH  21  23
ATOM     23  O   UNL     1      -7.826  -2.818   2.592  1.00  0.00    -0.410 OA
BRANCH  23  24
ATOM     24  C   UNL     1      -7.221  -3.400   3.706  1.00  0.00     0.417 C 
ATOM     25  O   UNL     1      -6.012  -3.519   3.884  1.00  0.00    -0.224 OA
ATOM     26  N   UNL     1      -8.081  -3.749   4.716  1.00  0.00    -0.291 N 
ATOM     27  H   UNL     1      -7.640  -4.006   5.558  1.00  0.00     0.173 HD
BRANCH  26  28
ATOM     28  C   UNL     1      -9.480  -3.803   4.752  1.00  0.00     0.044 A 
ATOM     29  C   UNL     1     -10.083  -3.748   6.015  1.00  0.00     0.026 A 
ATOM     30  C   UNL     1     -10.285  -3.950   3.621  1.00  0.00     0.026 A 
ATOM     31  C   UNL     1     -11.472  -3.792   6.143  1.00  0.00     0.002 A 
ATOM     32  C   UNL     1     -11.676  -4.019   3.752  1.00  0.00     0.002 A 
ATOM     33  C   UNL     1     -12.269  -3.929   5.010  1.00  0.00     0.000 A 
ENDBRANCH  26  28
ENDBRANCH  23  24
ENDBRANCH  21  23
ENDBRANCH  15  17
ENDBRANCH   8  10
ENDBRANCH   6   8
ENDBRANCH   5   6
ENDBRANCH   4   5
ENDBRANCH   3   4
ENDBRANCH   2   3
ENDBRANCH   1   2
BRANCH   1  34
ATOM     34  C   UNL     1       0.758  -0.318   2.645  1.00  0.00     0.188 C 
BRANCH  34  35
ATOM     35  O   UNL     1       2.172  -0.351   2.719  1.00  0.00    -0.377 OA
BRANCH  35  36
ATOM     36  C   UNL     1       2.796   0.129   3.902  1.00  0.00     0.188 C 
BRANCH  36  37
ATOM     37  C   UNL     1       2.013   0.215   5.227  1.00  0.00     0.188 C 
BRANCH  37  38
ATOM     38  O   UNL     1       0.711   0.773   5.113  1.00  0.00    -0.376 OA
BRANCH  38  39
ATOM     39  C   UNL     1       0.539   2.148   5.428  1.00  0.00     0.202 C 
BRANCH  39  40
ATOM     40  C   UNL     1       1.176   3.155   4.456  1.00  0.00     0.261 C 
BRANCH  40  41
ATOM     41  O   UNL     1       2.610   3.122   4.367  1.00  0.00    -0.460 OA
BRANCH  41  42
ATOM     42  C   UNL     1       3.315   3.286   5.507  1.00  0.00     0.338 C 
ATOM     43  O   UNL     1       2.887   3.546   6.613  1.00  0.00    -0.246 OA
BRANCH  42  44
ATOM     44  C   UNL     1       4.715   2.906   5.225  1.00  0.00     0.060 A 
ATOM     45  C   UNL     1       5.297   1.874   5.972  1.00  0.00     0.016 A 
ATOM     46  C   UNL     1       5.449   3.569   4.239  1.00  0.00     0.016 A 
ATOM     47  C   UNL     1       6.632   1.530   5.764  1.00  0.00     0.010 A 
ATOM     48  C   UNL     1       6.793   3.237   4.045  1.00  0.00     0.010 A 
ATOM     49  C   UNL     1       7.399   2.243   4.833  1.00  0.00    -0.014 A 
BRANCH  49  50
ATOM     50  C   UNL     1       8.876   2.098   4.834  1.00  0.00     0.031 A 
ATOM     51  C   UNL     1       9.688   3.113   5.590  1.00  0.00     0.074 A 
ATOM     52  C   UNL     1       9.484   1.083   4.198  1.00  0.00     0.049 A 
ATOM     53  N   UNL     1      10.987   3.234   5.694  1.00  0.00    -0.248 NA
ATOM     54  C   UNL     1       8.928   4.135   6.327  1.00  0.00     0.031 C 
ATOM     55  C   UNL     1       8.807   0.014   3.469  1.00  0.00     0.029 A 
ATOM     56  N   UNL     1      10.820   0.795   4.059  1.00  0.00    -0.354 N 
ATOM     57  C   UNL     1      11.197   4.343   6.503  1.00  0.00     0.074 A 
ATOM     58  C   UNL     1       9.896   4.882   6.833  1.00  0.00     0.031 C 
ATOM     59  C   UNL     1       9.733  -0.807   2.943  1.00  0.00     0.029 A 
ATOM     60  C   UNL     1      11.066  -0.301   3.270  1.00  0.00     0.049 A 
ATOM     61  H   UNL     1      11.533   1.325   4.484  1.00  0.00     0.167 HD
ATOM     62  C   UNL     1      12.370   4.859   6.941  1.00  0.00     0.037 A 
ATOM     63  C   UNL     1      12.236  -0.818   2.843  1.00  0.00     0.037 A 
ATOM     64  C   UNL     1      13.663   4.325   6.605  1.00  0.00     0.049 A 
ATOM     65  C   UNL     1      13.531  -0.176   3.276  1.00  0.00     0.074 A 
ATOM     66  C   UNL     1      14.911   4.771   7.002  1.00  0.00     0.029 A 
ATOM     67  N   UNL     1      13.873   3.231   5.779  1.00  0.00    -0.354 N 
ATOM     68  N   UNL     1      13.724   0.859   4.059  1.00  0.00    -0.248 NA
ATOM     69  C   UNL     1      14.773  -0.778   2.768  1.00  0.00     0.031 C 
ATOM     70  C   UNL     1      15.878   3.983   6.371  1.00  0.00     0.029 A 
ATOM     71  C   UNL     1      15.232   3.004   5.633  1.00  0.00     0.049 A 
ATOM     72  H   UNL     1      13.162   2.695   5.359  1.00  0.00     0.167 HD
ATOM     73  C   UNL     1      15.102   1.011   4.162  1.00  0.00     0.074 A 
ATOM     74  C   UNL     1      15.698  -0.046   3.372  1.00  0.00     0.031 C 
ATOM     75  C   UNL     1      15.811   1.941   4.849  1.00  0.00     0.037 A 
BRANCH  62  76
ATOM     76  C   UNL     1      12.304   6.082   7.809  1.00  0.00     0.064 A 
ATOM     77  C   UNL     1      11.809   6.032   9.121  1.00  0.00     0.173 A 
ATOM     78  C   UNL     1      12.762   7.318   7.328  1.00  0.00     0.173 A 
ATOM     79  F   UNL     1      11.343   4.878   9.624  1.00  0.00    -0.203 F 
ATOM     80  C   UNL     1      11.748   7.179   9.909  1.00  0.00     0.198 A 
ATOM     81  C   UNL     1      12.730   8.456   8.130  1.00  0.00     0.198 A 
ATOM     82  F   UNL     1      13.246   7.422   6.082  1.00  0.00    -0.203 F 
ATOM     83  F   UNL     1      11.221   7.118  11.139  1.00  0.00    -0.200 F 
ATOM     84  C   UNL     1      12.215   8.388   9.415  1.00  0.00     0.200 A 
ATOM     85  F   UNL     1      13.193   9.621   7.655  1.00  0.00    -0.200 F 
ATOM     86  F   UNL     1      12.161   9.490  10.176  1.00  0.00    -0.200 F 
ENDBRANCH  62  76
BRANCH  63  87
ATOM     87  C   UNL     1      12.241  -1.997   1.937  1.00  0.00     0.064 A 
ATOM     88  C   UNL     1      12.745  -3.236   2.358  1.00  0.00     0.173 A 
ATOM     89  C   UNL     1      11.767  -1.903   0.620  1.00  0.00     0.173 A 
ATOM     90  F   UNL     1      13.238  -3.371   3.598  1.00  0.00    -0.203 F 
ATOM     91  C   UNL     1      12.793  -4.327   1.492  1.00  0.00     0.198 A 
ATOM     92  C   UNL     1      11.785  -3.003  -0.235  1.00  0.00     0.198 A 
ATOM     93  F   UNL     1      11.278  -0.740   0.164  1.00  0.00    -0.203 F 
ATOM     94  F   UNL     1      13.328  -5.484   1.905  1.00  0.00    -0.200 F 
ATOM     95  C   UNL     1      12.307  -4.212   0.199  1.00  0.00     0.200 A 
ATOM     96  F   UNL     1      11.304  -2.889  -1.480  1.00  0.00    -0.200 F 
ATOM     97  F   UNL     1      12.350  -5.262  -0.632  1.00  0.00    -0.200 F 
ENDBRANCH  63  87
BRANCH  75  98
ATOM     98  C   UNL     1      17.310   1.836   4.818  1.00  0.00     0.064 A 
ATOM     99  C   UNL     1      18.049   2.127   3.662  1.00  0.00     0.173 A 
ATOM    100  C   UNL     1      18.019   1.485   5.978  1.00  0.00     0.173 A 
ATOM    101  F   UNL     1      17.421   2.456   2.524  1.00  0.00    -0.203 F 
ATOM    102  C   UNL     1      19.440   2.043   3.661  1.00  0.00     0.198 A 
ATOM    103  C   UNL     1      19.410   1.435   5.982  1.00  0.00     0.198 A 
ATOM    104  F   UNL     1      17.363   1.206   7.114  1.00  0.00    -0.203 F 
ATOM    105  F   UNL     1      20.122   2.277   2.531  1.00  0.00    -0.200 F 
ATOM    106  C   UNL     1      20.119   1.706   4.822  1.00  0.00     0.200 A 
ATOM    107  F   UNL     1      20.065   1.127   7.111  1.00  0.00    -0.200 F 
ATOM    108  F   UNL     1      21.457   1.636   4.822  1.00  0.00    -0.200 F 
ENDBRANCH  75  98
ENDBRANCH  49  50
ENDBRANCH  42  44
ENDBRANCH  41  42
ENDBRANCH  40  41
ENDBRANCH  39  40
ENDBRANCH  38  39
ENDBRANCH  37  38
ENDBRANCH  36  37
ENDBRANCH  35  36
ENDBRANCH  34  35
ENDBRANCH   1  34
TORSDOF 25
