REMARK SMILES Cc1ccccc1[C@@H](Cc1c(Cl)cccc1Cl)C(=O)OCCOCCOCCOCCOC(=O)c1ccc(-c2c3nc(c(-c4c(F)c(F)c(F)c(F)c4F)c4ccc([nH]4)c(-c4c(F)c(F)c(F)c(F)c4F)c4nc(c(-c5c(F)c(F)c(F)c(F)c5F)c5ccc2[nH]5)C=C4)C=C3)cc1
REMARK SMILES IDX 26 1 25 2 24 3 23 4 22 5 21 6 20 7 18 8 19 9 8 10 7 11 1 12
REMARK SMILES IDX 2 13 3 14 4 15 6 16 5 17 9 18 10 19 11 20 16 21 12 22 13 23
REMARK SMILES IDX 15 24 17 25 14 26 27 27 28 28 29 29 30 30 31 31 32 32 33 33
REMARK SMILES IDX 34 34 35 35 36 36 97 37 37 38 96 39 38 40 39 41 40 42 90 43
REMARK SMILES IDX 41 44 95 45 89 46 91 47 42 48 94 49 88 50 87 51 43 53 75 54
REMARK SMILES IDX 55 55 74 56 56 57 59 58 73 59 92 60 57 61 58 62 72 64 93 65
REMARK SMILES IDX 60 66 44 67 45 68 53 69 46 70 47 71 51 72 54 73 48 74 49 75
REMARK SMILES IDX 52 76 50 77 76 78 77 79 85 80 78 81 79 82 83 83 86 84 80 85
REMARK SMILES IDX 81 86 84 87 82 88 61 89 62 90 70 91 63 92 64 93 68 94 71 95
REMARK SMILES IDX 65 96 66 97 69 98 67 99
REMARK H PARENT 91 52 59 63
REMARK Flexibility Score: inf
ROOT
ATOM      1  O   UNL     1      -0.340   1.116   2.259  1.00  0.00    -0.377 OA
ENDROOT
BRANCH   1   2
ATOM      2  C   UNL     1       0.785   0.258   2.193  1.00  0.00     0.188 C 
BRANCH   2   3
ATOM      3  C   UNL     1       2.178   0.848   2.462  1.00  0.00     0.188 C 
BRANCH   3   4
ATOM      4  O   UNL     1       2.339   1.992   3.275  1.00  0.00    -0.376 OA
BRANCH   4   5
ATOM      5  C   UNL     1       1.718   3.185   2.825  1.00  0.00     0.202 C 
BRANCH   5   6
ATOM      6  C   UNL     1       2.227   3.867   1.565  1.00  0.00     0.261 C 
BRANCH   6   7
ATOM      7  O   UNL     1       1.618   3.325   0.379  1.00  0.00    -0.463 OA
BRANCH   7   8
ATOM      8  C   UNL     1       2.464   2.572  -0.357  1.00  0.00     0.313 C 
ATOM      9  O   UNL     1       3.631   2.365  -0.034  1.00  0.00    -0.252 OA
BRANCH   8  10
ATOM     10  C   UNL     1       1.849   1.973  -1.612  1.00  0.00     0.134 C 
BRANCH  10  11
ATOM     11  C   UNL     1       0.921   0.782  -1.305  1.00  0.00    -0.031 A 
ATOM     12  C   UNL     1       2.919  -0.796  -0.860  1.00  0.00     0.044 C 
ATOM     13  C   UNL     1       1.450  -0.514  -1.058  1.00  0.00    -0.047 A 
ATOM     14  C   UNL     1       0.575  -1.602  -0.837  1.00  0.00     0.004 A 
ATOM     15  C   UNL     1      -0.802  -1.413  -0.758  1.00  0.00     0.000 A 
ATOM     16  C   UNL     1      -0.477   0.946  -1.188  1.00  0.00     0.005 A 
ATOM     17  C   UNL     1      -1.325  -0.136  -0.912  1.00  0.00     0.000 A 
ENDBRANCH  10  11
BRANCH  10  18
ATOM     18  C   UNL     1       1.293   3.022  -2.613  1.00  0.00     0.058 C 
BRANCH  18  19
ATOM     19  C   UNL     1       1.951   4.387  -2.784  1.00  0.00    -0.010 A 
ATOM     20  C   UNL     1       1.158   5.476  -3.211  1.00  0.00     0.045 A 
ATOM     21  C   UNL     1       3.299   4.677  -2.514  1.00  0.00     0.045 A 
ATOM     22  Cl  UNL     1      -0.437   5.260  -3.856  1.00  0.00    -0.084 Cl
ATOM     23  C   UNL     1       1.629   6.792  -3.148  1.00  0.00     0.021 A 
ATOM     24  C   UNL     1       3.731   5.995  -2.329  1.00  0.00     0.021 A 
ATOM     25  Cl  UNL     1       4.553   3.492  -2.578  1.00  0.00    -0.084 Cl
ATOM     26  C   UNL     1       2.887   7.057  -2.624  1.00  0.00     0.003 A 
ENDBRANCH  18  19
ENDBRANCH  10  18
ENDBRANCH   8  10
ENDBRANCH   7   8
ENDBRANCH   6   7
ENDBRANCH   5   6
ENDBRANCH   4   5
ENDBRANCH   3   4
ENDBRANCH   2   3
ENDBRANCH   1   2
BRANCH   1  27
ATOM     27  C   UNL     1      -1.423   0.701   3.091  1.00  0.00     0.188 C 
BRANCH  27  28
ATOM     28  C   UNL     1      -1.188  -0.390   4.106  1.00  0.00     0.188 C 
BRANCH  28  29
ATOM     29  O   UNL     1       0.008  -0.043   4.793  1.00  0.00    -0.376 OA
BRANCH  29  30
ATOM     30  C   UNL     1       0.659  -1.111   5.458  1.00  0.00     0.202 C 
BRANCH  30  31
ATOM     31  C   UNL     1      -0.211  -1.658   6.585  1.00  0.00     0.261 C 
BRANCH  31  32
ATOM     32  O   UNL     1      -0.429  -0.601   7.549  1.00  0.00    -0.460 OA
BRANCH  32  33
ATOM     33  C   UNL     1      -1.630   0.028   7.468  1.00  0.00     0.338 C 
ATOM     34  O   UNL     1      -2.721  -0.548   7.479  1.00  0.00    -0.246 OA
BRANCH  33  35
ATOM     35  C   UNL     1      -1.467   1.464   7.087  1.00  0.00     0.060 A 
ATOM     36  C   UNL     1      -2.583   2.242   6.729  1.00  0.00     0.016 A 
ATOM     37  C   UNL     1      -0.199   1.922   6.759  1.00  0.00     0.016 A 
ATOM     38  C   UNL     1      -2.433   3.379   5.907  1.00  0.00     0.010 A 
ATOM     39  C   UNL     1      -0.082   2.944   5.833  1.00  0.00     0.010 A 
ATOM     40  C   UNL     1      -1.185   3.683   5.370  1.00  0.00    -0.014 A 
BRANCH  40  41
ATOM     41  C   UNL     1      -0.922   4.667   4.288  1.00  0.00     0.031 A 
ATOM     42  C   UNL     1       0.196   5.663   4.503  1.00  0.00     0.074 A 
ATOM     43  C   UNL     1      -1.404   4.465   3.023  1.00  0.00     0.049 A 
ATOM     44  N   UNL     1       0.573   6.549   3.646  1.00  0.00    -0.248 NA
ATOM     45  C   UNL     1       1.067   5.681   5.680  1.00  0.00     0.031 C 
ATOM     46  C   UNL     1      -0.850   5.002   1.775  1.00  0.00     0.029 A 
ATOM     47  N   UNL     1      -2.433   3.635   2.524  1.00  0.00    -0.354 N 
ATOM     48  C   UNL     1       1.848   6.987   3.961  1.00  0.00     0.074 A 
ATOM     49  C   UNL     1       2.097   6.427   5.262  1.00  0.00     0.031 C 
ATOM     50  C   UNL     1      -1.608   4.689   0.716  1.00  0.00     0.029 A 
ATOM     51  C   UNL     1      -2.824   4.156   1.264  1.00  0.00     0.049 A 
ATOM     52  H   UNL     1      -2.808   2.840   2.968  1.00  0.00     0.167 HD
ATOM     53  C   UNL     1       2.559   7.660   3.000  1.00  0.00     0.037 A 
ATOM     54  C   UNL     1      -4.051   4.712   1.067  1.00  0.00     0.037 A 
ATOM     55  C   UNL     1       1.696   7.898   1.829  1.00  0.00     0.049 A 
ATOM     56  C   UNL     1      -3.869   6.194   0.806  1.00  0.00     0.074 A 
ATOM     57  C   UNL     1       1.705   7.364   0.554  1.00  0.00     0.029 A 
ATOM     58  N   UNL     1       0.442   8.515   1.977  1.00  0.00    -0.354 N 
ATOM     59  N   UNL     1      -2.923   6.919   1.359  1.00  0.00    -0.248 NA
ATOM     60  C   UNL     1      -4.548   6.891  -0.283  1.00  0.00     0.031 C 
ATOM     61  C   UNL     1       0.424   7.551  -0.015  1.00  0.00     0.029 A 
ATOM     62  C   UNL     1      -0.363   8.255   0.879  1.00  0.00     0.049 A 
ATOM     63  H   UNL     1       0.172   9.057   2.753  1.00  0.00     0.167 HD
ATOM     64  C   UNL     1      -2.753   8.063   0.619  1.00  0.00     0.074 A 
ATOM     65  C   UNL     1      -3.840   8.033  -0.350  1.00  0.00     0.031 C 
ATOM     66  C   UNL     1      -1.656   8.885   0.664  1.00  0.00     0.037 A 
BRANCH  53  67
ATOM     67  C   UNL     1       4.087   7.874   2.962  1.00  0.00     0.064 A 
ATOM     68  C   UNL     1       4.753   8.203   1.750  1.00  0.00     0.173 A 
ATOM     69  C   UNL     1       4.970   7.727   4.053  1.00  0.00     0.173 A 
ATOM     70  F   UNL     1       4.077   8.485   0.629  1.00  0.00    -0.203 F 
ATOM     71  C   UNL     1       6.150   8.275   1.627  1.00  0.00     0.198 A 
ATOM     72  C   UNL     1       6.371   7.792   3.930  1.00  0.00     0.198 A 
ATOM     73  F   UNL     1       4.526   7.569   5.300  1.00  0.00    -0.203 F 
ATOM     74  F   UNL     1       6.699   8.560   0.436  1.00  0.00    -0.200 F 
ATOM     75  C   UNL     1       6.963   8.052   2.714  1.00  0.00     0.200 A 
ATOM     76  F   UNL     1       7.141   7.609   5.013  1.00  0.00    -0.200 F 
ATOM     77  F   UNL     1       8.296   8.116   2.599  1.00  0.00    -0.200 F 
ENDBRANCH  53  67
BRANCH  54  78
ATOM     78  C   UNL     1      -5.090   3.929   1.798  1.00  0.00     0.064 A 
ATOM     79  C   UNL     1      -5.261   2.604   1.323  1.00  0.00     0.173 A 
ATOM     80  C   UNL     1      -5.329   4.151   3.160  1.00  0.00     0.173 A 
ATOM     81  F   UNL     1      -5.085   2.335   0.018  1.00  0.00    -0.203 F 
ATOM     82  C   UNL     1      -5.385   1.529   2.203  1.00  0.00     0.198 A 
ATOM     83  C   UNL     1      -5.496   3.068   4.035  1.00  0.00     0.198 A 
ATOM     84  F   UNL     1      -5.215   5.383   3.674  1.00  0.00    -0.203 F 
ATOM     85  F   UNL     1      -5.312   0.272   1.741  1.00  0.00    -0.200 F 
ATOM     86  C   UNL     1      -5.445   1.762   3.564  1.00  0.00     0.200 A 
ATOM     87  F   UNL     1      -5.582   3.283   5.356  1.00  0.00    -0.200 F 
ATOM     88  F   UNL     1      -5.392   0.733   4.423  1.00  0.00    -0.200 F 
ENDBRANCH  54  78
BRANCH  66  89
ATOM     89  C   UNL     1      -1.637  10.327   0.208  1.00  0.00     0.064 A 
ATOM     90  C   UNL     1      -2.795  11.111   0.118  1.00  0.00     0.173 A 
ATOM     91  C   UNL     1      -0.413  11.024   0.025  1.00  0.00     0.173 A 
ATOM     92  F   UNL     1      -4.008  10.594   0.356  1.00  0.00    -0.203 F 
ATOM     93  C   UNL     1      -2.738  12.473  -0.178  1.00  0.00     0.198 A 
ATOM     94  C   UNL     1      -0.358  12.393  -0.203  1.00  0.00     0.198 A 
ATOM     95  F   UNL     1       0.780  10.417   0.091  1.00  0.00    -0.203 F 
ATOM     96  F   UNL     1      -3.876  13.169  -0.300  1.00  0.00    -0.200 F 
ATOM     97  C   UNL     1      -1.522  13.117  -0.318  1.00  0.00     0.200 A 
ATOM     98  F   UNL     1       0.833  13.003  -0.289  1.00  0.00    -0.200 F 
ATOM     99  F   UNL     1      -1.473  14.435  -0.546  1.00  0.00    -0.200 F 
ENDBRANCH  66  89
ENDBRANCH  40  41
ENDBRANCH  33  35
ENDBRANCH  32  33
ENDBRANCH  31  32
ENDBRANCH  30  31
ENDBRANCH  29  30
ENDBRANCH  28  29
ENDBRANCH  27  28
ENDBRANCH   1  27
TORSDOF 23
