REMARK SMILES COc1ccc(-c2ccc3n(c2=O)C[C@H]2C[C@@H]3CN(C(=O)CCCC(=O)OCCOCCOCCOCCOC(=O)c3ccc(-c4c5nc(c(-c6c(F)c(F)c(F)c(F)c6F)c6ccc([nH]6)c(-c6c(F)c(F)c(F)c(F)c6F)c6nc(c(-c7c(F)c(F)c(F)c(F)c7F)c7ccc4[nH]7)C=C6)C=C5)cc3)C2)cc1
REMARK SMILES IDX 31 1 30 2 29 3 28 4 27 5 25 6 26 7 24 8 23 9 22 10 20 11
REMARK SMILES IDX 21 12 19 13 7 14 8 15 12 16 9 17 11 18 13 19 10 20 14 21
REMARK SMILES IDX 17 22 15 23 16 24 18 25 105 26 6 27 3 28 4 29 107 30 5 31
REMARK SMILES IDX 106 32 2 33 1 34 32 35 33 36 34 37 35 38 36 39 37 40 38 41
REMARK SMILES IDX 39 42 40 43 41 44 42 45 43 46 104 47 44 48 103 49 45 50
REMARK SMILES IDX 46 51 47 52 97 53 48 54 102 55 96 56 98 57 49 58 101 59
REMARK SMILES IDX 95 60 94 61 50 63 82 64 62 65 81 66 63 67 66 68 80 69 99 70
REMARK SMILES IDX 64 71 65 72 79 74 100 75 67 76 51 77 52 78 60 79 53 80 54 81
REMARK SMILES IDX 58 82 61 83 55 84 56 85 59 86 57 87 83 88 84 89 92 90 85 91
REMARK SMILES IDX 86 92 90 93 93 94 87 95 88 96 91 97 89 98 68 99 69 100
REMARK SMILES IDX 77 101 70 102 71 103 75 104 78 105 72 106 73 107 76 108
REMARK SMILES IDX 74 109
REMARK H PARENT 98 62 66 73
REMARK Flexibility Score: inf
ROOT
ATOM      1  C   UNL     1      -4.371   9.793   5.750  1.00  0.00     0.188 C 
ENDROOT
BRANCH   1   2
ATOM      2  O   UNL     1      -4.176  10.421   7.003  1.00  0.00    -0.376 OA
BRANCH   2   3
ATOM      3  C   UNL     1      -2.955  10.517   7.697  1.00  0.00     0.202 C 
BRANCH   3   4
ATOM      4  C   UNL     1      -1.588  10.490   7.023  1.00  0.00     0.261 C 
BRANCH   4   5
ATOM      5  O   UNL     1      -1.581  10.221   5.625  1.00  0.00    -0.463 OA
BRANCH   5   6
ATOM      6  C   UNL     1      -1.461   8.925   5.253  1.00  0.00     0.305 C 
ATOM      7  O   UNL     1      -1.507   7.999   6.053  1.00  0.00    -0.252 OA
BRANCH   6   8
ATOM      8  C   UNL     1      -1.258   8.726   3.753  1.00  0.00     0.123 C 
BRANCH   8   9
ATOM      9  C   UNL     1      -1.140   9.850   2.704  1.00  0.00     0.022 C 
BRANCH   9  10
ATOM     10  C   UNL     1      -0.459  11.189   3.004  1.00  0.00     0.101 C 
BRANCH  10  11
ATOM     11  C   UNL     1       1.043  11.192   2.753  1.00  0.00     0.222 C 
ATOM     12  O   UNL     1       1.469  11.572   1.659  1.00  0.00    -0.275 OA
BRANCH  11  13
ATOM     13  N   UNL     1       1.894  10.760   3.760  1.00  0.00    -0.342 N 
ATOM     14  C   UNL     1       2.350   5.908   2.399  1.00  0.00     0.047 A 
ATOM     15  C   UNL     1       3.366   6.580   1.833  1.00  0.00     0.016 A 
ATOM     16  C   UNL     1       1.792   6.422   3.697  1.00  0.00     0.258 A 
ATOM     17  C   UNL     1       3.924   7.759   2.440  1.00  0.00     0.023 A 
ATOM     18  N   UNL     1       2.387   7.583   4.226  1.00  0.00    -0.311 N 
ATOM     19  O   UNL     1       0.861   5.835   4.247  1.00  0.00    -0.269 OA
ATOM     20  C   UNL     1       3.446   8.239   3.599  1.00  0.00     0.026 A 
ATOM     21  C   UNL     1       1.907   8.028   5.531  1.00  0.00     0.131 C 
ATOM     22  C   UNL     1       4.002   9.531   4.193  1.00  0.00     0.056 C 
ATOM     23  C   UNL     1       2.263   9.469   5.918  1.00  0.00     0.029 C 
ATOM     24  C   UNL     1       3.753   9.640   5.702  1.00  0.00     0.019 C 
ATOM     25  C   UNL     1       3.332  10.737   3.505  1.00  0.00     0.129 C 
ATOM     26  C   UNL     1       1.497  10.549   5.139  1.00  0.00     0.125 C 
BRANCH  14  27
ATOM     27  C   UNL     1       1.831   4.684   1.759  1.00  0.00    -0.013 A 
ATOM     28  C   UNL     1       0.887   2.330   0.519  1.00  0.00     0.118 A 
ATOM     29  C   UNL     1       0.045   3.430   0.690  1.00  0.00     0.047 A 
ATOM     30  C   UNL     1       2.206   2.409   0.962  1.00  0.00     0.047 A 
ATOM     31  C   UNL     1       0.506   4.596   1.315  1.00  0.00     0.013 A 
ATOM     32  C   UNL     1       2.673   3.577   1.576  1.00  0.00     0.013 A 
BRANCH  28  33
ATOM     33  O   UNL     1       0.327   1.258  -0.121  1.00  0.00    -0.497 OA
ATOM     34  C   UNL     1       0.942  -0.005   0.110  1.00  0.00     0.278 C 
ENDBRANCH  28  33
ENDBRANCH  14  27
ENDBRANCH  11  13
ENDBRANCH  10  11
ENDBRANCH   9  10
ENDBRANCH   8   9
ENDBRANCH   6   8
ENDBRANCH   5   6
ENDBRANCH   4   5
ENDBRANCH   3   4
ENDBRANCH   2   3
ENDBRANCH   1   2
BRANCH   1  35
ATOM     35  C   UNL     1      -4.106  10.646   4.480  1.00  0.00     0.188 C 
BRANCH  35  36
ATOM     36  O   UNL     1      -4.396  12.033   4.381  1.00  0.00    -0.377 OA
BRANCH  36  37
ATOM     37  C   UNL     1      -4.327  12.801   5.567  1.00  0.00     0.188 C 
BRANCH  37  38
ATOM     38  C   UNL     1      -5.622  12.699   6.387  1.00  0.00     0.188 C 
BRANCH  38  39
ATOM     39  O   UNL     1      -6.448  11.612   5.998  1.00  0.00    -0.376 OA
BRANCH  39  40
ATOM     40  C   UNL     1      -7.419  11.791   4.976  1.00  0.00     0.202 C 
BRANCH  40  41
ATOM     41  C   UNL     1      -7.086  12.481   3.638  1.00  0.00     0.261 C 
BRANCH  41  42
ATOM     42  O   UNL     1      -6.454  13.769   3.696  1.00  0.00    -0.460 OA
BRANCH  42  43
ATOM     43  C   UNL     1      -7.068  14.748   4.383  1.00  0.00     0.338 C 
ATOM     44  O   UNL     1      -8.164  14.708   4.918  1.00  0.00    -0.246 OA
BRANCH  43  45
ATOM     45  C   UNL     1      -6.081  15.831   4.574  1.00  0.00     0.060 A 
ATOM     46  C   UNL     1      -5.768  16.234   5.880  1.00  0.00     0.016 A 
ATOM     47  C   UNL     1      -5.455  16.429   3.478  1.00  0.00     0.016 A 
ATOM     48  C   UNL     1      -4.854  17.262   6.093  1.00  0.00     0.010 A 
ATOM     49  C   UNL     1      -4.569  17.487   3.689  1.00  0.00     0.010 A 
ATOM     50  C   UNL     1      -4.300  17.931   4.996  1.00  0.00    -0.014 A 
BRANCH  50  51
ATOM     51  C   UNL     1      -3.669  19.251   5.218  1.00  0.00     0.031 A 
ATOM     52  C   UNL     1      -4.536  20.470   5.066  1.00  0.00     0.074 A 
ATOM     53  C   UNL     1      -2.385  19.366   5.595  1.00  0.00     0.049 A 
ATOM     54  N   UNL     1      -4.226  21.735   5.181  1.00  0.00    -0.248 NA
ATOM     55  C   UNL     1      -5.952  20.224   4.743  1.00  0.00     0.031 C 
ATOM     56  C   UNL     1      -1.470  18.253   5.832  1.00  0.00     0.029 A 
ATOM     57  N   UNL     1      -1.631  20.485   5.842  1.00  0.00    -0.354 N 
ATOM     58  C   UNL     1      -5.402  22.431   4.939  1.00  0.00     0.074 A 
ATOM     59  C   UNL     1      -6.426  21.455   4.640  1.00  0.00     0.031 C 
ATOM     60  C   UNL     1      -0.268  18.747   6.179  1.00  0.00     0.029 A 
ATOM     61  C   UNL     1      -0.324  20.209   6.153  1.00  0.00     0.049 A 
ATOM     62  H   UNL     1      -1.994  21.399   5.801  1.00  0.00     0.167 HD
ATOM     63  C   UNL     1      -5.612  23.767   4.972  1.00  0.00     0.037 A 
ATOM     64  C   UNL     1       0.709  21.047   6.365  1.00  0.00     0.037 A 
ATOM     65  C   UNL     1      -4.587  24.733   5.262  1.00  0.00     0.049 A 
ATOM     66  C   UNL     1       0.471  22.536   6.303  1.00  0.00     0.074 A 
ATOM     67  C   UNL     1      -4.691  26.110   5.325  1.00  0.00     0.029 A 
ATOM     68  N   UNL     1      -3.261  24.418   5.526  1.00  0.00    -0.354 N 
ATOM     69  N   UNL     1      -0.646  23.192   6.093  1.00  0.00    -0.248 NA
ATOM     70  C   UNL     1       1.640  23.403   6.510  1.00  0.00     0.031 C 
ATOM     71  C   UNL     1      -3.417  26.632   5.565  1.00  0.00     0.029 A 
ATOM     72  C   UNL     1      -2.531  25.578   5.722  1.00  0.00     0.049 A 
ATOM     73  H   UNL     1      -2.894  23.505   5.567  1.00  0.00     0.167 HD
ATOM     74  C   UNL     1      -0.322  24.541   6.177  1.00  0.00     0.074 A 
ATOM     75  C   UNL     1       1.094  24.610   6.471  1.00  0.00     0.031 C 
ATOM     76  C   UNL     1      -1.123  25.625   6.026  1.00  0.00     0.037 A 
BRANCH  63  77
ATOM     77  C   UNL     1      -6.992  24.260   4.647  1.00  0.00     0.064 A 
ATOM     78  C   UNL     1      -8.078  24.046   5.509  1.00  0.00     0.173 A 
ATOM     79  C   UNL     1      -7.226  24.974   3.462  1.00  0.00     0.173 A 
ATOM     80  F   UNL     1      -7.913  23.353   6.646  1.00  0.00    -0.203 F 
ATOM     81  C   UNL     1      -9.352  24.505   5.183  1.00  0.00     0.198 A 
ATOM     82  C   UNL     1      -8.494  25.460   3.156  1.00  0.00     0.198 A 
ATOM     83  F   UNL     1      -6.223  25.205   2.601  1.00  0.00    -0.203 F 
ATOM     84  F   UNL     1     -10.385  24.244   5.997  1.00  0.00    -0.200 F 
ATOM     85  C   UNL     1      -9.557  25.219   4.012  1.00  0.00     0.200 A 
ATOM     86  F   UNL     1      -8.686  26.161   2.030  1.00  0.00    -0.200 F 
ATOM     87  F   UNL     1     -10.781  25.668   3.705  1.00  0.00    -0.200 F 
ENDBRANCH  63  77
BRANCH  64  88
ATOM     88  C   UNL     1       2.068  20.506   6.637  1.00  0.00     0.064 A 
ATOM     89  C   UNL     1       2.694  20.704   7.876  1.00  0.00     0.173 A 
ATOM     90  C   UNL     1       2.783  19.808   5.652  1.00  0.00     0.173 A 
ATOM     91  F   UNL     1       2.064  21.387   8.843  1.00  0.00    -0.203 F 
ATOM     92  C   UNL     1       3.989  20.245   8.110  1.00  0.00     0.198 A 
ATOM     93  C   UNL     1       4.064  19.321   5.898  1.00  0.00     0.198 A 
ATOM     94  F   UNL     1       2.232  19.593   4.448  1.00  0.00    -0.203 F 
ATOM     95  F   UNL     1       4.583  20.494   9.285  1.00  0.00    -0.200 F 
ATOM     96  C   UNL     1       4.671  19.548   7.124  1.00  0.00     0.200 A 
ATOM     97  F   UNL     1       4.713  18.635   4.947  1.00  0.00    -0.200 F 
ATOM     98  F   UNL     1       5.914  19.104   7.351  1.00  0.00    -0.200 F 
ENDBRANCH  64  88
BRANCH  76  99
ATOM     99  C   UNL     1      -0.501  26.980   6.223  1.00  0.00     0.064 A 
ATOM    100  C   UNL     1       0.415  27.516   5.306  1.00  0.00     0.173 A 
ATOM    101  C   UNL     1      -0.867  27.771   7.323  1.00  0.00     0.173 A 
ATOM    102  F   UNL     1       0.807  26.796   4.244  1.00  0.00    -0.203 F 
ATOM    103  C   UNL     1       0.964  28.781   5.500  1.00  0.00     0.198 A 
ATOM    104  C   UNL     1      -0.345  29.050   7.494  1.00  0.00     0.198 A 
ATOM    105  F   UNL     1      -1.748  27.312   8.225  1.00  0.00    -0.203 F 
ATOM    106  F   UNL     1       1.878  29.251   4.640  1.00  0.00    -0.200 F 
ATOM    107  C   UNL     1       0.577  29.550   6.588  1.00  0.00     0.200 A 
ATOM    108  F   UNL     1      -0.734  29.798   8.535  1.00  0.00    -0.200 F 
ATOM    109  F   UNL     1       1.099  30.771   6.766  1.00  0.00    -0.200 F 
ENDBRANCH  76  99
ENDBRANCH  50  51
ENDBRANCH  43  45
ENDBRANCH  42  43
ENDBRANCH  41  42
ENDBRANCH  40  41
ENDBRANCH  39  40
ENDBRANCH  38  39
ENDBRANCH  37  38
ENDBRANCH  36  37
ENDBRANCH  35  36
ENDBRANCH   1  35
TORSDOF 26
