REMARK SMILES Cc1ccc(NC(=O)C[NH+]2CCN(c3ccc(C(=O)OCCOCCOCCOCCOC(=O)c4ccc(-c5c6nc(c(-c7c(F)c(F)c(F)c(F)c7F)c7ccc([nH]7)c(-c7c(F)c(F)c(F)c(F)c7F)c7nc(c(-c8c(F)c(F)c(F)c(F)c8F)c8ccc5[nH]8)C=C7)C=C6)cc4)cc3NS(C)(=O)=O)CC2)cc1
REMARK SMILES IDX 25 1 24 2 23 3 22 4 21 5 20 6 18 7 19 8 17 9 14 10 15 11
REMARK SMILES IDX 99 12 16 13 98 14 13 15 10 16 11 17 106 18 12 20 105 21 9 22
REMARK SMILES IDX 7 23 6 24 8 26 5 27 1 28 2 29 3 30 108 31 4 32 107 33 100 34
REMARK SMILES IDX 101 36 102 37 103 38 104 39 26 40 27 41 28 42 29 43 30 44
REMARK SMILES IDX 31 45 32 46 33 47 34 48 35 49 36 50 97 51 37 52 96 53 38 54
REMARK SMILES IDX 39 55 40 56 90 57 41 58 95 59 89 60 91 61 42 62 94 63 88 64
REMARK SMILES IDX 87 65 43 67 75 68 55 69 74 70 56 71 59 72 73 73 92 74 57 75
REMARK SMILES IDX 58 76 72 78 93 79 60 80 44 81 45 82 53 83 46 84 47 85 51 86
REMARK SMILES IDX 54 87 48 88 49 89 52 90 50 91 76 92 77 93 85 94 78 95 79 96
REMARK SMILES IDX 83 97 86 98 80 99 81 100 84 101 82 102 61 103 62 104 70 105
REMARK SMILES IDX 63 106 64 107 68 108 71 109 65 110 66 111 69 112 67 113
REMARK H PARENT 10 19 6 25 100 35 91 66 59 77
REMARK Flexibility Score: inf
ROOT
ATOM      1  C   UNL     1       4.852  -0.599  -0.875  1.00  0.00     0.188 C 
ENDROOT
BRANCH   1   2
ATOM      2  C   UNL     1       5.015  -0.393   0.640  1.00  0.00     0.188 C 
BRANCH   2   3
ATOM      3  O   UNL     1       6.322  -0.187   1.165  1.00  0.00    -0.376 OA
BRANCH   3   4
ATOM      4  C   UNL     1       7.155  -1.341   1.256  1.00  0.00     0.202 C 
BRANCH   4   5
ATOM      5  C   UNL     1       6.656  -2.439   2.174  1.00  0.00     0.261 C 
BRANCH   5   6
ATOM      6  O   UNL     1       5.589  -3.131   1.538  1.00  0.00    -0.460 OA
BRANCH   6   7
ATOM      7  C   UNL     1       4.696  -3.609   2.409  1.00  0.00     0.338 C 
ATOM      8  O   UNL     1       4.772  -3.649   3.624  1.00  0.00    -0.246 OA
BRANCH   7   9
ATOM      9  C   UNL     1       3.422  -3.553   1.717  1.00  0.00     0.062 A 
ATOM     10  C   UNL     1       0.865  -3.133   0.758  1.00  0.00     0.062 A 
ATOM     11  C   UNL     1       1.821  -3.884   0.017  1.00  0.00     0.029 A 
ATOM     12  C   UNL     1       1.244  -2.579   2.014  1.00  0.00     0.073 A 
ATOM     13  C   UNL     1       3.091  -4.136   0.513  1.00  0.00     0.018 A 
ATOM     14  C   UNL     1       2.558  -2.697   2.374  1.00  0.00     0.044 A 
BRANCH  10  15
ATOM     15  N   UNL     1      -0.408  -2.961   0.174  1.00  0.00    -0.359 N 
ATOM     16  N   UNL     1      -2.891  -2.764  -1.158  1.00  0.00    -0.324 N 
ATOM     17  C   UNL     1      -1.763  -2.061  -1.791  1.00  0.00     0.284 C 
ATOM     18  C   UNL     1      -2.405  -4.128  -0.851  1.00  0.00     0.284 C 
ATOM     19  H   UNL     1      -3.693  -2.772  -1.789  1.00  0.00     0.348 HD
ATOM     20  C   UNL     1      -0.399  -2.127  -1.058  1.00  0.00     0.178 C 
ATOM     21  C   UNL     1      -1.201  -4.212   0.122  1.00  0.00     0.178 C 
BRANCH  16  22
ATOM     22  C   UNL     1      -3.366  -2.093   0.083  1.00  0.00     0.364 C 
BRANCH  22  23
ATOM     23  C   UNL     1      -4.124  -0.784  -0.190  1.00  0.00     0.279 C 
ATOM     24  N   UNL     1      -3.557   0.463  -0.137  1.00  0.00    -0.321 N 
ATOM     25  H   UNL     1      -4.189   1.191  -0.336  1.00  0.00     0.170 HD
ATOM     26  O   UNL     1      -5.311  -0.825  -0.543  1.00  0.00    -0.268 OA
BRANCH  24  27
ATOM     27  C   UNL     1      -2.259   0.910   0.143  1.00  0.00     0.041 A 
ATOM     28  C   UNL     1       1.952   1.532  -0.167  1.00  0.00     0.044 C 
ATOM     29  C   UNL     1       0.479   1.527   0.092  1.00  0.00    -0.051 A 
ATOM     30  C   UNL     1      -0.045   0.602   0.985  1.00  0.00     0.005 A 
ATOM     31  C   UNL     1      -0.411   2.293  -0.645  1.00  0.00     0.005 A 
ATOM     32  C   UNL     1      -1.406   0.303   1.041  1.00  0.00     0.026 A 
ATOM     33  C   UNL     1      -1.780   1.998  -0.602  1.00  0.00     0.026 A 
ENDBRANCH  24  27
ENDBRANCH  22  23
ENDBRANCH  16  22
ENDBRANCH  10  15
BRANCH  12  34
ATOM     34  N   UNL     1       0.361  -1.860   2.900  1.00  0.00    -0.282 N 
ATOM     35  H   UNL     1      -0.576  -1.745   2.620  1.00  0.00     0.180 HD
BRANCH  34  36
ATOM     36  S   UNL     1       0.830  -1.194   4.401  1.00  0.00     0.229 S 
ATOM     37  C   UNL     1       1.533   0.397   3.950  1.00  0.00     0.183 C 
ATOM     38  O   UNL     1      -0.405  -0.922   5.112  1.00  0.00    -0.207 OA
ATOM     39  O   UNL     1       1.859  -1.982   5.032  1.00  0.00    -0.207 OA
ENDBRANCH  34  36
ENDBRANCH  12  34
ENDBRANCH   7   9
ENDBRANCH   6   7
ENDBRANCH   5   6
ENDBRANCH   4   5
ENDBRANCH   3   4
ENDBRANCH   2   3
ENDBRANCH   1   2
BRANCH   1  40
ATOM     40  O   UNL     1       5.685  -1.624  -1.380  1.00  0.00    -0.377 OA
BRANCH  40  41
ATOM     41  C   UNL     1       6.388  -1.359  -2.592  1.00  0.00     0.188 C 
BRANCH  41  42
ATOM     42  C   UNL     1       6.897   0.060  -2.853  1.00  0.00     0.188 C 
BRANCH  42  43
ATOM     43  O   UNL     1       7.418   0.634  -1.661  1.00  0.00    -0.376 OA
BRANCH  43  44
ATOM     44  C   UNL     1       7.343   2.060  -1.605  1.00  0.00     0.202 C 
BRANCH  44  45
ATOM     45  C   UNL     1       8.195   2.756  -2.676  1.00  0.00     0.261 C 
BRANCH  45  46
ATOM     46  O   UNL     1       9.581   2.414  -2.480  1.00  0.00    -0.460 OA
BRANCH  46  47
ATOM     47  C   UNL     1      10.074   1.481  -3.340  1.00  0.00     0.338 C 
ATOM     48  O   UNL     1       9.954   1.510  -4.554  1.00  0.00    -0.246 OA
BRANCH  47  49
ATOM     49  C   UNL     1      10.509   0.273  -2.580  1.00  0.00     0.060 A 
ATOM     50  C   UNL     1      10.798  -0.924  -3.259  1.00  0.00     0.016 A 
ATOM     51  C   UNL     1      10.301   0.240  -1.210  1.00  0.00     0.016 A 
ATOM     52  C   UNL     1      10.696  -2.164  -2.598  1.00  0.00     0.010 A 
ATOM     53  C   UNL     1      10.115  -0.984  -0.598  1.00  0.00     0.010 A 
ATOM     54  C   UNL     1      10.259  -2.209  -1.274  1.00  0.00    -0.014 A 
BRANCH  54  55
ATOM     55  C   UNL     1       9.722  -3.400  -0.561  1.00  0.00     0.031 A 
ATOM     56  C   UNL     1       9.980  -3.584   0.927  1.00  0.00     0.074 A 
ATOM     57  C   UNL     1       8.672  -4.058  -1.123  1.00  0.00     0.049 A 
ATOM     58  N   UNL     1       9.421  -4.469   1.693  1.00  0.00    -0.248 NA
ATOM     59  C   UNL     1      10.943  -2.776   1.684  1.00  0.00     0.031 C 
ATOM     60  C   UNL     1       7.484  -4.481  -0.389  1.00  0.00     0.029 A 
ATOM     61  N   UNL     1       8.337  -4.375  -2.446  1.00  0.00    -0.354 N 
ATOM     62  C   UNL     1       9.665  -4.134   3.021  1.00  0.00     0.074 A 
ATOM     63  C   UNL     1      10.709  -3.148   2.949  1.00  0.00     0.031 C 
ATOM     64  C   UNL     1       6.590  -5.052  -1.197  1.00  0.00     0.029 A 
ATOM     65  C   UNL     1       7.270  -5.303  -2.428  1.00  0.00     0.049 A 
ATOM     66  H   UNL     1       8.771  -4.013  -3.252  1.00  0.00     0.167 HD
ATOM     67  C   UNL     1       8.852  -4.613   4.019  1.00  0.00     0.037 A 
ATOM     68  C   UNL     1       7.364  -6.565  -2.942  1.00  0.00     0.037 A 
ATOM     69  C   UNL     1       7.894  -5.614   3.521  1.00  0.00     0.049 A 
ATOM     70  C   UNL     1       7.264  -7.648  -1.879  1.00  0.00     0.074 A 
ATOM     71  C   UNL     1       6.547  -5.845   3.729  1.00  0.00     0.029 A 
ATOM     72  N   UNL     1       8.287  -6.569   2.586  1.00  0.00    -0.354 N 
ATOM     73  N   UNL     1       7.531  -7.423  -0.614  1.00  0.00    -0.248 NA
ATOM     74  C   UNL     1       6.779  -9.009  -2.097  1.00  0.00     0.031 C 
ATOM     75  C   UNL     1       6.101  -6.826   2.809  1.00  0.00     0.029 A 
ATOM     76  C   UNL     1       7.223  -7.338   2.184  1.00  0.00     0.049 A 
ATOM     77  H   UNL     1       9.209  -6.678   2.256  1.00  0.00     0.167 HD
ATOM     78  C   UNL     1       7.265  -8.544   0.128  1.00  0.00     0.074 A 
ATOM     79  C   UNL     1       6.804  -9.511  -0.847  1.00  0.00     0.031 C 
ATOM     80  C   UNL     1       7.426  -8.589   1.483  1.00  0.00     0.037 A 
BRANCH  67  81
ATOM     81  C   UNL     1       8.722  -4.057   5.457  1.00  0.00     0.064 A 
ATOM     82  C   UNL     1       7.965  -4.758   6.435  1.00  0.00     0.173 A 
ATOM     83  C   UNL     1       9.185  -2.799   5.904  1.00  0.00     0.173 A 
ATOM     84  F   UNL     1       7.527  -6.004   6.211  1.00  0.00    -0.203 F 
ATOM     85  C   UNL     1       7.635  -4.221   7.691  1.00  0.00     0.198 A 
ATOM     86  C   UNL     1       8.926  -2.300   7.194  1.00  0.00     0.198 A 
ATOM     87  F   UNL     1       9.870  -1.973   5.107  1.00  0.00    -0.203 F 
ATOM     88  F   UNL     1       6.841  -4.907   8.526  1.00  0.00    -0.200 F 
ATOM     89  C   UNL     1       8.126  -2.994   8.075  1.00  0.00     0.200 A 
ATOM     90  F   UNL     1       9.448  -1.120   7.566  1.00  0.00    -0.200 F 
ATOM     91  F   UNL     1       7.839  -2.488   9.283  1.00  0.00    -0.200 F 
ENDBRANCH  67  81
BRANCH  68  92
ATOM     92  C   UNL     1       7.989  -6.540  -4.299  1.00  0.00     0.064 A 
ATOM     93  C   UNL     1       7.182  -5.846  -5.232  1.00  0.00     0.173 A 
ATOM     94  C   UNL     1       9.377  -6.337  -4.375  1.00  0.00     0.173 A 
ATOM     95  F   UNL     1       5.851  -6.034  -5.224  1.00  0.00    -0.203 F 
ATOM     96  C   UNL     1       7.687  -4.747  -5.925  1.00  0.00     0.198 A 
ATOM     97  C   UNL     1       9.884  -5.251  -5.098  1.00  0.00     0.198 A 
ATOM     98  F   UNL     1      10.198  -7.004  -3.551  1.00  0.00    -0.203 F 
ATOM     99  F   UNL     1       6.845  -3.912  -6.553  1.00  0.00    -0.200 F 
ATOM    100  C   UNL     1       9.027  -4.418  -5.809  1.00  0.00     0.200 A 
ATOM    101  F   UNL     1      11.172  -4.902  -4.964  1.00  0.00    -0.200 F 
ATOM    102  F   UNL     1       9.470  -3.245  -6.287  1.00  0.00    -0.200 F 
ENDBRANCH  68  92
BRANCH  80 103
ATOM    103  C   UNL     1       7.716  -9.810   2.344  1.00  0.00     0.064 A 
ATOM    104  C   UNL     1       8.120 -11.047   1.826  1.00  0.00     0.173 A 
ATOM    105  C   UNL     1       7.813  -9.700   3.763  1.00  0.00     0.173 A 
ATOM    106  F   UNL     1       8.174 -11.271   0.508  1.00  0.00    -0.203 F 
ATOM    107  C   UNL     1       8.555 -12.091   2.649  1.00  0.00     0.198 A 
ATOM    108  C   UNL     1       8.291 -10.726   4.575  1.00  0.00     0.198 A 
ATOM    109  F   UNL     1       7.500  -8.579   4.424  1.00  0.00    -0.203 F 
ATOM    110  F   UNL     1       8.918 -13.256   2.095  1.00  0.00    -0.200 F 
ATOM    111  C   UNL     1       8.657 -11.927   4.018  1.00  0.00     0.200 A 
ATOM    112  F   UNL     1       8.428 -10.523   5.894  1.00  0.00    -0.200 F 
ATOM    113  F   UNL     1       9.130 -12.913   4.790  1.00  0.00    -0.200 F 
ENDBRANCH  80 103
ENDBRANCH  54  55
ENDBRANCH  47  49
ENDBRANCH  46  47
ENDBRANCH  45  46
ENDBRANCH  44  45
ENDBRANCH  43  44
ENDBRANCH  42  43
ENDBRANCH  41  42
ENDBRANCH  40  41
ENDBRANCH   1  40
TORSDOF 26
