REMARK SMILES CC(C)C[C@H](NC(=O)CNC(=O)[C@@H](NC(=O)OCc1ccccc1)C(C)C)C(=O)OCCOCCOCCOCCOC(=O)c1ccc(-c2c3nc(c(-c4c(F)c(F)c(F)c(F)c4F)c4ccc([nH]4)c(-c4c(F)c(F)c(F)c(F)c4F)c4nc(c(-c5c(F)c(F)c(F)c(F)c5F)c5ccc2[nH]5)C=C4)C=C3)cc1
REMARK SMILES IDX 33 1 32 2 31 3 30 4 28 5 29 6 5 7 4 8 2 9 1 10 3 11 6 12
REMARK SMILES IDX 7 13 8 15 9 16 10 17 11 18 12 20 13 21 14 22 15 23 16 25
REMARK SMILES IDX 17 26 18 27 19 28 20 29 24 30 21 31 23 32 22 33 25 34 26 35
REMARK SMILES IDX 27 36 34 37 35 38 36 39 37 40 38 41 39 42 40 43 41 44 42 45
REMARK SMILES IDX 43 46 44 47 45 48 46 49 107 50 47 51 106 52 48 53 49 54
REMARK SMILES IDX 50 55 100 56 51 57 105 58 99 59 101 60 52 61 104 62 98 63
REMARK SMILES IDX 97 64 53 66 85 67 65 68 84 69 66 70 69 71 83 72 102 73 67 74
REMARK SMILES IDX 68 75 82 77 103 78 70 79 54 80 55 81 63 82 56 83 57 84 61 85
REMARK SMILES IDX 64 86 58 87 59 88 62 89 60 90 86 91 87 92 95 93 88 94 89 95
REMARK SMILES IDX 93 96 96 97 90 98 91 99 94 100 92 101 71 102 72 103 80 104
REMARK SMILES IDX 73 105 74 106 78 107 81 108 75 109 76 110 79 111 77 112
REMARK H PARENT 6 14 10 19 14 24 101 65 69 76
REMARK Flexibility Score: inf
ROOT
ATOM      1  O   UNL     1      -5.664  -0.391   0.470  1.00  0.00    -0.376 OA
ENDROOT
BRANCH   1   2
ATOM      2  C   UNL     1      -5.868   1.008   0.535  1.00  0.00     0.202 C 
BRANCH   2   3
ATOM      3  C   UNL     1      -4.747   2.018   0.826  1.00  0.00     0.261 C 
BRANCH   3   4
ATOM      4  O   UNL     1      -3.550   1.835   0.042  1.00  0.00    -0.462 OA
BRANCH   4   5
ATOM      5  C   UNL     1      -2.317   2.036   0.629  1.00  0.00     0.328 C 
ATOM      6  O   UNL     1      -2.205   2.285   1.823  1.00  0.00    -0.250 OA
BRANCH   5   7
ATOM      7  C   UNL     1      -1.079   1.905  -0.420  1.00  0.00     0.192 C 
BRANCH   7   8
ATOM      8  C   UNL     1      -0.004   3.017  -0.684  1.00  0.00     0.040 C 
BRANCH   8   9
ATOM      9  C   UNL     1       0.379   3.732  -2.043  1.00  0.00    -0.015 C 
ATOM     10  C   UNL     1      -0.283   5.104  -2.329  1.00  0.00     0.007 C 
ATOM     11  C   UNL     1       1.876   4.069  -2.014  1.00  0.00     0.007 C 
ENDBRANCH   8   9
ENDBRANCH   7   8
BRANCH   7  12
ATOM     12  N   UNL     1      -1.488   1.446  -1.700  1.00  0.00    -0.341 N 
ATOM     13  C   UNL     1      -2.196   2.239  -2.535  1.00  0.00     0.240 C 
ATOM     14  H   UNL     1      -1.251   0.533  -1.985  1.00  0.00     0.164 HD
ATOM     15  O   UNL     1      -2.331   1.876  -3.704  1.00  0.00    -0.273 OA
BRANCH  13  16
ATOM     16  C   UNL     1      -2.806   3.590  -2.008  1.00  0.00     0.216 C 
BRANCH  16  17
ATOM     17  N   UNL     1      -2.936   4.349  -0.666  1.00  0.00    -0.345 N 
ATOM     18  C   UNL     1      -2.558   5.025   0.447  1.00  0.00     0.243 C 
ATOM     19  H   UNL     1      -3.913   4.328  -0.541  1.00  0.00     0.164 HD
ATOM     20  O   UNL     1      -3.587   5.598   0.885  1.00  0.00    -0.273 OA
BRANCH  18  21
ATOM     21  C   UNL     1      -1.205   5.297   1.380  1.00  0.00     0.177 C 
BRANCH  21  22
ATOM     22  N   UNL     1      -0.539   4.161   2.095  1.00  0.00    -0.309 N 
ATOM     23  C   UNL     1       0.711   3.589   2.119  1.00  0.00     0.408 C 
ATOM     24  H   UNL     1      -1.159   3.704   2.709  1.00  0.00     0.167 HD
ATOM     25  O   UNL     1       0.858   2.468   2.594  1.00  0.00    -0.225 OA
BRANCH  23  26
ATOM     26  O   UNL     1       1.701   4.279   1.496  1.00  0.00    -0.445 OA
BRANCH  26  27
ATOM     27  C   UNL     1       2.917   3.556   1.187  1.00  0.00     0.270 C 
BRANCH  27  28
ATOM     28  C   UNL     1       4.031   3.594   2.204  1.00  0.00    -0.011 A 
ATOM     29  C   UNL     1       3.783   3.468   3.572  1.00  0.00     0.007 A 
ATOM     30  C   UNL     1       5.368   3.625   1.762  1.00  0.00     0.007 A 
ATOM     31  C   UNL     1       4.839   3.399   4.481  1.00  0.00     0.000 A 
ATOM     32  C   UNL     1       6.424   3.561   2.672  1.00  0.00     0.000 A 
ATOM     33  C   UNL     1       6.157   3.448   4.034  1.00  0.00     0.000 A 
ENDBRANCH  27  28
ENDBRANCH  26  27
ENDBRANCH  23  26
ENDBRANCH  21  22
BRANCH  21  34
ATOM     34  C   UNL     1      -0.279   6.476   0.972  1.00  0.00     0.015 C 
ATOM     35  C   UNL     1      -1.104   7.697   0.541  1.00  0.00     0.010 C 
ATOM     36  C   UNL     1       0.647   6.968   2.107  1.00  0.00     0.010 C 
ENDBRANCH  21  34
ENDBRANCH  18  21
ENDBRANCH  16  17
ENDBRANCH  13  16
ENDBRANCH   7  12
ENDBRANCH   5   7
ENDBRANCH   4   5
ENDBRANCH   3   4
ENDBRANCH   2   3
ENDBRANCH   1   2
BRANCH   1  37
ATOM     37  C   UNL     1      -4.389  -1.001   0.445  1.00  0.00     0.188 C 
BRANCH  37  38
ATOM     38  C   UNL     1      -3.502  -0.887  -0.805  1.00  0.00     0.188 C 
BRANCH  38  39
ATOM     39  O   UNL     1      -3.948  -0.963  -2.140  1.00  0.00    -0.377 OA
BRANCH  39  40
ATOM     40  C   UNL     1      -5.237  -0.469  -2.442  1.00  0.00     0.188 C 
BRANCH  40  41
ATOM     41  C   UNL     1      -6.301  -1.550  -2.240  1.00  0.00     0.188 C 
BRANCH  41  42
ATOM     42  O   UNL     1      -5.795  -2.715  -1.613  1.00  0.00    -0.376 OA
BRANCH  42  43
ATOM     43  C   UNL     1      -4.996  -3.638  -2.345  1.00  0.00     0.202 C 
BRANCH  43  44
ATOM     44  C   UNL     1      -4.149  -3.329  -3.607  1.00  0.00     0.261 C 
BRANCH  44  45
ATOM     45  O   UNL     1      -4.588  -2.327  -4.532  1.00  0.00    -0.460 OA
BRANCH  45  46
ATOM     46  C   UNL     1      -5.685  -2.551  -5.274  1.00  0.00     0.338 C 
ATOM     47  O   UNL     1      -6.398  -3.541  -5.268  1.00  0.00    -0.246 OA
BRANCH  46  48
ATOM     48  C   UNL     1      -5.986  -1.279  -5.972  1.00  0.00     0.060 A 
ATOM     49  C   UNL     1      -7.159  -0.584  -5.647  1.00  0.00     0.016 A 
ATOM     50  C   UNL     1      -5.087  -0.744  -6.898  1.00  0.00     0.016 A 
ATOM     51  C   UNL     1      -7.435   0.647  -6.245  1.00  0.00     0.010 A 
ATOM     52  C   UNL     1      -5.384   0.469  -7.527  1.00  0.00     0.010 A 
ATOM     53  C   UNL     1      -6.566   1.163  -7.214  1.00  0.00    -0.014 A 
BRANCH  53  54
ATOM     54  C   UNL     1      -6.972   2.333  -8.030  1.00  0.00     0.031 A 
ATOM     55  C   UNL     1      -7.644   2.078  -9.349  1.00  0.00     0.074 A 
ATOM     56  C   UNL     1      -6.735   3.592  -7.620  1.00  0.00     0.049 A 
ATOM     57  N   UNL     1      -7.976   2.922 -10.291  1.00  0.00    -0.248 NA
ATOM     58  C   UNL     1      -7.989   0.677  -9.646  1.00  0.00     0.031 C 
ATOM     59  C   UNL     1      -6.140   3.967  -6.339  1.00  0.00     0.029 A 
ATOM     60  N   UNL     1      -6.946   4.792  -8.257  1.00  0.00    -0.354 N 
ATOM     61  C   UNL     1      -8.546   2.154 -11.298  1.00  0.00     0.074 A 
ATOM     62  C   UNL     1      -8.516   0.778 -10.857  1.00  0.00     0.031 C 
ATOM     63  C   UNL     1      -5.999   5.304  -6.299  1.00  0.00     0.029 A 
ATOM     64  C   UNL     1      -6.449   5.873  -7.570  1.00  0.00     0.049 A 
ATOM     65  H   UNL     1      -7.408   4.869  -9.123  1.00  0.00     0.167 HD
ATOM     66  C   UNL     1      -9.041   2.566 -12.487  1.00  0.00     0.037 A 
ATOM     67  C   UNL     1      -6.326   7.162  -7.949  1.00  0.00     0.037 A 
ATOM     68  C   UNL     1      -9.075   3.938 -12.917  1.00  0.00     0.049 A 
ATOM     69  C   UNL     1      -6.811   7.577  -9.319  1.00  0.00     0.074 A 
ATOM     70  C   UNL     1      -9.605   4.460 -14.083  1.00  0.00     0.029 A 
ATOM     71  N   UNL     1      -8.541   5.000 -12.206  1.00  0.00    -0.354 N 
ATOM     72  N   UNL     1      -7.395   6.857 -10.247  1.00  0.00    -0.248 NA
ATOM     73  C   UNL     1      -6.612   8.984  -9.699  1.00  0.00     0.031 C 
ATOM     74  C   UNL     1      -9.327   5.829 -14.111  1.00  0.00     0.029 A 
ATOM     75  C   UNL     1      -8.684   6.170 -12.933  1.00  0.00     0.049 A 
ATOM     76  H   UNL     1      -8.122   4.933 -11.317  1.00  0.00     0.167 HD
ATOM     77  C   UNL     1      -7.652   7.724 -11.302  1.00  0.00     0.074 A 
ATOM     78  C   UNL     1      -7.183   9.030 -10.893  1.00  0.00     0.031 C 
ATOM     79  C   UNL     1      -8.219   7.464 -12.506  1.00  0.00     0.037 A 
BRANCH  66  80
ATOM     80  C   UNL     1      -9.553   1.526 -13.438  1.00  0.00     0.064 A 
ATOM     81  C   UNL     1     -10.769   0.862 -13.226  1.00  0.00     0.173 A 
ATOM     82  C   UNL     1      -8.853   1.257 -14.624  1.00  0.00     0.173 A 
ATOM     83  F   UNL     1     -11.468   1.074 -12.101  1.00  0.00    -0.203 F 
ATOM     84  C   UNL     1     -11.264  -0.038 -14.167  1.00  0.00     0.198 A 
ATOM     85  C   UNL     1      -9.363   0.379 -15.574  1.00  0.00     0.198 A 
ATOM     86  F   UNL     1      -7.685   1.869 -14.872  1.00  0.00    -0.203 F 
ATOM     87  F   UNL     1     -12.417  -0.681 -13.936  1.00  0.00    -0.200 F 
ATOM     88  C   UNL     1     -10.567  -0.269 -15.345  1.00  0.00     0.200 A 
ATOM     89  F   UNL     1      -8.696   0.169 -16.717  1.00  0.00    -0.200 F 
ATOM     90  F   UNL     1     -11.058  -1.116 -16.260  1.00  0.00    -0.200 F 
ENDBRANCH  66  80
BRANCH  67  91
ATOM     91  C   UNL     1      -5.657   8.152  -7.060  1.00  0.00     0.064 A 
ATOM     92  C   UNL     1      -6.349   9.262  -6.553  1.00  0.00     0.173 A 
ATOM     93  C   UNL     1      -4.290   8.049  -6.758  1.00  0.00     0.173 A 
ATOM     94  F   UNL     1      -7.650   9.425  -6.834  1.00  0.00    -0.203 F 
ATOM     95  C   UNL     1      -5.693  10.245  -5.813  1.00  0.00     0.198 A 
ATOM     96  C   UNL     1      -3.644   9.012  -5.986  1.00  0.00     0.198 A 
ATOM     97  F   UNL     1      -3.575   7.012  -7.219  1.00  0.00    -0.203 F 
ATOM     98  F   UNL     1      -6.364  11.331  -5.405  1.00  0.00    -0.200 F 
ATOM     99  C   UNL     1      -4.343  10.118  -5.527  1.00  0.00     0.200 A 
ATOM    100  F   UNL     1      -2.342   8.876  -5.699  1.00  0.00    -0.200 F 
ATOM    101  F   UNL     1      -3.711  11.067  -4.823  1.00  0.00    -0.200 F 
ENDBRANCH  67  91
BRANCH  79 102
ATOM    102  C   UNL     1      -8.391   8.612 -13.460  1.00  0.00     0.064 A 
ATOM    103  C   UNL     1      -7.295   9.196 -14.111  1.00  0.00     0.173 A 
ATOM    104  C   UNL     1      -9.673   9.089 -13.775  1.00  0.00     0.173 A 
ATOM    105  F   UNL     1      -6.048   8.786 -13.835  1.00  0.00    -0.203 F 
ATOM    106  C   UNL     1      -7.475  10.229 -15.028  1.00  0.00     0.198 A 
ATOM    107  C   UNL     1      -9.851  10.098 -14.717  1.00  0.00     0.198 A 
ATOM    108  F   UNL     1     -10.756   8.559 -13.188  1.00  0.00    -0.203 F 
ATOM    109  F   UNL     1      -6.410  10.802 -15.605  1.00  0.00    -0.200 F 
ATOM    110  C   UNL     1      -8.752  10.671 -15.338  1.00  0.00     0.200 A 
ATOM    111  F   UNL     1     -11.087  10.511 -15.029  1.00  0.00    -0.200 F 
ATOM    112  F   UNL     1      -8.923  11.654 -16.233  1.00  0.00    -0.200 F 
ENDBRANCH  79 102
ENDBRANCH  53  54
ENDBRANCH  46  48
ENDBRANCH  45  46
ENDBRANCH  44  45
ENDBRANCH  43  44
ENDBRANCH  42  43
ENDBRANCH  41  42
ENDBRANCH  40  41
ENDBRANCH  39  40
ENDBRANCH  38  39
ENDBRANCH  37  38
ENDBRANCH   1  37
TORSDOF 31
