REMARK SMILES CC[NH2+][C@]1(C(=O)OCCOCCOCCOCCOC(=O)c2ccc(-c3c4nc(c(-c5c(F)c(F)c(F)c(F)c5F)c5ccc([nH]5)c(-c5c(F)c(F)c(F)c(F)c5F)c5nc(c(-c6c(F)c(F)c(F)c(F)c6F)c6ccc3[nH]6)C=C5)C=C4)cc2)CCC[C@H]1CC[N@@H+]1CCC[C@@H](CC)C1
REMARK SMILES IDX 12 1 11 2 10 3 9 4 8 5 7 6 5 7 6 8 4 9 85 10 88 11 86 12
REMARK SMILES IDX 87 13 3 14 2 17 1 18 89 19 90 20 91 21 92 22 98 23 93 25
REMARK SMILES IDX 95 26 94 27 96 28 97 29 13 30 14 31 15 32 16 33 17 34 18 35
REMARK SMILES IDX 19 36 20 37 21 38 22 39 23 40 84 41 24 42 83 43 25 44 26 45
REMARK SMILES IDX 27 46 77 47 28 48 82 49 76 50 78 51 29 52 81 53 75 54 74 55
REMARK SMILES IDX 30 57 62 58 42 59 61 60 43 61 46 62 60 63 79 64 44 65 45 66
REMARK SMILES IDX 59 68 80 69 47 70 31 71 32 72 40 73 33 74 34 75 38 76 41 77
REMARK SMILES IDX 35 78 36 79 39 80 37 81 63 82 64 83 72 84 65 85 66 86 70 87
REMARK SMILES IDX 73 88 67 89 68 90 71 91 69 92 48 93 49 94 57 95 50 96 51 97
REMARK SMILES IDX 55 98 58 99 52 100 53 101 56 102 54 103
REMARK H PARENT 3 15 3 16 91 24 78 56 46 67
REMARK Flexibility Score: inf
ROOT
ATOM      1  C   UNL     1       1.149  -0.726   2.383  1.00  0.00     0.188 C 
ENDROOT
BRANCH   1   2
ATOM      2  C   UNL     1       2.568  -0.480   1.881  1.00  0.00     0.188 C 
BRANCH   2   3
ATOM      3  O   UNL     1       2.710  -0.029   0.538  1.00  0.00    -0.376 OA
BRANCH   3   4
ATOM      4  C   UNL     1       1.680   0.809   0.051  1.00  0.00     0.202 C 
BRANCH   4   5
ATOM      5  C   UNL     1       0.777   0.081  -0.955  1.00  0.00     0.261 C 
BRANCH   5   6
ATOM      6  O   UNL     1       0.341  -1.247  -0.582  1.00  0.00    -0.459 OA
BRANCH   6   7
ATOM      7  C   UNL     1       1.197  -2.316  -0.743  1.00  0.00     0.368 C 
ATOM      8  O   UNL     1       2.342  -2.223  -1.164  1.00  0.00    -0.245 OA
BRANCH   7   9
ATOM      9  C   UNL     1       0.448  -3.680  -0.472  1.00  0.00     0.197 C 
ATOM     10  C   UNL     1       0.604  -4.519  -1.756  1.00  0.00     0.081 C 
ATOM     11  C   UNL     1       0.986  -4.656   0.631  1.00  0.00     0.068 C 
ATOM     12  C   UNL     1       0.420  -5.981  -1.370  1.00  0.00     0.008 C 
ATOM     13  C   UNL     1       0.455  -6.033   0.153  1.00  0.00     0.011 C 
BRANCH   9  14
ATOM     14  N   UNL     1      -0.955  -3.372  -0.031  1.00  0.00    -0.332 N 
ATOM     15  H   UNL     1      -1.015  -3.622   0.956  1.00  0.00     0.347 HD
ATOM     16  H   UNL     1      -1.065  -2.387  -0.274  1.00  0.00     0.347 HD
BRANCH  14  17
ATOM     17  C   UNL     1      -2.080  -4.004  -0.692  1.00  0.00     0.257 C 
ATOM     18  C   UNL     1      -3.354  -3.619   0.052  1.00  0.00     0.071 C 
ENDBRANCH  14  17
ENDBRANCH   9  14
BRANCH  11  19
ATOM     19  C   UNL     1       2.503  -4.803   0.922  1.00  0.00     0.072 C 
BRANCH  19  20
ATOM     20  C   UNL     1       2.962  -4.426   2.359  1.00  0.00     0.262 C 
BRANCH  20  21
ATOM     21  N   UNL     1       1.920  -4.411   3.383  1.00  0.00    -0.335 N 
ATOM     22  C   UNL     1       2.114  -3.431   4.434  1.00  0.00     0.262 C 
ATOM     23  C   UNL     1       1.500  -5.706   3.943  1.00  0.00     0.265 C 
ATOM     24  H   UNL     1       1.129  -4.109   2.813  1.00  0.00     0.348 HD
ATOM     25  C   UNL     1       0.718  -3.079   4.969  1.00  0.00     0.062 C 
ATOM     26  C   UNL     1       0.623  -5.540   5.231  1.00  0.00     0.044 C 
ATOM     27  C   UNL     1      -0.197  -4.260   5.152  1.00  0.00     0.015 C 
BRANCH  26  28
ATOM     28  C   UNL     1      -0.294  -6.736   5.499  1.00  0.00     0.006 C 
ATOM     29  C   UNL     1      -1.201  -6.521   6.712  1.00  0.00     0.004 C 
ENDBRANCH  26  28
ENDBRANCH  20  21
ENDBRANCH  19  20
ENDBRANCH  11  19
ENDBRANCH   7   9
ENDBRANCH   6   7
ENDBRANCH   5   6
ENDBRANCH   4   5
ENDBRANCH   3   4
ENDBRANCH   2   3
ENDBRANCH   1   2
BRANCH   1  30
ATOM     30  O   UNL     1       0.604   0.456   2.953  1.00  0.00    -0.377 OA
BRANCH  30  31
ATOM     31  C   UNL     1       0.569   0.521   4.376  1.00  0.00     0.188 C 
BRANCH  31  32
ATOM     32  C   UNL     1       1.921   0.553   5.115  1.00  0.00     0.188 C 
BRANCH  32  33
ATOM     33  O   UNL     1       2.301  -0.749   5.565  1.00  0.00    -0.376 OA
BRANCH  33  34
ATOM     34  C   UNL     1       2.767  -0.835   6.919  1.00  0.00     0.202 C 
BRANCH  34  35
ATOM     35  C   UNL     1       1.710  -1.393   7.900  1.00  0.00     0.261 C 
BRANCH  35  36
ATOM     36  O   UNL     1       0.401  -0.839   7.685  1.00  0.00    -0.460 OA
BRANCH  36  37
ATOM     37  C   UNL     1       0.302   0.460   8.039  1.00  0.00     0.338 C 
ATOM     38  O   UNL     1       1.147   1.119   8.611  1.00  0.00    -0.246 OA
BRANCH  37  39
ATOM     39  C   UNL     1      -0.908   1.054   7.435  1.00  0.00     0.060 A 
ATOM     40  C   UNL     1      -0.758   2.332   6.884  1.00  0.00     0.016 A 
ATOM     41  C   UNL     1      -2.154   0.419   7.433  1.00  0.00     0.016 A 
ATOM     42  C   UNL     1      -1.859   3.014   6.390  1.00  0.00     0.010 A 
ATOM     43  C   UNL     1      -3.273   1.121   6.972  1.00  0.00     0.010 A 
ATOM     44  C   UNL     1      -3.130   2.442   6.510  1.00  0.00    -0.014 A 
BRANCH  44  45
ATOM     45  C   UNL     1      -4.284   3.366   6.458  1.00  0.00     0.031 A 
ATOM     46  C   UNL     1      -4.761   3.948   7.762  1.00  0.00     0.074 A 
ATOM     47  C   UNL     1      -4.795   3.785   5.290  1.00  0.00     0.049 A 
ATOM     48  N   UNL     1      -5.702   4.827   7.990  1.00  0.00    -0.248 NA
ATOM     49  C   UNL     1      -4.067   3.484   8.976  1.00  0.00     0.031 C 
ATOM     50  C   UNL     1      -4.349   3.352   3.968  1.00  0.00     0.029 A 
ATOM     51  N   UNL     1      -5.795   4.687   5.034  1.00  0.00    -0.354 N 
ATOM     52  C   UNL     1      -5.710   5.016   9.367  1.00  0.00     0.074 A 
ATOM     53  C   UNL     1      -4.710   4.139   9.928  1.00  0.00     0.031 C 
ATOM     54  C   UNL     1      -5.081   3.986   3.035  1.00  0.00     0.029 A 
ATOM     55  C   UNL     1      -6.062   4.844   3.698  1.00  0.00     0.049 A 
ATOM     56  H   UNL     1      -6.275   5.175   5.741  1.00  0.00     0.167 HD
ATOM     57  C   UNL     1      -6.478   5.857  10.096  1.00  0.00     0.037 A 
ATOM     58  C   UNL     1      -7.010   5.584   3.090  1.00  0.00     0.037 A 
ATOM     59  C   UNL     1      -7.474   6.723   9.529  1.00  0.00     0.049 A 
ATOM     60  C   UNL     1      -7.926   6.435   3.935  1.00  0.00     0.074 A 
ATOM     61  C   UNL     1      -8.315   7.611  10.174  1.00  0.00     0.029 A 
ATOM     62  N   UNL     1      -7.769   6.800   8.175  1.00  0.00    -0.354 N 
ATOM     63  N   UNL     1      -7.928   6.616   5.235  1.00  0.00    -0.248 NA
ATOM     64  C   UNL     1      -8.970   7.188   3.226  1.00  0.00     0.031 C 
ATOM     65  C   UNL     1      -9.164   8.177   9.218  1.00  0.00     0.029 A 
ATOM     66  C   UNL     1      -8.804   7.696   7.969  1.00  0.00     0.049 A 
ATOM     67  H   UNL     1      -7.311   6.292   7.467  1.00  0.00     0.167 HD
ATOM     68  C   UNL     1      -8.947   7.524   5.495  1.00  0.00     0.074 A 
ATOM     69  C   UNL     1      -9.531   7.868   4.215  1.00  0.00     0.031 C 
ATOM     70  C   UNL     1      -9.364   8.030   6.683  1.00  0.00     0.037 A 
BRANCH  57  71
ATOM     71  C   UNL     1      -6.299   5.841  11.587  1.00  0.00     0.064 A 
ATOM     72  C   UNL     1      -5.140   6.339  12.203  1.00  0.00     0.173 A 
ATOM     73  C   UNL     1      -7.312   5.330  12.412  1.00  0.00     0.173 A 
ATOM     74  F   UNL     1      -4.132   6.818  11.459  1.00  0.00    -0.203 F 
ATOM     75  C   UNL     1      -4.992   6.300  13.587  1.00  0.00     0.198 A 
ATOM     76  C   UNL     1      -7.174   5.324  13.797  1.00  0.00     0.198 A 
ATOM     77  F   UNL     1      -8.438   4.838  11.875  1.00  0.00    -0.203 F 
ATOM     78  F   UNL     1      -3.854   6.729  14.150  1.00  0.00    -0.200 F 
ATOM     79  C   UNL     1      -6.012   5.801  14.383  1.00  0.00     0.200 A 
ATOM     80  F   UNL     1      -8.166   4.851  14.565  1.00  0.00    -0.200 F 
ATOM     81  F   UNL     1      -5.870   5.770  15.716  1.00  0.00    -0.200 F 
ENDBRANCH  57  71
BRANCH  58  82
ATOM     82  C   UNL     1      -7.160   5.535   1.612  1.00  0.00     0.064 A 
ATOM     83  C   UNL     1      -6.917   6.662   0.815  1.00  0.00     0.173 A 
ATOM     84  C   UNL     1      -7.579   4.361   0.967  1.00  0.00     0.173 A 
ATOM     85  F   UNL     1      -6.539   7.816   1.384  1.00  0.00    -0.203 F 
ATOM     86  C   UNL     1      -7.110   6.623  -0.565  1.00  0.00     0.198 A 
ATOM     87  C   UNL     1      -7.739   4.314  -0.416  1.00  0.00     0.198 A 
ATOM     88  F   UNL     1      -7.830   3.254   1.682  1.00  0.00    -0.203 F 
ATOM     89  F   UNL     1      -6.923   7.731  -1.297  1.00  0.00    -0.200 F 
ATOM     90  C   UNL     1      -7.514   5.448  -1.180  1.00  0.00     0.200 A 
ATOM     91  F   UNL     1      -8.118   3.172  -1.006  1.00  0.00    -0.200 F 
ATOM     92  F   UNL     1      -7.698   5.411  -2.507  1.00  0.00    -0.200 F 
ENDBRANCH  58  82
BRANCH  70  93
ATOM     93  C   UNL     1     -10.476   9.040   6.654  1.00  0.00     0.064 A 
ATOM     94  C   UNL     1     -11.793   8.682   6.330  1.00  0.00     0.173 A 
ATOM     95  C   UNL     1     -10.226  10.377   7.003  1.00  0.00     0.173 A 
ATOM     96  F   UNL     1     -12.083   7.421   5.978  1.00  0.00    -0.203 F 
ATOM     97  C   UNL     1     -12.811   9.632   6.327  1.00  0.00     0.198 A 
ATOM     98  C   UNL     1     -11.253  11.314   7.035  1.00  0.00     0.198 A 
ATOM     99  F   UNL     1      -8.986  10.770   7.333  1.00  0.00    -0.203 F 
ATOM    100  F   UNL     1     -14.051   9.279   5.961  1.00  0.00    -0.200 F 
ATOM    101  C   UNL     1     -12.543  10.944   6.688  1.00  0.00     0.200 A 
ATOM    102  F   UNL     1     -10.995  12.577   7.404  1.00  0.00    -0.200 F 
ATOM    103  F   UNL     1     -13.527  11.853   6.694  1.00  0.00    -0.200 F 
ENDBRANCH  70  93
ENDBRANCH  44  45
ENDBRANCH  37  39
ENDBRANCH  36  37
ENDBRANCH  35  36
ENDBRANCH  34  35
ENDBRANCH  33  34
ENDBRANCH  32  33
ENDBRANCH  31  32
ENDBRANCH  30  31
ENDBRANCH   1  30
TORSDOF 26
