REMARK SMILES O=C(/C=C/c1cc(F)cc(COCc2ccco2)c1)OCCOCCOCCOCCOC(=O)c1ccc(-c2c3nc(c(-c4c(F)c(F)c(F)c(F)c4F)c4ccc([nH]4)c(-c4c(F)c(F)c(F)c(F)c4F)c4nc(c(-c5c(F)c(F)c(F)c(F)c5F)c5ccc2[nH]5)C=C4)C=C3)cc1
REMARK SMILES IDX 24 1 23 2 22 3 21 4 20 5 2 6 1 7 3 8 4 9 5 10 6 11 19 12
REMARK SMILES IDX 7 13 10 14 8 15 9 16 11 17 12 18 13 19 14 20 15 21 18 22
REMARK SMILES IDX 16 23 17 24 25 25 26 26 27 27 28 28 29 29 30 30 31 31 32 32
REMARK SMILES IDX 33 33 34 34 35 35 36 36 97 37 37 38 96 39 38 40 39 41 40 42
REMARK SMILES IDX 90 43 41 44 95 45 89 46 91 47 42 48 94 49 88 50 87 51 43 53
REMARK SMILES IDX 75 54 55 55 74 56 56 57 59 58 73 59 92 60 57 61 58 62 72 64
REMARK SMILES IDX 93 65 60 66 44 67 45 68 53 69 46 70 47 71 51 72 54 73 48 74
REMARK SMILES IDX 49 75 52 76 50 77 76 78 77 79 85 80 78 81 79 82 83 83 86 84
REMARK SMILES IDX 80 85 81 86 84 87 82 88 61 89 62 90 70 91 63 92 64 93 68 94
REMARK SMILES IDX 71 95 65 96 66 97 69 98 67 99
REMARK H PARENT 91 52 59 63
REMARK Flexibility Score: inf
ROOT
ATOM      1  C   UNL     1       2.812  -1.403  -0.074  1.00  0.00     0.188 C 
ENDROOT
BRANCH   1   2
ATOM      2  O   UNL     1       4.202  -1.110  -0.127  1.00  0.00    -0.376 OA
BRANCH   2   3
ATOM      3  C   UNL     1       4.885  -0.061   0.521  1.00  0.00     0.202 C 
BRANCH   3   4
ATOM      4  C   UNL     1       4.302   1.332   0.702  1.00  0.00     0.261 C 
BRANCH   4   5
ATOM      5  O   UNL     1       3.009   1.603   0.161  1.00  0.00    -0.460 OA
BRANCH   5   6
ATOM      6  C   UNL     1       2.697   1.796  -1.139  1.00  0.00     0.330 C 
ATOM      7  O   UNL     1       1.661   2.379  -1.442  1.00  0.00    -0.247 OA
BRANCH   6   8
ATOM      8  C   UNL     1       3.411   1.037  -2.182  1.00  0.00     0.094 C 
ATOM      9  C   UNL     1       4.728   0.954  -2.412  1.00  0.00     0.016 C 
BRANCH   9  10
ATOM     10  C   UNL     1       5.269   0.025  -3.416  1.00  0.00    -0.022 A 
ATOM     11  C   UNL     1       4.869   0.104  -4.750  1.00  0.00     0.047 A 
ATOM     12  C   UNL     1       6.223  -0.941  -3.046  1.00  0.00     0.014 A 
ATOM     13  C   UNL     1       5.433  -0.749  -5.691  1.00  0.00     0.124 A 
ATOM     14  C   UNL     1       6.797  -1.803  -4.000  1.00  0.00    -0.019 A 
ATOM     15  F   UNL     1       5.056  -0.649  -6.972  1.00  0.00    -0.207 F 
ATOM     16  C   UNL     1       6.394  -1.689  -5.334  1.00  0.00     0.045 A 
BRANCH  14  17
ATOM     17  C   UNL     1       7.868  -2.795  -3.608  1.00  0.00     0.196 C 
BRANCH  17  18
ATOM     18  O   UNL     1       7.610  -4.137  -4.013  1.00  0.00    -0.369 OA
BRANCH  18  19
ATOM     19  C   UNL     1       6.478  -4.770  -3.408  1.00  0.00     0.235 C 
BRANCH  19  20
ATOM     20  C   UNL     1       6.793  -5.229  -2.029  1.00  0.00     0.129 A 
ATOM     21  C   UNL     1       7.057  -4.581  -0.838  1.00  0.00     0.048 A 
ATOM     22  O   UNL     1       6.733  -6.577  -1.805  1.00  0.00    -0.467 OA
ATOM     23  C   UNL     1       7.183  -5.580   0.154  1.00  0.00     0.042 A 
ATOM     24  C   UNL     1       6.960  -6.777  -0.481  1.00  0.00     0.195 A 
ENDBRANCH  19  20
ENDBRANCH  18  19
ENDBRANCH  17  18
ENDBRANCH  14  17
ENDBRANCH   9  10
ENDBRANCH   6   8
ENDBRANCH   5   6
ENDBRANCH   4   5
ENDBRANCH   3   4
ENDBRANCH   2   3
ENDBRANCH   1   2
BRANCH   1  25
ATOM     25  C   UNL     1       2.058  -1.642   1.240  1.00  0.00     0.188 C 
BRANCH  25  26
ATOM     26  O   UNL     1       2.531  -2.635   2.138  1.00  0.00    -0.377 OA
BRANCH  26  27
ATOM     27  C   UNL     1       3.878  -2.461   2.538  1.00  0.00     0.188 C 
BRANCH  27  28
ATOM     28  C   UNL     1       4.851  -3.276   1.672  1.00  0.00     0.188 C 
BRANCH  28  29
ATOM     29  O   UNL     1       4.260  -3.877   0.542  1.00  0.00    -0.376 OA
BRANCH  29  30
ATOM     30  C   UNL     1       3.492  -5.064   0.656  1.00  0.00     0.202 C 
BRANCH  30  31
ATOM     31  C   UNL     1       2.927  -5.669   1.961  1.00  0.00     0.261 C 
BRANCH  31  32
ATOM     32  O   UNL     1       3.416  -5.202   3.221  1.00  0.00    -0.460 OA
BRANCH  32  33
ATOM     33  C   UNL     1       4.578  -5.709   3.675  1.00  0.00     0.338 C 
ATOM     34  O   UNL     1       5.280  -6.551   3.139  1.00  0.00    -0.246 OA
BRANCH  33  35
ATOM     35  C   UNL     1       4.998  -4.877   4.827  1.00  0.00     0.060 A 
ATOM     36  C   UNL     1       6.252  -4.250   4.774  1.00  0.00     0.016 A 
ATOM     37  C   UNL     1       4.149  -4.664   5.917  1.00  0.00     0.016 A 
ATOM     38  C   UNL     1       6.686  -3.459   5.834  1.00  0.00     0.010 A 
ATOM     39  C   UNL     1       4.596  -3.894   6.995  1.00  0.00     0.010 A 
ATOM     40  C   UNL     1       5.886  -3.333   6.976  1.00  0.00    -0.014 A 
BRANCH  40  41
ATOM     41  C   UNL     1       6.509  -2.862   8.235  1.00  0.00     0.031 A 
ATOM     42  C   UNL     1       7.013  -3.906   9.195  1.00  0.00     0.074 A 
ATOM     43  C   UNL     1       6.687  -1.557   8.498  1.00  0.00     0.049 A 
ATOM     44  N   UNL     1       7.579  -3.761  10.364  1.00  0.00    -0.248 NA
ATOM     45  C   UNL     1       6.856  -5.308   8.772  1.00  0.00     0.031 C 
ATOM     46  C   UNL     1       6.301  -0.458   7.618  1.00  0.00     0.029 A 
ATOM     47  N   UNL     1       7.246  -0.940   9.589  1.00  0.00    -0.354 N 
ATOM     48  C   UNL     1       7.843  -5.048  10.813  1.00  0.00     0.074 A 
ATOM     49  C   UNL     1       7.337  -5.963   9.816  1.00  0.00     0.031 C 
ATOM     50  C   UNL     1       6.635   0.705   8.206  1.00  0.00     0.029 A 
ATOM     51  C   UNL     1       7.227   0.430   9.516  1.00  0.00     0.049 A 
ATOM     52  H   UNL     1       7.626  -1.433  10.352  1.00  0.00     0.167 HD
ATOM     53  C   UNL     1       8.469  -5.433  11.949  1.00  0.00     0.037 A 
ATOM     54  C   UNL     1       7.628   1.353  10.414  1.00  0.00     0.037 A 
ATOM     55  C   UNL     1       8.966  -4.519  12.941  1.00  0.00     0.049 A 
ATOM     56  C   UNL     1       8.234   0.903  11.718  1.00  0.00     0.074 A 
ATOM     57  C   UNL     1       9.606  -4.807  14.132  1.00  0.00     0.029 A 
ATOM     58  N   UNL     1       8.872  -3.137  12.859  1.00  0.00    -0.354 N 
ATOM     59  N   UNL     1       8.478  -0.314  12.141  1.00  0.00    -0.248 NA
ATOM     60  C   UNL     1       8.624   1.954  12.669  1.00  0.00     0.031 C 
ATOM     61  C   UNL     1       9.845  -3.603  14.800  1.00  0.00     0.029 A 
ATOM     62  C   UNL     1       9.421  -2.559  13.992  1.00  0.00     0.049 A 
ATOM     63  H   UNL     1       8.474  -2.641  12.107  1.00  0.00     0.167 HD
ATOM     64  C   UNL     1       9.075  -0.177  13.389  1.00  0.00     0.074 A 
ATOM     65  C   UNL     1       9.165   1.245  13.651  1.00  0.00     0.031 C 
ATOM     66  C   UNL     1       9.511  -1.141  14.237  1.00  0.00     0.037 A 
BRANCH  53  67
ATOM     67  C   UNL     1       8.632  -6.906  12.187  1.00  0.00     0.064 A 
ATOM     68  C   UNL     1       7.939  -7.538  13.230  1.00  0.00     0.173 A 
ATOM     69  C   UNL     1       9.502  -7.687  11.411  1.00  0.00     0.173 A 
ATOM     70  F   UNL     1       7.093  -6.839  14.002  1.00  0.00    -0.203 F 
ATOM     71  C   UNL     1       8.122  -8.893  13.496  1.00  0.00     0.198 A 
ATOM     72  C   UNL     1       9.656  -9.049  11.657  1.00  0.00     0.198 A 
ATOM     73  F   UNL     1      10.174  -7.136  10.388  1.00  0.00    -0.203 F 
ATOM     74  F   UNL     1       7.473  -9.466  14.518  1.00  0.00    -0.200 F 
ATOM     75  C   UNL     1       8.975  -9.648  12.705  1.00  0.00     0.200 A 
ATOM     76  F   UNL     1      10.456  -9.784  10.872  1.00  0.00    -0.200 F 
ATOM     77  F   UNL     1       9.136 -10.956  12.951  1.00  0.00    -0.200 F 
ENDBRANCH  53  67
BRANCH  54  78
ATOM     78  C   UNL     1       7.480   2.797  10.092  1.00  0.00     0.064 A 
ATOM     79  C   UNL     1       6.216   3.397   9.990  1.00  0.00     0.173 A 
ATOM     80  C   UNL     1       8.602   3.599   9.843  1.00  0.00     0.173 A 
ATOM     81  F   UNL     1       5.110   2.674  10.221  1.00  0.00    -0.203 F 
ATOM     82  C   UNL     1       6.079   4.733   9.619  1.00  0.00     0.198 A 
ATOM     83  C   UNL     1       8.466   4.943   9.499  1.00  0.00     0.198 A 
ATOM     84  F   UNL     1       9.834   3.079   9.953  1.00  0.00    -0.203 F 
ATOM     85  F   UNL     1       4.858   5.267   9.485  1.00  0.00    -0.200 F 
ATOM     86  C   UNL     1       7.204   5.505   9.376  1.00  0.00     0.200 A 
ATOM     87  F   UNL     1       9.556   5.692   9.287  1.00  0.00    -0.200 F 
ATOM     88  F   UNL     1       7.073   6.790   9.020  1.00  0.00    -0.200 F 
ENDBRANCH  54  78
BRANCH  66  89
ATOM     89  C   UNL     1      10.162  -0.708  15.521  1.00  0.00     0.064 A 
ATOM     90  C   UNL     1      11.528  -0.951  15.739  1.00  0.00     0.173 A 
ATOM     91  C   UNL     1       9.423  -0.138  16.568  1.00  0.00     0.173 A 
ATOM     92  F   UNL     1      12.279  -1.505  14.776  1.00  0.00    -0.203 F 
ATOM     93  C   UNL     1      12.124  -0.656  16.962  1.00  0.00     0.198 A 
ATOM     94  C   UNL     1      10.031   0.188  17.778  1.00  0.00     0.198 A 
ATOM     95  F   UNL     1       8.117   0.122  16.410  1.00  0.00    -0.203 F 
ATOM     96  F   UNL     1      13.419  -0.938  17.160  1.00  0.00    -0.200 F 
ATOM     97  C   UNL     1      11.377  -0.082  17.978  1.00  0.00     0.200 A 
ATOM     98  F   UNL     1       9.314   0.767  18.751  1.00  0.00    -0.200 F 
ATOM     99  F   UNL     1      11.955   0.214  19.151  1.00  0.00    -0.200 F 
ENDBRANCH  66  89
ENDBRANCH  40  41
ENDBRANCH  33  35
ENDBRANCH  32  33
ENDBRANCH  31  32
ENDBRANCH  30  31
ENDBRANCH  29  30
ENDBRANCH  28  29
ENDBRANCH  27  28
ENDBRANCH  26  27
ENDBRANCH  25  26
ENDBRANCH   1  25
TORSDOF 25
