REMARK SMILES CC[C@H](C)CN(CC)c1nc(C(=O)OCCOCCOCCOCCOC(=O)c2ccc(-c3c4nc(c(-c5c(F)c(F)c(F)c(F)c5F)c5ccc([nH]5)c(-c5c(F)c(F)c(F)c(F)c5F)c5nc(c(-c6c(F)c(F)c(F)c(F)c6F)c6ccc3[nH]6)C=C5)C=C4)cc2)cc2ccccc12
REMARK SMILES IDX 19 1 18 2 17 3 16 4 15 5 14 6 12 7 13 8 11 9 9 10 10 11
REMARK SMILES IDX 98 12 93 13 97 14 92 15 94 16 96 17 95 18 6 19 5 20 3 21
REMARK SMILES IDX 4 22 2 23 1 24 7 25 8 26 20 27 21 28 22 29 23 30 24 31 25 32
REMARK SMILES IDX 26 33 27 34 28 35 29 36 30 37 91 38 31 39 90 40 32 41 33 42
REMARK SMILES IDX 34 43 84 44 35 45 89 46 83 47 85 48 36 49 88 50 82 51 81 52
REMARK SMILES IDX 37 54 69 55 49 56 68 57 50 58 53 59 67 60 86 61 51 62 52 63
REMARK SMILES IDX 66 65 87 66 54 67 38 68 39 69 47 70 40 71 41 72 45 73 48 74
REMARK SMILES IDX 42 75 43 76 46 77 44 78 70 79 71 80 79 81 72 82 73 83 77 84
REMARK SMILES IDX 80 85 74 86 75 87 78 88 76 89 55 90 56 91 64 92 57 93 58 94
REMARK SMILES IDX 62 95 65 96 59 97 60 98 63 99 61 100
REMARK H PARENT 85 53 53 64
REMARK Flexibility Score: inf
ROOT
ATOM      1  C   UNL     1      -2.793  -4.597   3.569  1.00  0.00     0.188 C 
ENDROOT
BRANCH   1   2
ATOM      2  C   UNL     1      -2.655  -6.026   2.981  1.00  0.00     0.188 C 
BRANCH   2   3
ATOM      3  O   UNL     1      -2.824  -7.081   3.913  1.00  0.00    -0.376 OA
BRANCH   3   4
ATOM      4  C   UNL     1      -1.703  -7.815   4.361  1.00  0.00     0.202 C 
BRANCH   4   5
ATOM      5  C   UNL     1      -0.669  -7.060   5.211  1.00  0.00     0.261 C 
BRANCH   5   6
ATOM      6  O   UNL     1      -0.211  -5.816   4.663  1.00  0.00    -0.459 OA
BRANCH   6   7
ATOM      7  C   UNL     1       0.556  -5.916   3.554  1.00  0.00     0.357 C 
ATOM      8  O   UNL     1       0.904  -6.962   3.024  1.00  0.00    -0.244 OA
BRANCH   7   9
ATOM      9  C   UNL     1       0.752  -4.580   2.923  1.00  0.00     0.151 A 
ATOM     10  C   UNL     1       1.381  -2.346   3.091  1.00  0.00     0.137 A 
ATOM     11  N   UNL     1       1.047  -3.509   3.703  1.00  0.00    -0.223 NA
ATOM     12  C   UNL     1       1.558  -2.313   1.681  1.00  0.00     0.024 A 
ATOM     13  C   UNL     1       0.998  -3.351   0.913  1.00  0.00    -0.012 A 
ATOM     14  C   UNL     1       2.268  -1.318   0.979  1.00  0.00     0.012 A 
ATOM     15  C   UNL     1       0.602  -4.515   1.551  1.00  0.00     0.045 A 
ATOM     16  C   UNL     1       0.879  -3.217  -0.480  1.00  0.00     0.009 A 
ATOM     17  C   UNL     1       2.195  -1.208  -0.410  1.00  0.00     0.001 A 
ATOM     18  C   UNL     1       1.442  -2.124  -1.133  1.00  0.00     0.001 A 
BRANCH  10  19
ATOM     19  N   UNL     1       1.523  -1.181   3.866  1.00  0.00    -0.356 N 
BRANCH  19  20
ATOM     20  C   UNL     1       0.509  -0.076   3.793  1.00  0.00     0.121 C 
BRANCH  20  21
ATOM     21  C   UNL     1       0.239   0.583   2.416  1.00  0.00     0.005 C 
ATOM     22  C   UNL     1      -0.891  -0.136   1.669  1.00  0.00     0.009 C 
BRANCH  21  23
ATOM     23  C   UNL     1      -0.060   2.100   2.514  1.00  0.00     0.002 C 
ATOM     24  C   UNL     1      -0.447   2.725   1.171  1.00  0.00     0.004 C 
ENDBRANCH  21  23
ENDBRANCH  20  21
ENDBRANCH  19  20
BRANCH  19  25
ATOM     25  C   UNL     1       2.109  -1.394   5.206  1.00  0.00     0.114 C 
ATOM     26  C   UNL     1       1.157  -1.982   6.246  1.00  0.00     0.027 C 
ENDBRANCH  19  25
ENDBRANCH  10  19
ENDBRANCH   7   9
ENDBRANCH   6   7
ENDBRANCH   5   6
ENDBRANCH   4   5
ENDBRANCH   3   4
ENDBRANCH   2   3
ENDBRANCH   1   2
BRANCH   1  27
ATOM     27  O   UNL     1      -3.613  -4.294   4.698  1.00  0.00    -0.377 OA
BRANCH  27  28
ATOM     28  C   UNL     1      -4.088  -5.361   5.504  1.00  0.00     0.188 C 
BRANCH  28  29
ATOM     29  C   UNL     1      -5.238  -6.160   4.859  1.00  0.00     0.188 C 
BRANCH  29  30
ATOM     30  O   UNL     1      -5.416  -5.853   3.487  1.00  0.00    -0.376 OA
BRANCH  30  31
ATOM     31  C   UNL     1      -6.346  -4.851   3.115  1.00  0.00     0.202 C 
BRANCH  31  32
ATOM     32  C   UNL     1      -6.485  -3.515   3.871  1.00  0.00     0.261 C 
BRANCH  32  33
ATOM     33  O   UNL     1      -6.378  -3.528   5.300  1.00  0.00    -0.460 OA
BRANCH  33  34
ATOM     34  C   UNL     1      -7.385  -4.066   6.012  1.00  0.00     0.338 C 
ATOM     35  O   UNL     1      -8.416  -4.562   5.584  1.00  0.00    -0.246 OA
BRANCH  34  36
ATOM     36  C   UNL     1      -6.939  -4.124   7.420  1.00  0.00     0.060 A 
ATOM     37  C   UNL     1      -6.803  -5.372   8.045  1.00  0.00     0.016 A 
ATOM     38  C   UNL     1      -6.630  -2.950   8.113  1.00  0.00     0.016 A 
ATOM     39  C   UNL     1      -6.393  -5.446   9.376  1.00  0.00     0.010 A 
ATOM     40  C   UNL     1      -6.244  -3.024   9.453  1.00  0.00     0.010 A 
ATOM     41  C   UNL     1      -6.159  -4.271  10.100  1.00  0.00    -0.014 A 
BRANCH  41  42
ATOM     42  C   UNL     1      -6.031  -4.332  11.576  1.00  0.00     0.031 A 
ATOM     43  C   UNL     1      -7.249  -4.033  12.405  1.00  0.00     0.074 A 
ATOM     44  C   UNL     1      -4.873  -4.668  12.169  1.00  0.00     0.049 A 
ATOM     45  N   UNL     1      -7.380  -3.971  13.706  1.00  0.00    -0.248 NA
ATOM     46  C   UNL     1      -8.491  -3.761  11.662  1.00  0.00     0.031 C 
ATOM     47  C   UNL     1      -3.639  -5.023  11.473  1.00  0.00     0.029 A 
ATOM     48  N   UNL     1      -4.549  -4.756  13.500  1.00  0.00    -0.354 N 
ATOM     49  C   UNL     1      -8.711  -3.647  13.934  1.00  0.00     0.074 A 
ATOM     50  C   UNL     1      -9.339  -3.490  12.641  1.00  0.00     0.031 C 
ATOM     51  C   UNL     1      -2.684  -5.278  12.386  1.00  0.00     0.029 A 
ATOM     52  C   UNL     1      -3.232  -5.069  13.726  1.00  0.00     0.049 A 
ATOM     53  H   UNL     1      -5.200  -4.608  14.224  1.00  0.00     0.167 HD
ATOM     54  C   UNL     1      -9.353  -3.502  15.117  1.00  0.00     0.037 A 
ATOM     55  C   UNL     1      -2.546  -5.151  14.883  1.00  0.00     0.037 A 
ATOM     56  C   UNL     1      -8.722  -3.655  16.401  1.00  0.00     0.049 A 
ATOM     57  C   UNL     1      -3.265  -4.903  16.187  1.00  0.00     0.074 A 
ATOM     58  C   UNL     1      -9.287  -3.546  17.658  1.00  0.00     0.029 A 
ATOM     59  N   UNL     1      -7.377  -3.940  16.590  1.00  0.00    -0.354 N 
ATOM     60  N   UNL     1      -4.529  -4.624  16.399  1.00  0.00    -0.248 NA
ATOM     61  C   UNL     1      -2.460  -4.988  17.414  1.00  0.00     0.031 C 
ATOM     62  C   UNL     1      -8.272  -3.698  18.608  1.00  0.00     0.029 A 
ATOM     63  C   UNL     1      -7.088  -3.978  17.944  1.00  0.00     0.049 A 
ATOM     64  H   UNL     1      -6.725  -4.093  15.868  1.00  0.00     0.167 HD
ATOM     65  C   UNL     1      -4.676  -4.534  17.778  1.00  0.00     0.074 A 
ATOM     66  C   UNL     1      -3.376  -4.803  18.353  1.00  0.00     0.031 C 
ATOM     67  C   UNL     1      -5.789  -4.257  18.503  1.00  0.00     0.037 A 
BRANCH  54  68
ATOM     68  C   UNL     1     -10.806  -3.125  15.076  1.00  0.00     0.064 A 
ATOM     69  C   UNL     1     -11.791  -4.013  14.617  1.00  0.00     0.173 A 
ATOM     70  C   UNL     1     -11.222  -1.863  15.528  1.00  0.00     0.173 A 
ATOM     71  F   UNL     1     -11.446  -5.226  14.159  1.00  0.00    -0.203 F 
ATOM     72  C   UNL     1     -13.133  -3.642  14.587  1.00  0.00     0.198 A 
ATOM     73  C   UNL     1     -12.569  -1.509  15.529  1.00  0.00     0.198 A 
ATOM     74  F   UNL     1     -10.323  -0.976  15.979  1.00  0.00    -0.203 F 
ATOM     75  F   UNL     1     -14.049  -4.488  14.095  1.00  0.00    -0.200 F 
ATOM     76  C   UNL     1     -13.521  -2.394  15.050  1.00  0.00     0.200 A 
ATOM     77  F   UNL     1     -12.943  -0.308  15.992  1.00  0.00    -0.200 F 
ATOM     78  F   UNL     1     -14.814  -2.042  15.029  1.00  0.00    -0.200 F 
ENDBRANCH  54  68
BRANCH  55  79
ATOM     79  C   UNL     1      -1.091  -5.465  14.868  1.00  0.00     0.064 A 
ATOM     80  C   UNL     1      -0.602  -6.659  15.416  1.00  0.00     0.173 A 
ATOM     81  C   UNL     1      -0.158  -4.564  14.335  1.00  0.00     0.173 A 
ATOM     82  F   UNL     1      -1.450  -7.542  15.963  1.00  0.00    -0.203 F 
ATOM     83  C   UNL     1       0.765  -6.929  15.451  1.00  0.00     0.198 A 
ATOM     84  C   UNL     1       1.206  -4.850  14.340  1.00  0.00     0.198 A 
ATOM     85  F   UNL     1      -0.571  -3.404  13.803  1.00  0.00    -0.203 F 
ATOM     86  F   UNL     1       1.209  -8.052  16.032  1.00  0.00    -0.200 F 
ATOM     87  C   UNL     1       1.667  -6.027  14.908  1.00  0.00     0.200 A 
ATOM     88  F   UNL     1       2.073  -3.981  13.803  1.00  0.00    -0.200 F 
ATOM     89  F   UNL     1       2.981  -6.288  14.941  1.00  0.00    -0.200 F 
ENDBRANCH  55  79
BRANCH  67  90
ATOM     90  C   UNL     1      -5.665  -4.278  20.002  1.00  0.00     0.064 A 
ATOM     91  C   UNL     1      -4.944  -3.299  20.702  1.00  0.00     0.173 A 
ATOM     92  C   UNL     1      -6.316  -5.271  20.751  1.00  0.00     0.173 A 
ATOM     93  F   UNL     1      -4.293  -2.334  20.035  1.00  0.00    -0.203 F 
ATOM     94  C   UNL     1      -4.852  -3.333  22.091  1.00  0.00     0.198 A 
ATOM     95  C   UNL     1      -6.254  -5.280  22.142  1.00  0.00     0.198 A 
ATOM     96  F   UNL     1      -7.029  -6.226  20.135  1.00  0.00    -0.203 F 
ATOM     97  F   UNL     1      -4.111  -2.420  22.734  1.00  0.00    -0.200 F 
ATOM     98  C   UNL     1      -5.514  -4.317  22.810  1.00  0.00     0.200 A 
ATOM     99  F   UNL     1      -6.911  -6.221  22.835  1.00  0.00    -0.200 F 
ATOM    100  F   UNL     1      -5.432  -4.342  24.148  1.00  0.00    -0.200 F 
ENDBRANCH  67  90
ENDBRANCH  41  42
ENDBRANCH  34  36
ENDBRANCH  33  34
ENDBRANCH  32  33
ENDBRANCH  31  32
ENDBRANCH  30  31
ENDBRANCH  29  30
ENDBRANCH  28  29
ENDBRANCH  27  28
ENDBRANCH   1  27
TORSDOF 25
