REMARK SMILES CC(C)[C@@](C)(CC(=O)NC[C@@H]1C[N@@H+](C)CCO1)C(=O)OCCOCCOCCOCCOC(=O)c1ccc(-c2c3nc(c(-c4c(F)c(F)c(F)c(F)c4F)c4ccc([nH]4)c(-c4c(F)c(F)c(F)c(F)c4F)c4nc(c(-c5c(F)c(F)c(F)c(F)c5F)c5ccc2[nH]5)C=C4)C=C3)cc1
REMARK SMILES IDX 25 1 24 2 23 3 22 4 21 5 20 6 18 7 19 8 4 9 5 10 2 11 1 12
REMARK SMILES IDX 3 13 6 14 7 15 8 16 9 17 10 19 11 20 12 21 17 22 13 23 16 24
REMARK SMILES IDX 14 25 15 26 26 28 27 29 28 30 29 31 30 32 31 33 32 34 33 35
REMARK SMILES IDX 34 36 35 37 36 38 97 39 37 40 96 41 38 42 39 43 40 44 90 45
REMARK SMILES IDX 41 46 95 47 89 48 91 49 42 50 94 51 88 52 87 53 43 55 75 56
REMARK SMILES IDX 55 57 74 58 56 59 59 60 73 61 92 62 57 63 58 64 72 66 93 67
REMARK SMILES IDX 60 68 44 69 45 70 53 71 46 72 47 73 51 74 54 75 48 76 49 77
REMARK SMILES IDX 52 78 50 79 76 80 77 81 85 82 78 83 79 84 83 85 86 86 80 87
REMARK SMILES IDX 81 88 84 89 82 90 61 91 62 92 70 93 63 94 64 95 68 96 71 97
REMARK SMILES IDX 65 98 66 99 69 100 67 101
REMARK H PARENT 9 18 13 27 91 54 59 65
REMARK Flexibility Score: inf
ROOT
ATOM      1  C   UNL     1      -1.921   3.732  -0.812  1.00  0.00     0.188 C 
ENDROOT
BRANCH   1   2
ATOM      2  C   UNL     1      -1.475   3.042  -2.103  1.00  0.00     0.188 C 
BRANCH   2   3
ATOM      3  O   UNL     1      -2.525   2.640  -2.971  1.00  0.00    -0.376 OA
BRANCH   3   4
ATOM      4  C   UNL     1      -3.016   1.323  -2.748  1.00  0.00     0.202 C 
BRANCH   4   5
ATOM      5  C   UNL     1      -3.918   1.176  -1.510  1.00  0.00     0.261 C 
BRANCH   5   6
ATOM      6  O   UNL     1      -3.220   1.242  -0.240  1.00  0.00    -0.463 OA
BRANCH   6   7
ATOM      7  C   UNL     1      -2.464   0.168   0.057  1.00  0.00     0.312 C 
ATOM      8  O   UNL     1      -2.441  -0.827  -0.666  1.00  0.00    -0.252 OA
BRANCH   7   9
ATOM      9  C   UNL     1      -1.654   0.246   1.382  1.00  0.00     0.076 C 
ATOM     10  C   UNL     1      -2.464  -0.710   2.299  1.00  0.00     0.024 C 
BRANCH   9  11
ATOM     11  C   UNL     1      -0.245  -0.318   1.119  1.00  0.00     0.000 C 
ATOM     12  C   UNL     1      -0.054  -1.819   0.891  1.00  0.00     0.008 C 
ATOM     13  C   UNL     1       0.324   0.372  -0.100  1.00  0.00     0.008 C 
ENDBRANCH   9  11
BRANCH   9  14
ATOM     14  C   UNL     1      -1.527   1.590   2.205  1.00  0.00     0.118 C 
BRANCH  14  15
ATOM     15  C   UNL     1      -0.735   2.914   1.987  1.00  0.00     0.221 C 
ATOM     16  O   UNL     1      -1.351   3.968   2.237  1.00  0.00    -0.275 OA
ATOM     17  N   UNL     1       0.551   3.166   1.649  1.00  0.00    -0.353 N 
ATOM     18  H   UNL     1       0.648   4.072   1.276  1.00  0.00     0.163 HD
BRANCH  17  19
ATOM     19  C   UNL     1       1.841   2.469   1.682  1.00  0.00     0.153 C 
BRANCH  19  20
ATOM     20  C   UNL     1       2.912   2.910   0.619  1.00  0.00     0.192 C 
ATOM     21  C   UNL     1       2.491   3.136  -0.858  1.00  0.00     0.296 C 
ATOM     22  O   UNL     1       4.079   2.055   0.654  1.00  0.00    -0.365 OA
ATOM     23  N   UNL     1       2.231   1.899  -1.595  1.00  0.00    -0.333 N 
ATOM     24  C   UNL     1       3.885   0.805  -0.023  1.00  0.00     0.222 C 
ATOM     25  C   UNL     1       1.855   2.109  -2.990  1.00  0.00     0.332 C 
ATOM     26  C   UNL     1       3.350   0.951  -1.466  1.00  0.00     0.290 C 
ATOM     27  H   UNL     1       1.411   1.483  -1.155  1.00  0.00     0.348 HD
ENDBRANCH  19  20
ENDBRANCH  17  19
ENDBRANCH  14  15
ENDBRANCH   9  14
ENDBRANCH   7   9
ENDBRANCH   6   7
ENDBRANCH   5   6
ENDBRANCH   4   5
ENDBRANCH   3   4
ENDBRANCH   2   3
ENDBRANCH   1   2
BRANCH   1  28
ATOM     28  O   UNL     1      -3.193   4.350  -0.736  1.00  0.00    -0.377 OA
BRANCH  28  29
ATOM     29  C   UNL     1      -3.699   4.965  -1.902  1.00  0.00     0.188 C 
BRANCH  29  30
ATOM     30  C   UNL     1      -2.759   5.885  -2.698  1.00  0.00     0.188 C 
BRANCH  30  31
ATOM     31  O   UNL     1      -1.444   5.991  -2.166  1.00  0.00    -0.376 OA
BRANCH  31  32
ATOM     32  C   UNL     1      -1.114   7.185  -1.472  1.00  0.00     0.202 C 
BRANCH  32  33
ATOM     33  C   UNL     1      -1.817   7.455  -0.133  1.00  0.00     0.261 C 
BRANCH  33  34
ATOM     34  O   UNL     1      -3.248   7.411  -0.149  1.00  0.00    -0.460 OA
BRANCH  34  35
ATOM     35  C   UNL     1      -3.906   8.351  -0.873  1.00  0.00     0.338 C 
ATOM     36  O   UNL     1      -3.441   9.244  -1.521  1.00  0.00    -0.246 OA
BRANCH  35  37
ATOM     37  C   UNL     1      -5.328   7.923  -0.881  1.00  0.00     0.060 A 
ATOM     38  C   UNL     1      -5.936   7.649  -2.113  1.00  0.00     0.016 A 
ATOM     39  C   UNL     1      -6.011   7.697   0.318  1.00  0.00     0.016 A 
ATOM     40  C   UNL     1      -7.233   7.139  -2.147  1.00  0.00     0.010 A 
ATOM     41  C   UNL     1      -7.326   7.232   0.282  1.00  0.00     0.010 A 
ATOM     42  C   UNL     1      -7.947   6.973  -0.952  1.00  0.00    -0.014 A 
BRANCH  42  43
ATOM     43  C   UNL     1      -9.416   6.808  -1.011  1.00  0.00     0.031 A 
ATOM     44  C   UNL     1     -10.240   8.064  -1.063  1.00  0.00     0.074 A 
ATOM     45  C   UNL     1     -10.002   5.599  -1.040  1.00  0.00     0.049 A 
ATOM     46  N   UNL     1     -11.538   8.211  -1.109  1.00  0.00    -0.248 NA
ATOM     47  C   UNL     1      -9.489   9.332  -1.066  1.00  0.00     0.031 C 
ATOM     48  C   UNL     1      -9.303   4.317  -1.039  1.00  0.00     0.029 A 
ATOM     49  N   UNL     1     -11.332   5.260  -1.074  1.00  0.00    -0.354 N 
ATOM     50  C   UNL     1     -11.755   9.582  -1.147  1.00  0.00     0.074 A 
ATOM     51  C   UNL     1     -10.463  10.226  -1.095  1.00  0.00     0.031 C 
ATOM     52  C   UNL     1     -10.214   3.326  -1.064  1.00  0.00     0.029 A 
ATOM     53  C   UNL     1     -11.557   3.906  -1.054  1.00  0.00     0.049 A 
ATOM     54  H   UNL     1     -12.056   5.926  -1.109  1.00  0.00     0.167 HD
ATOM     55  C   UNL     1     -12.930  10.245  -1.221  1.00  0.00     0.037 A 
ATOM     56  C   UNL     1     -12.719   3.225  -1.016  1.00  0.00     0.037 A 
ATOM     57  C   UNL     1     -14.213   9.600  -1.251  1.00  0.00     0.049 A 
ATOM     58  C   UNL     1     -14.020   3.992  -1.012  1.00  0.00     0.074 A 
ATOM     59  C   UNL     1     -15.466  10.177  -1.333  1.00  0.00     0.029 A 
ATOM     60  N   UNL     1     -14.402   8.228  -1.182  1.00  0.00    -0.354 N 
ATOM     61  N   UNL     1     -14.222   5.286  -1.082  1.00  0.00    -0.248 NA
ATOM     62  C   UNL     1     -15.256   3.200  -0.925  1.00  0.00     0.031 C 
ATOM     63  C   UNL     1     -16.418   9.155  -1.256  1.00  0.00     0.029 A 
ATOM     64  C   UNL     1     -15.756   7.939  -1.190  1.00  0.00     0.049 A 
ATOM     65  H   UNL     1     -13.682   7.559  -1.135  1.00  0.00     0.167 HD
ATOM     66  C   UNL     1     -15.600   5.462  -1.081  1.00  0.00     0.074 A 
ATOM     67  C   UNL     1     -16.187   4.140  -1.013  1.00  0.00     0.031 C 
ATOM     68  C   UNL     1     -16.317   6.613  -1.133  1.00  0.00     0.037 A 
BRANCH  55  69
ATOM     69  C   UNL     1     -12.874  11.743  -1.229  1.00  0.00     0.064 A 
ATOM     70  C   UNL     1     -12.397  12.459  -2.337  1.00  0.00     0.173 A 
ATOM     71  C   UNL     1     -13.311  12.472  -0.113  1.00  0.00     0.173 A 
ATOM     72  F   UNL     1     -11.944  11.808  -3.419  1.00  0.00    -0.203 F 
ATOM     73  C   UNL     1     -12.338  13.850  -2.318  1.00  0.00     0.198 A 
ATOM     74  C   UNL     1     -13.278  13.863  -0.109  1.00  0.00     0.198 A 
ATOM     75  F   UNL     1     -13.770  11.834   0.974  1.00  0.00    -0.203 F 
ATOM     76  F   UNL     1     -11.831  14.513  -3.368  1.00  0.00    -0.200 F 
ATOM     77  C   UNL     1     -12.785  14.551  -1.208  1.00  0.00     0.200 A 
ATOM     78  F   UNL     1     -13.718  14.539   0.961  1.00  0.00    -0.200 F 
ATOM     79  F   UNL     1     -12.733  15.890  -1.193  1.00  0.00    -0.200 F 
ENDBRANCH  55  69
BRANCH  56  80
ATOM     80  C   UNL     1     -12.717   1.738  -0.973  1.00  0.00     0.064 A 
ATOM     81  C   UNL     1     -13.203   0.983  -2.050  1.00  0.00     0.173 A 
ATOM     82  C   UNL     1     -12.258   1.040   0.154  1.00  0.00     0.173 A 
ATOM     83  F   UNL     1     -13.682   1.601  -3.139  1.00  0.00    -0.203 F 
ATOM     84  C   UNL     1     -13.244  -0.410  -1.995  1.00  0.00     0.198 A 
ATOM     85  C   UNL     1     -12.274  -0.353   0.197  1.00  0.00     0.198 A 
ATOM     86  F   UNL     1     -11.793   1.713   1.217  1.00  0.00    -0.203 F 
ATOM     87  F   UNL     1     -13.758  -1.104  -3.020  1.00  0.00    -0.200 F 
ATOM     88  C   UNL     1     -12.774  -1.077  -0.874  1.00  0.00     0.200 A 
ATOM     89  F   UNL     1     -11.812  -0.993   1.280  1.00  0.00    -0.200 F 
ATOM     90  F   UNL     1     -12.813  -2.415  -0.822  1.00  0.00    -0.200 F 
ENDBRANCH  56  80
BRANCH  68  91
ATOM     91  C   UNL     1     -17.814   6.497  -1.165  1.00  0.00     0.064 A 
ATOM     92  C   UNL     1     -18.550   6.111  -0.036  1.00  0.00     0.173 A 
ATOM     93  C   UNL     1     -18.523   6.838  -2.328  1.00  0.00     0.173 A 
ATOM     94  F   UNL     1     -17.918   5.766   1.096  1.00  0.00    -0.203 F 
ATOM     95  C   UNL     1     -19.940   6.047  -0.077  1.00  0.00     0.198 A 
ATOM     96  C   UNL     1     -19.914   6.804  -2.355  1.00  0.00     0.198 A 
ATOM     97  F   UNL     1     -17.867   7.224  -3.432  1.00  0.00    -0.203 F 
ATOM     98  F   UNL     1     -20.621   5.632   1.000  1.00  0.00    -0.200 F 
ATOM     99  C   UNL     1     -20.621   6.402  -1.232  1.00  0.00     0.200 A 
ATOM    100  F   UNL     1     -20.570   7.165  -3.466  1.00  0.00    -0.200 F 
ATOM    101  F   UNL     1     -21.960   6.351  -1.265  1.00  0.00    -0.200 F 
ENDBRANCH  68  91
ENDBRANCH  42  43
ENDBRANCH  35  37
ENDBRANCH  34  35
ENDBRANCH  33  34
ENDBRANCH  32  33
ENDBRANCH  31  32
ENDBRANCH  30  31
ENDBRANCH  29  30
ENDBRANCH  28  29
ENDBRANCH   1  28
TORSDOF 25
