REMARK SMILES [NH3+][C@@H](Cc1cn(-c2nc(Cl)nc(N3CCOCC3)n2)c2ccccc12)C(=O)OCCOCCOCCOCCOC(=O)c1ccc(-c2c3nc(c(-c4c(F)c(F)c(F)c(F)c4F)c4ccc([nH]4)c(-c4c(F)c(F)c(F)c(F)c4F)c4nc(c(-c5c(F)c(F)c(F)c(F)c5F)c5ccc2[nH]5)C=C4)C=C3)cc1
REMARK SMILES IDX 33 1 32 2 31 3 30 4 29 5 28 6 26 7 27 8 2 9 1 10 3 14 4 15
REMARK SMILES IDX 5 16 25 17 6 18 20 19 24 20 21 21 23 22 22 23 7 24 8 25
REMARK SMILES IDX 19 26 9 27 12 28 10 29 11 30 13 31 14 32 18 33 15 34 17 35
REMARK SMILES IDX 16 36 34 37 35 38 36 39 37 40 38 41 39 42 40 43 41 44 42 45
REMARK SMILES IDX 43 46 44 47 105 48 45 49 104 50 46 51 47 52 48 53 98 54
REMARK SMILES IDX 49 55 103 56 97 57 99 58 50 59 102 60 96 61 95 62 51 64
REMARK SMILES IDX 83 65 63 66 82 67 64 68 67 69 81 70 100 71 65 72 66 73 80 75
REMARK SMILES IDX 101 76 68 77 52 78 53 79 61 80 54 81 55 82 59 83 62 84 56 85
REMARK SMILES IDX 57 86 60 87 58 88 84 89 85 90 93 91 86 92 87 93 91 94 94 95
REMARK SMILES IDX 88 96 89 97 92 98 90 99 69 100 70 101 78 102 71 103 72 104
REMARK SMILES IDX 76 105 79 106 73 107 74 108 77 109 75 110
REMARK H PARENT 1 11 1 12 1 13 99 63 67 74
REMARK Flexibility Score: inf
ROOT
ATOM      1  C   UNL     1      -0.952   0.593  -1.579  1.00  0.00     0.188 C 
ENDROOT
BRANCH   1   2
ATOM      2  C   UNL     1      -1.483  -0.609  -2.369  1.00  0.00     0.188 C 
BRANCH   2   3
ATOM      3  O   UNL     1      -2.835  -1.030  -2.224  1.00  0.00    -0.376 OA
BRANCH   3   4
ATOM      4  C   UNL     1      -3.369  -1.433  -0.966  1.00  0.00     0.202 C 
BRANCH   4   5
ATOM      5  C   UNL     1      -2.603  -2.282   0.059  1.00  0.00     0.261 C 
BRANCH   5   6
ATOM      6  O   UNL     1      -1.202  -2.028   0.141  1.00  0.00    -0.459 OA
BRANCH   6   7
ATOM      7  C   UNL     1      -0.376  -3.039  -0.247  1.00  0.00     0.365 C 
ATOM      8  O   UNL     1      -0.741  -4.142  -0.637  1.00  0.00    -0.245 OA
BRANCH   7   9
ATOM      9  C   UNL     1       1.101  -2.637  -0.122  1.00  0.00     0.296 C 
BRANCH   9  10
ATOM     10  N   UNL     1       1.330  -1.216  -0.453  1.00  0.00    -0.346 N 
ATOM     11  H   UNL     1       2.321  -1.000  -0.355  1.00  0.00     0.345 HD
ATOM     12  H   UNL     1       0.789  -0.628   0.182  1.00  0.00     0.345 HD
ATOM     13  H   UNL     1       1.036  -1.040  -1.413  1.00  0.00     0.345 HD
ENDBRANCH   9  10
BRANCH   9  14
ATOM     14  C   UNL     1       1.678  -2.992   1.247  1.00  0.00     0.115 C 
BRANCH  14  15
ATOM     15  C   UNL     1       0.897  -2.549   2.451  1.00  0.00    -0.015 A 
ATOM     16  C   UNL     1       0.282  -3.442   3.296  1.00  0.00     0.099 A 
ATOM     17  C   UNL     1       0.662  -1.249   3.013  1.00  0.00     0.004 A 
ATOM     18  N   UNL     1      -0.276  -2.780   4.367  1.00  0.00    -0.285 N 
ATOM     19  C   UNL     1      -0.135  -1.413   4.165  1.00  0.00     0.056 A 
ATOM     20  C   UNL     1       1.070   0.060   2.671  1.00  0.00     0.010 A 
ATOM     21  C   UNL     1      -0.540  -0.311   4.944  1.00  0.00     0.027 A 
ATOM     22  C   UNL     1       0.662   1.156   3.439  1.00  0.00     0.001 A 
ATOM     23  C   UNL     1      -0.136   0.970   4.559  1.00  0.00     0.002 A 
BRANCH  18  24
ATOM     24  C   UNL     1      -0.744  -3.474   5.524  1.00  0.00     0.240 A 
ATOM     25  N   UNL     1      -1.548  -2.902   6.409  1.00  0.00    -0.181 NA
ATOM     26  N   UNL     1      -0.200  -4.680   5.684  1.00  0.00    -0.176 NA
ATOM     27  C   UNL     1      -1.770  -3.680   7.468  1.00  0.00     0.228 A 
ATOM     28  C   UNL     1      -0.399  -5.293   6.835  1.00  0.00     0.231 A 
ATOM     29  Cl  UNL     1      -2.787  -3.041   8.682  1.00  0.00    -0.041 Cl
ATOM     30  N   UNL     1      -1.227  -4.855   7.759  1.00  0.00    -0.182 NA
BRANCH  28  31
ATOM     31  N   UNL     1       0.484  -6.298   7.102  1.00  0.00    -0.336 N 
ATOM     32  C   UNL     1       1.639  -5.914   7.909  1.00  0.00     0.148 C 
ATOM     33  C   UNL     1      -0.000  -7.649   7.320  1.00  0.00     0.148 C 
ATOM     34  C   UNL     1       2.760  -6.933   7.668  1.00  0.00     0.181 C 
ATOM     35  C   UNL     1       1.184  -8.604   7.077  1.00  0.00     0.181 C 
ATOM     36  O   UNL     1       2.310  -8.278   7.919  1.00  0.00    -0.378 OA
ENDBRANCH  28  31
ENDBRANCH  18  24
ENDBRANCH  14  15
ENDBRANCH   9  14
ENDBRANCH   7   9
ENDBRANCH   6   7
ENDBRANCH   5   6
ENDBRANCH   4   5
ENDBRANCH   3   4
ENDBRANCH   2   3
ENDBRANCH   1   2
BRANCH   1  37
ATOM     37  O   UNL     1      -1.462   0.663  -0.267  1.00  0.00    -0.377 OA
BRANCH  37  38
ATOM     38  C   UNL     1      -2.484   1.627  -0.038  1.00  0.00     0.188 C 
BRANCH  38  39
ATOM     39  C   UNL     1      -3.385   2.075  -1.213  1.00  0.00     0.188 C 
BRANCH  39  40
ATOM     40  O   UNL     1      -2.689   2.723  -2.271  1.00  0.00    -0.376 OA
BRANCH  40  41
ATOM     41  C   UNL     1      -2.610   4.143  -2.265  1.00  0.00     0.202 C 
BRANCH  41  42
ATOM     42  C   UNL     1      -1.871   4.792  -1.085  1.00  0.00     0.261 C 
BRANCH  42  43
ATOM     43  O   UNL     1      -2.542   4.604   0.173  1.00  0.00    -0.460 OA
BRANCH  43  44
ATOM     44  C   UNL     1      -3.712   5.253   0.373  1.00  0.00     0.338 C 
ATOM     45  O   UNL     1      -4.113   6.236  -0.225  1.00  0.00    -0.246 OA
BRANCH  44  46
ATOM     46  C   UNL     1      -4.559   4.313   1.149  1.00  0.00     0.060 A 
ATOM     47  C   UNL     1      -4.025   3.522   2.173  1.00  0.00     0.016 A 
ATOM     48  C   UNL     1      -5.814   4.009   0.600  1.00  0.00     0.016 A 
ATOM     49  C   UNL     1      -4.698   2.364   2.558  1.00  0.00     0.010 A 
ATOM     50  C   UNL     1      -6.472   2.838   0.972  1.00  0.00     0.010 A 
ATOM     51  C   UNL     1      -5.896   1.990   1.921  1.00  0.00    -0.014 A 
BRANCH  51  52
ATOM     52  C   UNL     1      -6.611   0.815   2.436  1.00  0.00     0.031 A 
ATOM     53  C   UNL     1      -7.066   0.970   3.847  1.00  0.00     0.074 A 
ATOM     54  C   UNL     1      -7.034  -0.263   1.739  1.00  0.00     0.049 A 
ATOM     55  N   UNL     1      -6.865   0.176   4.847  1.00  0.00    -0.248 NA
ATOM     56  C   UNL     1      -7.784   2.207   4.192  1.00  0.00     0.031 C 
ATOM     57  C   UNL     1      -7.000  -0.481   0.294  1.00  0.00     0.029 A 
ATOM     58  N   UNL     1      -7.706  -1.367   2.202  1.00  0.00    -0.354 N 
ATOM     59  C   UNL     1      -7.537   0.744   5.925  1.00  0.00     0.074 A 
ATOM     60  C   UNL     1      -8.008   2.034   5.492  1.00  0.00     0.031 C 
ATOM     61  C   UNL     1      -7.810  -1.522  -0.016  1.00  0.00     0.029 A 
ATOM     62  C   UNL     1      -8.330  -2.111   1.209  1.00  0.00     0.049 A 
ATOM     63  H   UNL     1      -7.743  -1.610   3.156  1.00  0.00     0.167 HD
ATOM     64  C   UNL     1      -7.797   0.054   7.067  1.00  0.00     0.037 A 
ATOM     65  C   UNL     1      -9.268  -3.078   1.377  1.00  0.00     0.037 A 
ATOM     66  C   UNL     1      -6.922  -1.073   7.227  1.00  0.00     0.049 A 
ATOM     67  C   UNL     1      -9.203  -3.560   2.777  1.00  0.00     0.074 A 
ATOM     68  C   UNL     1      -5.545  -1.195   7.213  1.00  0.00     0.029 A 
ATOM     69  N   UNL     1      -7.408  -2.346   7.054  1.00  0.00    -0.354 N 
ATOM     70  N   UNL     1      -8.250  -4.303   3.260  1.00  0.00    -0.248 NA
ATOM     71  C   UNL     1     -10.057  -2.909   3.761  1.00  0.00     0.031 C 
ATOM     72  C   UNL     1      -5.298  -2.386   6.479  1.00  0.00     0.029 A 
ATOM     73  C   UNL     1      -6.528  -2.977   6.211  1.00  0.00     0.049 A 
ATOM     74  H   UNL     1      -8.223  -2.728   7.454  1.00  0.00     0.167 HD
ATOM     75  C   UNL     1      -8.117  -3.872   4.568  1.00  0.00     0.074 A 
ATOM     76  C   UNL     1      -9.317  -3.098   4.853  1.00  0.00     0.031 C 
ATOM     77  C   UNL     1      -6.914  -3.923   5.201  1.00  0.00     0.037 A 
BRANCH  64  78
ATOM     78  C   UNL     1      -9.020   0.282   7.902  1.00  0.00     0.064 A 
ATOM     79  C   UNL     1      -9.090  -0.217   9.214  1.00  0.00     0.173 A 
ATOM     80  C   UNL     1     -10.232   0.758   7.355  1.00  0.00     0.173 A 
ATOM     81  F   UNL     1      -8.005  -0.737   9.805  1.00  0.00    -0.203 F 
ATOM     82  C   UNL     1     -10.297  -0.262   9.916  1.00  0.00     0.198 A 
ATOM     83  C   UNL     1     -11.422   0.761   8.077  1.00  0.00     0.198 A 
ATOM     84  F   UNL     1     -10.323   1.139   6.074  1.00  0.00    -0.203 F 
ATOM     85  F   UNL     1     -10.342  -0.836  11.126  1.00  0.00    -0.200 F 
ATOM     86  C   UNL     1     -11.460   0.230   9.348  1.00  0.00     0.200 A 
ATOM     87  F   UNL     1     -12.542   1.219   7.500  1.00  0.00    -0.200 F 
ATOM     88  F   UNL     1     -12.625   0.146  10.003  1.00  0.00    -0.200 F 
ENDBRANCH  64  78
BRANCH  65  89
ATOM     89  C   UNL     1     -10.413  -3.440   0.503  1.00  0.00     0.064 A 
ATOM     90  C   UNL     1     -11.105  -4.654   0.672  1.00  0.00     0.173 A 
ATOM     91  C   UNL     1     -11.036  -2.477  -0.312  1.00  0.00     0.173 A 
ATOM     92  F   UNL     1     -10.609  -5.611   1.471  1.00  0.00    -0.203 F 
ATOM     93  C   UNL     1     -12.356  -4.876   0.085  1.00  0.00     0.198 A 
ATOM     94  C   UNL     1     -12.278  -2.704  -0.907  1.00  0.00     0.198 A 
ATOM     95  F   UNL     1     -10.501  -1.258  -0.466  1.00  0.00    -0.203 F 
ATOM     96  F   UNL     1     -13.017  -6.016   0.328  1.00  0.00    -0.200 F 
ATOM     97  C   UNL     1     -12.945  -3.896  -0.695  1.00  0.00     0.200 A 
ATOM     98  F   UNL     1     -12.854  -1.732  -1.628  1.00  0.00    -0.200 F 
ATOM     99  F   UNL     1     -14.172  -4.080  -1.204  1.00  0.00    -0.200 F 
ENDBRANCH  65  89
BRANCH  77 100
ATOM    100  C   UNL     1      -5.824  -4.756   4.606  1.00  0.00     0.064 A 
ATOM    101  C   UNL     1      -5.207  -4.462   3.379  1.00  0.00     0.173 A 
ATOM    102  C   UNL     1      -5.266  -5.774   5.391  1.00  0.00     0.173 A 
ATOM    103  F   UNL     1      -5.624  -3.435   2.625  1.00  0.00    -0.203 F 
ATOM    104  C   UNL     1      -4.095  -5.182   2.948  1.00  0.00     0.198 A 
ATOM    105  C   UNL     1      -4.139  -6.472   4.969  1.00  0.00     0.198 A 
ATOM    106  F   UNL     1      -5.787  -6.055   6.596  1.00  0.00    -0.203 F 
ATOM    107  F   UNL     1      -3.516  -4.880   1.778  1.00  0.00    -0.200 F 
ATOM    108  C   UNL     1      -3.557  -6.179   3.746  1.00  0.00     0.200 A 
ATOM    109  F   UNL     1      -3.593  -7.404   5.764  1.00  0.00    -0.200 F 
ATOM    110  F   UNL     1      -2.458  -6.838   3.353  1.00  0.00    -0.200 F 
ENDBRANCH  77 100
ENDBRANCH  51  52
ENDBRANCH  44  46
ENDBRANCH  43  44
ENDBRANCH  42  43
ENDBRANCH  41  42
ENDBRANCH  40  41
ENDBRANCH  39  40
ENDBRANCH  38  39
ENDBRANCH  37  38
ENDBRANCH   1  37
TORSDOF 25
