REMARK SMILES Cc1nn(C)c(=O)c(C(=O)N2CCCC[C@H]2C(=O)OCCOCCOCCOCCOC(=O)c2ccc(-c3c4nc(c(-c5c(F)c(F)c(F)c(F)c5F)c5ccc([nH]5)c(-c5c(F)c(F)c(F)c(F)c5F)c5nc(c(-c6c(F)c(F)c(F)c(F)c6F)c6ccc3[nH]6)C=C5)C=C4)cc2)c1C
REMARK SMILES IDX 25 1 24 2 23 3 22 4 21 5 20 6 19 7 17 8 18 9 16 10 11 11
REMARK SMILES IDX 12 12 13 13 15 14 14 15 9 16 10 17 8 18 1 19 2 20 3 21 97 22
REMARK SMILES IDX 4 23 98 24 5 25 6 26 7 27 26 28 27 29 28 30 29 31 30 32
REMARK SMILES IDX 31 33 32 34 33 35 34 36 35 37 96 38 36 39 95 40 37 41 38 42
REMARK SMILES IDX 39 43 89 44 40 45 94 46 88 47 90 48 41 49 93 50 87 51 86 52
REMARK SMILES IDX 42 54 74 55 54 56 73 57 55 58 58 59 72 60 91 61 56 62 57 63
REMARK SMILES IDX 71 65 92 66 59 67 43 68 44 69 52 70 45 71 46 72 50 73 53 74
REMARK SMILES IDX 47 75 48 76 51 77 49 78 75 79 76 80 84 81 77 82 78 83 82 84
REMARK SMILES IDX 85 85 79 86 80 87 83 88 81 89 60 90 61 91 69 92 62 93 63 94
REMARK SMILES IDX 67 95 70 96 64 97 65 98 68 99 66 100
REMARK H PARENT 90 53 58 64
REMARK Flexibility Score: inf
ROOT
ATOM      1  O   UNL     1       1.065   2.424   0.121  1.00  0.00    -0.377 OA
ENDROOT
BRANCH   1   2
ATOM      2  C   UNL     1      -0.277   2.427  -0.325  1.00  0.00     0.188 C 
BRANCH   2   3
ATOM      3  C   UNL     1      -0.925   3.755  -0.736  1.00  0.00     0.188 C 
BRANCH   3   4
ATOM      4  O   UNL     1      -0.119   4.878  -1.032  1.00  0.00    -0.376 OA
BRANCH   4   5
ATOM      5  C   UNL     1       0.740   5.405  -0.030  1.00  0.00     0.202 C 
BRANCH   5   6
ATOM      6  C   UNL     1       0.181   5.803   1.341  1.00  0.00     0.261 C 
BRANCH   6   7
ATOM      7  O   UNL     1      -0.233   4.706   2.182  1.00  0.00    -0.462 OA
BRANCH   7   8
ATOM      8  C   UNL     1      -1.565   4.666   2.458  1.00  0.00     0.328 C 
ATOM      9  O   UNL     1      -2.401   5.327   1.846  1.00  0.00    -0.250 OA
BRANCH   8  10
ATOM     10  C   UNL     1      -1.956   3.657   3.565  1.00  0.00     0.195 C 
ATOM     11  N   UNL     1      -0.927   3.247   4.546  1.00  0.00    -0.325 N 
ATOM     12  C   UNL     1      -0.463   4.310   5.437  1.00  0.00     0.121 C 
ATOM     13  C   UNL     1      -1.602   5.010   6.168  1.00  0.00     0.022 C 
ATOM     14  C   UNL     1      -3.150   4.269   4.334  1.00  0.00     0.037 C 
ATOM     15  C   UNL     1      -2.690   5.451   5.197  1.00  0.00     0.005 C 
BRANCH  11  16
ATOM     16  C   UNL     1      -0.998   1.969   5.114  1.00  0.00     0.260 C 
ATOM     17  O   UNL     1      -1.398   1.792   6.262  1.00  0.00    -0.269 OA
BRANCH  16  18
ATOM     18  C   UNL     1      -0.354   0.855   4.350  1.00  0.00     0.111 A 
ATOM     19  C   UNL     1       2.647   0.013   2.272  1.00  0.00     0.069 C 
ATOM     20  C   UNL     1       1.454  -0.161   3.156  1.00  0.00     0.062 A 
ATOM     21  N   UNL     1       1.005  -1.366   3.254  1.00  0.00    -0.175 NA
ATOM     22  C   UNL     1       0.867   1.034   3.806  1.00  0.00    -0.010 A 
ATOM     23  N   UNL     1      -0.134  -1.561   3.966  1.00  0.00    -0.232 N 
ATOM     24  C   UNL     1       1.713   2.270   3.882  1.00  0.00     0.047 C 
ATOM     25  C   UNL     1      -0.538  -2.950   4.104  1.00  0.00     0.178 C 
ATOM     26  C   UNL     1      -0.945  -0.523   4.420  1.00  0.00     0.279 A 
ATOM     27  O   UNL     1      -2.078  -0.710   4.858  1.00  0.00    -0.267 OA
ENDBRANCH  16  18
ENDBRANCH  11  16
ENDBRANCH   8  10
ENDBRANCH   7   8
ENDBRANCH   6   7
ENDBRANCH   5   6
ENDBRANCH   4   5
ENDBRANCH   3   4
ENDBRANCH   2   3
ENDBRANCH   1   2
BRANCH   1  28
ATOM     28  C   UNL     1       2.114   2.258  -0.829  1.00  0.00     0.188 C 
BRANCH  28  29
ATOM     29  C   UNL     1       1.914   1.471  -2.132  1.00  0.00     0.188 C 
BRANCH  29  30
ATOM     30  O   UNL     1       1.052   0.343  -2.150  1.00  0.00    -0.376 OA
BRANCH  30  31
ATOM     31  C   UNL     1       1.203  -0.674  -1.167  1.00  0.00     0.202 C 
BRANCH  31  32
ATOM     32  C   UNL     1       2.459  -1.535  -1.315  1.00  0.00     0.261 C 
BRANCH  32  33
ATOM     33  O   UNL     1       3.487  -1.039  -0.435  1.00  0.00    -0.460 OA
BRANCH  33  34
ATOM     34  C   UNL     1       4.609  -0.558  -1.001  1.00  0.00     0.338 C 
ATOM     35  O   UNL     1       4.894  -0.552  -2.187  1.00  0.00    -0.246 OA
BRANCH  34  36
ATOM     36  C   UNL     1       5.397   0.165   0.022  1.00  0.00     0.060 A 
ATOM     37  C   UNL     1       5.842   1.447  -0.311  1.00  0.00     0.016 A 
ATOM     38  C   UNL     1       5.731  -0.394   1.262  1.00  0.00     0.016 A 
ATOM     39  C   UNL     1       6.675   2.147   0.559  1.00  0.00     0.010 A 
ATOM     40  C   UNL     1       6.559   0.317   2.145  1.00  0.00     0.010 A 
ATOM     41  C   UNL     1       7.085   1.565   1.767  1.00  0.00    -0.014 A 
BRANCH  41  42
ATOM     42  C   UNL     1       8.282   2.136   2.439  1.00  0.00     0.031 A 
ATOM     43  C   UNL     1       9.624   1.533   2.108  1.00  0.00     0.074 A 
ATOM     44  C   UNL     1       8.227   3.241   3.206  1.00  0.00     0.049 A 
ATOM     45  N   UNL     1      10.823   1.933   2.446  1.00  0.00    -0.248 NA
ATOM     46  C   UNL     1       9.610   0.326   1.264  1.00  0.00     0.031 C 
ATOM     47  C   UNL     1       7.014   3.969   3.564  1.00  0.00     0.029 A 
ATOM     48  N   UNL     1       9.239   3.957   3.801  1.00  0.00    -0.354 N 
ATOM     49  C   UNL     1      11.699   1.044   1.837  1.00  0.00     0.074 A 
ATOM     50  C   UNL     1      10.899   0.052   1.156  1.00  0.00     0.031 C 
ATOM     51  C   UNL     1       7.353   5.040   4.305  1.00  0.00     0.029 A 
ATOM     52  C   UNL     1       8.806   5.065   4.487  1.00  0.00     0.049 A 
ATOM     53  H   UNL     1      10.188   3.700   3.740  1.00  0.00     0.167 HD
ATOM     54  C   UNL     1      13.051   1.062   1.817  1.00  0.00     0.037 A 
ATOM     55  C   UNL     1       9.502   5.991   5.179  1.00  0.00     0.037 A 
ATOM     56  C   UNL     1      13.867   2.036   2.482  1.00  0.00     0.049 A 
ATOM     57  C   UNL     1      11.008   5.910   5.255  1.00  0.00     0.074 A 
ATOM     58  C   UNL     1      15.247   2.134   2.493  1.00  0.00     0.029 A 
ATOM     59  N   UNL     1      13.382   3.070   3.264  1.00  0.00    -0.354 N 
ATOM     60  N   UNL     1      11.826   5.090   4.644  1.00  0.00    -0.248 NA
ATOM     61  C   UNL     1      11.686   6.886   6.126  1.00  0.00     0.031 C 
ATOM     62  C   UNL     1      15.601   3.198   3.328  1.00  0.00     0.029 A 
ATOM     63  C   UNL     1      14.439   3.787   3.799  1.00  0.00     0.049 A 
ATOM     64  H   UNL     1      12.430   3.266   3.417  1.00  0.00     0.167 HD
ATOM     65  C   UNL     1      13.107   5.460   5.038  1.00  0.00     0.074 A 
ATOM     66  C   UNL     1      12.964   6.588   5.932  1.00  0.00     0.031 C 
ATOM     67  C   UNL     1      14.295   4.909   4.689  1.00  0.00     0.037 A 
BRANCH  54  68
ATOM     68  C   UNL     1      13.738  -0.020   1.046  1.00  0.00     0.064 A 
ATOM     69  C   UNL     1      13.768  -0.010  -0.356  1.00  0.00     0.173 A 
ATOM     70  C   UNL     1      14.409  -1.052   1.716  1.00  0.00     0.173 A 
ATOM     71  F   UNL     1      13.123   0.949  -1.039  1.00  0.00    -0.203 F 
ATOM     72  C   UNL     1      14.436  -1.006  -1.062  1.00  0.00     0.198 A 
ATOM     73  C   UNL     1      15.096  -2.032   1.008  1.00  0.00     0.198 A 
ATOM     74  F   UNL     1      14.405  -1.101   3.057  1.00  0.00    -0.203 F 
ATOM     75  F   UNL     1      14.423  -0.999  -2.401  1.00  0.00    -0.200 F 
ATOM     76  C   UNL     1      15.106  -2.011  -0.379  1.00  0.00     0.200 A 
ATOM     77  F   UNL     1      15.749  -2.998   1.668  1.00  0.00    -0.200 F 
ATOM     78  F   UNL     1      15.757  -2.964  -1.059  1.00  0.00    -0.200 F 
ENDBRANCH  54  68
BRANCH  55  79
ATOM     79  C   UNL     1       8.785   7.090   5.878  1.00  0.00     0.064 A 
ATOM     80  C   UNL     1       8.903   8.419   5.449  1.00  0.00     0.173 A 
ATOM     81  C   UNL     1       8.004   6.837   7.015  1.00  0.00     0.173 A 
ATOM     82  F   UNL     1       9.665   8.714   4.386  1.00  0.00    -0.203 F 
ATOM     83  C   UNL     1       8.274   9.455   6.138  1.00  0.00     0.198 A 
ATOM     84  C   UNL     1       7.358   7.871   7.689  1.00  0.00     0.198 A 
ATOM     85  F   UNL     1       7.870   5.583   7.472  1.00  0.00    -0.203 F 
ATOM     86  F   UNL     1       8.436  10.722   5.731  1.00  0.00    -0.200 F 
ATOM     87  C   UNL     1       7.499   9.180   7.254  1.00  0.00     0.200 A 
ATOM     88  F   UNL     1       6.605   7.599   8.763  1.00  0.00    -0.200 F 
ATOM     89  F   UNL     1       6.894  10.176   7.915  1.00  0.00    -0.200 F 
ENDBRANCH  55  79
BRANCH  67  90
ATOM     90  C   UNL     1      15.552   5.495   5.264  1.00  0.00     0.064 A 
ATOM     91  C   UNL     1      15.917   5.264   6.597  1.00  0.00     0.173 A 
ATOM     92  C   UNL     1      16.456   6.192   4.446  1.00  0.00     0.173 A 
ATOM     93  F   UNL     1      15.084   4.612   7.422  1.00  0.00    -0.203 F 
ATOM     94  C   UNL     1      17.142   5.707   7.091  1.00  0.00     0.198 A 
ATOM     95  C   UNL     1      17.690   6.611   4.936  1.00  0.00     0.198 A 
ATOM     96  F   UNL     1      16.158   6.431   3.160  1.00  0.00    -0.203 F 
ATOM     97  F   UNL     1      17.465   5.487   8.373  1.00  0.00    -0.200 F 
ATOM     98  C   UNL     1      18.032   6.368   6.258  1.00  0.00     0.200 A 
ATOM     99  F   UNL     1      18.556   7.234   4.125  1.00  0.00    -0.200 F 
ATOM    100  F   UNL     1      19.222   6.768   6.728  1.00  0.00    -0.200 F 
ENDBRANCH  67  90
ENDBRANCH  41  42
ENDBRANCH  34  36
ENDBRANCH  33  34
ENDBRANCH  32  33
ENDBRANCH  31  32
ENDBRANCH  30  31
ENDBRANCH  29  30
ENDBRANCH  28  29
ENDBRANCH   1  28
TORSDOF 22
