REMARK SMILES O=C(Nc1ccc(Cl)cc1C(=O)OCCOCCOCCOCCOC(=O)c1ccc(-c2c3nc(c(-c4c(F)c(F)c(F)c(F)c4F)c4ccc([nH]4)c(-c4c(F)c(F)c(F)c(F)c4F)c4nc(c(-c5c(F)c(F)c(F)c(F)c5F)c5ccc2[nH]5)C=C4)C=C3)cc1)c1ccc2c(c1)C(=O)N(Cc1ccco1)C2=O
REMARK SMILES IDX 18 1 17 2 16 3 15 4 14 5 13 6 11 7 12 8 10 9 4 10 5 11 6 12
REMARK SMILES IDX 9 13 7 14 8 15 3 16 1 17 2 18 91 20 92 21 96 22 93 23 95 24
REMARK SMILES IDX 94 25 97 26 106 27 98 28 99 29 107 30 100 31 101 32 102 33
REMARK SMILES IDX 105 34 103 35 104 36 19 37 20 38 21 39 22 40 23 41 24 42
REMARK SMILES IDX 25 43 26 44 27 45 28 46 29 47 90 48 30 49 89 50 31 51 32 52
REMARK SMILES IDX 33 53 83 54 34 55 88 56 82 57 84 58 35 59 87 60 81 61 80 62
REMARK SMILES IDX 36 64 68 65 48 66 67 67 49 68 52 69 66 70 85 71 50 72 51 73
REMARK SMILES IDX 65 75 86 76 53 77 37 78 38 79 46 80 39 81 40 82 44 83 47 84
REMARK SMILES IDX 41 85 42 86 45 87 43 88 69 89 70 90 78 91 71 92 72 93 76 94
REMARK SMILES IDX 79 95 73 96 74 97 77 98 75 99 54 100 55 101 63 102 56 103
REMARK SMILES IDX 57 104 61 105 64 106 58 107 59 108 62 109 60 110
REMARK H PARENT 3 19 84 63 52 74
REMARK Flexibility Score: inf
ROOT
ATOM      1  C   UNL     1       4.564   2.140   3.087  1.00  0.00     0.188 C 
ENDROOT
BRANCH   1   2
ATOM      2  C   UNL     1       4.986   3.612   3.237  1.00  0.00     0.188 C 
BRANCH   2   3
ATOM      3  O   UNL     1       3.914   4.456   3.635  1.00  0.00    -0.376 OA
BRANCH   3   4
ATOM      4  C   UNL     1       3.410   5.396   2.701  1.00  0.00     0.202 C 
BRANCH   4   5
ATOM      5  C   UNL     1       2.731   4.859   1.435  1.00  0.00     0.261 C 
BRANCH   5   6
ATOM      6  O   UNL     1       3.437   3.811   0.762  1.00  0.00    -0.460 OA
BRANCH   6   7
ATOM      7  C   UNL     1       4.540   4.120   0.052  1.00  0.00     0.340 C 
ATOM      8  O   UNL     1       4.985   5.240  -0.125  1.00  0.00    -0.246 OA
BRANCH   7   9
ATOM      9  C   UNL     1       5.241   2.860  -0.343  1.00  0.00     0.085 A 
ATOM     10  C   UNL     1       4.597   1.617  -0.560  1.00  0.00     0.056 A 
ATOM     11  C   UNL     1       5.381   0.544  -1.001  1.00  0.00     0.028 A 
ATOM     12  C   UNL     1       6.773   0.628  -1.042  1.00  0.00     0.023 A 
ATOM     13  C   UNL     1       6.646   2.933  -0.366  1.00  0.00     0.038 A 
ATOM     14  C   UNL     1       7.402   1.806  -0.672  1.00  0.00     0.042 A 
ATOM     15  Cl  UNL     1       9.115   1.859  -0.568  1.00  0.00    -0.084 Cl
BRANCH  10  16
ATOM     16  N   UNL     1       3.227   1.485  -0.232  1.00  0.00    -0.321 N 
ATOM     17  O   UNL     1       1.287   0.578   0.514  1.00  0.00    -0.269 OA
ATOM     18  C   UNL     1       2.446   0.420   0.136  1.00  0.00     0.255 C 
ATOM     19  H   UNL     1       2.731   2.334  -0.278  1.00  0.00     0.170 HD
BRANCH  18  20
ATOM     20  C   UNL     1       2.934  -0.950   0.029  1.00  0.00     0.041 A 
ATOM     21  C   UNL     1       3.455  -1.674   1.127  1.00  0.00     0.015 A 
ATOM     22  C   UNL     1       2.750  -1.536  -1.214  1.00  0.00     0.028 A 
ATOM     23  C   UNL     1       3.780  -3.037   0.981  1.00  0.00     0.015 A 
ATOM     24  C   UNL     1       3.113  -2.852  -1.319  1.00  0.00     0.054 A 
ATOM     25  C   UNL     1       3.575  -3.610  -0.265  1.00  0.00     0.053 A 
ATOM     26  C   UNL     1       2.893  -3.705  -2.454  1.00  0.00     0.261 C 
ATOM     27  C   UNL     1       3.561  -5.005  -0.734  1.00  0.00     0.261 C 
ATOM     28  O   UNL     1       2.483  -3.250  -3.508  1.00  0.00    -0.269 OA
ATOM     29  N   UNL     1       3.140  -4.977  -2.046  1.00  0.00    -0.267 N 
ATOM     30  O   UNL     1       3.772  -5.958  -0.009  1.00  0.00    -0.269 OA
BRANCH  29  31
ATOM     31  C   UNL     1       2.619  -6.127  -2.757  1.00  0.00     0.204 C 
BRANCH  31  32
ATOM     32  C   UNL     1       3.166  -6.265  -4.136  1.00  0.00     0.123 A 
ATOM     33  C   UNL     1       3.118  -5.489  -5.280  1.00  0.00     0.047 A 
ATOM     34  O   UNL     1       3.795  -7.444  -4.418  1.00  0.00    -0.467 OA
ATOM     35  C   UNL     1       3.801  -6.201  -6.290  1.00  0.00     0.042 A 
ATOM     36  C   UNL     1       4.167  -7.397  -5.723  1.00  0.00     0.195 A 
ENDBRANCH  31  32
ENDBRANCH  29  31
ENDBRANCH  18  20
ENDBRANCH  10  16
ENDBRANCH   7   9
ENDBRANCH   6   7
ENDBRANCH   5   6
ENDBRANCH   4   5
ENDBRANCH   3   4
ENDBRANCH   2   3
ENDBRANCH   1   2
BRANCH   1  37
ATOM     37  O   UNL     1       3.168   1.900   3.024  1.00  0.00    -0.377 OA
BRANCH  37  38
ATOM     38  C   UNL     1       2.358   2.184   4.167  1.00  0.00     0.188 C 
BRANCH  38  39
ATOM     39  C   UNL     1       2.952   2.661   5.516  1.00  0.00     0.188 C 
BRANCH  39  40
ATOM     40  O   UNL     1       4.294   2.263   5.754  1.00  0.00    -0.376 OA
BRANCH  40  41
ATOM     41  C   UNL     1       4.511   1.264   6.738  1.00  0.00     0.202 C 
BRANCH  41  42
ATOM     42  C   UNL     1       4.057  -0.142   6.330  1.00  0.00     0.261 C 
BRANCH  42  43
ATOM     43  O   UNL     1       2.654  -0.276   6.056  1.00  0.00    -0.460 OA
BRANCH  43  44
ATOM     44  C   UNL     1       1.804  -0.011   7.073  1.00  0.00     0.338 C 
ATOM     45  O   UNL     1       2.087   0.292   8.216  1.00  0.00    -0.246 OA
BRANCH  44  46
ATOM     46  C   UNL     1       0.438   0.024   6.517  1.00  0.00     0.060 A 
ATOM     47  C   UNL     1      -0.324   1.192   6.654  1.00  0.00     0.016 A 
ATOM     48  C   UNL     1      -0.084  -1.096   5.867  1.00  0.00     0.016 A 
ATOM     49  C   UNL     1      -1.631   1.228   6.171  1.00  0.00     0.010 A 
ATOM     50  C   UNL     1      -1.398  -1.064   5.400  1.00  0.00     0.010 A 
ATOM     51  C   UNL     1      -2.188   0.085   5.581  1.00  0.00    -0.014 A 
BRANCH  51  52
ATOM     52  C   UNL     1      -3.647   0.016   5.336  1.00  0.00     0.031 A 
ATOM     53  C   UNL     1      -4.510  -0.662   6.362  1.00  0.00     0.074 A 
ATOM     54  C   UNL     1      -4.198   0.544   4.230  1.00  0.00     0.049 A 
ATOM     55  N   UNL     1      -5.796  -0.904   6.346  1.00  0.00    -0.248 NA
ATOM     56  C   UNL     1      -3.822  -1.141   7.572  1.00  0.00     0.031 C 
ATOM     57  C   UNL     1      -3.472   1.250   3.179  1.00  0.00     0.029 A 
ATOM     58  N   UNL     1      -5.504   0.550   3.806  1.00  0.00    -0.354 N 
ATOM     59  C   UNL     1      -6.069  -1.562   7.537  1.00  0.00     0.074 A 
ATOM     60  C   UNL     1      -4.811  -1.718   8.236  1.00  0.00     0.031 C 
ATOM     61  C   UNL     1      -4.341   1.607   2.217  1.00  0.00     0.029 A 
ATOM     62  C   UNL     1      -5.676   1.125   2.572  1.00  0.00     0.049 A 
ATOM     63  H   UNL     1      -6.245   0.178   4.336  1.00  0.00     0.167 HD
ATOM     64  C   UNL     1      -7.263  -1.988   8.012  1.00  0.00     0.037 A 
ATOM     65  C   UNL     1      -6.781   1.223   1.808  1.00  0.00     0.037 A 
ATOM     66  C   UNL     1      -8.509  -1.846   7.308  1.00  0.00     0.049 A 
ATOM     67  C   UNL     1      -8.088   0.673   2.321  1.00  0.00     0.074 A 
ATOM     68  C   UNL     1      -9.775  -2.238   7.704  1.00  0.00     0.029 A 
ATOM     69  N   UNL     1      -8.642  -1.276   6.049  1.00  0.00    -0.354 N 
ATOM     70  N   UNL     1      -8.348   0.076   3.460  1.00  0.00    -0.248 NA
ATOM     71  C   UNL     1      -9.258   0.815   1.442  1.00  0.00     0.031 C 
ATOM     72  C   UNL     1     -10.665  -1.956   6.662  1.00  0.00     0.029 A 
ATOM     73  C   UNL     1      -9.965  -1.330   5.642  1.00  0.00     0.049 A 
ATOM     74  H   UNL     1      -7.904  -0.891   5.523  1.00  0.00     0.167 HD
ATOM     75  C   UNL     1      -9.709  -0.204   3.446  1.00  0.00     0.074 A 
ATOM     76  C   UNL     1     -10.225   0.301   2.191  1.00  0.00     0.031 C 
ATOM     77  C   UNL     1     -10.464  -0.821   4.389  1.00  0.00     0.037 A 
BRANCH  64  78
ATOM     78  C   UNL     1      -7.264  -2.678   9.346  1.00  0.00     0.064 A 
ATOM     79  C   UNL     1      -6.994  -1.984  10.536  1.00  0.00     0.173 A 
ATOM     80  C   UNL     1      -7.540  -4.050   9.437  1.00  0.00     0.173 A 
ATOM     81  F   UNL     1      -6.706  -0.674  10.504  1.00  0.00    -0.203 F 
ATOM     82  C   UNL     1      -6.964  -2.646  11.761  1.00  0.00     0.198 A 
ATOM     83  C   UNL     1      -7.543  -4.702  10.667  1.00  0.00     0.198 A 
ATOM     84  F   UNL     1      -7.808  -4.761   8.331  1.00  0.00    -0.203 F 
ATOM     85  F   UNL     1      -6.642  -1.975  12.876  1.00  0.00    -0.200 F 
ATOM     86  C   UNL     1      -7.244  -4.002  11.826  1.00  0.00     0.200 A 
ATOM     87  F   UNL     1      -7.826  -6.010  10.729  1.00  0.00    -0.200 F 
ATOM     88  F   UNL     1      -7.216  -4.638  13.005  1.00  0.00    -0.200 F 
ENDBRANCH  64  78
BRANCH  65  89
ATOM     89  C   UNL     1      -6.696   1.856   0.465  1.00  0.00     0.064 A 
ATOM     90  C   UNL     1      -7.314   3.086   0.202  1.00  0.00     0.173 A 
ATOM     91  C   UNL     1      -5.998   1.238  -0.584  1.00  0.00     0.173 A 
ATOM     92  F   UNL     1      -8.017   3.701   1.164  1.00  0.00    -0.203 F 
ATOM     93  C   UNL     1      -7.247   3.668  -1.062  1.00  0.00     0.198 A 
ATOM     94  C   UNL     1      -5.908   1.836  -1.839  1.00  0.00     0.198 A 
ATOM     95  F   UNL     1      -5.396   0.057  -0.387  1.00  0.00    -0.203 F 
ATOM     96  F   UNL     1      -7.885   4.823  -1.300  1.00  0.00    -0.200 F 
ATOM     97  C   UNL     1      -6.538   3.047  -2.079  1.00  0.00     0.200 A 
ATOM     98  F   UNL     1      -5.214   1.237  -2.817  1.00  0.00    -0.200 F 
ATOM     99  F   UNL     1      -6.470   3.611  -3.293  1.00  0.00    -0.200 F 
ENDBRANCH  65  89
BRANCH  77 100
ATOM    100  C   UNL     1     -11.937  -0.955   4.120  1.00  0.00     0.064 A 
ATOM    101  C   UNL     1     -12.435  -1.837   3.150  1.00  0.00     0.173 A 
ATOM    102  C   UNL     1     -12.865  -0.225   4.880  1.00  0.00     0.173 A 
ATOM    103  F   UNL     1     -11.592  -2.549   2.388  1.00  0.00    -0.203 F 
ATOM    104  C   UNL     1     -13.806  -1.963   2.932  1.00  0.00     0.198 A 
ATOM    105  C   UNL     1     -14.235  -0.378   4.682  1.00  0.00     0.198 A 
ATOM    106  F   UNL     1     -12.444   0.626   5.828  1.00  0.00    -0.203 F 
ATOM    107  F   UNL     1     -14.257  -2.775   1.966  1.00  0.00    -0.200 F 
ATOM    108  C   UNL     1     -14.704  -1.240   3.703  1.00  0.00     0.200 A 
ATOM    109  F   UNL     1     -15.101   0.309   5.440  1.00  0.00    -0.200 F 
ATOM    110  F   UNL     1     -16.022  -1.371   3.499  1.00  0.00    -0.200 F 
ENDBRANCH  77 100
ENDBRANCH  51  52
ENDBRANCH  44  46
ENDBRANCH  43  44
ENDBRANCH  42  43
ENDBRANCH  41  42
ENDBRANCH  40  41
ENDBRANCH  39  40
ENDBRANCH  38  39
ENDBRANCH  37  38
ENDBRANCH   1  37
TORSDOF 24
