REMARK SMILES Cc1cccc(S(=O)(=O)Nc2cc(C(=O)OCCOCCOCCOCCOC(=O)c3ccc(-c4c5nc(c(-c6c(F)c(F)c(F)c(F)c6F)c6ccc([nH]6)c(-c6c(F)c(F)c(F)c(F)c6F)c6nc(c(-c7c(F)c(F)c(F)c(F)c7F)c7ccc4[nH]7)C=C6)C=C5)cc3)ccc2N2CCC[C@H](C[NH+]3CCCC3)C2)c1
REMARK SMILES IDX 21 1 20 2 19 3 18 4 17 5 16 6 14 7 15 8 13 9 11 10 12 11
REMARK SMILES IDX 96 12 95 13 94 14 10 15 7 17 8 18 9 19 6 20 1 21 2 22 3 23
REMARK SMILES IDX 109 24 4 25 5 26 97 27 98 28 108 29 99 30 101 31 100 32
REMARK SMILES IDX 102 33 103 34 104 35 107 36 105 38 106 39 22 40 23 41 24 42
REMARK SMILES IDX 25 43 26 44 27 45 28 46 29 47 30 48 31 49 32 50 93 51 33 52
REMARK SMILES IDX 92 53 34 54 35 55 36 56 86 57 37 58 91 59 85 60 87 61 38 62
REMARK SMILES IDX 90 63 84 64 83 65 39 67 71 68 51 69 70 70 52 71 55 72 69 73
REMARK SMILES IDX 88 74 53 75 54 76 68 78 89 79 56 80 40 81 41 82 49 83 42 84
REMARK SMILES IDX 43 85 47 86 50 87 44 88 45 89 48 90 46 91 72 92 73 93 81 94
REMARK SMILES IDX 74 95 75 96 79 97 82 98 76 99 77 100 80 101 78 102 57 103
REMARK SMILES IDX 58 104 66 105 59 106 60 107 64 108 67 109 61 110 62 111
REMARK SMILES IDX 65 112 63 113
REMARK H PARENT 10 16 103 37 87 66 55 77
REMARK Flexibility Score: inf
ROOT
ATOM      1  C   UNL     1       4.372   3.646  -3.279  1.00  0.00     0.188 C 
ENDROOT
BRANCH   1   2
ATOM      2  C   UNL     1       5.624   2.675  -3.853  1.00  0.00     0.188 C 
BRANCH   2   3
ATOM      3  O   UNL     1       5.890   0.915  -4.342  1.00  0.00    -0.376 OA
BRANCH   3   4
ATOM      4  C   UNL     1       5.087  -0.629  -3.989  1.00  0.00     0.202 C 
BRANCH   4   5
ATOM      5  C   UNL     1       3.892  -0.962  -2.594  1.00  0.00     0.261 C 
BRANCH   5   6
ATOM      6  O   UNL     1       3.579   0.149  -1.184  1.00  0.00    -0.460 OA
BRANCH   6   7
ATOM      7  C   UNL     1       3.983   1.370  -0.417  1.00  0.00     0.338 C 
ATOM      8  O   UNL     1       5.153   1.695  -0.172  1.00  0.00    -0.246 OA
BRANCH   7   9
ATOM      9  C   UNL     1       3.021   2.538   0.152  1.00  0.00     0.062 A 
ATOM     10  C   UNL     1       0.961   3.985   0.327  1.00  0.00     0.073 A 
ATOM     11  C   UNL     1       1.798   3.079  -0.331  1.00  0.00     0.044 A 
ATOM     12  C   UNL     1       1.546   4.770   1.306  1.00  0.00     0.061 A 
ATOM     13  C   UNL     1       2.888   4.502   1.624  1.00  0.00     0.029 A 
ATOM     14  C   UNL     1       3.572   3.365   1.133  1.00  0.00     0.018 A 
BRANCH  10  15
ATOM     15  N   UNL     1      -0.389   4.262  -0.175  1.00  0.00    -0.277 N 
ATOM     16  H   UNL     1      -0.475   4.920  -0.902  1.00  0.00     0.180 HD
BRANCH  15  17
ATOM     17  S   UNL     1      -1.847   3.524   0.409  1.00  0.00     0.261 S 
ATOM     18  O   UNL     1      -2.696   3.360  -0.767  1.00  0.00    -0.201 OA
ATOM     19  O   UNL     1      -2.332   4.311   1.512  1.00  0.00    -0.201 OA
BRANCH  17  20
ATOM     20  C   UNL     1      -1.579   1.900   1.049  1.00  0.00     0.088 A 
ATOM     21  C   UNL     1       1.346   0.158   2.451  1.00  0.00     0.044 C 
ATOM     22  C   UNL     1      -0.062   0.360   2.049  1.00  0.00    -0.050 A 
ATOM     23  C   UNL     1      -0.888  -0.714   1.714  1.00  0.00     0.003 A 
ATOM     24  C   UNL     1      -0.449   1.663   1.795  1.00  0.00     0.025 A 
ATOM     25  C   UNL     1      -2.117  -0.469   1.115  1.00  0.00     0.002 A 
ATOM     26  C   UNL     1      -2.456   0.841   0.757  1.00  0.00     0.022 A 
ENDBRANCH  17  20
ENDBRANCH  15  17
ENDBRANCH  10  15
BRANCH  12  27
ATOM     27  N   UNL     1       0.824   5.803   1.867  1.00  0.00    -0.369 N 
ATOM     28  C   UNL     1       1.280   7.183   1.766  1.00  0.00     0.116 C 
ATOM     29  C   UNL     1      -0.104   5.459   2.943  1.00  0.00     0.126 C 
ATOM     30  C   UNL     1       1.795   7.672   3.114  1.00  0.00     0.022 C 
ATOM     31  C   UNL     1       0.449   5.865   4.310  1.00  0.00     0.064 C 
ATOM     32  C   UNL     1       0.791   7.362   4.226  1.00  0.00     0.013 C 
BRANCH  31  33
ATOM     33  C   UNL     1       1.596   4.910   4.734  1.00  0.00     0.267 C 
BRANCH  33  34
ATOM     34  N   UNL     1       2.098   4.893   6.108  1.00  0.00    -0.335 N 
ATOM     35  C   UNL     1       1.091   4.582   7.117  1.00  0.00     0.262 C 
ATOM     36  C   UNL     1       2.790   6.105   6.539  1.00  0.00     0.262 C 
ATOM     37  H   UNL     1       2.775   4.133   6.050  1.00  0.00     0.348 HD
ATOM     38  C   UNL     1       0.637   5.929   7.641  1.00  0.00     0.067 C 
ATOM     39  C   UNL     1       1.886   6.790   7.559  1.00  0.00     0.067 C 
ENDBRANCH  33  34
ENDBRANCH  31  33
ENDBRANCH  12  27
ENDBRANCH   7   9
ENDBRANCH   6   7
ENDBRANCH   5   6
ENDBRANCH   4   5
ENDBRANCH   3   4
ENDBRANCH   2   3
ENDBRANCH   1   2
BRANCH   1  40
ATOM     40  O   UNL     1       2.979   3.763  -3.582  1.00  0.00    -0.377 OA
BRANCH  40  41
ATOM     41  C   UNL     1       2.397   3.977  -4.848  1.00  0.00     0.188 C 
BRANCH  41  42
ATOM     42  C   UNL     1       3.126   4.713  -5.920  1.00  0.00     0.188 C 
BRANCH  42  43
ATOM     43  O   UNL     1       4.512   4.645  -5.702  1.00  0.00    -0.376 OA
BRANCH  43  44
ATOM     44  C   UNL     1       5.228   5.693  -6.315  1.00  0.00     0.202 C 
BRANCH  44  45
ATOM     45  C   UNL     1       4.966   5.755  -7.829  1.00  0.00     0.261 C 
BRANCH  45  46
ATOM     46  O   UNL     1       5.214   4.459  -8.441  1.00  0.00    -0.460 OA
BRANCH  46  47
ATOM     47  C   UNL     1       4.139   3.684  -8.849  1.00  0.00     0.338 C 
ATOM     48  O   UNL     1       3.131   4.109  -9.364  1.00  0.00    -0.246 OA
BRANCH  47  49
ATOM     49  C   UNL     1       4.266   2.298  -8.236  1.00  0.00     0.060 A 
ATOM     50  C   UNL     1       3.170   1.543  -7.763  1.00  0.00     0.016 A 
ATOM     51  C   UNL     1       5.410   2.110  -7.561  1.00  0.00     0.016 A 
ATOM     52  C   UNL     1       3.082   1.040  -6.389  1.00  0.00     0.010 A 
ATOM     53  C   UNL     1       5.220   1.803  -6.222  1.00  0.00     0.010 A 
ATOM     54  C   UNL     1       4.020   1.390  -5.423  1.00  0.00    -0.014 A 
BRANCH  54  55
ATOM     55  C   UNL     1       3.849   1.198  -3.557  1.00  0.00     0.031 A 
ATOM     56  C   UNL     1       5.469   0.832  -2.396  1.00  0.00     0.074 A 
ATOM     57  C   UNL     1       2.437   1.168  -3.207  1.00  0.00     0.049 A 
ATOM     58  N   UNL     1       5.656  -0.243  -1.583  1.00  0.00    -0.248 NA
ATOM     59  C   UNL     1       7.142   1.074  -2.592  1.00  0.00     0.031 C 
ATOM     60  C   UNL     1       1.663   1.029  -1.928  1.00  0.00     0.029 A 
ATOM     61  N   UNL     1       1.270   1.181  -4.034  1.00  0.00    -0.354 N 
ATOM     62  C   UNL     1       6.892  -0.528  -1.082  1.00  0.00     0.074 A 
ATOM     63  C   UNL     1       7.796   0.132  -1.926  1.00  0.00     0.031 C 
ATOM     64  C   UNL     1       0.339   1.044  -1.985  1.00  0.00     0.029 A 
ATOM     65  C   UNL     1       0.146   0.683  -3.303  1.00  0.00     0.049 A 
ATOM     66  H   UNL     1       1.244   1.488  -4.970  1.00  0.00     0.167 HD
ATOM     67  C   UNL     1       7.035  -1.239   0.068  1.00  0.00     0.037 A 
ATOM     68  C   UNL     1      -0.424  -0.525  -3.496  1.00  0.00     0.037 A 
ATOM     69  C   UNL     1       5.729  -1.518   0.672  1.00  0.00     0.049 A 
ATOM     70  C   UNL     1       0.121  -1.625  -2.453  1.00  0.00     0.074 A 
ATOM     71  C   UNL     1       5.084  -0.946   1.742  1.00  0.00     0.029 A 
ATOM     72  N   UNL     1       4.748  -2.284   0.021  1.00  0.00    -0.354 N 
ATOM     73  N   UNL     1       1.218  -1.585  -1.687  1.00  0.00    -0.248 NA
ATOM     74  C   UNL     1      -0.662  -2.804  -2.123  1.00  0.00     0.031 C 
ATOM     75  C   UNL     1       3.789  -1.503   1.792  1.00  0.00     0.029 A 
ATOM     76  C   UNL     1       3.464  -2.128   0.583  1.00  0.00     0.049 A 
ATOM     77  H   UNL     1       4.938  -2.869  -0.748  1.00  0.00     0.167 HD
ATOM     78  C   UNL     1       1.317  -2.668  -0.808  1.00  0.00     0.074 A 
ATOM     79  C   UNL     1       0.101  -3.410  -1.190  1.00  0.00     0.031 C 
ATOM     80  C   UNL     1       2.281  -2.964   0.179  1.00  0.00     0.037 A 
BRANCH  67  81
ATOM     81  C   UNL     1       8.383  -1.249   0.793  1.00  0.00     0.064 A 
ATOM     82  C   UNL     1       8.463  -1.144   2.196  1.00  0.00     0.173 A 
ATOM     83  C   UNL     1       9.642  -1.275   0.148  1.00  0.00     0.173 A 
ATOM     84  F   UNL     1       7.383  -1.272   2.973  1.00  0.00    -0.203 F 
ATOM     85  C   UNL     1       9.668  -0.922   2.874  1.00  0.00     0.198 A 
ATOM     86  C   UNL     1      10.845  -1.010   0.819  1.00  0.00     0.198 A 
ATOM     87  F   UNL     1       9.752  -1.610  -1.146  1.00  0.00    -0.203 F 
ATOM     88  F   UNL     1       9.663  -0.804   4.210  1.00  0.00    -0.200 F 
ATOM     89  C   UNL     1      10.855  -0.815   2.183  1.00  0.00     0.200 A 
ATOM     90  F   UNL     1      11.997  -0.950   0.133  1.00  0.00    -0.200 F 
ATOM     91  F   UNL     1      12.002  -0.572   2.832  1.00  0.00    -0.200 F 
ENDBRANCH  67  81
BRANCH  68  92
ATOM     92  C   UNL     1      -0.892  -0.420  -4.921  1.00  0.00     0.064 A 
ATOM     93  C   UNL     1      -1.557   0.819  -5.271  1.00  0.00     0.173 A 
ATOM     94  C   UNL     1      -0.162  -1.033  -5.929  1.00  0.00     0.173 A 
ATOM     95  F   UNL     1      -2.284   1.476  -4.347  1.00  0.00    -0.203 F 
ATOM     96  C   UNL     1      -1.209   1.533  -6.418  1.00  0.00     0.198 A 
ATOM     97  C   UNL     1       0.077  -0.357  -7.136  1.00  0.00     0.198 A 
ATOM     98  F   UNL     1       0.499  -2.167  -5.670  1.00  0.00    -0.203 F 
ATOM     99  F   UNL     1      -1.543   2.829  -6.544  1.00  0.00    -0.200 F 
ATOM    100  C   UNL     1      -0.370   0.949  -7.339  1.00  0.00     0.200 A 
ATOM    101  F   UNL     1       0.920  -0.897  -8.027  1.00  0.00    -0.200 F 
ATOM    102  F   UNL     1       0.089   1.672  -8.371  1.00  0.00    -0.200 F 
ENDBRANCH  68  92
BRANCH  80 103
ATOM    103  C   UNL     1       2.203  -4.229   1.048  1.00  0.00     0.064 A 
ATOM    104  C   UNL     1       1.016  -4.787   1.530  1.00  0.00     0.173 A 
ATOM    105  C   UNL     1       3.390  -4.859   1.521  1.00  0.00     0.173 A 
ATOM    106  F   UNL     1      -0.158  -4.157   1.383  1.00  0.00    -0.203 F 
ATOM    107  C   UNL     1       1.005  -5.998   2.227  1.00  0.00     0.198 A 
ATOM    108  C   UNL     1       3.378  -6.000   2.313  1.00  0.00     0.198 A 
ATOM    109  F   UNL     1       4.615  -4.403   1.233  1.00  0.00    -0.203 F 
ATOM    110  F   UNL     1      -0.167  -6.575   2.527  1.00  0.00    -0.200 F 
ATOM    111  C   UNL     1       2.185  -6.607   2.612  1.00  0.00     0.200 A 
ATOM    112  F   UNL     1       4.536  -6.508   2.759  1.00  0.00    -0.200 F 
ATOM    113  F   UNL     1       2.172  -7.767   3.280  1.00  0.00    -0.200 F 
ENDBRANCH  80 103
ENDBRANCH  54  55
ENDBRANCH  47  49
ENDBRANCH  46  47
ENDBRANCH  45  46
ENDBRANCH  44  45
ENDBRANCH  43  44
ENDBRANCH  42  43
ENDBRANCH  41  42
ENDBRANCH  40  41
ENDBRANCH   1  40
TORSDOF 26
