REMARK SMILES O=C(COc1ccccc1C[N@@H+]1C[C@@H]2[C@H]3CC[C@H](C3)[C@@H]2C1)OCCOCCOCCOCCOC(=O)c1ccc(-c2c3nc(c(-c4c(F)c(F)c(F)c(F)c4F)c4ccc([nH]4)c(-c4c(F)c(F)c(F)c(F)c4F)c4nc(c(-c5c(F)c(F)c(F)c(F)c5F)c5ccc2[nH]5)C=C4)C=C3)cc1
REMARK SMILES IDX 27 1 26 2 25 3 24 4 23 5 22 6 2 7 1 8 3 9 4 10 5 11 6 12
REMARK SMILES IDX 10 13 7 14 9 15 8 16 11 17 12 18 13 19 21 20 14 22 20 23
REMARK SMILES IDX 15 24 18 25 16 26 19 27 17 28 28 29 29 30 30 31 31 32 32 33
REMARK SMILES IDX 33 34 34 35 35 36 36 37 37 38 38 39 99 40 39 41 98 42 40 43
REMARK SMILES IDX 41 44 42 45 92 46 43 47 97 48 91 49 93 50 44 51 96 52 90 53
REMARK SMILES IDX 89 54 45 56 77 57 57 58 76 59 58 60 61 61 75 62 94 63 59 64
REMARK SMILES IDX 60 65 74 67 95 68 62 69 46 70 47 71 55 72 48 73 49 74 53 75
REMARK SMILES IDX 56 76 50 77 51 78 54 79 52 80 78 81 79 82 87 83 80 84 81 85
REMARK SMILES IDX 85 86 88 87 82 88 83 89 86 90 84 91 63 92 64 93 72 94 65 95
REMARK SMILES IDX 66 96 70 97 73 98 67 99 68 100 71 101 69 102
REMARK H PARENT 12 21 93 55 61 66
REMARK Flexibility Score: inf
ROOT
ATOM      1  C   UNL     1       2.422  -1.886   1.970  1.00  0.00     0.188 C 
ENDROOT
BRANCH   1   2
ATOM      2  C   UNL     1       3.171  -2.525   0.774  1.00  0.00     0.188 C 
BRANCH   2   3
ATOM      3  O   UNL     1       4.504  -2.179   0.442  1.00  0.00    -0.376 OA
BRANCH   3   4
ATOM      4  C   UNL     1       5.048  -0.921   0.121  1.00  0.00     0.202 C 
BRANCH   4   5
ATOM      5  C   UNL     1       4.263   0.381   0.073  1.00  0.00     0.261 C 
BRANCH   5   6
ATOM      6  O   UNL     1       2.838   0.300   0.125  1.00  0.00    -0.461 OA
BRANCH   6   7
ATOM      7  C   UNL     1       2.058  -0.341  -0.777  1.00  0.00     0.344 C 
ATOM      8  O   UNL     1       0.901  -0.648  -0.489  1.00  0.00    -0.248 OA
BRANCH   7   9
ATOM      9  C   UNL     1       2.653  -0.670  -2.114  1.00  0.00     0.351 C 
BRANCH   9  10
ATOM     10  O   UNL     1       3.332   0.477  -2.598  1.00  0.00    -0.481 OA
BRANCH  10  11
ATOM     11  C   UNL     1       2.581   1.112  -3.539  1.00  0.00     0.129 A 
ATOM     12  C   UNL     1       3.010   0.878  -4.851  1.00  0.00     0.047 A 
ATOM     13  C   UNL     1       1.548   2.022  -3.236  1.00  0.00     0.048 A 
ATOM     14  C   UNL     1       2.381   1.516  -5.908  1.00  0.00     0.004 A 
ATOM     15  C   UNL     1       0.897   2.613  -4.334  1.00  0.00     0.013 A 
ATOM     16  C   UNL     1       1.313   2.368  -5.649  1.00  0.00     0.001 A 
BRANCH  13  17
ATOM     17  C   UNL     1       1.156   2.494  -1.844  1.00  0.00     0.302 C 
BRANCH  17  18
ATOM     18  N   UNL     1       1.863   3.625  -1.273  1.00  0.00    -0.331 N 
ATOM     19  C   UNL     1       1.455   4.962  -1.604  1.00  0.00     0.266 C 
ATOM     20  C   UNL     1       3.260   3.581  -0.897  1.00  0.00     0.266 C 
ATOM     21  H   UNL     1       1.404   3.339  -0.408  1.00  0.00     0.348 HD
ATOM     22  C   UNL     1       2.728   5.687  -2.007  1.00  0.00     0.056 C 
ATOM     23  C   UNL     1       3.894   4.894  -1.388  1.00  0.00     0.056 C 
ATOM     24  C   UNL     1       3.071   5.657  -3.517  1.00  0.00    -0.002 C 
ATOM     25  C   UNL     1       4.863   4.715  -2.587  1.00  0.00    -0.002 C 
ATOM     26  C   UNL     1       4.162   6.711  -3.750  1.00  0.00     0.004 C 
ATOM     27  C   UNL     1       3.906   4.396  -3.719  1.00  0.00     0.008 C 
ATOM     28  C   UNL     1       5.394   6.073  -3.076  1.00  0.00     0.004 C 
ENDBRANCH  17  18
ENDBRANCH  13  17
ENDBRANCH  10  11
ENDBRANCH   9  10
ENDBRANCH   7   9
ENDBRANCH   6   7
ENDBRANCH   5   6
ENDBRANCH   4   5
ENDBRANCH   3   4
ENDBRANCH   2   3
ENDBRANCH   1   2
BRANCH   1  29
ATOM     29  O   UNL     1       3.016  -1.880   3.258  1.00  0.00    -0.377 OA
BRANCH  29  30
ATOM     30  C   UNL     1       4.367  -1.477   3.309  1.00  0.00     0.188 C 
BRANCH  30  31
ATOM     31  C   UNL     1       5.328  -2.669   3.195  1.00  0.00     0.188 C 
BRANCH  31  32
ATOM     32  O   UNL     1       4.788  -3.858   2.658  1.00  0.00    -0.376 OA
BRANCH  32  33
ATOM     33  C   UNL     1       3.891  -4.702   3.364  1.00  0.00     0.202 C 
BRANCH  33  34
ATOM     34  C   UNL     1       3.084  -4.371   4.637  1.00  0.00     0.261 C 
BRANCH  34  35
ATOM     35  O   UNL     1       3.512  -3.300   5.470  1.00  0.00    -0.460 OA
BRANCH  35  36
ATOM     36  C   UNL     1       4.642  -3.482   6.163  1.00  0.00     0.338 C 
ATOM     37  O   UNL     1       5.336  -4.488   6.209  1.00  0.00    -0.246 OA
BRANCH  36  38
ATOM     38  C   UNL     1       5.035  -2.164   6.691  1.00  0.00     0.060 A 
ATOM     39  C   UNL     1       6.327  -1.701   6.405  1.00  0.00     0.016 A 
ATOM     40  C   UNL     1       4.144  -1.388   7.441  1.00  0.00     0.016 A 
ATOM     41  C   UNL     1       6.763  -0.498   6.933  1.00  0.00     0.010 A 
ATOM     42  C   UNL     1       4.599  -0.204   8.019  1.00  0.00     0.010 A 
ATOM     43  C   UNL     1       5.932   0.196   7.819  1.00  0.00    -0.014 A 
BRANCH  43  44
ATOM     44  C   UNL     1       6.601   1.076   8.797  1.00  0.00     0.031 A 
ATOM     45  C   UNL     1       7.042   0.444  10.090  1.00  0.00     0.074 A 
ATOM     46  C   UNL     1       6.917   2.344   8.496  1.00  0.00     0.049 A 
ATOM     47  N   UNL     1       7.701   0.964  11.092  1.00  0.00    -0.248 NA
ATOM     48  C   UNL     1       6.698  -0.978  10.274  1.00  0.00     0.031 C 
ATOM     49  C   UNL     1       6.604   3.019   7.240  1.00  0.00     0.029 A 
ATOM     50  N   UNL     1       7.591   3.281   9.232  1.00  0.00    -0.354 N 
ATOM     51  C   UNL     1       7.839  -0.061  12.019  1.00  0.00     0.074 A 
ATOM     52  C   UNL     1       7.172  -1.223  11.483  1.00  0.00     0.031 C 
ATOM     53  C   UNL     1       7.085   4.274   7.294  1.00  0.00     0.029 A 
ATOM     54  C   UNL     1       7.712   4.489   8.597  1.00  0.00     0.049 A 
ATOM     55  H   UNL     1       7.954   3.103  10.129  1.00  0.00     0.167 HD
ATOM     56  C   UNL     1       8.477  -0.036  13.211  1.00  0.00     0.037 A 
ATOM     57  C   UNL     1       8.259   5.637   9.038  1.00  0.00     0.037 A 
ATOM     58  C   UNL     1       9.138   1.127  13.732  1.00  0.00     0.049 A 
ATOM     59  C   UNL     1       8.893   5.661  10.407  1.00  0.00     0.074 A 
ATOM     60  C   UNL     1       9.816   1.272  14.927  1.00  0.00     0.029 A 
ATOM     61  N   UNL     1       9.191   2.355  13.086  1.00  0.00    -0.354 N 
ATOM     62  N   UNL     1       9.033   4.690  11.278  1.00  0.00    -0.248 NA
ATOM     63  C   UNL     1       9.457   6.944  10.847  1.00  0.00     0.031 C 
ATOM     64  C   UNL     1      10.223   2.605  15.035  1.00  0.00     0.029 A 
ATOM     65  C   UNL     1       9.869   3.271  13.871  1.00  0.00     0.049 A 
ATOM     66  H   UNL     1       8.804   2.545  12.201  1.00  0.00     0.167 HD
ATOM     67  C   UNL     1       9.738   5.230  12.347  1.00  0.00     0.074 A 
ATOM     68  C   UNL     1      10.005   6.613  12.007  1.00  0.00     0.031 C 
ATOM     69  C   UNL     1      10.135   4.639  13.502  1.00  0.00     0.037 A 
BRANCH  56  70
ATOM     70  C   UNL     1       8.439  -1.285  14.043  1.00  0.00     0.064 A 
ATOM     71  C   UNL     1       9.123  -2.453  13.671  1.00  0.00     0.173 A 
ATOM     72  C   UNL     1       7.705  -1.310  15.238  1.00  0.00     0.173 A 
ATOM     73  F   UNL     1       9.820  -2.492  12.524  1.00  0.00    -0.203 F 
ATOM     74  C   UNL     1       9.050  -3.606  14.450  1.00  0.00     0.198 A 
ATOM     75  C   UNL     1       7.664  -2.452  16.032  1.00  0.00     0.198 A 
ATOM     76  F   UNL     1       7.027  -0.223  15.638  1.00  0.00    -0.203 F 
ATOM     77  F   UNL     1       9.664  -4.726  14.045  1.00  0.00    -0.200 F 
ATOM     78  C   UNL     1       8.328  -3.601  15.634  1.00  0.00     0.200 A 
ATOM     79  F   UNL     1       6.975  -2.441  17.182  1.00  0.00    -0.200 F 
ATOM     80  F   UNL     1       8.266  -4.708  16.387  1.00  0.00    -0.200 F 
ENDBRANCH  56  70
BRANCH  57  81
ATOM     81  C   UNL     1       8.233   6.853   8.185  1.00  0.00     0.064 A 
ATOM     82  C   UNL     1       9.416   7.414   7.684  1.00  0.00     0.173 A 
ATOM     83  C   UNL     1       7.026   7.498   7.878  1.00  0.00     0.173 A 
ATOM     84  F   UNL     1      10.598   6.848   7.967  1.00  0.00    -0.203 F 
ATOM     85  C   UNL     1       9.395   8.588   6.934  1.00  0.00     0.198 A 
ATOM     86  C   UNL     1       7.003   8.653   7.100  1.00  0.00     0.198 A 
ATOM     87  F   UNL     1       5.865   7.003   8.331  1.00  0.00    -0.203 F 
ATOM     88  F   UNL     1      10.545   9.134   6.516  1.00  0.00    -0.200 F 
ATOM     89  C   UNL     1       8.188   9.204   6.638  1.00  0.00     0.200 A 
ATOM     90  F   UNL     1       5.833   9.236   6.804  1.00  0.00    -0.200 F 
ATOM     91  F   UNL     1       8.168  10.333   5.917  1.00  0.00    -0.200 F 
ENDBRANCH  57  81
BRANCH  69  92
ATOM     92  C   UNL     1      10.960   5.464  14.450  1.00  0.00     0.064 A 
ATOM     93  C   UNL     1      10.425   6.555  15.150  1.00  0.00     0.173 A 
ATOM     94  C   UNL     1      12.307   5.136  14.677  1.00  0.00     0.173 A 
ATOM     95  F   UNL     1       9.146   6.916  14.964  1.00  0.00    -0.203 F 
ATOM     96  C   UNL     1      11.219   7.314  16.006  1.00  0.00     0.198 A 
ATOM     97  C   UNL     1      13.085   5.872  15.565  1.00  0.00     0.198 A 
ATOM     98  F   UNL     1      12.866   4.093  14.045  1.00  0.00    -0.203 F 
ATOM     99  F   UNL     1      10.705   8.395  16.609  1.00  0.00    -0.200 F 
ATOM    100  C   UNL     1      12.545   6.969  16.217  1.00  0.00     0.200 A 
ATOM    101  F   UNL     1      14.361   5.522  15.783  1.00  0.00    -0.200 F 
ATOM    102  F   UNL     1      13.306   7.700  17.043  1.00  0.00    -0.200 F 
ENDBRANCH  69  92
ENDBRANCH  43  44
ENDBRANCH  36  38
ENDBRANCH  35  36
ENDBRANCH  34  35
ENDBRANCH  33  34
ENDBRANCH  32  33
ENDBRANCH  31  32
ENDBRANCH  30  31
ENDBRANCH  29  30
ENDBRANCH   1  29
TORSDOF 24
