REMARK SMILES CC(C)[C@H](C[NH+](C)C)NC(=O)c1csc(/C=C/C(=O)OCCOCCOCCOCCOC(=O)c2ccc(-c3c4nc(c(-c5c(F)c(F)c(F)c(F)c5F)c5ccc([nH]5)c(-c5c(F)c(F)c(F)c(F)c5F)c5nc(c(-c6c(F)c(F)c(F)c(F)c6F)c6ccc3[nH]6)C=C5)C=C4)cc2)c1
REMARK SMILES IDX 24 1 23 2 22 3 21 4 20 5 18 6 19 7 17 8 16 9 15 10 12 11
REMARK SMILES IDX 13 12 98 13 14 14 10 15 9 16 11 18 4 19 2 20 1 21 3 22 5 23
REMARK SMILES IDX 6 24 7 25 8 26 25 28 26 29 27 30 28 31 29 32 30 33 31 34
REMARK SMILES IDX 32 35 33 36 34 37 35 38 36 39 97 40 37 41 96 42 38 43 39 44
REMARK SMILES IDX 40 45 90 46 41 47 95 48 89 49 91 50 42 51 94 52 88 53 87 54
REMARK SMILES IDX 43 56 75 57 55 58 74 59 56 60 59 61 73 62 92 63 57 64 58 65
REMARK SMILES IDX 72 67 93 68 60 69 44 70 45 71 53 72 46 73 47 74 51 75 54 76
REMARK SMILES IDX 48 77 49 78 52 79 50 80 76 81 77 82 85 83 78 84 79 85 83 86
REMARK SMILES IDX 86 87 80 88 81 89 84 90 82 91 61 92 62 93 70 94 63 95 64 96
REMARK SMILES IDX 68 97 71 98 65 99 66 100 69 101 67 102
REMARK H PARENT 9 17 6 27 91 55 59 66
REMARK Flexibility Score: inf
ROOT
ATOM      1  C   UNL     1      -2.816   6.002  -6.903  1.00  0.00     0.188 C 
ENDROOT
BRANCH   1   2
ATOM      2  O   UNL     1      -2.905   7.248  -7.571  1.00  0.00    -0.376 OA
BRANCH   2   3
ATOM      3  C   UNL     1      -3.922   8.170  -7.224  1.00  0.00     0.202 C 
BRANCH   3   4
ATOM      4  C   UNL     1      -4.125   8.609  -5.765  1.00  0.00     0.261 C 
BRANCH   4   5
ATOM      5  O   UNL     1      -3.984   7.593  -4.770  1.00  0.00    -0.460 OA
BRANCH   5   6
ATOM      6  C   UNL     1      -5.014   6.736  -4.632  1.00  0.00     0.330 C 
ATOM      7  O   UNL     1      -6.060   6.757  -5.261  1.00  0.00    -0.247 OA
BRANCH   6   8
ATOM      8  C   UNL     1      -4.658   5.635  -3.715  1.00  0.00     0.095 C 
ATOM      9  C   UNL     1      -3.655   5.683  -2.822  1.00  0.00     0.026 C 
BRANCH   9  10
ATOM     10  C   UNL     1      -3.352   4.580  -1.970  1.00  0.00     0.028 A 
ATOM     11  C   UNL     1      -2.769   3.335  -0.044  1.00  0.00     0.051 A 
ATOM     12  C   UNL     1      -3.234   2.357  -0.898  1.00  0.00     0.079 A 
ATOM     13  C   UNL     1      -2.818   4.618  -0.693  1.00  0.00     0.033 A 
ATOM     14  S   UNL     1      -3.597   2.946  -2.452  1.00  0.00    -0.144 S 
BRANCH  11  15
ATOM     15  C   UNL     1      -2.417   3.143   1.358  1.00  0.00     0.252 C 
ATOM     16  N   UNL     1      -1.772   2.007   1.763  1.00  0.00    -0.343 N 
ATOM     17  H   UNL     1      -1.840   1.821   2.728  1.00  0.00     0.164 HD
ATOM     18  O   UNL     1      -2.685   3.998   2.200  1.00  0.00    -0.269 OA
BRANCH  16  19
ATOM     19  C   UNL     1      -0.999   1.020   1.009  1.00  0.00     0.139 C 
BRANCH  19  20
ATOM     20  C   UNL     1      -1.347  -0.417   1.499  1.00  0.00     0.011 C 
ATOM     21  C   UNL     1      -2.867  -0.638   1.605  1.00  0.00     0.010 C 
ATOM     22  C   UNL     1      -0.793  -1.489   0.550  1.00  0.00     0.010 C 
ENDBRANCH  19  20
BRANCH  19  23
ATOM     23  C   UNL     1       0.530   1.371   1.038  1.00  0.00     0.287 C 
BRANCH  23  24
ATOM     24  N   UNL     1       1.115   1.779   2.343  1.00  0.00    -0.338 N 
ATOM     25  C   UNL     1       2.560   1.494   2.339  1.00  0.00     0.332 C 
ATOM     26  C   UNL     1       0.958   3.227   2.574  1.00  0.00     0.332 C 
ATOM     27  H   UNL     1       0.629   1.259   3.074  1.00  0.00     0.347 HD
ENDBRANCH  23  24
ENDBRANCH  19  23
ENDBRANCH  16  19
ENDBRANCH  11  15
ENDBRANCH   9  10
ENDBRANCH   6   8
ENDBRANCH   5   6
ENDBRANCH   4   5
ENDBRANCH   3   4
ENDBRANCH   2   3
ENDBRANCH   1   2
BRANCH   1  28
ATOM     28  C   UNL     1      -1.655   5.937  -5.892  1.00  0.00     0.188 C 
BRANCH  28  29
ATOM     29  O   UNL     1      -1.128   7.176  -5.442  1.00  0.00    -0.377 OA
BRANCH  29  30
ATOM     30  C   UNL     1      -0.525   8.071  -6.378  1.00  0.00     0.188 C 
BRANCH  30  31
ATOM     31  C   UNL     1      -0.232   7.693  -7.853  1.00  0.00     0.188 C 
BRANCH  31  32
ATOM     32  O   UNL     1      -0.230   6.302  -8.125  1.00  0.00    -0.376 OA
BRANCH  32  33
ATOM     33  C   UNL     1       1.011   5.682  -8.406  1.00  0.00     0.202 C 
BRANCH  33  34
ATOM     34  C   UNL     1       2.010   5.616  -7.243  1.00  0.00     0.261 C 
BRANCH  34  35
ATOM     35  O   UNL     1       2.314   6.870  -6.612  1.00  0.00    -0.460 OA
BRANCH  35  36
ATOM     36  C   UNL     1       2.980   7.776  -7.354  1.00  0.00     0.338 C 
ATOM     37  O   UNL     1       3.373   7.644  -8.506  1.00  0.00    -0.246 OA
BRANCH  36  38
ATOM     38  C   UNL     1       3.017   9.048  -6.610  1.00  0.00     0.060 A 
ATOM     39  C   UNL     1       2.469  10.194  -7.201  1.00  0.00     0.016 A 
ATOM     40  C   UNL     1       3.616   9.116  -5.350  1.00  0.00     0.016 A 
ATOM     41  C   UNL     1       2.585  11.428  -6.564  1.00  0.00     0.010 A 
ATOM     42  C   UNL     1       3.747  10.356  -4.720  1.00  0.00     0.010 A 
ATOM     43  C   UNL     1       3.282  11.523  -5.353  1.00  0.00    -0.014 A 
BRANCH  43  44
ATOM     44  C   UNL     1       3.754  12.854  -4.896  1.00  0.00     0.031 A 
ATOM     45  C   UNL     1       5.170  13.248  -5.225  1.00  0.00     0.074 A 
ATOM     46  C   UNL     1       2.942  13.714  -4.259  1.00  0.00     0.049 A 
ATOM     47  N   UNL     1       5.826  14.340  -4.926  1.00  0.00    -0.248 NA
ATOM     48  C   UNL     1       5.955  12.270  -5.997  1.00  0.00     0.031 C 
ATOM     49  C   UNL     1       1.541  13.470  -3.929  1.00  0.00     0.029 A 
ATOM     50  N   UNL     1       3.191  14.975  -3.774  1.00  0.00    -0.354 N 
ATOM     51  C   UNL     1       7.096  14.175  -5.466  1.00  0.00     0.074 A 
ATOM     52  C   UNL     1       7.135  12.865  -6.074  1.00  0.00     0.031 C 
ATOM     53  C   UNL     1       1.052  14.547  -3.287  1.00  0.00     0.029 A 
ATOM     54  C   UNL     1       2.115  15.540  -3.134  1.00  0.00     0.049 A 
ATOM     55  H   UNL     1       4.058  15.430  -3.875  1.00  0.00     0.167 HD
ATOM     56  C   UNL     1       8.133  15.045  -5.468  1.00  0.00     0.037 A 
ATOM     57  C   UNL     1       2.014  16.717  -2.485  1.00  0.00     0.037 A 
ATOM     58  C   UNL     1       8.091  16.349  -4.863  1.00  0.00     0.049 A 
ATOM     59  C   UNL     1       3.210  17.637  -2.433  1.00  0.00     0.074 A 
ATOM     60  C   UNL     1       9.085  17.310  -4.814  1.00  0.00     0.029 A 
ATOM     61  N   UNL     1       6.994  16.872  -4.195  1.00  0.00    -0.354 N 
ATOM     62  N   UNL     1       4.401  17.484  -2.961  1.00  0.00    -0.248 NA
ATOM     63  C   UNL     1       3.042  18.900  -1.700  1.00  0.00     0.031 C 
ATOM     64  C   UNL     1       8.611  18.390  -4.063  1.00  0.00     0.029 A 
ATOM     65  C   UNL     1       7.296  18.134  -3.708  1.00  0.00     0.049 A 
ATOM     66  H   UNL     1       6.129  16.415  -4.082  1.00  0.00     0.167 HD
ATOM     67  C   UNL     1       5.106  18.645  -2.662  1.00  0.00     0.074 A 
ATOM     68  C   UNL     1       4.206  19.496  -1.914  1.00  0.00     0.031 C 
ATOM     69  C   UNL     1       6.381  18.978  -2.982  1.00  0.00     0.037 A 
BRANCH  56  70
ATOM     70  C   UNL     1       9.411  14.598  -6.118  1.00  0.00     0.064 A 
ATOM     71  C   UNL     1       9.516  14.423  -7.506  1.00  0.00     0.173 A 
ATOM     72  C   UNL     1      10.556  14.363  -5.340  1.00  0.00     0.173 A 
ATOM     73  F   UNL     1       8.447  14.617  -8.294  1.00  0.00    -0.203 F 
ATOM     74  C   UNL     1      10.709  14.000  -8.088  1.00  0.00     0.198 A 
ATOM     75  C   UNL     1      11.756  13.975  -5.929  1.00  0.00     0.198 A 
ATOM     76  F   UNL     1      10.512  14.515  -4.008  1.00  0.00    -0.203 F 
ATOM     77  F   UNL     1      10.769  13.786  -9.409  1.00  0.00    -0.200 F 
ATOM     78  C   UNL     1      11.830  13.785  -7.300  1.00  0.00     0.200 A 
ATOM     79  F   UNL     1      12.842  13.781  -5.167  1.00  0.00    -0.200 F 
ATOM     80  F   UNL     1      12.979  13.387  -7.862  1.00  0.00    -0.200 F 
ENDBRANCH  56  70
BRANCH  57  81
ATOM     81  C   UNL     1       0.738  17.099  -1.822  1.00  0.00     0.064 A 
ATOM     82  C   UNL     1      -0.016  18.193  -2.271  1.00  0.00     0.173 A 
ATOM     83  C   UNL     1       0.265  16.401  -0.700  1.00  0.00     0.173 A 
ATOM     84  F   UNL     1       0.407  18.910  -3.323  1.00  0.00    -0.203 F 
ATOM     85  C   UNL     1      -1.175  18.591  -1.608  1.00  0.00     0.198 A 
ATOM     86  C   UNL     1      -0.913  16.779  -0.059  1.00  0.00     0.198 A 
ATOM     87  F   UNL     1       0.947  15.349  -0.226  1.00  0.00    -0.203 F 
ATOM     88  F   UNL     1      -1.842  19.677  -2.023  1.00  0.00    -0.200 F 
ATOM     89  C   UNL     1      -1.626  17.881  -0.506  1.00  0.00     0.200 A 
ATOM     90  F   UNL     1      -1.351  16.082   0.998  1.00  0.00    -0.200 F 
ATOM     91  F   UNL     1      -2.740  18.265   0.132  1.00  0.00    -0.200 F 
ENDBRANCH  57  81
BRANCH  69  92
ATOM     92  C   UNL     1       6.863  20.347  -2.586  1.00  0.00     0.064 A 
ATOM     93  C   UNL     1       7.090  20.700  -1.248  1.00  0.00     0.173 A 
ATOM     94  C   UNL     1       7.143  21.307  -3.572  1.00  0.00     0.173 A 
ATOM     95  F   UNL     1       6.831  19.824  -0.265  1.00  0.00    -0.203 F 
ATOM     96  C   UNL     1       7.543  21.973  -0.910  1.00  0.00     0.198 A 
ATOM     97  C   UNL     1       7.633  22.565  -3.234  1.00  0.00     0.198 A 
ATOM     98  F   UNL     1       6.956  21.019  -4.870  1.00  0.00    -0.203 F 
ATOM     99  F   UNL     1       7.696  22.307   0.379  1.00  0.00    -0.200 F 
ATOM    100  C   UNL     1       7.822  22.901  -1.902  1.00  0.00     0.200 A 
ATOM    101  F   UNL     1       7.920  23.452  -4.196  1.00  0.00    -0.200 F 
ATOM    102  F   UNL     1       8.266  24.122  -1.575  1.00  0.00    -0.200 F 
ENDBRANCH  69  92
ENDBRANCH  43  44
ENDBRANCH  36  38
ENDBRANCH  35  36
ENDBRANCH  34  35
ENDBRANCH  33  34
ENDBRANCH  32  33
ENDBRANCH  31  32
ENDBRANCH  30  31
ENDBRANCH  29  30
ENDBRANCH  28  29
ENDBRANCH   1  28
TORSDOF 26
