REMARK SMILES Cc1c(NS(=O)(=O)c2ccc3c(c2)COC3)cccc1C(=O)OCCOCCOCCOCCOC(=O)c1ccc(-c2c3nc(c(-c4c(F)c(F)c(F)c(F)c4F)c4ccc([nH]4)c(-c4c(F)c(F)c(F)c(F)c4F)c4nc(c(-c5c(F)c(F)c(F)c(F)c5F)c5ccc2[nH]5)C=C4)C=C3)cc1
REMARK SMILES IDX 28 1 27 2 26 3 25 4 24 5 23 6 21 7 22 8 20 9 1 10 2 11 3 12
REMARK SMILES IDX 17 13 19 14 18 15 4 16 5 18 6 19 7 20 8 21 9 22 13 23 10 24
REMARK SMILES IDX 12 25 11 26 14 27 16 28 15 29 29 30 30 31 31 32 32 33 33 34
REMARK SMILES IDX 34 35 35 36 36 37 37 38 38 39 39 40 100 41 40 42 99 43 41 44
REMARK SMILES IDX 42 45 43 46 93 47 44 48 98 49 92 50 94 51 45 52 97 53 91 54
REMARK SMILES IDX 90 55 46 57 78 58 58 59 77 60 59 61 62 62 76 63 95 64 60 65
REMARK SMILES IDX 61 66 75 68 96 69 63 70 47 71 48 72 56 73 49 74 50 75 54 76
REMARK SMILES IDX 57 77 51 78 52 79 55 80 53 81 79 82 80 83 88 84 81 85 82 86
REMARK SMILES IDX 86 87 89 88 83 89 84 90 87 91 85 92 64 93 65 94 73 95 66 96
REMARK SMILES IDX 67 97 71 98 74 99 68 100 69 101 72 102 70 103
REMARK H PARENT 4 17 94 56 62 67
REMARK Flexibility Score: inf
ROOT
ATOM      1  C   UNL     1      -0.136   1.442  -2.934  1.00  0.00     0.188 C 
ENDROOT
BRANCH   1   2
ATOM      2  C   UNL     1      -1.031   2.454  -2.198  1.00  0.00     0.188 C 
BRANCH   2   3
ATOM      3  O   UNL     1      -0.637   3.811  -2.094  1.00  0.00    -0.376 OA
BRANCH   3   4
ATOM      4  C   UNL     1       0.293   4.128  -1.072  1.00  0.00     0.202 C 
BRANCH   4   5
ATOM      5  C   UNL     1      -0.097   3.813   0.347  1.00  0.00     0.261 C 
BRANCH   5   6
ATOM      6  O   UNL     1       0.038   2.415   0.564  1.00  0.00    -0.460 OA
BRANCH   6   7
ATOM      7  C   UNL     1      -0.989   1.912   1.249  1.00  0.00     0.338 C 
ATOM      8  O   UNL     1      -1.851   2.580   1.805  1.00  0.00    -0.246 OA
BRANCH   7   9
ATOM      9  C   UNL     1      -1.078   0.435   1.153  1.00  0.00     0.065 A 
ATOM     10  C   UNL     1       1.211  -0.217   0.098  1.00  0.00     0.047 C 
ATOM     11  C   UNL     1      -0.137  -0.523   0.699  1.00  0.00    -0.012 A 
ATOM     12  C   UNL     1      -0.494  -1.886   0.833  1.00  0.00     0.053 A 
ATOM     13  C   UNL     1      -1.587  -2.241   1.626  1.00  0.00     0.027 A 
ATOM     14  C   UNL     1      -2.337   0.012   1.606  1.00  0.00     0.016 A 
ATOM     15  C   UNL     1      -2.563  -1.306   1.918  1.00  0.00     0.003 A 
BRANCH  12  16
ATOM     16  N   UNL     1       0.234  -2.885   0.101  1.00  0.00    -0.279 N 
ATOM     17  H   UNL     1       1.163  -2.689  -0.158  1.00  0.00     0.180 HD
BRANCH  16  18
ATOM     18  S   UNL     1      -0.420  -4.381  -0.338  1.00  0.00     0.261 S 
ATOM     19  O   UNL     1       0.207  -4.747  -1.596  1.00  0.00    -0.201 OA
ATOM     20  O   UNL     1      -0.313  -5.231   0.826  1.00  0.00    -0.201 OA
BRANCH  18  21
ATOM     21  C   UNL     1      -2.174  -4.143  -0.669  1.00  0.00     0.088 A 
ATOM     22  C   UNL     1      -3.041  -5.062  -0.039  1.00  0.00     0.022 A 
ATOM     23  C   UNL     1      -2.659  -2.932  -1.188  1.00  0.00     0.028 A 
ATOM     24  C   UNL     1      -4.359  -4.710   0.241  1.00  0.00     0.008 A 
ATOM     25  C   UNL     1      -3.966  -2.586  -0.860  1.00  0.00    -0.015 A 
ATOM     26  C   UNL     1      -4.773  -3.439  -0.111  1.00  0.00    -0.017 A 
ATOM     27  C   UNL     1      -4.689  -1.297  -1.036  1.00  0.00     0.196 C 
ATOM     28  C   UNL     1      -5.998  -2.712   0.317  1.00  0.00     0.196 C 
ATOM     29  O   UNL     1      -5.704  -1.332  -0.003  1.00  0.00    -0.372 OA
ENDBRANCH  18  21
ENDBRANCH  16  18
ENDBRANCH  12  16
ENDBRANCH   7   9
ENDBRANCH   6   7
ENDBRANCH   5   6
ENDBRANCH   4   5
ENDBRANCH   3   4
ENDBRANCH   2   3
ENDBRANCH   1   2
BRANCH   1  30
ATOM     30  O   UNL     1       1.196   1.229  -2.501  1.00  0.00    -0.377 OA
BRANCH  30  31
ATOM     31  C   UNL     1       2.255   1.968  -3.102  1.00  0.00     0.188 C 
BRANCH  31  32
ATOM     32  C   UNL     1       2.077   2.498  -4.514  1.00  0.00     0.188 C 
BRANCH  32  33
ATOM     33  O   UNL     1       1.141   3.570  -4.457  1.00  0.00    -0.376 OA
BRANCH  33  34
ATOM     34  C   UNL     1       0.389   3.793  -5.644  1.00  0.00     0.202 C 
BRANCH  34  35
ATOM     35  C   UNL     1       1.262   4.133  -6.856  1.00  0.00     0.261 C 
BRANCH  35  36
ATOM     36  O   UNL     1       1.915   5.398  -6.626  1.00  0.00    -0.460 OA
BRANCH  36  37
ATOM     37  C   UNL     1       3.237   5.323  -6.308  1.00  0.00     0.338 C 
ATOM     38  O   UNL     1       4.082   4.727  -6.954  1.00  0.00    -0.246 OA
BRANCH  37  39
ATOM     39  C   UNL     1       3.456   5.831  -4.922  1.00  0.00     0.060 A 
ATOM     40  C   UNL     1       4.684   5.631  -4.270  1.00  0.00     0.016 A 
ATOM     41  C   UNL     1       2.355   6.223  -4.177  1.00  0.00     0.016 A 
ATOM     42  C   UNL     1       4.752   5.634  -2.863  1.00  0.00     0.010 A 
ATOM     43  C   UNL     1       2.419   6.139  -2.801  1.00  0.00     0.010 A 
ATOM     44  C   UNL     1       3.588   5.778  -2.115  1.00  0.00    -0.014 A 
BRANCH  44  45
ATOM     45  C   UNL     1       3.431   5.425  -0.679  1.00  0.00     0.031 A 
ATOM     46  C   UNL     1       2.624   6.333   0.214  1.00  0.00     0.074 A 
ATOM     47  C   UNL     1       3.670   4.138  -0.299  1.00  0.00     0.049 A 
ATOM     48  N   UNL     1       2.239   6.050   1.412  1.00  0.00    -0.248 NA
ATOM     49  C   UNL     1       2.115   7.643  -0.197  1.00  0.00     0.031 C 
ATOM     50  C   UNL     1       3.046   3.415   0.809  1.00  0.00     0.029 A 
ATOM     51  N   UNL     1       4.466   3.146  -0.871  1.00  0.00    -0.354 N 
ATOM     52  C   UNL     1       1.190   6.882   1.762  1.00  0.00     0.074 A 
ATOM     53  C   UNL     1       1.225   7.920   0.766  1.00  0.00     0.031 C 
ATOM     54  C   UNL     1       3.479   2.151   0.889  1.00  0.00     0.029 A 
ATOM     55  C   UNL     1       4.635   2.087   0.043  1.00  0.00     0.049 A 
ATOM     56  H   UNL     1       4.852   3.180  -1.776  1.00  0.00     0.167 HD
ATOM     57  C   UNL     1       0.353   6.502   2.782  1.00  0.00     0.037 A 
ATOM     58  C   UNL     1       5.870   1.843   0.577  1.00  0.00     0.037 A 
ATOM     59  C   UNL     1       0.876   5.302   3.473  1.00  0.00     0.049 A 
ATOM     60  C   UNL     1       5.877   2.281   2.045  1.00  0.00     0.074 A 
ATOM     61  C   UNL     1       0.367   4.056   3.797  1.00  0.00     0.029 A 
ATOM     62  N   UNL     1       2.237   5.241   3.793  1.00  0.00    -0.354 N 
ATOM     63  N   UNL     1       5.181   3.307   2.501  1.00  0.00    -0.248 NA
ATOM     64  C   UNL     1       6.345   1.411   3.126  1.00  0.00     0.031 C 
ATOM     65  C   UNL     1       1.466   3.208   4.144  1.00  0.00     0.029 A 
ATOM     66  C   UNL     1       2.637   3.960   4.118  1.00  0.00     0.049 A 
ATOM     67  H   UNL     1       2.838   6.021   3.787  1.00  0.00     0.167 HD
ATOM     68  C   UNL     1       4.949   3.131   3.845  1.00  0.00     0.074 A 
ATOM     69  C   UNL     1       5.748   1.963   4.198  1.00  0.00     0.031 C 
ATOM     70  C   UNL     1       3.983   3.720   4.619  1.00  0.00     0.037 A 
BRANCH  57  71
ATOM     71  C   UNL     1      -1.034   7.084   3.099  1.00  0.00     0.064 A 
ATOM     72  C   UNL     1      -1.722   6.706   4.281  1.00  0.00     0.173 A 
ATOM     73  C   UNL     1      -1.784   7.940   2.260  1.00  0.00     0.173 A 
ATOM     74  F   UNL     1      -1.142   5.917   5.196  1.00  0.00    -0.203 F 
ATOM     75  C   UNL     1      -3.028   7.126   4.581  1.00  0.00     0.198 A 
ATOM     76  C   UNL     1      -3.069   8.408   2.590  1.00  0.00     0.198 A 
ATOM     77  F   UNL     1      -1.333   8.331   1.065  1.00  0.00    -0.203 F 
ATOM     78  F   UNL     1      -3.633   6.689   5.696  1.00  0.00    -0.200 F 
ATOM     79  C   UNL     1      -3.698   7.990   3.742  1.00  0.00     0.200 A 
ATOM     80  F   UNL     1      -3.698   9.260   1.765  1.00  0.00    -0.200 F 
ATOM     81  F   UNL     1      -4.935   8.413   4.037  1.00  0.00    -0.200 F 
ENDBRANCH  57  71
BRANCH  58  82
ATOM     82  C   UNL     1       6.883   1.802  -0.528  1.00  0.00     0.064 A 
ATOM     83  C   UNL     1       6.662   0.722  -1.424  1.00  0.00     0.173 A 
ATOM     84  C   UNL     1       7.371   2.992  -1.095  1.00  0.00     0.173 A 
ATOM     85  F   UNL     1       6.233  -0.458  -0.944  1.00  0.00    -0.203 F 
ATOM     86  C   UNL     1       6.607   0.923  -2.805  1.00  0.00     0.198 A 
ATOM     87  C   UNL     1       7.372   3.167  -2.489  1.00  0.00     0.198 A 
ATOM     88  F   UNL     1       7.619   4.056  -0.319  1.00  0.00    -0.203 F 
ATOM     89  F   UNL     1       6.116  -0.038  -3.603  1.00  0.00    -0.200 F 
ATOM     90  C   UNL     1       6.909   2.164  -3.330  1.00  0.00     0.200 A 
ATOM     91  F   UNL     1       7.674   4.364  -3.014  1.00  0.00    -0.200 F 
ATOM     92  F   UNL     1       6.669   2.422  -4.625  1.00  0.00    -0.200 F 
ENDBRANCH  58  82
BRANCH  70  93
ATOM     93  C   UNL     1       4.301   4.211   6.017  1.00  0.00     0.064 A 
ATOM     94  C   UNL     1       5.616   4.319   6.496  1.00  0.00     0.173 A 
ATOM     95  C   UNL     1       3.303   4.808   6.832  1.00  0.00     0.173 A 
ATOM     96  F   UNL     1       6.662   3.881   5.783  1.00  0.00    -0.203 F 
ATOM     97  C   UNL     1       5.908   4.938   7.710  1.00  0.00     0.198 A 
ATOM     98  C   UNL     1       3.608   5.478   8.012  1.00  0.00     0.198 A 
ATOM     99  F   UNL     1       2.006   4.807   6.494  1.00  0.00    -0.203 F 
ATOM    100  F   UNL     1       7.178   4.986   8.132  1.00  0.00    -0.200 F 
ATOM    101  C   UNL     1       4.909   5.529   8.459  1.00  0.00     0.200 A 
ATOM    102  F   UNL     1       2.635   6.098   8.695  1.00  0.00    -0.200 F 
ATOM    103  F   UNL     1       5.205   6.163   9.600  1.00  0.00    -0.200 F 
ENDBRANCH  70  93
ENDBRANCH  44  45
ENDBRANCH  37  39
ENDBRANCH  36  37
ENDBRANCH  35  36
ENDBRANCH  34  35
ENDBRANCH  33  34
ENDBRANCH  32  33
ENDBRANCH  31  32
ENDBRANCH  30  31
ENDBRANCH   1  30
TORSDOF 23
