REMARK SMILES C[C@@H]1CC[C@H](C)[N@H+]1Cc1cc2c(cc1Cl)C=C(C(=O)OCCOCCOCCOCCOC(=O)c1ccc(-c3c4nc(c(-c5c(F)c(F)c(F)c(F)c5F)c5ccc([nH]5)c(-c5c(F)c(F)c(F)c(F)c5F)c5nc(c(-c6c(F)c(F)c(F)c(F)c6F)c6ccc3[nH]6)C=C5)C=C4)cc1)[C@@H](C(F)(F)F)O2
REMARK SMILES IDX 26 1 25 2 24 3 23 4 22 5 21 6 20 7 18 8 19 9 17 10 9 11
REMARK SMILES IDX 10 12 14 13 11 14 13 15 15 16 12 17 103 18 16 19 98 20 8 21
REMARK SMILES IDX 7 22 6 23 5 24 4 25 3 26 2 27 1 29 99 30 100 31 101 32
REMARK SMILES IDX 102 33 27 34 28 35 29 36 30 37 31 38 32 39 33 40 34 41 35 42
REMARK SMILES IDX 36 43 97 44 37 45 96 46 38 47 39 48 40 49 90 50 41 51 95 52
REMARK SMILES IDX 89 53 91 54 42 55 94 56 88 57 87 58 43 60 75 61 55 62 74 63
REMARK SMILES IDX 56 64 59 65 73 66 92 67 57 68 58 69 72 71 93 72 60 73 44 74
REMARK SMILES IDX 45 75 53 76 46 77 47 78 51 79 54 80 48 81 49 82 52 83 50 84
REMARK SMILES IDX 76 85 77 86 85 87 78 88 79 89 83 90 86 91 80 92 81 93 84 94
REMARK SMILES IDX 82 95 61 96 62 97 70 98 63 99 64 100 68 101 71 102 65 103
REMARK SMILES IDX 66 104 69 105 67 106
REMARK H PARENT 7 28 91 59 59 70
REMARK Flexibility Score: inf
ROOT
ATOM      1  O   UNL     1      -8.384   0.577  -0.918  1.00  0.00    -0.377 OA
ENDROOT
BRANCH   1   2
ATOM      2  C   UNL     1      -7.664   1.649  -0.331  1.00  0.00     0.188 C 
BRANCH   2   3
ATOM      3  C   UNL     1      -8.390   3.002  -0.432  1.00  0.00     0.188 C 
BRANCH   3   4
ATOM      4  O   UNL     1      -9.753   2.884  -0.840  1.00  0.00    -0.376 OA
BRANCH   4   5
ATOM      5  C   UNL     1     -10.053   3.264  -2.179  1.00  0.00     0.202 C 
BRANCH   5   6
ATOM      6  C   UNL     1      -9.597   2.277  -3.266  1.00  0.00     0.261 C 
BRANCH   6   7
ATOM      7  O   UNL     1      -8.178   2.055  -3.309  1.00  0.00    -0.460 OA
BRANCH   7   8
ATOM      8  C   UNL     1      -7.418   3.118  -3.632  1.00  0.00     0.338 C 
ATOM      9  O   UNL     1      -7.818   4.206  -4.008  1.00  0.00    -0.246 OA
BRANCH   8  10
ATOM     10  C   UNL     1      -6.011   2.819  -3.299  1.00  0.00     0.087 C 
ATOM     11  C   UNL     1      -1.137   3.191  -2.077  1.00  0.00     0.029 A 
ATOM     12  C   UNL     1      -1.994   2.114  -2.410  1.00  0.00     0.058 A 
ATOM     13  C   UNL     1      -1.708   4.473  -2.001  1.00  0.00     0.050 A 
ATOM     14  C   UNL     1      -3.359   2.314  -2.648  1.00  0.00     0.128 A 
ATOM     15  C   UNL     1      -3.087   4.653  -2.138  1.00  0.00     0.033 A 
ATOM     16  Cl  UNL     1      -0.778   5.926  -1.887  1.00  0.00    -0.084 Cl
ATOM     17  C   UNL     1      -3.909   3.582  -2.482  1.00  0.00     0.019 A 
ATOM     18  O   UNL     1      -4.094   1.230  -3.042  1.00  0.00    -0.475 OA
ATOM     19  C   UNL     1      -5.315   3.815  -2.741  1.00  0.00     0.027 C 
ATOM     20  C   UNL     1      -5.434   1.456  -3.581  1.00  0.00     0.316 C 
BRANCH  11  21
ATOM     21  C   UNL     1       0.347   2.920  -1.882  1.00  0.00     0.301 C 
BRANCH  21  22
ATOM     22  N   UNL     1       0.826   2.667  -0.517  1.00  0.00    -0.327 N 
ATOM     23  C   UNL     1       1.022   0.231  -0.121  1.00  0.00     0.075 C 
ATOM     24  C   UNL     1       0.262   1.513   0.191  1.00  0.00     0.181 C 
ATOM     25  C   UNL     1       0.383   1.881   1.669  1.00  0.00     0.071 C 
ATOM     26  C   UNL     1       0.178   3.381   1.656  1.00  0.00     0.071 C 
ATOM     27  C   UNL     1       0.889   3.821   0.383  1.00  0.00     0.181 C 
ATOM     28  H   UNL     1       1.785   2.416  -0.759  1.00  0.00     0.348 HD
ATOM     29  C   UNL     1       2.352   4.187   0.634  1.00  0.00     0.075 C 
ENDBRANCH  21  22
ENDBRANCH  11  21
BRANCH  20  30
ATOM     30  C   UNL     1      -5.456   1.147  -5.085  1.00  0.00     0.430 C 
ATOM     31  F   UNL     1      -4.902  -0.058  -5.354  1.00  0.00    -0.167 F 
ATOM     32  F   UNL     1      -6.723   1.109  -5.565  1.00  0.00    -0.167 F 
ATOM     33  F   UNL     1      -4.783   2.076  -5.802  1.00  0.00    -0.167 F 
ENDBRANCH  20  30
ENDBRANCH   8  10
ENDBRANCH   7   8
ENDBRANCH   6   7
ENDBRANCH   5   6
ENDBRANCH   4   5
ENDBRANCH   3   4
ENDBRANCH   2   3
ENDBRANCH   1   2
BRANCH   1  34
ATOM     34  C   UNL     1      -9.455   0.003  -0.170  1.00  0.00     0.188 C 
BRANCH  34  35
ATOM     35  C   UNL     1     -10.099   0.720   1.039  1.00  0.00     0.188 C 
BRANCH  35  36
ATOM     36  O   UNL     1      -9.159   1.299   1.939  1.00  0.00    -0.376 OA
BRANCH  36  37
ATOM     37  C   UNL     1      -9.036   0.682   3.214  1.00  0.00     0.202 C 
BRANCH  37  38
ATOM     38  C   UNL     1      -8.156  -0.571   3.198  1.00  0.00     0.261 C 
BRANCH  38  39
ATOM     39  O   UNL     1      -8.657  -1.652   2.397  1.00  0.00    -0.460 OA
BRANCH  39  40
ATOM     40  C   UNL     1      -9.864  -2.168   2.719  1.00  0.00     0.338 C 
ATOM     41  O   UNL     1     -10.581  -1.855   3.651  1.00  0.00    -0.246 OA
BRANCH  40  42
ATOM     42  C   UNL     1     -10.262  -3.053   1.606  1.00  0.00     0.060 A 
ATOM     43  C   UNL     1      -9.392  -4.052   1.160  1.00  0.00     0.016 A 
ATOM     44  C   UNL     1     -11.490  -2.840   0.969  1.00  0.00     0.016 A 
ATOM     45  C   UNL     1      -9.761  -4.853   0.080  1.00  0.00     0.010 A 
ATOM     46  C   UNL     1     -11.853  -3.635  -0.120  1.00  0.00     0.010 A 
ATOM     47  C   UNL     1     -10.997  -4.657  -0.558  1.00  0.00    -0.014 A 
BRANCH  47  48
ATOM     48  C   UNL     1     -11.455  -5.628  -1.576  1.00  0.00     0.031 A 
ATOM     49  C   UNL     1     -11.315  -5.368  -3.042  1.00  0.00     0.074 A 
ATOM     50  C   UNL     1     -11.999  -6.778  -1.140  1.00  0.00     0.049 A 
ATOM     51  N   UNL     1     -11.610  -6.154  -4.047  1.00  0.00    -0.248 NA
ATOM     52  C   UNL     1     -10.779  -4.058  -3.432  1.00  0.00     0.031 C 
ATOM     53  C   UNL     1     -12.183  -7.132   0.268  1.00  0.00     0.029 A 
ATOM     54  N   UNL     1     -12.485  -7.858  -1.828  1.00  0.00    -0.354 N 
ATOM     55  C   UNL     1     -11.267  -5.451  -5.192  1.00  0.00     0.074 A 
ATOM     56  C   UNL     1     -10.791  -4.151  -4.756  1.00  0.00     0.031 C 
ATOM     57  C   UNL     1     -12.720  -8.358   0.341  1.00  0.00     0.029 A 
ATOM     58  C   UNL     1     -12.938  -8.863  -1.012  1.00  0.00     0.049 A 
ATOM     59  H   UNL     1     -12.506  -7.909  -2.811  1.00  0.00     0.167 HD
ATOM     60  C   UNL     1     -11.329  -5.863  -6.482  1.00  0.00     0.037 A 
ATOM     61  C   UNL     1     -13.464 -10.062  -1.318  1.00  0.00     0.037 A 
ATOM     62  C   UNL     1     -11.842  -7.143  -6.908  1.00  0.00     0.049 A 
ATOM     63  C   UNL     1     -13.597 -10.461  -2.758  1.00  0.00     0.074 A 
ATOM     64  C   UNL     1     -11.938  -7.654  -8.192  1.00  0.00     0.029 A 
ATOM     65  N   UNL     1     -12.363  -8.112  -6.060  1.00  0.00    -0.354 N 
ATOM     66  N   UNL     1     -13.233  -9.807  -3.833  1.00  0.00    -0.248 NA
ATOM     67  C   UNL     1     -14.209 -11.768  -3.024  1.00  0.00     0.031 C 
ATOM     68  C   UNL     1     -12.562  -8.905  -8.125  1.00  0.00     0.029 A 
ATOM     69  C   UNL     1     -12.809  -9.202  -6.794  1.00  0.00     0.049 A 
ATOM     70  H   UNL     1     -12.409  -8.036  -5.079  1.00  0.00     0.167 HD
ATOM     71  C   UNL     1     -13.562 -10.624  -4.905  1.00  0.00     0.074 A 
ATOM     72  C   UNL     1     -14.132 -11.834  -4.346  1.00  0.00     0.031 C 
ATOM     73  C   UNL     1     -13.405 -10.389  -6.232  1.00  0.00     0.037 A 
BRANCH  60  74
ATOM     74  C   UNL     1     -10.830  -4.912  -7.532  1.00  0.00     0.064 A 
ATOM     75  C   UNL     1      -9.462  -4.624  -7.666  1.00  0.00     0.173 A 
ATOM     76  C   UNL     1     -11.716  -4.311  -8.440  1.00  0.00     0.173 A 
ATOM     77  F   UNL     1      -8.573  -5.167  -6.820  1.00  0.00    -0.203 F 
ATOM     78  C   UNL     1      -9.004  -3.750  -8.649  1.00  0.00     0.198 A 
ATOM     79  C   UNL     1     -11.251  -3.459  -9.439  1.00  0.00     0.198 A 
ATOM     80  F   UNL     1     -13.032  -4.558  -8.364  1.00  0.00    -0.203 F 
ATOM     81  F   UNL     1      -7.699  -3.458  -8.728  1.00  0.00    -0.200 F 
ATOM     82  C   UNL     1      -9.898  -3.173  -9.538  1.00  0.00     0.200 A 
ATOM     83  F   UNL     1     -12.115  -2.912 -10.306  1.00  0.00    -0.200 F 
ATOM     84  F   UNL     1      -9.456  -2.336 -10.486  1.00  0.00    -0.200 F 
ENDBRANCH  60  74
BRANCH  61  85
ATOM     85  C   UNL     1     -13.851 -10.979  -0.220  1.00  0.00     0.064 A 
ATOM     86  C   UNL     1     -13.074 -12.105   0.074  1.00  0.00     0.173 A 
ATOM     87  C   UNL     1     -14.959 -10.711   0.598  1.00  0.00     0.173 A 
ATOM     88  F   UNL     1     -12.015 -12.406  -0.692  1.00  0.00    -0.203 F 
ATOM     89  C   UNL     1     -13.386 -12.931   1.151  1.00  0.00     0.198 A 
ATOM     90  C   UNL     1     -15.257 -11.525   1.688  1.00  0.00     0.198 A 
ATOM     91  F   UNL     1     -15.727  -9.639   0.358  1.00  0.00    -0.203 F 
ATOM     92  F   UNL     1     -12.635 -14.011   1.403  1.00  0.00    -0.200 F 
ATOM     93  C   UNL     1     -14.471 -12.634   1.963  1.00  0.00     0.200 A 
ATOM     94  F   UNL     1     -16.295 -11.225   2.481  1.00  0.00    -0.200 F 
ATOM     95  F   UNL     1     -14.757 -13.416   3.013  1.00  0.00    -0.200 F 
ENDBRANCH  61  85
BRANCH  73  96
ATOM     96  C   UNL     1     -13.870 -11.466  -7.171  1.00  0.00     0.064 A 
ATOM     97  C   UNL     1     -15.235 -11.737  -7.357  1.00  0.00     0.173 A 
ATOM     98  C   UNL     1     -12.947 -12.229  -7.901  1.00  0.00     0.173 A 
ATOM     99  F   UNL     1     -16.159 -11.048  -6.669  1.00  0.00    -0.203 F 
ATOM    100  C   UNL     1     -15.656 -12.751  -8.213  1.00  0.00     0.198 A 
ATOM    101  C   UNL     1     -13.372 -13.223  -8.780  1.00  0.00     0.198 A 
ATOM    102  F   UNL     1     -11.630 -12.011  -7.765  1.00  0.00    -0.203 F 
ATOM    103  F   UNL     1     -16.962 -13.028  -8.331  1.00  0.00    -0.200 F 
ATOM    104  C   UNL     1     -14.725 -13.489  -8.928  1.00  0.00     0.200 A 
ATOM    105  F   UNL     1     -12.471 -13.928  -9.479  1.00  0.00    -0.200 F 
ATOM    106  F   UNL     1     -15.131 -14.465  -9.752  1.00  0.00    -0.200 F 
ENDBRANCH  73  96
ENDBRANCH  47  48
ENDBRANCH  40  42
ENDBRANCH  39  40
ENDBRANCH  38  39
ENDBRANCH  37  38
ENDBRANCH  36  37
ENDBRANCH  35  36
ENDBRANCH  34  35
ENDBRANCH   1  34
TORSDOF 23
