REMARK SMILES CC(C)N(c1cc2c(cc1Cl)C=C(C(=O)OCCOCCOCCOCCOC(=O)c1ccc(-c3c4nc(c(-c5c(F)c(F)c(F)c(F)c5F)c5ccc([nH]5)c(-c5c(F)c(F)c(F)c(F)c5F)c5nc(c(-c6c(F)c(F)c(F)c(F)c6F)c6ccc3[nH]6)C=C5)C=C4)cc1)[C@@H](C(F)(F)F)O2)C(C)C
REMARK SMILES IDX 22 1 21 2 20 3 19 4 18 5 17 6 16 7 14 8 15 9 13 10 5 11 6 12
REMARK SMILES IDX 10 13 7 14 9 15 11 16 8 17 99 18 12 19 94 20 4 21 2 22 1 23
REMARK SMILES IDX 3 24 100 25 101 26 102 27 95 28 96 29 97 30 98 31 23 32
REMARK SMILES IDX 24 33 25 34 26 35 27 36 28 37 29 38 30 39 31 40 32 41 93 42
REMARK SMILES IDX 33 43 92 44 34 45 35 46 36 47 86 48 37 49 91 50 85 51 87 52
REMARK SMILES IDX 38 53 90 54 84 55 83 56 39 58 71 59 51 60 70 61 52 62 55 63
REMARK SMILES IDX 69 64 88 65 53 66 54 67 68 69 89 70 56 71 40 72 41 73 49 74
REMARK SMILES IDX 42 75 43 76 47 77 50 78 44 79 45 80 48 81 46 82 72 83 73 84
REMARK SMILES IDX 81 85 74 86 75 87 79 88 82 89 76 90 77 91 80 92 78 93 57 94
REMARK SMILES IDX 58 95 66 96 59 97 60 98 64 99 67 100 61 101 62 102 65 103
REMARK SMILES IDX 63 104
REMARK H PARENT 87 57 55 68
REMARK Flexibility Score: inf
ROOT
ATOM      1  O   UNL     1      -5.362   8.012   2.475  1.00  0.00    -0.377 OA
ENDROOT
BRANCH   1   2
ATOM      2  C   UNL     1      -4.255   7.970   1.588  1.00  0.00     0.188 C 
BRANCH   2   3
ATOM      3  C   UNL     1      -4.439   8.875   0.356  1.00  0.00     0.188 C 
BRANCH   3   4
ATOM      4  O   UNL     1      -5.549   9.762   0.480  1.00  0.00    -0.376 OA
BRANCH   4   5
ATOM      5  C   UNL     1      -6.738   9.418  -0.221  1.00  0.00     0.202 C 
BRANCH   5   6
ATOM      6  C   UNL     1      -7.493   8.165   0.250  1.00  0.00     0.261 C 
BRANCH   6   7
ATOM      7  O   UNL     1      -6.724   6.951   0.249  1.00  0.00    -0.460 OA
BRANCH   7   8
ATOM      8  C   UNL     1      -6.318   6.478  -0.945  1.00  0.00     0.338 C 
ATOM      9  O   UNL     1      -6.594   6.934  -2.040  1.00  0.00    -0.246 OA
BRANCH   8  10
ATOM     10  C   UNL     1      -5.335   5.401  -0.702  1.00  0.00     0.087 C 
ATOM     11  C   UNL     1      -1.529   2.101  -1.125  1.00  0.00     0.060 A 
ATOM     12  C   UNL     1      -2.637   2.256  -0.258  1.00  0.00     0.074 A 
ATOM     13  C   UNL     1      -1.259   3.189  -1.989  1.00  0.00     0.065 A 
ATOM     14  C   UNL     1      -3.499   3.357  -0.328  1.00  0.00     0.130 A 
ATOM     15  C   UNL     1      -2.101   4.312  -2.028  1.00  0.00     0.034 A 
ATOM     16  Cl  UNL     1       0.015   3.211  -3.162  1.00  0.00    -0.082 Cl
ATOM     17  C   UNL     1      -3.249   4.372  -1.241  1.00  0.00     0.019 A 
ATOM     18  O   UNL     1      -4.582   3.340   0.505  1.00  0.00    -0.475 OA
ATOM     19  C   UNL     1      -4.216   5.436  -1.436  1.00  0.00     0.027 C 
ATOM     20  C   UNL     1      -5.599   4.375   0.372  1.00  0.00     0.316 C 
BRANCH  11  21
ATOM     21  N   UNL     1      -0.833   0.872  -1.119  1.00  0.00    -0.365 N 
BRANCH  21  22
ATOM     22  C   UNL     1       0.646   0.883  -1.045  1.00  0.00     0.076 C 
ATOM     23  C   UNL     1       1.182   0.241   0.235  1.00  0.00     0.030 C 
ATOM     24  C   UNL     1       1.329   0.267  -2.266  1.00  0.00     0.030 C 
ENDBRANCH  21  22
BRANCH  21  25
ATOM     25  C   UNL     1      -1.678  -0.344  -1.255  1.00  0.00     0.076 C 
ATOM     26  C   UNL     1      -1.493  -1.059  -2.590  1.00  0.00     0.030 C 
ATOM     27  C   UNL     1      -1.549  -1.306  -0.079  1.00  0.00     0.030 C 
ENDBRANCH  21  25
ENDBRANCH  11  21
BRANCH  20  28
ATOM     28  C   UNL     1      -6.965   3.692   0.198  1.00  0.00     0.430 C 
ATOM     29  F   UNL     1      -7.162   2.737   1.138  1.00  0.00    -0.167 F 
ATOM     30  F   UNL     1      -7.990   4.568   0.319  1.00  0.00    -0.167 F 
ATOM     31  F   UNL     1      -7.082   3.102  -1.013  1.00  0.00    -0.167 F 
ENDBRANCH  20  28
ENDBRANCH   8  10
ENDBRANCH   7   8
ENDBRANCH   6   7
ENDBRANCH   5   6
ENDBRANCH   4   5
ENDBRANCH   3   4
ENDBRANCH   2   3
ENDBRANCH   1   2
BRANCH   1  32
ATOM     32  C   UNL     1      -5.435   9.105   3.391  1.00  0.00     0.188 C 
BRANCH  32  33
ATOM     33  C   UNL     1      -4.690  10.437   3.141  1.00  0.00     0.188 C 
BRANCH  33  34
ATOM     34  O   UNL     1      -3.335  10.275   2.730  1.00  0.00    -0.376 OA
BRANCH  34  35
ATOM     35  C   UNL     1      -2.331  10.626   3.672  1.00  0.00     0.202 C 
BRANCH  35  36
ATOM     36  C   UNL     1      -2.097   9.560   4.748  1.00  0.00     0.261 C 
BRANCH  36  37
ATOM     37  O   UNL     1      -3.223   9.301   5.600  1.00  0.00    -0.460 OA
BRANCH  37  38
ATOM     38  C   UNL     1      -3.716  10.331   6.323  1.00  0.00     0.338 C 
ATOM     39  O   UNL     1      -3.280  11.466   6.388  1.00  0.00    -0.246 OA
BRANCH  38  40
ATOM     40  C   UNL     1      -5.013   9.894   6.879  1.00  0.00     0.060 A 
ATOM     41  C   UNL     1      -5.115   8.676   7.555  1.00  0.00     0.016 A 
ATOM     42  C   UNL     1      -6.145  10.696   6.683  1.00  0.00     0.016 A 
ATOM     43  C   UNL     1      -6.349   8.273   8.064  1.00  0.00     0.010 A 
ATOM     44  C   UNL     1      -7.382  10.289   7.190  1.00  0.00     0.010 A 
ATOM     45  C   UNL     1      -7.485   9.086   7.904  1.00  0.00    -0.014 A 
BRANCH  45  46
ATOM     46  C   UNL     1      -8.720   8.755   8.651  1.00  0.00     0.031 A 
ATOM     47  C   UNL     1      -9.889   8.082   8.006  1.00  0.00     0.074 A 
ATOM     48  C   UNL     1      -8.756   9.067   9.960  1.00  0.00     0.049 A 
ATOM     49  N   UNL     1     -10.978   7.618   8.565  1.00  0.00    -0.248 NA
ATOM     50  C   UNL     1      -9.835   7.910   6.548  1.00  0.00     0.031 C 
ATOM     51  C   UNL     1      -7.683   9.750  10.683  1.00  0.00     0.029 A 
ATOM     52  N   UNL     1      -9.713   8.837  10.914  1.00  0.00    -0.354 N 
ATOM     53  C   UNL     1     -11.730   7.070   7.536  1.00  0.00     0.074 A 
ATOM     54  C   UNL     1     -10.996   7.312   6.309  1.00  0.00     0.031 C 
ATOM     55  C   UNL     1      -8.023   9.850  11.976  1.00  0.00     0.029 A 
ATOM     56  C   UNL     1      -9.344   9.257  12.167  1.00  0.00     0.049 A 
ATOM     57  H   UNL     1     -10.580   8.412  10.719  1.00  0.00     0.167 HD
ATOM     58  C   UNL     1     -12.910   6.409   7.620  1.00  0.00     0.037 A 
ATOM     59  C   UNL     1      -9.988   9.160  13.344  1.00  0.00     0.037 A 
ATOM     60  C   UNL     1     -13.644   6.200   8.844  1.00  0.00     0.049 A 
ATOM     61  C   UNL     1     -11.322   8.475  13.399  1.00  0.00     0.074 A 
ATOM     62  C   UNL     1     -14.829   5.509   9.033  1.00  0.00     0.029 A 
ATOM     63  N   UNL     1     -13.273   6.697  10.087  1.00  0.00    -0.354 N 
ATOM     64  N   UNL     1     -11.986   7.886  12.435  1.00  0.00    -0.248 NA
ATOM     65  C   UNL     1     -11.994   8.439  14.704  1.00  0.00     0.031 C 
ATOM     66  C   UNL     1     -15.203   5.634  10.376  1.00  0.00     0.029 A 
ATOM     67  C   UNL     1     -14.225   6.359  11.038  1.00  0.00     0.049 A 
ATOM     68  H   UNL     1     -12.454   7.213  10.266  1.00  0.00     0.167 HD
ATOM     69  C   UNL     1     -13.146   7.396  13.016  1.00  0.00     0.074 A 
ATOM     70  C   UNL     1     -13.086   7.741  14.422  1.00  0.00     0.031 C 
ATOM     71  C   UNL     1     -14.167   6.721  12.433  1.00  0.00     0.037 A 
BRANCH  58  72
ATOM     72  C   UNL     1     -13.484   5.848   6.350  1.00  0.00     0.064 A 
ATOM     73  C   UNL     1     -12.894   4.748   5.709  1.00  0.00     0.173 A 
ATOM     74  C   UNL     1     -14.670   6.364   5.806  1.00  0.00     0.173 A 
ATOM     75  F   UNL     1     -11.759   4.217   6.188  1.00  0.00    -0.203 F 
ATOM     76  C   UNL     1     -13.456   4.201   4.558  1.00  0.00     0.198 A 
ATOM     77  C   UNL     1     -15.244   5.798   4.670  1.00  0.00     0.198 A 
ATOM     78  F   UNL     1     -15.283   7.406   6.386  1.00  0.00    -0.203 F 
ATOM     79  F   UNL     1     -12.854   3.174   3.943  1.00  0.00    -0.200 F 
ATOM     80  C   UNL     1     -14.634   4.722   4.043  1.00  0.00     0.200 A 
ATOM     81  F   UNL     1     -16.392   6.291   4.184  1.00  0.00    -0.200 F 
ATOM     82  F   UNL     1     -15.180   4.187   2.942  1.00  0.00    -0.200 F 
ENDBRANCH  58  72
BRANCH  59  83
ATOM     83  C   UNL     1      -9.330   9.677  14.569  1.00  0.00     0.064 A 
ATOM     84  C   UNL     1      -8.804   8.795  15.522  1.00  0.00     0.173 A 
ATOM     85  C   UNL     1      -9.153  11.052  14.777  1.00  0.00     0.173 A 
ATOM     86  F   UNL     1      -8.961   7.472  15.369  1.00  0.00    -0.203 F 
ATOM     87  C   UNL     1      -8.121   9.271  16.638  1.00  0.00     0.198 A 
ATOM     88  C   UNL     1      -8.450  11.525  15.882  1.00  0.00     0.198 A 
ATOM     89  F   UNL     1      -9.631  11.934  13.887  1.00  0.00    -0.203 F 
ATOM     90  F   UNL     1      -7.640   8.408  17.544  1.00  0.00    -0.200 F 
ATOM     91  C   UNL     1      -7.936  10.634  16.812  1.00  0.00     0.200 A 
ATOM     92  F   UNL     1      -8.256  12.842  16.037  1.00  0.00    -0.200 F 
ATOM     93  F   UNL     1      -7.259  11.090  17.875  1.00  0.00    -0.200 F 
ENDBRANCH  59  83
BRANCH  71  94
ATOM     94  C   UNL     1     -15.315   6.312  13.310  1.00  0.00     0.064 A 
ATOM     95  C   UNL     1     -16.238   7.253  13.789  1.00  0.00     0.173 A 
ATOM     96  C   UNL     1     -15.533   4.961  13.622  1.00  0.00     0.173 A 
ATOM     97  F   UNL     1     -16.065   8.559  13.533  1.00  0.00    -0.203 F 
ATOM     98  C   UNL     1     -17.330   6.858  14.558  1.00  0.00     0.198 A 
ATOM     99  C   UNL     1     -16.641   4.567  14.367  1.00  0.00     0.198 A 
ATOM    100  F   UNL     1     -14.681   4.021  13.185  1.00  0.00    -0.203 F 
ATOM    101  F   UNL     1     -18.180   7.779  15.034  1.00  0.00    -0.200 F 
ATOM    102  C   UNL     1     -17.536   5.516  14.838  1.00  0.00     0.200 A 
ATOM    103  F   UNL     1     -16.845   3.268  14.626  1.00  0.00    -0.200 F 
ATOM    104  F   UNL     1     -18.596   5.136  15.564  1.00  0.00    -0.200 F 
ENDBRANCH  71  94
ENDBRANCH  45  46
ENDBRANCH  38  40
ENDBRANCH  37  38
ENDBRANCH  36  37
ENDBRANCH  35  36
ENDBRANCH  34  35
ENDBRANCH  33  34
ENDBRANCH  32  33
ENDBRANCH   1  32
TORSDOF 24
