REMARK SMILES O=C(CCNC(=O)C1CCCCC1)OCCOCCOCCOCCOC(=O)c1ccc(-c2c3nc(c(-c4c(F)c(F)c(F)c(F)c4F)c4ccc([nH]4)c(-c4c(F)c(F)c(F)c(F)c4F)c4nc(c(-c5c(F)c(F)c(F)c(F)c5F)c5ccc2[nH]5)C=C4)C=C3)cc1
REMARK SMILES IDX 19 1 18 2 17 3 16 4 15 5 14 6 2 7 1 8 3 9 4 10 5 11 6 12
REMARK SMILES IDX 7 14 8 15 9 16 13 17 10 18 12 19 11 20 20 21 21 22 22 23
REMARK SMILES IDX 23 24 24 25 25 26 26 27 27 28 28 29 29 30 30 31 91 32 31 33
REMARK SMILES IDX 90 34 32 35 33 36 34 37 84 38 35 39 89 40 83 41 85 42 36 43
REMARK SMILES IDX 88 44 82 45 81 46 37 48 69 49 49 50 68 51 50 52 53 53 67 54
REMARK SMILES IDX 86 55 51 56 52 57 66 59 87 60 54 61 38 62 39 63 47 64 40 65
REMARK SMILES IDX 41 66 45 67 48 68 42 69 43 70 46 71 44 72 70 73 71 74 79 75
REMARK SMILES IDX 72 76 73 77 77 78 80 79 74 80 75 81 78 82 76 83 55 84 56 85
REMARK SMILES IDX 64 86 57 87 58 88 62 89 65 90 59 91 60 92 63 93 61 94
REMARK H PARENT 5 13 85 47 53 58
REMARK Flexibility Score: inf
ROOT
ATOM      1  C   UNL     1       1.868  -0.323   2.402  1.00  0.00     0.188 C 
ENDROOT
BRANCH   1   2
ATOM      2  C   UNL     1       2.364  -1.150   1.215  1.00  0.00     0.188 C 
BRANCH   2   3
ATOM      3  O   UNL     1       3.748  -1.103   0.918  1.00  0.00    -0.376 OA
BRANCH   3   4
ATOM      4  C   UNL     1       4.429   0.045   0.459  1.00  0.00     0.202 C 
BRANCH   4   5
ATOM      5  C   UNL     1       3.710   1.339   0.135  1.00  0.00     0.261 C 
BRANCH   5   6
ATOM      6  O   UNL     1       2.472   1.284  -0.603  1.00  0.00    -0.463 OA
BRANCH   6   7
ATOM      7  C   UNL     1       2.171   0.699  -1.777  1.00  0.00     0.307 C 
ATOM      8  O   UNL     1       1.176   1.073  -2.395  1.00  0.00    -0.252 OA
BRANCH   7   9
ATOM      9  C   UNL     1       2.973  -0.464  -2.288  1.00  0.00     0.144 C 
BRANCH   9  10
ATOM     10  C   UNL     1       4.017  -0.084  -3.327  1.00  0.00     0.127 C 
BRANCH  10  11
ATOM     11  N   UNL     1       5.158   0.610  -2.760  1.00  0.00    -0.355 N 
ATOM     12  C   UNL     1       6.373   0.158  -2.338  1.00  0.00     0.223 C 
ATOM     13  H   UNL     1       5.033   1.582  -2.663  1.00  0.00     0.163 HD
ATOM     14  O   UNL     1       7.075   0.977  -1.740  1.00  0.00    -0.275 OA
BRANCH  12  15
ATOM     15  C   UNL     1       6.837  -1.281  -2.603  1.00  0.00     0.078 C 
ATOM     16  C   UNL     1       8.324  -1.411  -2.214  1.00  0.00     0.013 C 
ATOM     17  C   UNL     1       6.051  -2.371  -1.861  1.00  0.00     0.013 C 
ATOM     18  C   UNL     1       8.883  -2.794  -2.533  1.00  0.00     0.001 C 
ATOM     19  C   UNL     1       6.579  -3.768  -2.194  1.00  0.00     0.001 C 
ATOM     20  C   UNL     1       8.064  -3.903  -1.882  1.00  0.00     0.000 C 
ENDBRANCH  12  15
ENDBRANCH  10  11
ENDBRANCH   9  10
ENDBRANCH   7   9
ENDBRANCH   6   7
ENDBRANCH   5   6
ENDBRANCH   4   5
ENDBRANCH   3   4
ENDBRANCH   2   3
ENDBRANCH   1   2
BRANCH   1  21
ATOM     21  O   UNL     1       2.485  -0.586   3.657  1.00  0.00    -0.377 OA
BRANCH  21  22
ATOM     22  C   UNL     1       3.888  -0.349   3.697  1.00  0.00     0.188 C 
BRANCH  22  23
ATOM     23  C   UNL     1       4.735  -1.628   3.532  1.00  0.00     0.188 C 
BRANCH  23  24
ATOM     24  O   UNL     1       3.958  -2.783   3.229  1.00  0.00    -0.376 OA
BRANCH  24  25
ATOM     25  C   UNL     1       3.717  -3.667   4.319  1.00  0.00     0.202 C 
BRANCH  25  26
ATOM     26  C   UNL     1       2.778  -3.137   5.414  1.00  0.00     0.261 C 
BRANCH  26  27
ATOM     27  O   UNL     1       3.239  -1.968   6.119  1.00  0.00    -0.460 OA
BRANCH  27  28
ATOM     28  C   UNL     1       4.426  -2.037   6.753  1.00  0.00     0.338 C 
ATOM     29  O   UNL     1       5.126  -3.023   6.908  1.00  0.00    -0.246 OA
BRANCH  28  30
ATOM     30  C   UNL     1       4.866  -0.653   7.045  1.00  0.00     0.060 A 
ATOM     31  C   UNL     1       6.170  -0.280   6.686  1.00  0.00     0.016 A 
ATOM     32  C   UNL     1       4.000   0.282   7.622  1.00  0.00     0.016 A 
ATOM     33  C   UNL     1       6.634   1.004   6.973  1.00  0.00     0.010 A 
ATOM     34  C   UNL     1       4.471   1.562   7.929  1.00  0.00     0.010 A 
ATOM     35  C   UNL     1       5.808   1.905   7.660  1.00  0.00    -0.014 A 
BRANCH  35  36
ATOM     36  C   UNL     1       6.445   3.032   8.384  1.00  0.00     0.031 A 
ATOM     37  C   UNL     1       6.874   2.774   9.806  1.00  0.00     0.074 A 
ATOM     38  C   UNL     1       6.698   4.218   7.806  1.00  0.00     0.049 A 
ATOM     39  N   UNL     1       7.497   3.556  10.649  1.00  0.00    -0.248 NA
ATOM     40  C   UNL     1       6.553   1.442  10.349  1.00  0.00     0.031 C 
ATOM     41  C   UNL     1       6.368   4.583   6.431  1.00  0.00     0.029 A 
ATOM     42  N   UNL     1       7.305   5.339   8.317  1.00  0.00    -0.354 N 
ATOM     43  C   UNL     1       7.641   2.811  11.813  1.00  0.00     0.074 A 
ATOM     44  C   UNL     1       7.007   1.533  11.587  1.00  0.00     0.031 C 
ATOM     45  C   UNL     1       6.780   5.844   6.206  1.00  0.00     0.029 A 
ATOM     46  C   UNL     1       7.387   6.379   7.425  1.00  0.00     0.049 A 
ATOM     47  H   UNL     1       7.650   5.392   9.238  1.00  0.00     0.167 HD
ATOM     48  C   UNL     1       8.259   3.152  12.967  1.00  0.00     0.037 A 
ATOM     49  C   UNL     1       7.896   7.618   7.583  1.00  0.00     0.037 A 
ATOM     50  C   UNL     1       8.886   4.423  13.199  1.00  0.00     0.049 A 
ATOM     51  C   UNL     1       8.526   7.998   8.903  1.00  0.00     0.074 A 
ATOM     52  C   UNL     1       9.548   4.866  14.329  1.00  0.00     0.029 A 
ATOM     53  N   UNL     1       8.919   5.461  12.280  1.00  0.00    -0.354 N 
ATOM     54  N   UNL     1       8.696   7.274   9.983  1.00  0.00    -0.248 NA
ATOM     55  C   UNL     1       9.046   9.368   9.016  1.00  0.00     0.031 C 
ATOM     56  C   UNL     1       9.937   6.192  14.113  1.00  0.00     0.029 A 
ATOM     57  C   UNL     1       9.572   6.553  12.826  1.00  0.00     0.049 A 
ATOM     58  H   UNL     1       8.535   5.426  11.374  1.00  0.00     0.167 HD
ATOM     59  C   UNL     1       9.383   8.082  10.883  1.00  0.00     0.074 A 
ATOM     60  C   UNL     1       9.600   9.351  10.220  1.00  0.00     0.031 C 
ATOM     61  C   UNL     1       9.802   7.799  12.142  1.00  0.00     0.037 A 
BRANCH  48  62
ATOM     62  C   UNL     1       8.249   2.140  14.075  1.00  0.00     0.064 A 
ATOM     63  C   UNL     1       8.999   0.956  14.002  1.00  0.00     0.173 A 
ATOM     64  C   UNL     1       7.472   2.356  15.222  1.00  0.00     0.173 A 
ATOM     65  F   UNL     1       9.739   0.691  12.914  1.00  0.00    -0.203 F 
ATOM     66  C   UNL     1       8.948   0.012  15.024  1.00  0.00     0.198 A 
ATOM     67  C   UNL     1       7.449   1.425  16.256  1.00  0.00     0.198 A 
ATOM     68  F   UNL     1       6.733   3.469  15.339  1.00  0.00    -0.203 F 
ATOM     69  F   UNL     1       9.627  -1.138  14.907  1.00  0.00    -0.200 F 
ATOM     70  C   UNL     1       8.179   0.251  16.153  1.00  0.00     0.200 A 
ATOM     71  F   UNL     1       6.711   1.661  17.350  1.00  0.00    -0.200 F 
ATOM     72  F   UNL     1       8.131  -0.658  17.137  1.00  0.00    -0.200 F 
ENDBRANCH  48  62
BRANCH  49  73
ATOM     73  C   UNL     1       7.856   8.595   6.463  1.00  0.00     0.064 A 
ATOM     74  C   UNL     1       9.033   9.023   5.832  1.00  0.00     0.173 A 
ATOM     75  C   UNL     1       6.645   9.155   6.028  1.00  0.00     0.173 A 
ATOM     76  F   UNL     1      10.219   8.541   6.231  1.00  0.00    -0.203 F 
ATOM     77  C   UNL     1       9.004   9.990   4.828  1.00  0.00     0.198 A 
ATOM     78  C   UNL     1       6.615  10.101   5.005  1.00  0.00     0.198 A 
ATOM     79  F   UNL     1       5.491   8.786   6.601  1.00  0.00    -0.203 F 
ATOM     80  F   UNL     1      10.150  10.420   4.282  1.00  0.00    -0.200 F 
ATOM     81  C   UNL     1       7.795  10.524   4.412  1.00  0.00     0.200 A 
ATOM     82  F   UNL     1       5.443  10.610   4.600  1.00  0.00    -0.200 F 
ATOM     83  F   UNL     1       7.767  11.456   3.449  1.00  0.00    -0.200 F 
ENDBRANCH  49  73
BRANCH  61  84
ATOM     84  C   UNL     1      10.599   8.849  12.862  1.00  0.00     0.064 A 
ATOM     85  C   UNL     1      10.017  10.037  13.327  1.00  0.00     0.173 A 
ATOM     86  C   UNL     1      11.962   8.639  13.126  1.00  0.00     0.173 A 
ATOM     87  F   UNL     1       8.721  10.291  13.094  1.00  0.00    -0.203 F 
ATOM     88  C   UNL     1      10.778  10.992  13.998  1.00  0.00     0.198 A 
ATOM     89  C   UNL     1      12.711   9.579  13.827  1.00  0.00     0.198 A 
ATOM     90  F   UNL     1      12.565   7.513  12.715  1.00  0.00    -0.203 F 
ATOM     91  F   UNL     1      10.214  12.144  14.385  1.00  0.00    -0.200 F 
ATOM     92  C   UNL     1      12.122  10.759  14.253  1.00  0.00     0.200 A 
ATOM     93  F   UNL     1      14.005   9.344  14.088  1.00  0.00    -0.200 F 
ATOM     94  F   UNL     1      12.851  11.677  14.904  1.00  0.00    -0.200 F 
ENDBRANCH  61  84
ENDBRANCH  35  36
ENDBRANCH  28  30
ENDBRANCH  27  28
ENDBRANCH  26  27
ENDBRANCH  25  26
ENDBRANCH  24  25
ENDBRANCH  23  24
ENDBRANCH  22  23
ENDBRANCH  21  22
ENDBRANCH   1  21
TORSDOF 23
