REMARK SMILES O=C(NC(=S)Nc1ccccc1C(=O)OCCOCCOCCOCCOC(=O)c1ccc(-c2c3nc(c(-c4c(F)c(F)c(F)c(F)c4F)c4ccc([nH]4)c(-c4c(F)c(F)c(F)c(F)c4F)c4nc(c(-c5c(F)c(F)c(F)c(F)c5F)c5ccc2[nH]5)C=C4)C=C3)cc1)c1ccc2ccccc2c1
REMARK SMILES IDX 20 1 19 2 18 3 17 4 16 5 15 6 13 7 14 8 12 9 7 10 8 11 9 12
REMARK SMILES IDX 11 13 10 14 6 15 4 17 5 18 3 19 1 20 2 21 93 23 94 24 102 25
REMARK SMILES IDX 95 26 101 27 96 28 100 29 97 30 99 31 98 32 21 33 22 34
REMARK SMILES IDX 23 35 24 36 25 37 26 38 27 39 28 40 29 41 30 42 31 43 92 44
REMARK SMILES IDX 32 45 91 46 33 47 34 48 35 49 85 50 36 51 90 52 84 53 86 54
REMARK SMILES IDX 37 55 89 56 83 57 82 58 38 60 70 61 50 62 69 63 51 64 54 65
REMARK SMILES IDX 68 66 87 67 52 68 53 69 67 71 88 72 55 73 39 74 40 75 48 76
REMARK SMILES IDX 41 77 42 78 46 79 49 80 43 81 44 82 47 83 45 84 71 85 72 86
REMARK SMILES IDX 80 87 73 88 74 89 78 90 81 91 75 92 76 93 79 94 77 95 56 96
REMARK SMILES IDX 57 97 65 98 58 99 59 100 63 101 66 102 60 103 61 104 64 105
REMARK SMILES IDX 62 106
REMARK H PARENT 6 16 3 22 86 59 54 70
REMARK Flexibility Score: inf
ROOT
ATOM      1  C   UNL     1       4.282  -3.630  -1.209  1.00  0.00     0.188 C 
ENDROOT
BRANCH   1   2
ATOM      2  C   UNL     1       2.764  -3.834  -1.457  1.00  0.00     0.188 C 
BRANCH   2   3
ATOM      3  O   UNL     1       2.188  -3.578  -2.723  1.00  0.00    -0.376 OA
BRANCH   3   4
ATOM      4  C   UNL     1       1.952  -2.311  -3.307  1.00  0.00     0.202 C 
BRANCH   4   5
ATOM      5  C   UNL     1       2.265  -0.946  -2.687  1.00  0.00     0.261 C 
BRANCH   5   6
ATOM      6  O   UNL     1       3.250  -0.927  -1.655  1.00  0.00    -0.460 OA
BRANCH   6   7
ATOM      7  C   UNL     1       2.698  -1.146  -0.453  1.00  0.00     0.340 C 
ATOM      8  O   UNL     1       1.496  -1.308  -0.263  1.00  0.00    -0.246 OA
BRANCH   7   9
ATOM      9  C   UNL     1       3.633  -1.183   0.724  1.00  0.00     0.083 A 
ATOM     10  C   UNL     1       4.857   0.350   0.931  1.00  0.00     0.055 A 
ATOM     11  C   UNL     1       5.052   1.164   2.762  1.00  0.00     0.027 A 
ATOM     12  C   UNL     1       3.968   0.252   4.139  1.00  0.00     0.002 A 
ATOM     13  C   UNL     1       2.556  -2.081   2.115  1.00  0.00     0.018 A 
ATOM     14  C   UNL     1       2.756  -1.284   3.941  1.00  0.00     0.001 A 
BRANCH  10  15
ATOM     15  N   UNL     1       5.115   1.178  -0.154  1.00  0.00    -0.332 N 
ATOM     16  H   UNL     1       6.053   1.372  -0.382  1.00  0.00     0.169 HD
BRANCH  15  17
ATOM     17  C   UNL     1       4.144   1.728  -0.911  1.00  0.00     0.177 C 
ATOM     18  S   UNL     1       4.562   2.370  -2.400  1.00  0.00    -0.040 S 
BRANCH  17  19
ATOM     19  N   UNL     1       2.821   1.815  -0.464  1.00  0.00    -0.299 N 
ATOM     20  O   UNL     1       0.758   1.997   0.483  1.00  0.00    -0.269 OA
ATOM     21  C   UNL     1       1.904   1.554   0.620  1.00  0.00     0.257 C 
ATOM     22  H   UNL     1       2.298   2.224  -1.191  1.00  0.00     0.172 HD
BRANCH  21  23
ATOM     23  C   UNL     1       2.150   0.799   1.921  1.00  0.00     0.040 A 
ATOM     24  C   UNL     1       3.396   0.566   2.102  1.00  0.00     0.014 A 
ATOM     25  C   UNL     1       2.822  -0.268   2.349  1.00  0.00     0.022 A 
ATOM     26  C   UNL     1       4.965  -0.671   2.518  1.00  0.00     0.009 A 
ATOM     27  C   UNL     1       4.254  -1.695   2.826  1.00  0.00    -0.018 A 
ATOM     28  C   UNL     1       5.516  -1.756   2.846  1.00  0.00    -0.018 A 
ATOM     29  C   UNL     1       4.355  -3.261   3.326  1.00  0.00     0.009 A 
ATOM     30  C   UNL     1       6.422  -1.960   3.938  1.00  0.00     0.009 A 
ATOM     31  C   UNL     1       5.442  -4.003   3.935  1.00  0.00     0.001 A 
ATOM     32  C   UNL     1       6.515  -3.253   4.339  1.00  0.00     0.001 A 
ENDBRANCH  21  23
ENDBRANCH  17  19
ENDBRANCH  15  17
ENDBRANCH  10  15
ENDBRANCH   7   9
ENDBRANCH   6   7
ENDBRANCH   5   6
ENDBRANCH   4   5
ENDBRANCH   3   4
ENDBRANCH   2   3
ENDBRANCH   1   2
BRANCH   1  33
ATOM     33  O   UNL     1       5.024  -2.765  -2.035  1.00  0.00    -0.377 OA
BRANCH  33  34
ATOM     34  C   UNL     1       5.081  -3.020  -3.427  1.00  0.00     0.188 C 
BRANCH  34  35
ATOM     35  C   UNL     1       4.567  -4.338  -4.066  1.00  0.00     0.188 C 
BRANCH  35  36
ATOM     36  O   UNL     1       4.138  -5.379  -3.220  1.00  0.00    -0.376 OA
BRANCH  36  37
ATOM     37  C   UNL     1       4.986  -6.378  -2.697  1.00  0.00     0.202 C 
BRANCH  37  38
ATOM     38  C   UNL     1       6.493  -6.190  -2.458  1.00  0.00     0.261 C 
BRANCH  38  39
ATOM     39  O   UNL     1       7.157  -5.156  -3.185  1.00  0.00    -0.460 OA
BRANCH  39  40
ATOM     40  C   UNL     1       7.429  -5.421  -4.482  1.00  0.00     0.338 C 
ATOM     41  O   UNL     1       7.154  -6.431  -5.103  1.00  0.00    -0.246 OA
BRANCH  40  42
ATOM     42  C   UNL     1       7.959  -4.181  -5.087  1.00  0.00     0.060 A 
ATOM     43  C   UNL     1       7.232  -3.519  -6.091  1.00  0.00     0.016 A 
ATOM     44  C   UNL     1       9.178  -3.674  -4.643  1.00  0.00     0.016 A 
ATOM     45  C   UNL     1       7.733  -2.357  -6.673  1.00  0.00     0.010 A 
ATOM     46  C   UNL     1       9.704  -2.542  -5.261  1.00  0.00     0.010 A 
ATOM     47  C   UNL     1       9.002  -1.906  -6.303  1.00  0.00    -0.014 A 
BRANCH  47  48
ATOM     48  C   UNL     1       9.732  -0.954  -7.167  1.00  0.00     0.031 A 
ATOM     49  C   UNL     1      10.748  -1.525  -8.116  1.00  0.00     0.074 A 
ATOM     50  C   UNL     1       9.528   0.371  -7.096  1.00  0.00     0.049 A 
ATOM     51  N   UNL     1      11.655  -0.916  -8.832  1.00  0.00    -0.248 NA
ATOM     52  C   UNL     1      10.749  -2.992  -8.259  1.00  0.00     0.031 C 
ATOM     53  C   UNL     1       8.522   1.034  -6.271  1.00  0.00     0.029 A 
ATOM     54  N   UNL     1      10.189   1.400  -7.719  1.00  0.00    -0.354 N 
ATOM     55  C   UNL     1      12.341  -1.924  -9.496  1.00  0.00     0.074 A 
ATOM     56  C   UNL     1      11.780  -3.184  -9.065  1.00  0.00     0.031 C 
ATOM     57  C   UNL     1       8.651   2.365  -6.417  1.00  0.00     0.029 A 
ATOM     58  C   UNL     1       9.780   2.643  -7.304  1.00  0.00     0.049 A 
ATOM     59  H   UNL     1      10.889   1.260  -8.397  1.00  0.00     0.167 HD
ATOM     60  C   UNL     1      13.344  -1.804 -10.396  1.00  0.00     0.037 A 
ATOM     61  C   UNL     1      10.294   3.857  -7.582  1.00  0.00     0.037 A 
ATOM     62  C   UNL     1      13.904  -0.546 -10.807  1.00  0.00     0.049 A 
ATOM     63  C   UNL     1      11.500   3.956  -8.490  1.00  0.00     0.074 A 
ATOM     64  C   UNL     1      14.933  -0.311 -11.700  1.00  0.00     0.029 A 
ATOM     65  N   UNL     1      13.482   0.692 -10.344  1.00  0.00    -0.354 N 
ATOM     66  N   UNL     1      12.152   3.005  -9.116  1.00  0.00    -0.248 NA
ATOM     67  C   UNL     1      12.043   5.302  -8.729  1.00  0.00     0.031 C 
ATOM     68  C   UNL     1      15.180   1.063 -11.726  1.00  0.00     0.029 A 
ATOM     69  C   UNL     1      14.246   1.692 -10.919  1.00  0.00     0.049 A 
ATOM     70  H   UNL     1      12.749   0.836  -9.703  1.00  0.00     0.167 HD
ATOM     71  C   UNL     1      13.135   3.642  -9.866  1.00  0.00     0.074 A 
ATOM     72  C   UNL     1      12.995   5.060  -9.617  1.00  0.00     0.031 C 
ATOM     73  C   UNL     1      14.066   3.103 -10.691  1.00  0.00     0.037 A 
BRANCH  60  74
ATOM     74  C   UNL     1      13.912  -3.066 -10.978  1.00  0.00     0.064 A 
ATOM     75  C   UNL     1      13.163  -3.881 -11.840  1.00  0.00     0.173 A 
ATOM     76  C   UNL     1      15.236  -3.443 -10.704  1.00  0.00     0.173 A 
ATOM     77  F   UNL     1      11.889  -3.572 -12.125  1.00  0.00    -0.203 F 
ATOM     78  C   UNL     1      13.708  -5.041 -12.382  1.00  0.00     0.198 A 
ATOM     79  C   UNL     1      15.790  -4.583 -11.280  1.00  0.00     0.198 A 
ATOM     80  F   UNL     1      15.998  -2.699  -9.889  1.00  0.00    -0.203 F 
ATOM     81  F   UNL     1      12.955  -5.833 -13.159  1.00  0.00    -0.200 F 
ATOM     82  C   UNL     1      15.024  -5.386 -12.111  1.00  0.00     0.200 A 
ATOM     83  F   UNL     1      17.068  -4.902 -11.032  1.00  0.00    -0.200 F 
ATOM     84  F   UNL     1      15.551  -6.495 -12.645  1.00  0.00    -0.200 F 
ENDBRANCH  60  74
BRANCH  61  85
ATOM     85  C   UNL     1       9.701   5.087  -6.988  1.00  0.00     0.064 A 
ATOM     86  C   UNL     1       9.146   6.083  -7.805  1.00  0.00     0.173 A 
ATOM     87  C   UNL     1       9.742   5.331  -5.606  1.00  0.00     0.173 A 
ATOM     88  F   UNL     1       9.102   5.910  -9.134  1.00  0.00    -0.203 F 
ATOM     89  C   UNL     1       8.705   7.292  -7.271  1.00  0.00     0.198 A 
ATOM     90  C   UNL     1       9.260   6.523  -5.069  1.00  0.00     0.198 A 
ATOM     91  F   UNL     1      10.264   4.416  -4.776  1.00  0.00    -0.203 F 
ATOM     92  F   UNL     1       8.265   8.260  -8.088  1.00  0.00    -0.200 F 
ATOM     93  C   UNL     1       8.759   7.510  -5.904  1.00  0.00     0.200 A 
ATOM     94  F   UNL     1       9.302   6.724  -3.745  1.00  0.00    -0.200 F 
ATOM     95  F   UNL     1       8.350   8.679  -5.393  1.00  0.00    -0.200 F 
ENDBRANCH  61  85
BRANCH  73  96
ATOM     96  C   UNL     1      14.951   4.041 -11.466  1.00  0.00     0.064 A 
ATOM     97  C   UNL     1      15.944   4.816 -10.851  1.00  0.00     0.173 A 
ATOM     98  C   UNL     1      14.845   4.102 -12.866  1.00  0.00     0.173 A 
ATOM     99  F   UNL     1      16.083   4.803  -9.517  1.00  0.00    -0.203 F 
ATOM    100  C   UNL     1      16.781   5.636 -11.606  1.00  0.00     0.198 A 
ATOM    101  C   UNL     1      15.711   4.889 -13.620  1.00  0.00     0.198 A 
ATOM    102  F   UNL     1      13.919   3.373 -13.508  1.00  0.00    -0.203 F 
ATOM    103  F   UNL     1      17.691   6.406 -10.993  1.00  0.00    -0.200 F 
ATOM    104  C   UNL     1      16.672   5.661 -12.989  1.00  0.00     0.200 A 
ATOM    105  F   UNL     1      15.619   4.891 -14.957  1.00  0.00    -0.200 F 
ATOM    106  F   UNL     1      17.494   6.433 -13.713  1.00  0.00    -0.200 F 
ENDBRANCH  73  96
ENDBRANCH  47  48
ENDBRANCH  40  42
ENDBRANCH  39  40
ENDBRANCH  38  39
ENDBRANCH  37  38
ENDBRANCH  36  37
ENDBRANCH  35  36
ENDBRANCH  34  35
ENDBRANCH  33  34
ENDBRANCH   1  33
TORSDOF 24
