REMARK SMILES CC1(C)O[C@H]2CC3[C@@H]4CCC5=CC(=O)C=C[C@]5(C)[C@@]4(F)[C@H](O)C[C@@]3(C)[C@@]2(C(=O)OCCOCCOCCOCCOC(=O)c2ccc(-c3c4nc(c(-c5c(F)c(F)c(F)c(F)c5F)c5ccc([nH]5)c(-c5c(F)c(F)c(F)c(F)c5F)c5nc(c(-c6c(F)c(F)c(F)c(F)c6F)c6ccc3[nH]6)C=C5)C=C4)cc2)O1
REMARK SMILES IDX 36 1 35 2 34 3 33 4 32 5 31 6 30 7 29 8 27 9 28 10 26 11
REMARK SMILES IDX 1 12 2 13 3 14 4 15 107 16 5 17 6 18 24 19 7 20 23 21 25 22
REMARK SMILES IDX 8 23 21 24 9 25 19 26 10 27 17 28 20 29 11 30 16 31 18 32
REMARK SMILES IDX 12 33 15 34 13 35 14 36 22 37 37 39 38 40 39 41 40 42 41 43
REMARK SMILES IDX 42 44 43 45 44 46 45 47 106 48 46 49 105 50 47 51 48 52
REMARK SMILES IDX 49 53 99 54 50 55 104 56 98 57 100 58 51 59 103 60 97 61
REMARK SMILES IDX 96 62 52 64 84 65 64 66 83 67 65 68 68 69 82 70 101 71 66 72
REMARK SMILES IDX 67 73 81 75 102 76 69 77 53 78 54 79 62 80 55 81 56 82 60 83
REMARK SMILES IDX 63 84 57 85 58 86 61 87 59 88 85 89 86 90 94 91 87 92 88 93
REMARK SMILES IDX 92 94 95 95 89 96 90 97 93 98 91 99 70 100 71 101 79 102
REMARK SMILES IDX 72 103 73 104 77 105 80 106 74 107 75 108 78 109 76 110
REMARK H PARENT 22 38 100 63 68 74
REMARK Flexibility Score: inf
ROOT
ATOM      1  C   UNL     1       4.227   3.495  -4.737  1.00  0.00     0.188 C 
ENDROOT
BRANCH   1   2
ATOM      2  O   UNL     1       2.921   3.682  -4.219  1.00  0.00    -0.377 OA
BRANCH   2   3
ATOM      3  C   UNL     1       2.207   2.477  -4.011  1.00  0.00     0.188 C 
BRANCH   3   4
ATOM      4  C   UNL     1       1.177   2.139  -5.118  1.00  0.00     0.188 C 
BRANCH   4   5
ATOM      5  O   UNL     1       0.945   3.029  -6.205  1.00  0.00    -0.376 OA
BRANCH   5   6
ATOM      6  C   UNL     1       0.983   4.428  -5.983  1.00  0.00     0.202 C 
BRANCH   6   7
ATOM      7  C   UNL     1       0.161   5.038  -4.842  1.00  0.00     0.261 C 
BRANCH   7   8
ATOM      8  O   UNL     1      -0.002   4.222  -3.680  1.00  0.00    -0.461 OA
BRANCH   8   9
ATOM      9  C   UNL     1      -1.155   3.506  -3.530  1.00  0.00     0.341 C 
ATOM     10  O   UNL     1      -2.061   3.451  -4.346  1.00  0.00    -0.249 OA
BRANCH   9  11
ATOM     11  C   UNL     1      -1.154   2.853  -2.138  1.00  0.00     0.200 C 
ATOM     12  C   UNL     1       0.185   0.056  -0.447  1.00  0.00     0.075 C 
ATOM     13  C   UNL     1      -0.369   0.654  -1.758  1.00  0.00     0.165 C 
ATOM     14  C   UNL     1       0.225  -0.192  -2.879  1.00  0.00     0.075 C 
ATOM     15  O   UNL     1      -1.789   0.549  -1.811  1.00  0.00    -0.344 OA
ATOM     16  O   UNL     1       0.020   2.035  -1.889  1.00  0.00    -0.329 OA
ATOM     17  C   UNL     1      -2.335   1.882  -1.831  1.00  0.00     0.166 C 
ATOM     18  C   UNL     1      -2.831   2.223  -0.367  1.00  0.00     0.040 C 
ATOM     19  C   UNL     1      -1.337   3.994  -1.036  1.00  0.00     0.016 C 
ATOM     20  C   UNL     1      -1.648   3.051   0.145  1.00  0.00     0.008 C 
ATOM     21  C   UNL     1      -0.200   4.980  -0.735  1.00  0.00     0.046 C 
ATOM     22  C   UNL     1      -2.536   4.901  -1.466  1.00  0.00     0.015 C 
ATOM     23  C   UNL     1      -0.888   3.071   1.484  1.00  0.00     0.035 C 
ATOM     24  C   UNL     1       0.772   4.595   0.362  1.00  0.00     0.154 C 
ATOM     25  C   UNL     1      -1.647   2.628   2.719  1.00  0.00     0.012 C 
ATOM     26  C   UNL     1       0.063   4.257   1.710  1.00  0.00     0.152 C 
ATOM     27  C   UNL     1      -0.615   2.081   3.714  1.00  0.00     0.032 C 
ATOM     28  C   UNL     1       1.088   3.937   2.888  1.00  0.00     0.044 C 
ATOM     29  F   UNL     1      -0.711   5.331   2.063  1.00  0.00    -0.239 F 
ATOM     30  C   UNL     1       0.490   3.063   4.021  1.00  0.00    -0.053 C 
ATOM     31  C   UNL     1       1.656   5.215   3.505  1.00  0.00    -0.009 C 
ATOM     32  C   UNL     1       2.313   3.141   2.335  1.00  0.00     0.024 C 
ATOM     33  C   UNL     1       1.014   3.096   5.263  1.00  0.00     0.052 C 
ATOM     34  C   UNL     1       2.163   5.264   4.745  1.00  0.00     0.048 C 
ATOM     35  C   UNL     1       2.078   4.068   5.608  1.00  0.00     0.178 C 
ATOM     36  O   UNL     1       2.801   3.917   6.582  1.00  0.00    -0.290 OA
BRANCH  24  37
ATOM     37  O   UNL     1       1.683   5.692   0.503  1.00  0.00    -0.390 OA
ATOM     38  H   UNL     1       1.191   6.492   0.745  1.00  0.00     0.211 HD
ENDBRANCH  24  37
ENDBRANCH   9  11
ENDBRANCH   8   9
ENDBRANCH   7   8
ENDBRANCH   6   7
ENDBRANCH   5   6
ENDBRANCH   4   5
ENDBRANCH   3   4
ENDBRANCH   2   3
ENDBRANCH   1   2
BRANCH   1  39
ATOM     39  C   UNL     1       4.330   2.621  -6.004  1.00  0.00     0.188 C 
BRANCH  39  40
ATOM     40  O   UNL     1       3.691   1.360  -5.871  1.00  0.00    -0.376 OA
BRANCH  40  41
ATOM     41  C   UNL     1       4.439   0.176  -5.675  1.00  0.00     0.202 C 
BRANCH  41  42
ATOM     42  C   UNL     1       5.137  -0.023  -4.321  1.00  0.00     0.261 C 
BRANCH  42  43
ATOM     43  O   UNL     1       5.902   1.084  -3.838  1.00  0.00    -0.460 OA
BRANCH  43  44
ATOM     44  C   UNL     1       6.990   1.429  -4.554  1.00  0.00     0.338 C 
ATOM     45  O   UNL     1       7.416   0.883  -5.560  1.00  0.00    -0.246 OA
BRANCH  44  46
ATOM     46  C   UNL     1       7.475   2.721  -4.033  1.00  0.00     0.060 A 
ATOM     47  C   UNL     1       7.540   3.815  -4.906  1.00  0.00     0.016 A 
ATOM     48  C   UNL     1       7.833   2.859  -2.689  1.00  0.00     0.016 A 
ATOM     49  C   UNL     1       8.002   5.044  -4.448  1.00  0.00     0.010 A 
ATOM     50  C   UNL     1       8.334   4.081  -2.239  1.00  0.00     0.010 A 
ATOM     51  C   UNL     1       8.460   5.162  -3.131  1.00  0.00    -0.014 A 
BRANCH  51  52
ATOM     52  C   UNL     1       9.326   6.309  -2.781  1.00  0.00     0.031 A 
ATOM     53  C   UNL     1      10.812   6.114  -2.901  1.00  0.00     0.074 A 
ATOM     54  C   UNL     1       8.815   7.496  -2.419  1.00  0.00     0.049 A 
ATOM     55  N   UNL     1      11.788   6.938  -2.623  1.00  0.00    -0.248 NA
ATOM     56  C   UNL     1      11.257   4.803  -3.406  1.00  0.00     0.031 C 
ATOM     57  C   UNL     1       7.392   7.814  -2.329  1.00  0.00     0.029 A 
ATOM     58  N   UNL     1       9.448   8.656  -2.053  1.00  0.00    -0.354 N 
ATOM     59  C   UNL     1      12.955   6.244  -2.912  1.00  0.00     0.074 A 
ATOM     60  C   UNL     1      12.573   4.923  -3.353  1.00  0.00     0.031 C 
ATOM     61  C   UNL     1       7.259   9.088  -1.919  1.00  0.00     0.029 A 
ATOM     62  C   UNL     1       8.585   9.658  -1.685  1.00  0.00     0.049 A 
ATOM     63  H   UNL     1      10.427   8.761  -2.055  1.00  0.00     0.167 HD
ATOM     64  C   UNL     1      14.234   6.677  -2.826  1.00  0.00     0.037 A 
ATOM     65  C   UNL     1       8.849  10.884  -1.192  1.00  0.00     0.037 A 
ATOM     66  C   UNL     1      14.606   7.991  -2.378  1.00  0.00     0.049 A 
ATOM     67  C   UNL     1      10.287  11.310  -1.016  1.00  0.00     0.074 A 
ATOM     68  C   UNL     1      15.871   8.534  -2.249  1.00  0.00     0.029 A 
ATOM     69  N   UNL     1      13.706   8.967  -1.973  1.00  0.00    -0.354 N 
ATOM     70  N   UNL     1      11.389  10.659  -1.303  1.00  0.00    -0.248 NA
ATOM     71  C   UNL     1      10.515  12.647  -0.450  1.00  0.00     0.031 C 
ATOM     72  C   UNL     1      15.740   9.816  -1.709  1.00  0.00     0.029 A 
ATOM     73  C   UNL     1      14.390  10.101  -1.570  1.00  0.00     0.049 A 
ATOM     74  H   UNL     1      12.726   8.868  -1.973  1.00  0.00     0.167 HD
ATOM     75  C   UNL     1      12.436  11.519  -0.992  1.00  0.00     0.074 A 
ATOM     76  C   UNL     1      11.836  12.742  -0.504  1.00  0.00     0.031 C 
ATOM     77  C   UNL     1      13.773  11.317  -1.104  1.00  0.00     0.037 A 
BRANCH  64  78
ATOM     78  C   UNL     1      15.319   5.705  -3.190  1.00  0.00     0.064 A 
ATOM     79  C   UNL     1      15.520   5.279  -4.512  1.00  0.00     0.173 A 
ATOM     80  C   UNL     1      16.180   5.205  -2.202  1.00  0.00     0.173 A 
ATOM     81  F   UNL     1      14.711   5.710  -5.491  1.00  0.00    -0.203 F 
ATOM     82  C   UNL     1      16.524   4.367  -4.825  1.00  0.00     0.198 A 
ATOM     83  C   UNL     1      17.205   4.320  -2.525  1.00  0.00     0.198 A 
ATOM     84  F   UNL     1      16.031   5.577  -0.922  1.00  0.00    -0.203 F 
ATOM     85  F   UNL     1      16.661   3.930  -6.085  1.00  0.00    -0.200 F 
ATOM     86  C   UNL     1      17.371   3.895  -3.834  1.00  0.00     0.200 A 
ATOM     87  F   UNL     1      18.030   3.875  -1.567  1.00  0.00    -0.200 F 
ATOM     88  F   UNL     1      18.343   3.024  -4.138  1.00  0.00    -0.200 F 
ENDBRANCH  64  78
BRANCH  65  89
ATOM     89  C   UNL     1       7.735  11.795  -0.814  1.00  0.00     0.064 A 
ATOM     90  C   UNL     1       7.516  12.996  -1.503  1.00  0.00     0.173 A 
ATOM     91  C   UNL     1       6.889  11.501   0.267  1.00  0.00     0.173 A 
ATOM     92  F   UNL     1       8.312  13.335  -2.527  1.00  0.00    -0.203 F 
ATOM     93  C   UNL     1       6.512  13.879  -1.110  1.00  0.00     0.198 A 
ATOM     94  C   UNL     1       5.865  12.369   0.637  1.00  0.00     0.198 A 
ATOM     95  F   UNL     1       7.057  10.367   0.963  1.00  0.00    -0.203 F 
ATOM     96  F   UNL     1       6.363  15.047  -1.750  1.00  0.00    -0.200 F 
ATOM     97  C   UNL     1       5.684  13.563  -0.044  1.00  0.00     0.200 A 
ATOM     98  F   UNL     1       5.058  12.053   1.660  1.00  0.00    -0.200 F 
ATOM     99  F   UNL     1       4.719  14.413   0.334  1.00  0.00    -0.200 F 
ENDBRANCH  65  89
BRANCH  77 100
ATOM    100  C   UNL     1      14.680  12.463  -0.752  1.00  0.00     0.064 A 
ATOM    101  C   UNL     1      14.847  12.901   0.569  1.00  0.00     0.173 A 
ATOM    102  C   UNL     1      15.431  13.099  -1.754  1.00  0.00     0.173 A 
ATOM    103  F   UNL     1      14.146  12.334   1.563  1.00  0.00    -0.203 F 
ATOM    104  C   UNL     1      15.707  13.954   0.871  1.00  0.00     0.198 A 
ATOM    105  C   UNL     1      16.318  14.126  -1.444  1.00  0.00     0.198 A 
ATOM    106  F   UNL     1      15.318  12.712  -3.033  1.00  0.00    -0.203 F 
ATOM    107  F   UNL     1      15.809  14.393   2.133  1.00  0.00    -0.200 F 
ATOM    108  C   UNL     1      16.448  14.559  -0.134  1.00  0.00     0.200 A 
ATOM    109  F   UNL     1      17.047  14.694  -2.414  1.00  0.00    -0.200 F 
ATOM    110  F   UNL     1      17.283  15.565   0.160  1.00  0.00    -0.200 F 
ENDBRANCH  77 100
ENDBRANCH  51  52
ENDBRANCH  44  46
ENDBRANCH  43  44
ENDBRANCH  42  43
ENDBRANCH  41  42
ENDBRANCH  40  41
ENDBRANCH  39  40
ENDBRANCH   1  39
TORSDOF 21
