REMARK SMILES C[C@H]1Cc2ccc(C3CC3)cc2[C@H](C(=O)OCCOCCOCCOCCOC(=O)c2ccc(-c3c4nc(c(-c5c(F)c(F)c(F)c(F)c5F)c5ccc([nH]5)c(-c5c(F)c(F)c(F)c(F)c5F)c5nc(c(-c6c(F)c(F)c(F)c(F)c6F)c6ccc3[nH]6)C=C5)C=C4)cc2)[NH2+]1
REMARK SMILES IDX 23 1 22 2 21 3 20 4 19 5 18 6 17 7 16 8 14 9 15 10 13 11
REMARK SMILES IDX 1 12 2 13 3 14 94 15 4 16 5 19 12 20 6 21 11 22 7 23 8 24
REMARK SMILES IDX 9 25 10 26 24 27 25 28 26 29 27 30 28 31 29 32 30 33 31 34
REMARK SMILES IDX 32 35 93 36 33 37 92 38 34 39 35 40 36 41 86 42 37 43 91 44
REMARK SMILES IDX 85 45 87 46 38 47 90 48 84 49 83 50 39 52 71 53 51 54 70 55
REMARK SMILES IDX 52 56 55 57 69 58 88 59 53 60 54 61 68 63 89 64 56 65 40 66
REMARK SMILES IDX 41 67 49 68 42 69 43 70 47 71 50 72 44 73 45 74 48 75 46 76
REMARK SMILES IDX 72 77 73 78 81 79 74 80 75 81 79 82 82 83 76 84 77 85 80 86
REMARK SMILES IDX 78 87 57 88 58 89 66 90 59 91 60 92 64 93 67 94 61 95 62 96
REMARK SMILES IDX 65 97 63 98
REMARK H PARENT 94 17 94 18 87 51 55 62
REMARK Flexibility Score: inf
ROOT
ATOM      1  C   UNL     1       6.061   2.967  -1.029  1.00  0.00     0.188 C 
ENDROOT
BRANCH   1   2
ATOM      2  O   UNL     1       4.952   3.006  -0.155  1.00  0.00    -0.377 OA
BRANCH   2   3
ATOM      3  C   UNL     1       3.696   2.532  -0.634  1.00  0.00     0.188 C 
BRANCH   3   4
ATOM      4  C   UNL     1       3.458   2.215  -2.130  1.00  0.00     0.188 C 
BRANCH   4   5
ATOM      5  O   UNL     1       4.227   2.992  -3.040  1.00  0.00    -0.376 OA
BRANCH   5   6
ATOM      6  C   UNL     1       3.546   4.053  -3.692  1.00  0.00     0.202 C 
BRANCH   6   7
ATOM      7  C   UNL     1       3.144   5.211  -2.769  1.00  0.00     0.261 C 
BRANCH   7   8
ATOM      8  O   UNL     1       2.198   4.893  -1.731  1.00  0.00    -0.459 OA
BRANCH   8   9
ATOM      9  C   UNL     1       1.013   4.343  -2.116  1.00  0.00     0.369 C 
ATOM     10  O   UNL     1       0.710   4.138  -3.286  1.00  0.00    -0.245 OA
BRANCH   9  11
ATOM     11  C   UNL     1       0.109   4.041  -0.886  1.00  0.00     0.325 C 
ATOM     12  C   UNL     1       0.407   0.345  -0.107  1.00  0.00     0.075 C 
ATOM     13  C   UNL     1      -0.033   1.584  -0.895  1.00  0.00     0.184 C 
ATOM     14  C   UNL     1      -1.565   1.601  -1.055  1.00  0.00     0.100 C 
ATOM     15  N   UNL     1       0.468   2.777  -0.192  1.00  0.00    -0.328 N 
ATOM     16  C   UNL     1      -2.071   2.925  -1.567  1.00  0.00    -0.032 A 
ATOM     17  H   UNL     1       1.485   2.716  -0.129  1.00  0.00     0.347 HD
ATOM     18  H   UNL     1       0.035   2.798   0.731  1.00  0.00     0.347 HD
ATOM     19  C   UNL     1      -3.275   3.024  -2.264  1.00  0.00     0.005 A 
ATOM     20  C   UNL     1      -1.331   4.091  -1.343  1.00  0.00     0.025 A 
ATOM     21  C   UNL     1      -3.707   4.264  -2.757  1.00  0.00     0.004 A 
ATOM     22  C   UNL     1      -1.822   5.334  -1.773  1.00  0.00     0.014 A 
ATOM     23  C   UNL     1      -2.991   5.451  -2.526  1.00  0.00    -0.044 A 
BRANCH  23  24
ATOM     24  C   UNL     1      -3.430   6.768  -3.133  1.00  0.00     0.019 C 
ATOM     25  C   UNL     1      -2.688   8.070  -2.921  1.00  0.00     0.009 C 
ATOM     26  C   UNL     1      -2.580   7.363  -4.238  1.00  0.00     0.009 C 
ENDBRANCH  23  24
ENDBRANCH   9  11
ENDBRANCH   8   9
ENDBRANCH   7   8
ENDBRANCH   6   7
ENDBRANCH   5   6
ENDBRANCH   4   5
ENDBRANCH   3   4
ENDBRANCH   2   3
ENDBRANCH   1   2
BRANCH   1  27
ATOM     27  C   UNL     1       6.501   1.579  -1.523  1.00  0.00     0.188 C 
BRANCH  27  28
ATOM     28  O   UNL     1       5.575   0.535  -1.233  1.00  0.00    -0.376 OA
BRANCH  28  29
ATOM     29  C   UNL     1       5.995  -0.444  -0.293  1.00  0.00     0.202 C 
BRANCH  29  30
ATOM     30  C   UNL     1       5.851  -0.021   1.173  1.00  0.00     0.261 C 
BRANCH  30  31
ATOM     31  O   UNL     1       6.589   1.149   1.549  1.00  0.00    -0.460 OA
BRANCH  31  32
ATOM     32  C   UNL     1       7.934   1.114   1.412  1.00  0.00     0.338 C 
ATOM     33  O   UNL     1       8.620   0.185   1.055  1.00  0.00    -0.246 OA
BRANCH  32  34
ATOM     34  C   UNL     1       8.411   2.504   1.585  1.00  0.00     0.060 A 
ATOM     35  C   UNL     1       7.994   3.266   2.680  1.00  0.00     0.016 A 
ATOM     36  C   UNL     1       9.224   3.066   0.592  1.00  0.00     0.016 A 
ATOM     37  C   UNL     1       8.408   4.592   2.793  1.00  0.00     0.010 A 
ATOM     38  C   UNL     1       9.608   4.404   0.687  1.00  0.00     0.010 A 
ATOM     39  C   UNL     1       9.226   5.163   1.804  1.00  0.00    -0.014 A 
BRANCH  39  40
ATOM     40  C   UNL     1       9.883   6.461   2.067  1.00  0.00     0.031 A 
ATOM     41  C   UNL     1       9.331   7.761   1.581  1.00  0.00     0.074 A 
ATOM     42  C   UNL     1      11.028   6.421   2.770  1.00  0.00     0.049 A 
ATOM     43  N   UNL     1       9.765   8.973   1.825  1.00  0.00    -0.248 NA
ATOM     44  C   UNL     1       8.154   7.703   0.706  1.00  0.00     0.031 C 
ATOM     45  C   UNL     1      11.661   5.194   3.259  1.00  0.00     0.029 A 
ATOM     46  N   UNL     1      11.859   7.422   3.195  1.00  0.00    -0.354 N 
ATOM     47  C   UNL     1       8.903   9.827   1.154  1.00  0.00     0.074 A 
ATOM     48  C   UNL     1       7.946   8.991   0.455  1.00  0.00     0.031 C 
ATOM     49  C   UNL     1      12.776   5.515   3.928  1.00  0.00     0.029 A 
ATOM     50  C   UNL     1      12.939   6.964   3.905  1.00  0.00     0.049 A 
ATOM     51  H   UNL     1      11.698   8.375   3.009  1.00  0.00     0.167 HD
ATOM     52  C   UNL     1       8.912  11.183   1.144  1.00  0.00     0.037 A 
ATOM     53  C   UNL     1      13.947   7.638   4.487  1.00  0.00     0.037 A 
ATOM     54  C   UNL     1       9.888  11.995   1.833  1.00  0.00     0.049 A 
ATOM     55  C   UNL     1      13.948   9.135   4.435  1.00  0.00     0.074 A 
ATOM     56  C   UNL     1       9.944  13.374   1.936  1.00  0.00     0.029 A 
ATOM     57  N   UNL     1      10.991  11.502   2.517  1.00  0.00    -0.354 N 
ATOM     58  N   UNL     1      13.074   9.940   3.882  1.00  0.00    -0.248 NA
ATOM     59  C   UNL     1      15.065   9.819   5.097  1.00  0.00     0.031 C 
ATOM     60  C   UNL     1      11.109  13.717   2.631  1.00  0.00     0.029 A 
ATOM     61  C   UNL     1      11.754  12.551   3.010  1.00  0.00     0.049 A 
ATOM     62  H   UNL     1      11.201  10.547   2.635  1.00  0.00     0.167 HD
ATOM     63  C   UNL     1      13.524  11.226   4.138  1.00  0.00     0.074 A 
ATOM     64  C   UNL     1      14.742  11.093   4.914  1.00  0.00     0.031 C 
ATOM     65  C   UNL     1      12.976  12.407   3.763  1.00  0.00     0.037 A 
BRANCH  52  66
ATOM     66  C   UNL     1       7.833  11.888   0.373  1.00  0.00     0.064 A 
ATOM     67  C   UNL     1       6.504  11.904   0.823  1.00  0.00     0.173 A 
ATOM     68  C   UNL     1       8.143  12.630  -0.777  1.00  0.00     0.173 A 
ATOM     69  F   UNL     1       6.154  11.212   1.918  1.00  0.00    -0.203 F 
ATOM     70  C   UNL     1       5.524  12.620   0.141  1.00  0.00     0.198 A 
ATOM     71  C   UNL     1       7.165  13.366  -1.443  1.00  0.00     0.198 A 
ATOM     72  F   UNL     1       9.401  12.662  -1.244  1.00  0.00    -0.203 F 
ATOM     73  F   UNL     1       4.255  12.596   0.573  1.00  0.00    -0.200 F 
ATOM     74  C   UNL     1       5.856  13.357  -0.986  1.00  0.00     0.200 A 
ATOM     75  F   UNL     1       7.492  14.091  -2.522  1.00  0.00    -0.200 F 
ATOM     76  F   UNL     1       4.914  14.058  -1.632  1.00  0.00    -0.200 F 
ENDBRANCH  52  66
BRANCH  53  77
ATOM     77  C   UNL     1      14.991   6.875   5.210  1.00  0.00     0.064 A 
ATOM     78  C   UNL     1      15.023   6.859   6.610  1.00  0.00     0.173 A 
ATOM     79  C   UNL     1      15.916   6.077   4.521  1.00  0.00     0.173 A 
ATOM     80  F   UNL     1      14.161   7.612   7.308  1.00  0.00    -0.203 F 
ATOM     81  C   UNL     1      15.943   6.070   7.296  1.00  0.00     0.198 A 
ATOM     82  C   UNL     1      16.820   5.271   5.208  1.00  0.00     0.198 A 
ATOM     83  F   UNL     1      15.912   6.049   3.180  1.00  0.00    -0.203 F 
ATOM     84  F   UNL     1      15.963   6.081   8.635  1.00  0.00    -0.200 F 
ATOM     85  C   UNL     1      16.833   5.269   6.595  1.00  0.00     0.200 A 
ATOM     86  F   UNL     1      17.664   4.483   4.528  1.00  0.00    -0.200 F 
ATOM     87  F   UNL     1      17.701   4.492   7.256  1.00  0.00    -0.200 F 
ENDBRANCH  53  77
BRANCH  65  88
ATOM     88  C   UNL     1      13.695  13.658   4.176  1.00  0.00     0.064 A 
ATOM     89  C   UNL     1      14.900  14.040   3.570  1.00  0.00     0.173 A 
ATOM     90  C   UNL     1      13.147  14.510   5.146  1.00  0.00     0.173 A 
ATOM     91  F   UNL     1      15.474  13.251   2.650  1.00  0.00    -0.203 F 
ATOM     92  C   UNL     1      15.539  15.224   3.931  1.00  0.00     0.198 A 
ATOM     93  C   UNL     1      13.774  15.707   5.485  1.00  0.00     0.198 A 
ATOM     94  F   UNL     1      11.994  14.192   5.753  1.00  0.00    -0.203 F 
ATOM     95  F   UNL     1      16.709  15.551   3.366  1.00  0.00    -0.200 F 
ATOM     96  C   UNL     1      14.970  16.060   4.880  1.00  0.00     0.200 A 
ATOM     97  F   UNL     1      13.216  16.520   6.393  1.00  0.00    -0.200 F 
ATOM     98  F   UNL     1      15.579  17.206   5.217  1.00  0.00    -0.200 F 
ENDBRANCH  65  88
ENDBRANCH  39  40
ENDBRANCH  32  34
ENDBRANCH  31  32
ENDBRANCH  30  31
ENDBRANCH  29  30
ENDBRANCH  28  29
ENDBRANCH  27  28
ENDBRANCH   1  27
TORSDOF 21
