REMARK SMILES Cc1cccc(-n2c(C)cc(/C=N\c3ccc(O)c(C(=O)OCCOCCOCCOCCOC(=O)c4ccc(-c5c6nc(c(-c7c(F)c(F)c(F)c(F)c7F)c7ccc([nH]7)c(-c7c(F)c(F)c(F)c(F)c7F)c7nc(c(-c8c(F)c(F)c(F)c(F)c8F)c8ccc5[nH]8)C=C7)C=C6)cc4)c3)c2C)c1
REMARK SMILES IDX 27 1 26 2 25 3 24 4 23 5 22 6 20 7 21 8 19 9 14 10 15 11
REMARK SMILES IDX 100 12 16 13 17 14 13 15 12 16 11 17 7 18 8 19 101 20 9 21
REMARK SMILES IDX 10 22 102 23 6 24 1 25 2 26 3 27 103 28 4 29 5 30 18 31
REMARK SMILES IDX 28 33 29 34 30 35 31 36 32 37 33 38 34 39 35 40 36 41 37 42
REMARK SMILES IDX 38 43 99 44 39 45 98 46 40 47 41 48 42 49 92 50 43 51 97 52
REMARK SMILES IDX 91 53 93 54 44 55 96 56 90 57 89 58 45 60 77 61 57 62 76 63
REMARK SMILES IDX 58 64 61 65 75 66 94 67 59 68 60 69 74 71 95 72 62 73 46 74
REMARK SMILES IDX 47 75 55 76 48 77 49 78 53 79 56 80 50 81 51 82 54 83 52 84
REMARK SMILES IDX 78 85 79 86 87 87 80 88 81 89 85 90 88 91 82 92 83 93 86 94
REMARK SMILES IDX 84 95 63 96 64 97 72 98 65 99 66 100 70 101 73 102 67 103
REMARK SMILES IDX 68 104 71 105 69 106
REMARK H PARENT 18 32 93 59 61 70
REMARK Flexibility Score: inf
ROOT
ATOM      1  C   UNL     1      -5.399   2.615   6.772  1.00  0.00     0.188 C 
ENDROOT
BRANCH   1   2
ATOM      2  C   UNL     1      -6.734   2.822   6.019  1.00  0.00     0.188 C 
BRANCH   2   3
ATOM      3  O   UNL     1      -7.773   1.863   6.072  1.00  0.00    -0.376 OA
BRANCH   3   4
ATOM      4  C   UNL     1      -7.539   0.625   5.433  1.00  0.00     0.202 C 
BRANCH   4   5
ATOM      5  C   UNL     1      -7.634   0.530   3.927  1.00  0.00     0.261 C 
BRANCH   5   6
ATOM      6  O   UNL     1      -6.288   0.485   3.467  1.00  0.00    -0.460 OA
BRANCH   6   7
ATOM      7  C   UNL     1      -6.049   1.516   2.655  1.00  0.00     0.342 C 
ATOM      8  O   UNL     1      -6.748   1.876   1.734  1.00  0.00    -0.246 OA
BRANCH   7   9
ATOM      9  C   UNL     1      -4.929   2.271   3.248  1.00  0.00     0.103 A 
ATOM     10  C   UNL     1      -3.736   4.310   2.969  1.00  0.00     0.064 A 
ATOM     11  C   UNL     1      -2.739   3.887   3.846  1.00  0.00     0.032 A 
ATOM     12  C   UNL     1      -4.895   3.578   2.807  1.00  0.00     0.048 A 
ATOM     13  C   UNL     1      -2.818   2.608   4.402  1.00  0.00     0.049 A 
ATOM     14  C   UNL     1      -3.879   1.772   4.036  1.00  0.00     0.130 A 
BRANCH  10  15
ATOM     15  N   UNL     1      -3.628   5.414   2.154  1.00  0.00    -0.256 NA
ATOM     16  C   UNL     1      -3.273   5.288   0.906  1.00  0.00     0.121 C 
BRANCH  16  17
ATOM     17  C   UNL     1      -2.674   4.212   0.089  1.00  0.00     0.014 A 
ATOM     18  N   UNL     1      -1.581   2.445  -0.857  1.00  0.00    -0.318 N 
ATOM     19  C   UNL     1      -1.377   3.530  -1.673  1.00  0.00     0.021 A 
ATOM     20  C   UNL     1      -2.411   2.837   0.192  1.00  0.00     0.029 A 
ATOM     21  C   UNL     1      -0.512   3.502  -2.873  1.00  0.00     0.065 C 
ATOM     22  C   UNL     1      -2.114   4.577  -1.174  1.00  0.00     0.033 A 
ATOM     23  C   UNL     1      -2.743   1.817   1.204  1.00  0.00     0.065 C 
BRANCH  18  24
ATOM     24  C   UNL     1      -0.876   1.205  -0.900  1.00  0.00     0.046 A 
ATOM     25  C   UNL     1       2.619  -0.000  -0.009  1.00  0.00     0.044 C 
ATOM     26  C   UNL     1       1.155   0.011  -0.333  1.00  0.00    -0.049 A 
ATOM     27  C   UNL     1       0.435  -1.192  -0.347  1.00  0.00     0.003 A 
ATOM     28  C   UNL     1       0.492   1.214  -0.607  1.00  0.00     0.030 A 
ATOM     29  C   UNL     1      -0.924  -1.203  -0.663  1.00  0.00     0.002 A 
ATOM     30  C   UNL     1      -1.580  -0.007  -0.961  1.00  0.00     0.026 A 
ENDBRANCH  18  24
ENDBRANCH  16  17
ENDBRANCH  10  15
BRANCH  14  31
ATOM     31  O   UNL     1      -3.757   0.463   4.396  1.00  0.00    -0.507 OA
ATOM     32  H   UNL     1      -3.034   0.187   4.924  1.00  0.00     0.293 HD
ENDBRANCH  14  31
ENDBRANCH   7   9
ENDBRANCH   6   7
ENDBRANCH   5   6
ENDBRANCH   4   5
ENDBRANCH   3   4
ENDBRANCH   2   3
ENDBRANCH   1   2
BRANCH   1  33
ATOM     33  O   UNL     1      -4.843   1.315   6.900  1.00  0.00    -0.377 OA
BRANCH  33  34
ATOM     34  C   UNL     1      -5.218   0.555   8.042  1.00  0.00     0.188 C 
BRANCH  34  35
ATOM     35  C   UNL     1      -5.480   1.285   9.326  1.00  0.00     0.188 C 
BRANCH  35  36
ATOM     36  O   UNL     1      -6.755   1.896   9.159  1.00  0.00    -0.376 OA
BRANCH  36  37
ATOM     37  C   UNL     1      -7.043   2.920  10.093  1.00  0.00     0.202 C 
BRANCH  37  38
ATOM     38  C   UNL     1      -7.011   2.400  11.531  1.00  0.00     0.261 C 
BRANCH  38  39
ATOM     39  O   UNL     1      -8.053   1.408  11.671  1.00  0.00    -0.460 OA
BRANCH  39  40
ATOM     40  C   UNL     1      -7.627   0.128  11.859  1.00  0.00     0.338 C 
ATOM     41  O   UNL     1      -6.847  -0.227  12.727  1.00  0.00    -0.246 OA
BRANCH  40  42
ATOM     42  C   UNL     1      -8.038  -0.733  10.707  1.00  0.00     0.060 A 
ATOM     43  C   UNL     1      -7.485  -2.015  10.545  1.00  0.00     0.016 A 
ATOM     44  C   UNL     1      -8.743  -0.172   9.653  1.00  0.00     0.016 A 
ATOM     45  C   UNL     1      -7.484  -2.647   9.284  1.00  0.00     0.010 A 
ATOM     46  C   UNL     1      -8.682  -0.770   8.405  1.00  0.00     0.010 A 
ATOM     47  C   UNL     1      -8.005  -1.983   8.177  1.00  0.00    -0.014 A 
BRANCH  47  48
ATOM     48  C   UNL     1      -7.820  -2.396   6.761  1.00  0.00     0.031 A 
ATOM     49  C   UNL     1      -9.034  -2.459   5.871  1.00  0.00     0.074 A 
ATOM     50  C   UNL     1      -6.584  -2.331   6.179  1.00  0.00     0.049 A 
ATOM     51  N   UNL     1      -9.000  -2.667   4.600  1.00  0.00    -0.248 NA
ATOM     52  C   UNL     1     -10.394  -2.171   6.314  1.00  0.00     0.031 C 
ATOM     53  C   UNL     1      -6.266  -2.243   4.750  1.00  0.00     0.029 A 
ATOM     54  N   UNL     1      -5.298  -2.230   6.738  1.00  0.00    -0.354 N 
ATOM     55  C   UNL     1     -10.168  -2.212   4.021  1.00  0.00     0.074 A 
ATOM     56  C   UNL     1     -11.037  -1.998   5.151  1.00  0.00     0.031 C 
ATOM     57  C   UNL     1      -4.951  -2.347   4.523  1.00  0.00     0.029 A 
ATOM     58  C   UNL     1      -4.384  -2.731   5.782  1.00  0.00     0.049 A 
ATOM     59  H   UNL     1      -5.074  -1.877   7.630  1.00  0.00     0.167 HD
ATOM     60  C   UNL     1     -10.173  -1.977   2.666  1.00  0.00     0.037 A 
ATOM     61  C   UNL     1      -3.734  -3.902   5.997  1.00  0.00     0.037 A 
ATOM     62  C   UNL     1      -8.900  -2.452   2.055  1.00  0.00     0.049 A 
ATOM     63  C   UNL     1      -4.265  -4.895   4.968  1.00  0.00     0.074 A 
ATOM     64  C   UNL     1      -7.885  -1.876   1.306  1.00  0.00     0.029 A 
ATOM     65  N   UNL     1      -8.417  -3.721   2.410  1.00  0.00    -0.354 N 
ATOM     66  N   UNL     1      -5.504  -4.879   4.509  1.00  0.00    -0.248 NA
ATOM     67  C   UNL     1      -3.372  -5.673   4.114  1.00  0.00     0.031 C 
ATOM     68  C   UNL     1      -6.756  -2.761   1.329  1.00  0.00     0.029 A 
ATOM     69  C   UNL     1      -7.088  -3.896   2.063  1.00  0.00     0.049 A 
ATOM     70  H   UNL     1      -8.962  -4.410   2.855  1.00  0.00     0.167 HD
ATOM     71  C   UNL     1      -5.521  -5.413   3.239  1.00  0.00     0.074 A 
ATOM     72  C   UNL     1      -4.176  -5.957   3.072  1.00  0.00     0.031 C 
ATOM     73  C   UNL     1      -6.444  -5.196   2.241  1.00  0.00     0.037 A 
BRANCH  60  74
ATOM     74  C   UNL     1     -11.238  -1.201   1.862  1.00  0.00     0.064 A 
ATOM     75  C   UNL     1     -11.108  -1.015   0.461  1.00  0.00     0.173 A 
ATOM     76  C   UNL     1     -12.389  -0.578   2.396  1.00  0.00     0.173 A 
ATOM     77  F   UNL     1     -10.085  -1.545  -0.221  1.00  0.00    -0.203 F 
ATOM     78  C   UNL     1     -12.027  -0.282  -0.312  1.00  0.00     0.198 A 
ATOM     79  C   UNL     1     -13.328   0.122   1.619  1.00  0.00     0.198 A 
ATOM     80  F   UNL     1     -12.664  -0.584   3.700  1.00  0.00    -0.203 F 
ATOM     81  F   UNL     1     -11.820  -0.128  -1.628  1.00  0.00    -0.200 F 
ATOM     82  C   UNL     1     -13.146   0.277   0.265  1.00  0.00     0.200 A 
ATOM     83  F   UNL     1     -14.413   0.650   2.207  1.00  0.00    -0.200 F 
ATOM     84  F   UNL     1     -14.037   0.955  -0.471  1.00  0.00    -0.200 F 
ENDBRANCH  60  74
BRANCH  61  85
ATOM     85  C   UNL     1      -3.247  -3.919   7.417  1.00  0.00     0.064 A 
ATOM     86  C   UNL     1      -2.271  -2.918   7.698  1.00  0.00     0.173 A 
ATOM     87  C   UNL     1      -4.078  -4.283   8.487  1.00  0.00     0.173 A 
ATOM     88  F   UNL     1      -1.434  -2.519   6.726  1.00  0.00    -0.203 F 
ATOM     89  C   UNL     1      -2.292  -2.172   8.882  1.00  0.00     0.198 A 
ATOM     90  C   UNL     1      -4.061  -3.557   9.693  1.00  0.00     0.198 A 
ATOM     91  F   UNL     1      -5.034  -5.206   8.314  1.00  0.00    -0.203 F 
ATOM     92  F   UNL     1      -1.504  -1.094   9.013  1.00  0.00    -0.200 F 
ATOM     93  C   UNL     1      -3.221  -2.464   9.860  1.00  0.00     0.200 A 
ATOM     94  F   UNL     1      -4.946  -3.845  10.659  1.00  0.00    -0.200 F 
ATOM     95  F   UNL     1      -3.355  -1.655  10.923  1.00  0.00    -0.200 F 
ENDBRANCH  61  85
BRANCH  73  96
ATOM     96  C   UNL     1      -6.879  -6.306   1.298  1.00  0.00     0.064 A 
ATOM     97  C   UNL     1      -6.492  -7.645   1.454  1.00  0.00     0.173 A 
ATOM     98  C   UNL     1      -7.892  -6.081   0.324  1.00  0.00     0.173 A 
ATOM     99  F   UNL     1      -5.599  -8.018   2.380  1.00  0.00    -0.203 F 
ATOM    100  C   UNL     1      -7.052  -8.669   0.690  1.00  0.00     0.198 A 
ATOM    101  C   UNL     1      -8.496  -7.114  -0.384  1.00  0.00     0.198 A 
ATOM    102  F   UNL     1      -8.369  -4.860   0.047  1.00  0.00    -0.203 F 
ATOM    103  F   UNL     1      -6.618  -9.925   0.860  1.00  0.00    -0.200 F 
ATOM    104  C   UNL     1      -8.067  -8.408  -0.210  1.00  0.00     0.200 A 
ATOM    105  F   UNL     1      -9.516  -6.843  -1.212  1.00  0.00    -0.200 F 
ATOM    106  F   UNL     1      -8.639  -9.405  -0.896  1.00  0.00    -0.200 F 
ENDBRANCH  73  96
ENDBRANCH  47  48
ENDBRANCH  40  42
ENDBRANCH  39  40
ENDBRANCH  38  39
ENDBRANCH  37  38
ENDBRANCH  36  37
ENDBRANCH  35  36
ENDBRANCH  34  35
ENDBRANCH  33  34
ENDBRANCH   1  33
TORSDOF 24
