REMARK SMILES Cc1cccc(CS[C@@H]2CC[C@]([NH3+])(C(=O)OCCOCCOCCOCCOC(=O)c3ccc(-c4c5nc(c(-c6c(F)c(F)c(F)c(F)c6F)c6ccc([nH]6)c(-c6c(F)c(F)c(F)c(F)c6F)c6nc(c(-c7c(F)c(F)c(F)c(F)c7F)c7ccc4[nH]7)C=C6)C=C5)cc3)C2)c1
REMARK SMILES IDX 21 1 20 2 19 3 18 4 17 5 16 6 14 7 15 8 12 9 9 10 10 11
REMARK SMILES IDX 94 12 11 13 8 14 7 15 6 16 1 17 2 18 3 19 95 20 4 21 5 22
REMARK SMILES IDX 13 23 22 27 23 28 24 29 25 30 26 31 27 32 28 33 29 34 30 35
REMARK SMILES IDX 31 36 32 37 93 38 33 39 92 40 34 41 35 42 36 43 86 44 37 45
REMARK SMILES IDX 91 46 85 47 87 48 38 49 90 50 84 51 83 52 39 54 71 55 51 56
REMARK SMILES IDX 70 57 52 58 55 59 69 60 88 61 53 62 54 63 68 65 89 66 56 67
REMARK SMILES IDX 40 68 41 69 49 70 42 71 43 72 47 73 50 74 44 75 45 76 48 77
REMARK SMILES IDX 46 78 72 79 73 80 81 81 74 82 75 83 79 84 82 85 76 86 77 87
REMARK SMILES IDX 80 88 78 89 57 90 58 91 66 92 59 93 60 94 64 95 67 96 61 97
REMARK SMILES IDX 62 98 65 99 63 100
REMARK H PARENT 13 24 13 25 13 26 87 53 55 64
REMARK Flexibility Score: inf
ROOT
ATOM      1  C   UNL     1       0.197   4.981  -6.624  1.00  0.00     0.188 C 
ENDROOT
BRANCH   1   2
ATOM      2  C   UNL     1       0.150   6.034  -5.511  1.00  0.00     0.188 C 
BRANCH   2   3
ATOM      3  O   UNL     1       1.381   6.611  -5.093  1.00  0.00    -0.376 OA
BRANCH   3   4
ATOM      4  C   UNL     1       2.217   5.773  -4.294  1.00  0.00     0.202 C 
BRANCH   4   5
ATOM      5  C   UNL     1       1.657   5.442  -2.918  1.00  0.00     0.261 C 
BRANCH   5   6
ATOM      6  O   UNL     1       0.832   4.268  -3.001  1.00  0.00    -0.459 OA
BRANCH   6   7
ATOM      7  C   UNL     1      -0.452   4.450  -2.618  1.00  0.00     0.368 C 
ATOM      8  O   UNL     1      -0.870   5.466  -2.068  1.00  0.00    -0.245 OA
BRANCH   7   9
ATOM      9  C   UNL     1      -1.367   3.308  -3.088  1.00  0.00     0.193 C 
ATOM     10  C   UNL     1      -3.257   2.033  -2.223  1.00  0.00     0.054 C 
ATOM     11  C   UNL     1      -2.147   1.068  -2.657  1.00  0.00     0.022 C 
ATOM     12  C   UNL     1      -2.673   3.434  -2.299  1.00  0.00     0.095 C 
ATOM     13  C   UNL     1      -0.869   1.905  -2.740  1.00  0.00     0.082 C 
BRANCH  10  14
ATOM     14  S   UNL     1      -4.075   1.792  -0.604  1.00  0.00    -0.154 SA
BRANCH  14  15
ATOM     15  C   UNL     1      -2.664   1.783   0.577  1.00  0.00     0.105 C 
BRANCH  15  16
ATOM     16  C   UNL     1      -1.900   0.481   0.595  1.00  0.00    -0.038 A 
ATOM     17  C   UNL     1       1.713  -0.733   0.772  1.00  0.00     0.044 C 
ATOM     18  C   UNL     1       0.222  -0.716   0.662  1.00  0.00    -0.051 A 
ATOM     19  C   UNL     1      -0.448  -1.910   0.392  1.00  0.00     0.003 A 
ATOM     20  C   UNL     1      -0.506   0.480   0.754  1.00  0.00     0.008 A 
ATOM     21  C   UNL     1      -1.834  -1.931   0.309  1.00  0.00     0.001 A 
ATOM     22  C   UNL     1      -2.555  -0.750   0.446  1.00  0.00     0.004 A 
ENDBRANCH  15  16
ENDBRANCH  14  15
ENDBRANCH  10  14
BRANCH   9  23
ATOM     23  N   UNL     1      -1.651   3.404  -4.535  1.00  0.00    -0.343 N 
ATOM     24  H   UNL     1      -2.260   2.634  -4.814  1.00  0.00     0.345 HD
ATOM     25  H   UNL     1      -0.777   3.353  -5.057  1.00  0.00     0.345 HD
ATOM     26  H   UNL     1      -2.114   4.291  -4.732  1.00  0.00     0.345 HD
ENDBRANCH   9  23
ENDBRANCH   7   9
ENDBRANCH   6   7
ENDBRANCH   5   6
ENDBRANCH   4   5
ENDBRANCH   3   4
ENDBRANCH   2   3
ENDBRANCH   1   2
BRANCH   1  27
ATOM     27  O   UNL     1       1.137   3.926  -6.431  1.00  0.00    -0.377 OA
BRANCH  27  28
ATOM     28  C   UNL     1       1.854   3.637  -7.630  1.00  0.00     0.188 C 
BRANCH  28  29
ATOM     29  C   UNL     1       3.081   4.532  -7.817  1.00  0.00     0.188 C 
BRANCH  29  30
ATOM     30  O   UNL     1       2.951   5.887  -7.422  1.00  0.00    -0.376 OA
BRANCH  30  31
ATOM     31  C   UNL     1       2.530   6.881  -8.345  1.00  0.00     0.202 C 
BRANCH  31  32
ATOM     32  C   UNL     1       3.339   6.979  -9.641  1.00  0.00     0.261 C 
BRANCH  32  33
ATOM     33  O   UNL     1       4.703   7.327  -9.342  1.00  0.00    -0.460 OA
BRANCH  33  34
ATOM     34  C   UNL     1       5.581   6.298  -9.396  1.00  0.00     0.338 C 
ATOM     35  O   UNL     1       5.712   5.532 -10.355  1.00  0.00    -0.246 OA
BRANCH  34  36
ATOM     36  C   UNL     1       6.129   6.027  -8.041  1.00  0.00     0.060 A 
ATOM     37  C   UNL     1       6.727   4.785  -7.772  1.00  0.00     0.016 A 
ATOM     38  C   UNL     1       5.720   6.833  -6.983  1.00  0.00     0.016 A 
ATOM     39  C   UNL     1       6.726   4.271  -6.467  1.00  0.00     0.010 A 
ATOM     40  C   UNL     1       5.626   6.272  -5.723  1.00  0.00     0.010 A 
ATOM     41  C   UNL     1       6.065   4.965  -5.452  1.00  0.00    -0.014 A 
BRANCH  41  42
ATOM     42  C   UNL     1       5.568   4.355  -4.194  1.00  0.00     0.031 A 
ATOM     43  C   UNL     1       5.601   5.152  -2.913  1.00  0.00     0.074 A 
ATOM     44  C   UNL     1       4.778   3.244  -4.271  1.00  0.00     0.049 A 
ATOM     45  N   UNL     1       5.064   4.775  -1.801  1.00  0.00    -0.248 NA
ATOM     46  C   UNL     1       6.235   6.466  -2.762  1.00  0.00     0.031 C 
ATOM     47  C   UNL     1       3.717   2.871  -3.336  1.00  0.00     0.029 A 
ATOM     48  N   UNL     1       4.708   2.214  -5.233  1.00  0.00    -0.354 N 
ATOM     49  C   UNL     1       4.962   5.861  -0.956  1.00  0.00     0.074 A 
ATOM     50  C   UNL     1       5.782   6.869  -1.566  1.00  0.00     0.031 C 
ATOM     51  C   UNL     1       3.189   1.682  -3.645  1.00  0.00     0.029 A 
ATOM     52  C   UNL     1       4.077   1.102  -4.612  1.00  0.00     0.049 A 
ATOM     53  H   UNL     1       5.036   2.257  -6.160  1.00  0.00     0.167 HD
ATOM     54  C   UNL     1       4.087   5.789   0.091  1.00  0.00     0.037 A 
ATOM     55  C   UNL     1       4.753  -0.060  -4.364  1.00  0.00     0.037 A 
ATOM     56  C   UNL     1       3.630   4.412   0.271  1.00  0.00     0.049 A 
ATOM     57  C   UNL     1       4.971  -0.289  -2.882  1.00  0.00     0.074 A 
ATOM     58  C   UNL     1       2.405   3.794   0.117  1.00  0.00     0.029 A 
ATOM     59  N   UNL     1       4.579   3.398   0.409  1.00  0.00    -0.354 N 
ATOM     60  N   UNL     1       4.976   0.681  -2.002  1.00  0.00    -0.248 NA
ATOM     61  C   UNL     1       5.075  -1.601  -2.251  1.00  0.00     0.031 C 
ATOM     62  C   UNL     1       2.668   2.413  -0.071  1.00  0.00     0.029 A 
ATOM     63  C   UNL     1       4.010   2.165   0.178  1.00  0.00     0.049 A 
ATOM     64  H   UNL     1       5.525   3.544   0.640  1.00  0.00     0.167 HD
ATOM     65  C   UNL     1       4.963   0.163  -0.737  1.00  0.00     0.074 A 
ATOM     66  C   UNL     1       5.082  -1.270  -0.944  1.00  0.00     0.031 C 
ATOM     67  C   UNL     1       4.762   0.931   0.379  1.00  0.00     0.037 A 
BRANCH  54  68
ATOM     68  C   UNL     1       3.466   6.947   0.859  1.00  0.00     0.064 A 
ATOM     69  C   UNL     1       2.632   6.698   1.977  1.00  0.00     0.173 A 
ATOM     70  C   UNL     1       3.532   8.302   0.475  1.00  0.00     0.173 A 
ATOM     71  F   UNL     1       2.465   5.456   2.456  1.00  0.00    -0.203 F 
ATOM     72  C   UNL     1       1.923   7.710   2.639  1.00  0.00     0.198 A 
ATOM     73  C   UNL     1       2.861   9.320   1.168  1.00  0.00     0.198 A 
ATOM     74  F   UNL     1       4.202   8.695  -0.613  1.00  0.00    -0.203 F 
ATOM     75  F   UNL     1       1.109   7.400   3.658  1.00  0.00    -0.200 F 
ATOM     76  C   UNL     1       2.047   9.024   2.241  1.00  0.00     0.200 A 
ATOM     77  F   UNL     1       2.995  10.594   0.768  1.00  0.00    -0.200 F 
ATOM     78  F   UNL     1       1.380   9.997   2.878  1.00  0.00    -0.200 F 
ENDBRANCH  54  68
BRANCH  55  79
ATOM     79  C   UNL     1       5.562  -0.464  -5.545  1.00  0.00     0.064 A 
ATOM     80  C   UNL     1       4.786  -0.735  -6.696  1.00  0.00     0.173 A 
ATOM     81  C   UNL     1       6.837   0.082  -5.738  1.00  0.00     0.173 A 
ATOM     82  F   UNL     1       3.576  -1.302  -6.564  1.00  0.00    -0.203 F 
ATOM     83  C   UNL     1       5.135  -0.199  -7.933  1.00  0.00     0.198 A 
ATOM     84  C   UNL     1       7.203   0.574  -6.995  1.00  0.00     0.198 A 
ATOM     85  F   UNL     1       7.638   0.315  -4.690  1.00  0.00    -0.203 F 
ATOM     86  F   UNL     1       4.259  -0.240  -8.948  1.00  0.00    -0.200 F 
ATOM     87  C   UNL     1       6.320   0.501  -8.066  1.00  0.00     0.200 A 
ATOM     88  F   UNL     1       8.352   1.251  -7.138  1.00  0.00    -0.200 F 
ATOM     89  F   UNL     1       6.579   1.168  -9.201  1.00  0.00    -0.200 F 
ENDBRANCH  55  79
BRANCH  67  90
ATOM     90  C   UNL     1       5.080   0.532   1.809  1.00  0.00     0.064 A 
ATOM     91  C   UNL     1       5.979  -0.488   2.154  1.00  0.00     0.173 A 
ATOM     92  C   UNL     1       4.594   1.298   2.905  1.00  0.00     0.173 A 
ATOM     93  F   UNL     1       6.603  -1.216   1.220  1.00  0.00    -0.203 F 
ATOM     94  C   UNL     1       6.315  -0.762   3.484  1.00  0.00     0.198 A 
ATOM     95  C   UNL     1       4.986   1.067   4.221  1.00  0.00     0.198 A 
ATOM     96  F   UNL     1       3.739   2.317   2.739  1.00  0.00    -0.203 F 
ATOM     97  F   UNL     1       7.138  -1.783   3.758  1.00  0.00    -0.200 F 
ATOM     98  C   UNL     1       5.832   0.023   4.513  1.00  0.00     0.200 A 
ATOM     99  F   UNL     1       4.550   1.878   5.196  1.00  0.00    -0.200 F 
ATOM    100  F   UNL     1       6.199  -0.213   5.779  1.00  0.00    -0.200 F 
ENDBRANCH  67  90
ENDBRANCH  41  42
ENDBRANCH  34  36
ENDBRANCH  33  34
ENDBRANCH  32  33
ENDBRANCH  31  32
ENDBRANCH  30  31
ENDBRANCH  29  30
ENDBRANCH  28  29
ENDBRANCH  27  28
ENDBRANCH   1  27
TORSDOF 24
