REMARK SMILES CCC[C@H](CNC(=O)N1CCN2C(=O)NC[C@H]2C1)C(=O)OCCOCCOCCOCCOC(=O)c1ccc(-c2c3nc(c(-c4c(F)c(F)c(F)c(F)c4F)c4ccc([nH]4)c(-c4c(F)c(F)c(F)c(F)c4F)c4nc(c(-c5c(F)c(F)c(F)c(F)c5F)c5ccc2[nH]5)C=C4)C=C3)cc1
REMARK SMILES IDX 26 1 25 2 24 3 23 4 22 5 21 6 19 7 20 8 4 9 3 10 2 11 1 12
REMARK SMILES IDX 5 13 6 14 7 15 8 17 9 18 10 19 18 20 11 21 17 22 12 23 16 24
REMARK SMILES IDX 13 25 15 26 14 27 27 29 28 30 29 31 30 32 31 33 32 34 33 35
REMARK SMILES IDX 34 36 35 37 36 38 37 39 98 40 38 41 97 42 39 43 40 44 41 45
REMARK SMILES IDX 91 46 42 47 96 48 90 49 92 50 43 51 95 52 89 53 88 54 44 56
REMARK SMILES IDX 76 57 56 58 75 59 57 60 60 61 74 62 93 63 58 64 59 65 73 67
REMARK SMILES IDX 94 68 61 69 45 70 46 71 54 72 47 73 48 74 52 75 55 76 49 77
REMARK SMILES IDX 50 78 53 79 51 80 77 81 78 82 86 83 79 84 80 85 84 86 87 87
REMARK SMILES IDX 81 88 82 89 85 90 83 91 62 92 63 93 71 94 64 95 65 96 69 97
REMARK SMILES IDX 72 98 66 99 67 100 70 101 68 102
REMARK H PARENT 6 16 15 28 92 55 60 66
REMARK Flexibility Score: inf
ROOT
ATOM      1  C   UNL     1       3.430   1.496   4.039  1.00  0.00     0.188 C 
ENDROOT
BRANCH   1   2
ATOM      2  C   UNL     1       3.080   2.763   4.816  1.00  0.00     0.188 C 
BRANCH   2   3
ATOM      3  O   UNL     1       3.143   2.542   6.206  1.00  0.00    -0.376 OA
BRANCH   3   4
ATOM      4  C   UNL     1       1.936   2.413   6.935  1.00  0.00     0.202 C 
BRANCH   4   5
ATOM      5  C   UNL     1       0.617   1.802   6.396  1.00  0.00     0.261 C 
BRANCH   5   6
ATOM      6  O   UNL     1       0.612   0.990   5.209  1.00  0.00    -0.463 OA
BRANCH   6   7
ATOM      7  C   UNL     1       0.120   1.594   4.098  1.00  0.00     0.310 C 
ATOM      8  O   UNL     1      -0.172   2.789   4.058  1.00  0.00    -0.252 OA
BRANCH   7   9
ATOM      9  C   UNL     1      -0.071   0.711   2.865  1.00  0.00     0.118 C 
BRANCH   9  10
ATOM     10  C   UNL     1      -1.557   0.908   2.439  1.00  0.00     0.017 C 
BRANCH  10  11
ATOM     11  C   UNL     1      -1.718   1.612   1.092  1.00  0.00    -0.002 C 
ATOM     12  C   UNL     1      -1.148   0.814  -0.070  1.00  0.00     0.004 C 
ENDBRANCH  10  11
ENDBRANCH   9  10
BRANCH   9  13
ATOM     13  C   UNL     1       0.179  -0.797   2.987  1.00  0.00     0.133 C 
BRANCH  13  14
ATOM     14  N   UNL     1       1.524  -1.274   2.725  1.00  0.00    -0.337 N 
ATOM     15  C   UNL     1       2.126  -2.370   3.270  1.00  0.00     0.317 C 
ATOM     16  H   UNL     1       2.060  -0.751   2.086  1.00  0.00     0.165 HD
ATOM     17  O   UNL     1       3.338  -2.534   3.146  1.00  0.00    -0.249 OA
BRANCH  15  18
ATOM     18  N   UNL     1       1.356  -3.194   4.036  1.00  0.00    -0.321 N 
ATOM     19  C   UNL     1       0.138  -3.877   3.580  1.00  0.00     0.143 C 
ATOM     20  C   UNL     1       1.797  -3.541   5.381  1.00  0.00     0.148 C 
ATOM     21  C   UNL     1      -1.026  -3.770   4.590  1.00  0.00     0.143 C 
ATOM     22  C   UNL     1       0.680  -3.121   6.333  1.00  0.00     0.125 C 
ATOM     23  N   UNL     1      -0.559  -3.790   5.966  1.00  0.00    -0.317 N 
ATOM     24  C   UNL     1       0.878  -3.524   7.781  1.00  0.00     0.144 C 
ATOM     25  C   UNL     1      -1.198  -4.322   7.062  1.00  0.00     0.317 C 
ATOM     26  N   UNL     1      -0.375  -4.125   8.157  1.00  0.00    -0.336 N 
ATOM     27  O   UNL     1      -2.282  -4.883   7.090  1.00  0.00    -0.249 OA
ATOM     28  H   UNL     1      -0.618  -4.366   9.080  1.00  0.00     0.165 HD
ENDBRANCH  15  18
ENDBRANCH  13  14
ENDBRANCH   9  13
ENDBRANCH   7   9
ENDBRANCH   6   7
ENDBRANCH   5   6
ENDBRANCH   4   5
ENDBRANCH   3   4
ENDBRANCH   2   3
ENDBRANCH   1   2
BRANCH   1  29
ATOM     29  O   UNL     1       3.080   0.267   4.657  1.00  0.00    -0.377 OA
BRANCH  29  30
ATOM     30  C   UNL     1       3.810  -0.194   5.790  1.00  0.00     0.188 C 
BRANCH  30  31
ATOM     31  C   UNL     1       5.235   0.309   6.050  1.00  0.00     0.188 C 
BRANCH  31  32
ATOM     32  O   UNL     1       6.155   0.348   4.963  1.00  0.00    -0.376 OA
BRANCH  32  33
ATOM     33  C   UNL     1       6.026  -0.614   3.919  1.00  0.00     0.202 C 
BRANCH  33  34
ATOM     34  C   UNL     1       6.761  -1.923   4.164  1.00  0.00     0.261 C 
BRANCH  34  35
ATOM     35  O   UNL     1       6.054  -2.736   5.113  1.00  0.00    -0.460 OA
BRANCH  35  36
ATOM     36  C   UNL     1       6.552  -2.713   6.363  1.00  0.00     0.338 C 
ATOM     37  O   UNL     1       7.557  -2.146   6.759  1.00  0.00    -0.246 OA
BRANCH  36  38
ATOM     38  C   UNL     1       5.622  -3.396   7.279  1.00  0.00     0.060 A 
ATOM     39  C   UNL     1       5.440  -2.826   8.543  1.00  0.00     0.016 A 
ATOM     40  C   UNL     1       5.036  -4.625   6.959  1.00  0.00     0.016 A 
ATOM     41  C   UNL     1       4.779  -3.538   9.535  1.00  0.00     0.010 A 
ATOM     42  C   UNL     1       4.361  -5.335   7.954  1.00  0.00     0.010 A 
ATOM     43  C   UNL     1       4.300  -4.825   9.266  1.00  0.00    -0.014 A 
BRANCH  43  44
ATOM     44  C   UNL     1       3.971  -5.711  10.409  1.00  0.00     0.031 A 
ATOM     45  C   UNL     1       4.969  -6.767  10.802  1.00  0.00     0.074 A 
ATOM     46  C   UNL     1       2.862  -5.523  11.145  1.00  0.00     0.049 A 
ATOM     47  N   UNL     1       4.934  -7.611  11.801  1.00  0.00    -0.248 NA
ATOM     48  C   UNL     1       6.183  -6.870   9.974  1.00  0.00     0.031 C 
ATOM     49  C   UNL     1       1.878  -4.468  10.932  1.00  0.00     0.029 A 
ATOM     50  N   UNL     1       2.375  -6.215  12.224  1.00  0.00    -0.354 N 
ATOM     51  C   UNL     1       6.122  -8.325  11.730  1.00  0.00     0.074 A 
ATOM     52  C   UNL     1       6.827  -7.869  10.554  1.00  0.00     0.031 C 
ATOM     53  C   UNL     1       0.868  -4.619  11.803  1.00  0.00     0.029 A 
ATOM     54  C   UNL     1       1.152  -5.766  12.656  1.00  0.00     0.049 A 
ATOM     55  H   UNL     1       2.857  -6.962  12.647  1.00  0.00     0.167 HD
ATOM     56  C   UNL     1       6.601  -9.253  12.592  1.00  0.00     0.037 A 
ATOM     57  C   UNL     1       0.356  -6.224  13.639  1.00  0.00     0.037 A 
ATOM     58  C   UNL     1       5.894  -9.702  13.761  1.00  0.00     0.049 A 
ATOM     59  C   UNL     1       0.862  -7.335  14.519  1.00  0.00     0.074 A 
ATOM     60  C   UNL     1       6.294 -10.626  14.710  1.00  0.00     0.029 A 
ATOM     61  N   UNL     1       4.631  -9.266  14.134  1.00  0.00    -0.354 N 
ATOM     62  N   UNL     1       2.008  -7.970  14.473  1.00  0.00    -0.248 NA
ATOM     63  C   UNL     1      -0.018  -7.759  15.614  1.00  0.00     0.031 C 
ATOM     64  C   UNL     1       5.244 -10.799  15.618  1.00  0.00     0.029 A 
ATOM     65  C   UNL     1       4.219  -9.930  15.279  1.00  0.00     0.049 A 
ATOM     66  H   UNL     1       4.104  -8.585  13.656  1.00  0.00     0.167 HD
ATOM     67  C   UNL     1       2.007  -8.837  15.557  1.00  0.00     0.074 A 
ATOM     68  C   UNL     1       0.751  -8.630  16.250  1.00  0.00     0.031 C 
ATOM     69  C   UNL     1       2.961  -9.717  15.951  1.00  0.00     0.037 A 
BRANCH  56  70
ATOM     70  C   UNL     1       7.943  -9.855  12.283  1.00  0.00     0.064 A 
ATOM     71  C   UNL     1       9.128  -9.107  12.366  1.00  0.00     0.173 A 
ATOM     72  C   UNL     1       8.046 -11.204  11.913  1.00  0.00     0.173 A 
ATOM     73  F   UNL     1       9.086  -7.807  12.697  1.00  0.00    -0.203 F 
ATOM     74  C   UNL     1      10.361  -9.679  12.060  1.00  0.00     0.198 A 
ATOM     75  C   UNL     1       9.283 -11.781  11.641  1.00  0.00     0.198 A 
ATOM     76  F   UNL     1       6.945 -11.964  11.817  1.00  0.00    -0.203 F 
ATOM     77  F   UNL     1      11.472  -8.930  12.090  1.00  0.00    -0.200 F 
ATOM     78  C   UNL     1      10.438 -11.017  11.706  1.00  0.00     0.200 A 
ATOM     79  F   UNL     1       9.356 -13.078  11.311  1.00  0.00    -0.200 F 
ATOM     80  F   UNL     1      11.625 -11.569  11.417  1.00  0.00    -0.200 F 
ENDBRANCH  56  70
BRANCH  57  81
ATOM     81  C   UNL     1      -0.979  -5.611  13.863  1.00  0.00     0.064 A 
ATOM     82  C   UNL     1      -1.256  -4.864  15.015  1.00  0.00     0.173 A 
ATOM     83  C   UNL     1      -2.014  -5.777  12.929  1.00  0.00     0.173 A 
ATOM     84  F   UNL     1      -0.303  -4.686  15.941  1.00  0.00    -0.203 F 
ATOM     85  C   UNL     1      -2.524  -4.334  15.242  1.00  0.00     0.198 A 
ATOM     86  C   UNL     1      -3.274  -5.223  13.144  1.00  0.00     0.198 A 
ATOM     87  F   UNL     1      -1.795  -6.470  11.802  1.00  0.00    -0.203 F 
ATOM     88  F   UNL     1      -2.775  -3.667  16.376  1.00  0.00    -0.200 F 
ATOM     89  C   UNL     1      -3.531  -4.511  14.305  1.00  0.00     0.200 A 
ATOM     90  F   UNL     1      -4.240  -5.383  12.229  1.00  0.00    -0.200 F 
ATOM     91  F   UNL     1      -4.751  -4.001  14.525  1.00  0.00    -0.200 F 
ENDBRANCH  57  81
BRANCH  69  92
ATOM     92  C   UNL     1       2.692 -10.498  17.207  1.00  0.00     0.064 A 
ATOM     93  C   UNL     1       1.677 -11.465  17.274  1.00  0.00     0.173 A 
ATOM     94  C   UNL     1       3.462 -10.275  18.359  1.00  0.00     0.173 A 
ATOM     95  F   UNL     1       0.904 -11.707  16.205  1.00  0.00    -0.203 F 
ATOM     96  C   UNL     1       1.411 -12.142  18.461  1.00  0.00     0.198 A 
ATOM     97  C   UNL     1       3.222 -10.986  19.531  1.00  0.00     0.198 A 
ATOM     98  F   UNL     1       4.453  -9.370  18.348  1.00  0.00    -0.203 F 
ATOM     99  F   UNL     1       0.387 -13.004  18.521  1.00  0.00    -0.200 F 
ATOM    100  C   UNL     1       2.187 -11.907  19.586  1.00  0.00     0.200 A 
ATOM    101  F   UNL     1       3.985 -10.771  20.611  1.00  0.00    -0.200 F 
ATOM    102  F   UNL     1       1.929 -12.559  20.727  1.00  0.00    -0.200 F 
ENDBRANCH  69  92
ENDBRANCH  43  44
ENDBRANCH  36  38
ENDBRANCH  35  36
ENDBRANCH  34  35
ENDBRANCH  33  34
ENDBRANCH  32  33
ENDBRANCH  31  32
ENDBRANCH  30  31
ENDBRANCH  29  30
ENDBRANCH   1  29
TORSDOF 25
