REMARK SMILES Cc1c(CC(=O)OCCOCCOCCOCCOC(=O)c2ccc(-c3c4nc(c(-c5c(F)c(F)c(F)c(F)c5F)c5ccc([nH]5)c(-c5c(F)c(F)c(F)c(F)c5F)c5nc(c(-c6c(F)c(F)c(F)c(F)c6F)c6ccc3[nH]6)C=C5)C=C4)cc2)cc(-c2ccc(S(C)(=O)=O)cc2)n1-c1cccc(F)c1
REMARK SMILES IDX 12 1 11 2 10 3 9 4 8 5 7 6 5 7 6 8 4 9 3 10 1 11 2 12 97 13
REMARK SMILES IDX 85 14 86 15 98 16 99 17 104 18 100 19 102 20 101 21 103 22
REMARK SMILES IDX 87 23 88 24 96 25 89 26 95 27 90 28 91 29 92 30 93 31 94 32
REMARK SMILES IDX 13 33 14 34 15 35 16 36 17 37 18 38 19 39 20 40 21 41 22 42
REMARK SMILES IDX 23 43 84 44 24 45 83 46 25 47 26 48 27 49 77 50 28 51 82 52
REMARK SMILES IDX 76 53 78 54 29 55 81 56 75 57 74 58 30 60 62 61 42 62 61 63
REMARK SMILES IDX 43 64 46 65 60 66 79 67 44 68 45 69 59 71 80 72 47 73 31 74
REMARK SMILES IDX 32 75 40 76 33 77 34 78 38 79 41 80 35 81 36 82 39 83 37 84
REMARK SMILES IDX 63 85 64 86 72 87 65 88 66 89 70 90 73 91 67 92 68 93 71 94
REMARK SMILES IDX 69 95 48 96 49 97 57 98 50 99 51 100 55 101 58 102 52 103
REMARK SMILES IDX 53 104 56 105 54 106
REMARK H PARENT 78 59 46 70
REMARK Flexibility Score: inf
ROOT
ATOM      1  C   UNL     1      -0.199  -0.627  -1.769  1.00  0.00     0.188 C 
ENDROOT
BRANCH   1   2
ATOM      2  C   UNL     1       0.845   0.166  -2.576  1.00  0.00     0.188 C 
BRANCH   2   3
ATOM      3  O   UNL     1       1.184  -0.121  -3.925  1.00  0.00    -0.376 OA
BRANCH   3   4
ATOM      4  C   UNL     1       0.724  -1.282  -4.578  1.00  0.00     0.202 C 
BRANCH   4   5
ATOM      5  C   UNL     1       1.244  -2.668  -4.155  1.00  0.00     0.261 C 
BRANCH   5   6
ATOM      6  O   UNL     1       1.295  -2.928  -2.736  1.00  0.00    -0.463 OA
BRANCH   6   7
ATOM      7  C   UNL     1       2.505  -2.800  -2.138  1.00  0.00     0.310 C 
ATOM      8  O   UNL     1       3.540  -2.586  -2.766  1.00  0.00    -0.252 OA
BRANCH   7   9
ATOM      9  C   UNL     1       2.543  -3.045  -0.635  1.00  0.00     0.160 C 
BRANCH   9  10
ATOM     10  C   UNL     1       1.357  -2.765   0.274  1.00  0.00    -0.015 A 
ATOM     11  C   UNL     1       1.908  -0.374   1.194  1.00  0.00     0.065 C 
ATOM     12  C   UNL     1       1.112  -1.633   1.065  1.00  0.00     0.024 A 
ATOM     13  N   UNL     1      -0.059  -1.846   1.790  1.00  0.00    -0.313 N 
ATOM     14  C   UNL     1       0.385  -3.732   0.684  1.00  0.00     0.033 A 
ATOM     15  C   UNL     1      -0.405  -3.184   1.682  1.00  0.00     0.053 A 
BRANCH  13  16
ATOM     16  C   UNL     1      -0.775  -0.906   2.583  1.00  0.00     0.049 A 
ATOM     17  C   UNL     1      -0.595  -0.875   3.971  1.00  0.00     0.027 A 
ATOM     18  C   UNL     1      -1.831  -0.202   1.998  1.00  0.00     0.065 A 
ATOM     19  C   UNL     1      -1.459  -0.116   4.770  1.00  0.00     0.005 A 
ATOM     20  C   UNL     1      -2.672   0.554   2.814  1.00  0.00     0.125 A 
ATOM     21  C   UNL     1      -2.498   0.603   4.188  1.00  0.00     0.039 A 
ATOM     22  F   UNL     1      -3.705   1.228   2.303  1.00  0.00    -0.207 F 
ENDBRANCH  13  16
BRANCH  15  23
ATOM     23  C   UNL     1      -1.358  -3.828   2.591  1.00  0.00    -0.001 A 
ATOM     24  C   UNL     1      -2.737  -3.604   2.489  1.00  0.00     0.011 A 
ATOM     25  C   UNL     1      -0.861  -4.586   3.662  1.00  0.00     0.011 A 
ATOM     26  C   UNL     1      -3.610  -4.116   3.455  1.00  0.00     0.021 A 
ATOM     27  C   UNL     1      -1.726  -5.098   4.630  1.00  0.00     0.021 A 
ATOM     28  C   UNL     1      -3.095  -4.852   4.528  1.00  0.00     0.067 A 
BRANCH  28  29
ATOM     29  S   UNL     1      -4.216  -5.527   5.731  1.00  0.00     0.175 S 
ATOM     30  C   UNL     1      -4.876  -4.112   6.572  1.00  0.00     0.163 C 
ATOM     31  O   UNL     1      -5.276  -6.174   5.012  1.00  0.00    -0.224 OA
ATOM     32  O   UNL     1      -3.410  -6.265   6.709  1.00  0.00    -0.224 OA
ENDBRANCH  28  29
ENDBRANCH  15  23
ENDBRANCH   9  10
ENDBRANCH   7   9
ENDBRANCH   6   7
ENDBRANCH   5   6
ENDBRANCH   4   5
ENDBRANCH   3   4
ENDBRANCH   2   3
ENDBRANCH   1   2
BRANCH   1  33
ATOM     33  O   UNL     1      -1.586  -0.392  -1.719  1.00  0.00    -0.377 OA
BRANCH  33  34
ATOM     34  C   UNL     1      -2.320  -0.184  -2.890  1.00  0.00     0.188 C 
BRANCH  34  35
ATOM     35  C   UNL     1      -2.484   1.296  -3.210  1.00  0.00     0.188 C 
BRANCH  35  36
ATOM     36  O   UNL     1      -1.917   2.220  -2.291  1.00  0.00    -0.376 OA
BRANCH  36  37
ATOM     37  C   UNL     1      -2.245   2.109  -0.896  1.00  0.00     0.202 C 
BRANCH  37  38
ATOM     38  C   UNL     1      -3.748   2.044  -0.487  1.00  0.00     0.261 C 
BRANCH  38  39
ATOM     39  O   UNL     1      -4.332   0.750  -0.036  1.00  0.00    -0.460 OA
BRANCH  39  40
ATOM     40  C   UNL     1      -5.717   0.705  -0.014  1.00  0.00     0.338 C 
ATOM     41  O   UNL     1      -6.399   1.461  -0.700  1.00  0.00    -0.246 OA
BRANCH  40  42
ATOM     42  C   UNL     1      -6.456  -0.337   0.870  1.00  0.00     0.060 A 
ATOM     43  C   UNL     1      -7.053  -1.437   0.269  1.00  0.00     0.016 A 
ATOM     44  C   UNL     1      -6.943  -0.091   2.180  1.00  0.00     0.016 A 
ATOM     45  C   UNL     1      -8.049  -2.245   0.953  1.00  0.00     0.010 A 
ATOM     46  C   UNL     1      -8.022  -0.884   2.851  1.00  0.00     0.010 A 
ATOM     47  C   UNL     1      -8.654  -1.990   2.250  1.00  0.00    -0.014 A 
BRANCH  47  48
ATOM     48  C   UNL     1     -10.155  -2.695   2.558  1.00  0.00     0.031 A 
ATOM     49  C   UNL     1     -10.760  -2.687   1.196  1.00  0.00     0.074 A 
ATOM     50  C   UNL     1     -11.096  -3.146   3.519  1.00  0.00     0.049 A 
ATOM     51  N   UNL     1     -10.855  -1.556   0.552  1.00  0.00    -0.248 NA
ATOM     52  C   UNL     1     -10.902  -3.882   0.364  1.00  0.00     0.031 C 
ATOM     53  C   UNL     1     -11.004  -3.111   4.994  1.00  0.00     0.029 A 
ATOM     54  N   UNL     1     -12.418  -3.759   3.408  1.00  0.00    -0.354 N 
ATOM     55  C   UNL     1     -11.357  -1.863  -0.683  1.00  0.00     0.074 A 
ATOM     56  C   UNL     1     -11.153  -3.299  -0.815  1.00  0.00     0.031 C 
ATOM     57  C   UNL     1     -12.059  -3.739   5.606  1.00  0.00     0.029 A 
ATOM     58  C   UNL     1     -13.046  -4.231   4.639  1.00  0.00     0.049 A 
ATOM     59  H   UNL     1     -12.868  -3.850   2.537  1.00  0.00     0.167 HD
ATOM     60  C   UNL     1     -12.410  -1.095  -1.081  1.00  0.00     0.037 A 
ATOM     61  C   UNL     1     -14.274  -4.868   4.902  1.00  0.00     0.037 A 
ATOM     62  C   UNL     1     -13.656  -1.795  -0.962  1.00  0.00     0.049 A 
ATOM     63  C   UNL     1     -15.185  -4.513   3.809  1.00  0.00     0.074 A 
ATOM     64  C   UNL     1     -14.035  -3.091  -1.247  1.00  0.00     0.029 A 
ATOM     65  N   UNL     1     -14.563  -1.312  -0.043  1.00  0.00    -0.354 N 
ATOM     66  N   UNL     1     -15.788  -3.365   3.809  1.00  0.00    -0.248 NA
ATOM     67  C   UNL     1     -15.633  -5.448   2.783  1.00  0.00     0.031 C 
ATOM     68  C   UNL     1     -14.759  -3.498  -0.107  1.00  0.00     0.029 A 
ATOM     69  C   UNL     1     -15.127  -2.373   0.621  1.00  0.00     0.049 A 
ATOM     70  H   UNL     1     -14.772  -0.362   0.111  1.00  0.00     0.167 HD
ATOM     71  C   UNL     1     -16.220  -3.245   2.535  1.00  0.00     0.074 A 
ATOM     72  C   UNL     1     -16.376  -4.605   2.057  1.00  0.00     0.031 C 
ATOM     73  C   UNL     1     -15.748  -2.148   1.897  1.00  0.00     0.037 A 
BRANCH  60  74
ATOM     74  C   UNL     1     -12.228   0.367  -0.777  1.00  0.00     0.064 A 
ATOM     75  C   UNL     1     -11.948   1.248  -1.823  1.00  0.00     0.173 A 
ATOM     76  C   UNL     1     -12.171   0.879   0.538  1.00  0.00     0.173 A 
ATOM     77  F   UNL     1     -12.055   0.836  -3.095  1.00  0.00    -0.203 F 
ATOM     78  C   UNL     1     -11.557   2.562  -1.565  1.00  0.00     0.198 A 
ATOM     79  C   UNL     1     -11.710   2.164   0.795  1.00  0.00     0.198 A 
ATOM     80  F   UNL     1     -12.566   0.132   1.583  1.00  0.00    -0.203 F 
ATOM     81  F   UNL     1     -11.327   3.401  -2.584  1.00  0.00    -0.200 F 
ATOM     82  C   UNL     1     -11.398   3.004  -0.258  1.00  0.00     0.200 A 
ATOM     83  F   UNL     1     -11.573   2.584   2.061  1.00  0.00    -0.200 F 
ATOM     84  F   UNL     1     -10.972   4.251  -0.014  1.00  0.00    -0.200 F 
ENDBRANCH  60  74
BRANCH  61  85
ATOM     85  C   UNL     1     -15.171  -5.608   5.979  1.00  0.00     0.064 A 
ATOM     86  C   UNL     1     -16.601  -5.390   6.055  1.00  0.00     0.173 A 
ATOM     87  C   UNL     1     -14.783  -6.819   6.573  1.00  0.00     0.173 A 
ATOM     88  F   UNL     1     -17.164  -4.261   5.606  1.00  0.00    -0.203 F 
ATOM     89  C   UNL     1     -17.531  -6.336   6.533  1.00  0.00     0.198 A 
ATOM     90  C   UNL     1     -15.722  -7.751   7.106  1.00  0.00     0.198 A 
ATOM     91  F   UNL     1     -13.493  -7.176   6.570  1.00  0.00    -0.203 F 
ATOM     92  F   UNL     1     -18.851  -6.105   6.426  1.00  0.00    -0.200 F 
ATOM     93  C   UNL     1     -17.090  -7.529   7.046  1.00  0.00     0.200 A 
ATOM     94  F   UNL     1     -15.293  -8.914   7.618  1.00  0.00    -0.200 F 
ATOM     95  F   UNL     1     -17.969  -8.461   7.452  1.00  0.00    -0.200 F 
ENDBRANCH  61  85
BRANCH  73  96
ATOM     96  C   UNL     1     -15.763  -0.852   2.701  1.00  0.00     0.064 A 
ATOM     97  C   UNL     1     -15.268  -0.654   4.017  1.00  0.00     0.173 A 
ATOM     98  C   UNL     1     -16.463   0.227   2.149  1.00  0.00     0.173 A 
ATOM     99  F   UNL     1     -14.454  -1.534   4.617  1.00  0.00    -0.203 F 
ATOM    100  C   UNL     1     -15.585   0.485   4.764  1.00  0.00     0.198 A 
ATOM    101  C   UNL     1     -16.724   1.390   2.875  1.00  0.00     0.198 A 
ATOM    102  F   UNL     1     -16.902   0.159   0.883  1.00  0.00    -0.203 F 
ATOM    103  F   UNL     1     -15.182   0.589   6.040  1.00  0.00    -0.200 F 
ATOM    104  C   UNL     1     -16.320   1.504   4.193  1.00  0.00     0.200 A 
ATOM    105  F   UNL     1     -17.384   2.399   2.290  1.00  0.00    -0.200 F 
ATOM    106  F   UNL     1     -16.624   2.600   4.902  1.00  0.00    -0.200 F 
ENDBRANCH  73  96
ENDBRANCH  47  48
ENDBRANCH  40  42
ENDBRANCH  39  40
ENDBRANCH  38  39
ENDBRANCH  37  38
ENDBRANCH  36  37
ENDBRANCH  35  36
ENDBRANCH  34  35
ENDBRANCH  33  34
ENDBRANCH   1  33
TORSDOF 24
