REMARK SMILES O=C(OCCOCCOCCOCCOC(=O)c1nnn(-c2ccc(C(F)(F)F)cc2)c1-c1cccc(Cl)c1)c1ccc(-c2c3nc(c(-c4c(F)c(F)c(F)c(F)c4F)c4ccc([nH]4)c(-c4c(F)c(F)c(F)c(F)c4F)c4nc(c(-c5c(F)c(F)c(F)c(F)c5F)c5ccc2[nH]5)C=C4)C=C3)cc1
REMARK SMILES IDX 9 1 8 2 7 3 6 4 5 5 4 6 3 7 2 8 1 9 40 10 41 11 102 12 42 13
REMARK SMILES IDX 101 14 43 15 44 16 45 17 95 18 46 19 100 20 94 21 96 22
REMARK SMILES IDX 47 23 99 24 93 25 92 26 48 28 80 29 60 30 79 31 61 32 64 33
REMARK SMILES IDX 78 34 97 35 62 36 63 37 77 39 98 40 65 41 49 42 50 43 58 44
REMARK SMILES IDX 51 45 52 46 56 47 59 48 53 49 54 50 57 51 55 52 81 53 82 54
REMARK SMILES IDX 90 55 83 56 84 57 88 58 91 59 85 60 86 61 89 62 87 63 66 64
REMARK SMILES IDX 67 65 75 66 68 67 69 68 73 69 76 70 70 71 71 72 74 73 72 74
REMARK SMILES IDX 10 75 11 76 12 77 13 78 14 79 15 80 16 81 17 82 18 83 19 84
REMARK SMILES IDX 32 85 20 86 21 87 33 88 34 89 39 90 35 91 37 92 36 93 38 94
REMARK SMILES IDX 22 95 23 96 31 97 24 98 30 99 25 100 26 101 27 102 28 103
REMARK SMILES IDX 29 104
REMARK H PARENT 96 27 64 38
REMARK Flexibility Score: inf
ROOT
ATOM      1  O   UNL     1       2.792  -2.551   1.679  1.00  0.00    -0.377 OA
ENDROOT
BRANCH   1   2
ATOM      2  C   UNL     1       2.308  -1.493   0.874  1.00  0.00     0.188 C 
BRANCH   2   3
ATOM      3  C   UNL     1       2.950  -1.371  -0.516  1.00  0.00     0.188 C 
BRANCH   3   4
ATOM      4  O   UNL     1       4.187  -0.730  -0.809  1.00  0.00    -0.376 OA
BRANCH   4   5
ATOM      5  C   UNL     1       4.954   0.089   0.047  1.00  0.00     0.202 C 
BRANCH   5   6
ATOM      6  C   UNL     1       4.419   1.416   0.588  1.00  0.00     0.261 C 
BRANCH   6   7
ATOM      7  O   UNL     1       3.029   1.447   0.900  1.00  0.00    -0.460 OA
BRANCH   7   8
ATOM      8  C   UNL     1       1.960   1.567   0.089  1.00  0.00     0.338 C 
ATOM      9  O   UNL     1       0.844   1.440   0.592  1.00  0.00    -0.246 OA
BRANCH   8  10
ATOM     10  C   UNL     1       2.032   1.814  -1.378  1.00  0.00     0.060 A 
ATOM     11  C   UNL     1       3.188   2.038  -2.126  1.00  0.00     0.016 A 
ATOM     12  C   UNL     1       0.790   1.839  -2.043  1.00  0.00     0.016 A 
ATOM     13  C   UNL     1       3.103   2.444  -3.445  1.00  0.00     0.010 A 
ATOM     14  C   UNL     1       0.697   2.210  -3.374  1.00  0.00     0.010 A 
ATOM     15  C   UNL     1       1.855   2.583  -4.042  1.00  0.00    -0.014 A 
BRANCH  15  16
ATOM     16  C   UNL     1       1.835   3.125  -5.387  1.00  0.00     0.031 A 
ATOM     17  C   UNL     1       2.498   2.298  -6.426  1.00  0.00     0.074 A 
ATOM     18  C   UNL     1       1.240   4.298  -5.668  1.00  0.00     0.049 A 
ATOM     19  N   UNL     1       3.502   2.618  -7.176  1.00  0.00    -0.248 NA
ATOM     20  C   UNL     1       2.039   0.912  -6.589  1.00  0.00     0.031 C 
ATOM     21  C   UNL     1       0.350   5.087  -4.815  1.00  0.00     0.029 A 
ATOM     22  N   UNL     1       1.244   4.988  -6.841  1.00  0.00    -0.354 N 
ATOM     23  C   UNL     1       3.708   1.532  -8.024  1.00  0.00     0.074 A 
ATOM     24  C   UNL     1       2.858   0.473  -7.545  1.00  0.00     0.031 C 
ATOM     25  C   UNL     1      -0.272   6.019  -5.570  1.00  0.00     0.029 A 
ATOM     26  C   UNL     1       0.276   5.976  -6.915  1.00  0.00     0.049 A 
ATOM     27  H   UNL     1       1.878   4.802  -7.571  1.00  0.00     0.167 HD
ATOM     28  C   UNL     1       4.415   1.663  -9.179  1.00  0.00     0.037 A 
ATOM     29  C   UNL     1      -0.096   6.653  -8.027  1.00  0.00     0.037 A 
ATOM     30  C   UNL     1       5.301   2.797  -9.125  1.00  0.00     0.049 A 
ATOM     31  C   UNL     1       1.000   6.536  -9.019  1.00  0.00     0.074 A 
ATOM     32  C   UNL     1       6.355   3.163  -8.309  1.00  0.00     0.029 A 
ATOM     33  N   UNL     1       4.965   3.932  -9.817  1.00  0.00    -0.354 N 
ATOM     34  N   UNL     1       2.157   7.126  -8.908  1.00  0.00    -0.248 NA
ATOM     35  C   UNL     1       0.957   5.422  -9.955  1.00  0.00     0.031 C 
ATOM     36  C   UNL     1       6.261   4.581  -8.194  1.00  0.00     0.029 A 
ATOM     37  C   UNL     1       5.186   4.994  -8.980  1.00  0.00     0.049 A 
ATOM     38  H   UNL     1       4.628   3.976 -10.741  1.00  0.00     0.167 HD
ATOM     39  C   UNL     1       3.067   6.208  -9.407  1.00  0.00     0.074 A 
ATOM     40  C   UNL     1       2.265   5.232 -10.137  1.00  0.00     0.031 C 
ATOM     41  C   UNL     1       4.352   6.169  -8.947  1.00  0.00     0.037 A 
BRANCH  28  42
ATOM     42  C   UNL     1       4.037   0.991 -10.480  1.00  0.00     0.064 A 
ATOM     43  C   UNL     1       4.864   1.169 -11.608  1.00  0.00     0.173 A 
ATOM     44  C   UNL     1       2.755   0.463 -10.748  1.00  0.00     0.173 A 
ATOM     45  F   UNL     1       6.104   1.667 -11.478  1.00  0.00    -0.203 F 
ATOM     46  C   UNL     1       4.403   0.944 -12.908  1.00  0.00     0.198 A 
ATOM     47  C   UNL     1       2.317   0.190 -12.043  1.00  0.00     0.198 A 
ATOM     48  F   UNL     1       1.836   0.292  -9.792  1.00  0.00    -0.203 F 
ATOM     49  F   UNL     1       5.176   1.267 -13.953  1.00  0.00    -0.200 F 
ATOM     50  C   UNL     1       3.124   0.467 -13.124  1.00  0.00     0.200 A 
ATOM     51  F   UNL     1       1.069  -0.262 -12.232  1.00  0.00    -0.200 F 
ATOM     52  F   UNL     1       2.652   0.321 -14.369  1.00  0.00    -0.200 F 
ENDBRANCH  28  42
BRANCH  29  53
ATOM     53  C   UNL     1      -1.442   7.154  -8.383  1.00  0.00     0.064 A 
ATOM     54  C   UNL     1      -1.611   8.097  -9.408  1.00  0.00     0.173 A 
ATOM     55  C   UNL     1      -2.610   6.521  -7.913  1.00  0.00     0.173 A 
ATOM     56  F   UNL     1      -0.545   8.713  -9.941  1.00  0.00    -0.203 F 
ATOM     57  C   UNL     1      -2.870   8.370  -9.951  1.00  0.00     0.198 A 
ATOM     58  C   UNL     1      -3.866   6.803  -8.446  1.00  0.00     0.198 A 
ATOM     59  F   UNL     1      -2.545   5.546  -6.995  1.00  0.00    -0.203 F 
ATOM     60  F   UNL     1      -2.983   9.226 -10.976  1.00  0.00    -0.200 F 
ATOM     61  C   UNL     1      -3.995   7.716  -9.476  1.00  0.00     0.200 A 
ATOM     62  F   UNL     1      -4.941   6.138  -8.000  1.00  0.00    -0.200 F 
ATOM     63  F   UNL     1      -5.192   7.932 -10.037  1.00  0.00    -0.200 F 
ENDBRANCH  29  53
BRANCH  41  64
ATOM     64  C   UNL     1       4.840   7.327  -8.127  1.00  0.00     0.064 A 
ATOM     65  C   UNL     1       4.285   7.708  -6.893  1.00  0.00     0.173 A 
ATOM     66  C   UNL     1       6.002   7.991  -8.545  1.00  0.00     0.173 A 
ATOM     67  F   UNL     1       3.241   7.050  -6.371  1.00  0.00    -0.203 F 
ATOM     68  C   UNL     1       4.840   8.743  -6.143  1.00  0.00     0.198 A 
ATOM     69  C   UNL     1       6.577   8.997  -7.774  1.00  0.00     0.198 A 
ATOM     70  F   UNL     1       6.610   7.629  -9.686  1.00  0.00    -0.203 F 
ATOM     71  F   UNL     1       4.283   9.102  -4.976  1.00  0.00    -0.200 F 
ATOM     72  C   UNL     1       5.989   9.382  -6.581  1.00  0.00     0.200 A 
ATOM     73  F   UNL     1       7.718   9.575  -8.176  1.00  0.00    -0.200 F 
ATOM     74  F   UNL     1       6.545  10.350  -5.839  1.00  0.00    -0.200 F 
ENDBRANCH  41  64
ENDBRANCH  15  16
ENDBRANCH   8  10
ENDBRANCH   7   8
ENDBRANCH   6   7
ENDBRANCH   5   6
ENDBRANCH   4   5
ENDBRANCH   3   4
ENDBRANCH   2   3
ENDBRANCH   1   2
BRANCH   1  75
ATOM     75  C   UNL     1       4.099  -2.361   2.168  1.00  0.00     0.188 C 
BRANCH  75  76
ATOM     76  C   UNL     1       5.189  -3.146   1.409  1.00  0.00     0.188 C 
BRANCH  76  77
ATOM     77  O   UNL     1       4.904  -4.269   0.576  1.00  0.00    -0.376 OA
BRANCH  77  78
ATOM     78  C   UNL     1       3.656  -4.936   0.607  1.00  0.00     0.202 C 
BRANCH  78  79
ATOM     79  C   UNL     1       3.356  -5.787   1.841  1.00  0.00     0.261 C 
BRANCH  79  80
ATOM     80  O   UNL     1       3.604  -5.128   3.082  1.00  0.00    -0.458 OA
BRANCH  80  81
ATOM     81  C   UNL     1       4.867  -5.274   3.594  1.00  0.00     0.361 C 
ATOM     82  O   UNL     1       5.747  -5.959   3.127  1.00  0.00    -0.244 OA
BRANCH  81  83
ATOM     83  C   UNL     1       5.012  -4.492   4.811  1.00  0.00     0.198 A 
ATOM     84  N   UNL     1       5.819  -3.386   4.939  1.00  0.00    -0.122 NA
ATOM     85  C   UNL     1       4.290  -4.673   5.970  1.00  0.00     0.109 A 
ATOM     86  N   UNL     1       5.611  -2.865   6.146  1.00  0.00    -0.061 NA
ATOM     87  N   UNL     1       4.835  -3.736   6.829  1.00  0.00    -0.212 N 
BRANCH  85  88
ATOM     88  C   UNL     1       3.227  -5.623   6.280  1.00  0.00     0.004 A 
ATOM     89  C   UNL     1       2.018  -5.194   6.847  1.00  0.00     0.010 A 
ATOM     90  C   UNL     1       3.398  -6.976   5.968  1.00  0.00     0.031 A 
ATOM     91  C   UNL     1       1.000  -6.113   7.107  1.00  0.00     0.002 A 
ATOM     92  C   UNL     1       2.375  -7.884   6.221  1.00  0.00     0.041 A 
ATOM     93  C   UNL     1       1.178  -7.460   6.792  1.00  0.00     0.020 A 
ATOM     94  Cl  UNL     1       2.597  -9.540   5.814  1.00  0.00    -0.084 Cl
ENDBRANCH  85  88
BRANCH  87  95
ATOM     95  C   UNL     1       4.784  -3.759   8.234  1.00  0.00     0.067 A 
ATOM     96  C   UNL     1       4.516  -2.602   8.964  1.00  0.00     0.029 A 
ATOM     97  C   UNL     1       4.943  -4.996   8.870  1.00  0.00     0.029 A 
ATOM     98  C   UNL     1       4.290  -2.722  10.340  1.00  0.00     0.015 A 
ATOM     99  C   UNL     1       4.753  -5.101  10.239  1.00  0.00     0.015 A 
ATOM    100  C   UNL     1       4.384  -3.974  10.983  1.00  0.00     0.056 A 
BRANCH 100 101
ATOM    101  C   UNL     1       4.056  -4.119  12.449  1.00  0.00     0.416 C 
ATOM    102  F   UNL     1       4.825  -3.327  13.243  1.00  0.00    -0.166 F 
ATOM    103  F   UNL     1       2.763  -3.789  12.720  1.00  0.00    -0.166 F 
ATOM    104  F   UNL     1       4.218  -5.389  12.915  1.00  0.00    -0.166 F 
ENDBRANCH 100 101
ENDBRANCH  87  95
ENDBRANCH  81  83
ENDBRANCH  80  81
ENDBRANCH  79  80
ENDBRANCH  78  79
ENDBRANCH  77  78
ENDBRANCH  76  77
ENDBRANCH  75  76
ENDBRANCH   1  75
TORSDOF 23
