REMARK SMILES CS(=O)(=O)c1ccc(/C=C(/C(=O)OCCOCCOCCOCCOC(=O)c2ccc(-c3c4nc(c(-c5c(F)c(F)c(F)c(F)c5F)c5ccc([nH]5)c(-c5c(F)c(F)c(F)c(F)c5F)c5nc(c(-c6c(F)c(F)c(F)c(F)c6F)c6ccc3[nH]6)C=C5)C=C4)cc2)c2ccc(F)cc2)cc1
REMARK SMILES IDX 19 1 18 2 17 3 16 4 15 5 14 6 13 7 11 8 12 9 10 10 9 11 8 12
REMARK SMILES IDX 5 13 6 14 99 15 7 16 98 17 2 18 1 19 3 20 4 21 91 22 92 23
REMARK SMILES IDX 97 24 93 25 96 26 94 27 95 28 20 29 21 30 22 31 23 32 24 33
REMARK SMILES IDX 25 34 26 35 27 36 28 37 29 38 90 39 30 40 89 41 31 42 32 43
REMARK SMILES IDX 33 44 83 45 34 46 88 47 82 48 84 49 35 50 87 51 81 52 80 53
REMARK SMILES IDX 36 55 68 56 48 57 67 58 49 59 52 60 66 61 85 62 50 63 51 64
REMARK SMILES IDX 65 66 86 67 53 68 37 69 38 70 46 71 39 72 40 73 44 74 47 75
REMARK SMILES IDX 41 76 42 77 45 78 43 79 69 80 70 81 78 82 71 83 72 84 76 85
REMARK SMILES IDX 79 86 73 87 74 88 77 89 75 90 54 91 55 92 63 93 56 94 57 95
REMARK SMILES IDX 61 96 64 97 58 98 59 99 62 100 60 101
REMARK H PARENT 84 54 52 65
REMARK Flexibility Score: inf
ROOT
ATOM      1  O   UNL     1       2.138   9.699   1.425  1.00  0.00    -0.377 OA
ENDROOT
BRANCH   1   2
ATOM      2  C   UNL     1       3.239   8.830   1.622  1.00  0.00     0.188 C 
BRANCH   2   3
ATOM      3  C   UNL     1       4.666   9.358   1.379  1.00  0.00     0.188 C 
BRANCH   3   4
ATOM      4  O   UNL     1       4.721  10.624   0.727  1.00  0.00    -0.376 OA
BRANCH   4   5
ATOM      5  C   UNL     1       5.179  10.596  -0.619  1.00  0.00     0.202 C 
BRANCH   5   6
ATOM      6  C   UNL     1       4.105  10.139  -1.612  1.00  0.00     0.261 C 
BRANCH   6   7
ATOM      7  O   UNL     1       3.629   8.801  -1.391  1.00  0.00    -0.460 OA
BRANCH   7   8
ATOM      8  C   UNL     1       4.519   7.795  -1.570  1.00  0.00     0.338 C 
ATOM      9  O   UNL     1       5.667   7.929  -1.964  1.00  0.00    -0.246 OA
BRANCH   8  10
ATOM     10  C   UNL     1       3.946   6.491  -1.099  1.00  0.00     0.067 C 
ATOM     11  C   UNL     1       2.627   6.255  -1.303  1.00  0.00     0.024 C 
BRANCH  11  12
ATOM     12  C   UNL     1       1.865   5.002  -1.112  1.00  0.00    -0.025 A 
ATOM     13  C   UNL     1       0.636   2.482  -1.182  1.00  0.00     0.067 A 
ATOM     14  C   UNL     1       1.587   2.757  -0.204  1.00  0.00     0.021 A 
ATOM     15  C   UNL     1       0.198   3.492  -2.041  1.00  0.00     0.021 A 
ATOM     16  C   UNL     1       2.168   4.027  -0.154  1.00  0.00     0.009 A 
ATOM     17  C   UNL     1       0.811   4.746  -2.002  1.00  0.00     0.009 A 
BRANCH  13  18
ATOM     18  S   UNL     1       0.005   0.846  -1.452  1.00  0.00     0.175 S 
ATOM     19  C   UNL     1       0.623  -0.181  -0.151  1.00  0.00     0.163 C 
ATOM     20  O   UNL     1       0.606   0.385  -2.690  1.00  0.00    -0.224 OA
ATOM     21  O   UNL     1      -1.434   0.928  -1.299  1.00  0.00    -0.224 OA
ENDBRANCH  13  18
ENDBRANCH  11  12
BRANCH  10  22
ATOM     22  C   UNL     1       4.867   5.526  -0.465  1.00  0.00    -0.011 A 
ATOM     23  C   UNL     1       5.159   5.639   0.908  1.00  0.00     0.012 A 
ATOM     24  C   UNL     1       5.392   4.447  -1.185  1.00  0.00     0.012 A 
ATOM     25  C   UNL     1       5.944   4.684   1.552  1.00  0.00     0.040 A 
ATOM     26  C   UNL     1       6.174   3.488  -0.536  1.00  0.00     0.040 A 
ATOM     27  C   UNL     1       6.440   3.613   0.824  1.00  0.00     0.123 A 
ATOM     28  F   UNL     1       7.166   2.676   1.446  1.00  0.00    -0.207 F 
ENDBRANCH  10  22
ENDBRANCH   8  10
ENDBRANCH   7   8
ENDBRANCH   6   7
ENDBRANCH   5   6
ENDBRANCH   4   5
ENDBRANCH   3   4
ENDBRANCH   2   3
ENDBRANCH   1   2
BRANCH   1  29
ATOM     29  C   UNL     1       2.222  11.039   1.888  1.00  0.00     0.188 C 
BRANCH  29  30
ATOM     30  C   UNL     1       3.069  11.374   3.131  1.00  0.00     0.188 C 
BRANCH  30  31
ATOM     31  O   UNL     1       3.385  10.256   3.954  1.00  0.00    -0.376 OA
BRANCH  31  32
ATOM     32  C   UNL     1       2.689  10.166   5.190  1.00  0.00     0.202 C 
BRANCH  32  33
ATOM     33  C   UNL     1       1.246   9.672   5.050  1.00  0.00     0.261 C 
BRANCH  33  34
ATOM     34  O   UNL     1       0.374  10.556   4.329  1.00  0.00    -0.460 OA
BRANCH  34  35
ATOM     35  C   UNL     1       0.203  11.803   4.819  1.00  0.00     0.338 C 
ATOM     36  O   UNL     1       0.669  12.274   5.840  1.00  0.00    -0.246 OA
BRANCH  35  37
ATOM     37  C   UNL     1      -0.513  12.577   3.790  1.00  0.00     0.060 A 
ATOM     38  C   UNL     1       0.091  13.724   3.258  1.00  0.00     0.016 A 
ATOM     39  C   UNL     1      -1.753  12.138   3.322  1.00  0.00     0.016 A 
ATOM     40  C   UNL     1      -0.556  14.444   2.255  1.00  0.00     0.010 A 
ATOM     41  C   UNL     1      -2.410  12.873   2.336  1.00  0.00     0.010 A 
ATOM     42  C   UNL     1      -1.824  14.038   1.814  1.00  0.00    -0.014 A 
BRANCH  42  43
ATOM     43  C   UNL     1      -2.627  14.920   0.940  1.00  0.00     0.031 A 
ATOM     44  C   UNL     1      -3.592  15.871   1.585  1.00  0.00     0.074 A 
ATOM     45  C   UNL     1      -2.519  14.861  -0.398  1.00  0.00     0.049 A 
ATOM     46  N   UNL     1      -4.449  16.690   1.033  1.00  0.00    -0.248 NA
ATOM     47  C   UNL     1      -3.592  15.895   3.056  1.00  0.00     0.031 C 
ATOM     48  C   UNL     1      -1.595  14.005  -1.136  1.00  0.00     0.029 A 
ATOM     49  N   UNL     1      -3.212  15.534  -1.373  1.00  0.00    -0.354 N 
ATOM     50  C   UNL     1      -5.087  17.328   2.088  1.00  0.00     0.074 A 
ATOM     51  C   UNL     1      -4.544  16.778   3.311  1.00  0.00     0.031 C 
ATOM     52  C   UNL     1      -1.786  14.195  -2.453  1.00  0.00     0.029 A 
ATOM     53  C   UNL     1      -2.867  15.161  -2.647  1.00  0.00     0.049 A 
ATOM     54  H   UNL     1      -3.892  16.219  -1.177  1.00  0.00     0.167 HD
ATOM     55  C   UNL     1      -6.036  18.291   2.039  1.00  0.00     0.037 A 
ATOM     56  C   UNL     1      -3.387  15.542  -3.830  1.00  0.00     0.037 A 
ATOM     57  C   UNL     1      -6.590  18.819   0.822  1.00  0.00     0.049 A 
ATOM     58  C   UNL     1      -4.519  16.537  -3.857  1.00  0.00     0.074 A 
ATOM     59  C   UNL     1      -7.537  19.815   0.664  1.00  0.00     0.029 A 
ATOM     60  N   UNL     1      -6.257  18.375  -0.450  1.00  0.00    -0.354 N 
ATOM     61  N   UNL     1      -5.092  17.167  -2.860  1.00  0.00    -0.248 NA
ATOM     62  C   UNL     1      -5.081  16.866  -5.175  1.00  0.00     0.031 C 
ATOM     63  C   UNL     1      -7.819  19.934  -0.702  1.00  0.00     0.029 A 
ATOM     64  C   UNL     1      -7.010  19.049  -1.398  1.00  0.00     0.049 A 
ATOM     65  H   UNL     1      -5.586  17.683  -0.649  1.00  0.00     0.167 HD
ATOM     66  C   UNL     1      -6.064  17.980  -3.429  1.00  0.00     0.074 A 
ATOM     67  C   UNL     1      -5.996  17.773  -4.860  1.00  0.00     0.031 C 
ATOM     68  C   UNL     1      -6.934  18.825  -2.820  1.00  0.00     0.037 A 
BRANCH  55  69
ATOM     69  C   UNL     1      -6.555  18.802   3.350  1.00  0.00     0.064 A 
ATOM     70  C   UNL     1      -5.765  19.598   4.195  1.00  0.00     0.173 A 
ATOM     71  C   UNL     1      -7.855  18.485   3.771  1.00  0.00     0.173 A 
ATOM     72  F   UNL     1      -4.508  19.912   3.846  1.00  0.00    -0.203 F 
ATOM     73  C   UNL     1      -6.247  20.027   5.429  1.00  0.00     0.198 A 
ATOM     74  C   UNL     1      -8.342  18.941   4.992  1.00  0.00     0.198 A 
ATOM     75  F   UNL     1      -8.649  17.728   3.001  1.00  0.00    -0.203 F 
ATOM     76  F   UNL     1      -5.454  20.735   6.246  1.00  0.00    -0.200 F 
ATOM     77  C   UNL     1      -7.535  19.702   5.825  1.00  0.00     0.200 A 
ATOM     78  F   UNL     1      -9.591  18.633   5.370  1.00  0.00    -0.200 F 
ATOM     79  F   UNL     1      -7.996  20.112   7.014  1.00  0.00    -0.200 F 
ENDBRANCH  55  69
BRANCH  56  80
ATOM     80  C   UNL     1      -2.846  14.974  -5.092  1.00  0.00     0.064 A 
ATOM     81  C   UNL     1      -2.110  15.769  -5.980  1.00  0.00     0.173 A 
ATOM     82  C   UNL     1      -3.055  13.630  -5.437  1.00  0.00     0.173 A 
ATOM     83  F   UNL     1      -1.909  17.067  -5.708  1.00  0.00    -0.203 F 
ATOM     84  C   UNL     1      -1.607  15.243  -7.169  1.00  0.00     0.198 A 
ATOM     85  C   UNL     1      -2.531  13.100  -6.614  1.00  0.00     0.198 A 
ATOM     86  F   UNL     1      -3.760  12.830  -4.623  1.00  0.00    -0.203 F 
ATOM     87  F   UNL     1      -0.935  16.034  -8.017  1.00  0.00    -0.200 F 
ATOM     88  C   UNL     1      -1.812  13.908  -7.481  1.00  0.00     0.200 A 
ATOM     89  F   UNL     1      -2.724  11.807  -6.907  1.00  0.00    -0.200 F 
ATOM     90  F   UNL     1      -1.321  13.401  -8.620  1.00  0.00    -0.200 F 
ENDBRANCH  56  80
BRANCH  68  91
ATOM     91  C   UNL     1      -7.873  19.601  -3.697  1.00  0.00     0.064 A 
ATOM     92  C   UNL     1      -8.963  18.985  -4.331  1.00  0.00     0.173 A 
ATOM     93  C   UNL     1      -7.713  20.985  -3.864  1.00  0.00     0.173 A 
ATOM     94  F   UNL     1      -9.151  17.662  -4.216  1.00  0.00    -0.203 F 
ATOM     95  C   UNL     1      -9.846  19.724  -5.114  1.00  0.00     0.198 A 
ATOM     96  C   UNL     1      -8.615  21.725  -4.623  1.00  0.00     0.198 A 
ATOM     97  F   UNL     1      -6.691  21.623  -3.273  1.00  0.00    -0.203 F 
ATOM     98  F   UNL     1     -10.857  19.108  -5.742  1.00  0.00    -0.200 F 
ATOM     99  C   UNL     1      -9.677  21.094  -5.252  1.00  0.00     0.200 A 
ATOM    100  F   UNL     1      -8.457  23.050  -4.744  1.00  0.00    -0.200 F 
ATOM    101  F   UNL     1     -10.535  21.805  -5.997  1.00  0.00    -0.200 F 
ENDBRANCH  68  91
ENDBRANCH  42  43
ENDBRANCH  35  37
ENDBRANCH  34  35
ENDBRANCH  33  34
ENDBRANCH  32  33
ENDBRANCH  31  32
ENDBRANCH  30  31
ENDBRANCH  29  30
ENDBRANCH   1  29
TORSDOF 23
