REMARK SMILES O=C(OCCOCCOCCOCCOC(=O)[C@H]1CS[C@H](c2nc3ccccc3s2)[NH2+]1)c1ccc(-c2c3nc(c(-c4c(F)c(F)c(F)c(F)c4F)c4ccc([nH]4)c(-c4c(F)c(F)c(F)c(F)c4F)c4nc(c(-c5c(F)c(F)c(F)c(F)c5F)c5ccc2[nH]5)C=C4)C=C3)cc1
REMARK SMILES IDX 8 1 7 2 6 3 5 4 4 5 3 6 2 7 1 8 32 9 33 10 94 11 34 12 93 13
REMARK SMILES IDX 35 14 36 15 37 16 87 17 38 18 92 19 86 20 88 21 39 22 91 23
REMARK SMILES IDX 85 24 84 25 40 27 72 28 52 29 71 30 53 31 56 32 70 33 89 34
REMARK SMILES IDX 54 35 55 36 69 38 90 39 57 40 41 41 42 42 50 43 43 44 44 45
REMARK SMILES IDX 48 46 51 47 45 48 46 49 49 50 47 51 73 52 74 53 82 54 75 55
REMARK SMILES IDX 76 56 80 57 83 58 77 59 78 60 81 61 79 62 58 63 59 64 67 65
REMARK SMILES IDX 60 66 61 67 65 68 68 69 62 70 63 71 66 72 64 73 9 74 10 75
REMARK SMILES IDX 11 76 12 77 13 78 14 79 15 80 16 81 17 82 18 83 19 84 31 85
REMARK SMILES IDX 20 86 21 87 22 90 23 91 30 92 24 93 29 94 25 95 28 96 26 97
REMARK SMILES IDX 27 98
REMARK H PARENT 88 26 56 37 31 88 31 89
REMARK Flexibility Score: inf
ROOT
ATOM      1  C   UNL     1       1.595   1.986  -1.264  1.00  0.00     0.188 C 
ENDROOT
BRANCH   1   2
ATOM      2  C   UNL     1       2.161   0.606  -0.938  1.00  0.00     0.188 C 
BRANCH   2   3
ATOM      3  O   UNL     1       3.540   0.658  -0.559  1.00  0.00    -0.376 OA
BRANCH   3   4
ATOM      4  C   UNL     1       4.386  -0.338  -1.140  1.00  0.00     0.202 C 
BRANCH   4   5
ATOM      5  C   UNL     1       4.274  -1.732  -0.519  1.00  0.00     0.261 C 
BRANCH   5   6
ATOM      6  O   UNL     1       2.963  -2.030  -0.021  1.00  0.00    -0.460 OA
BRANCH   6   7
ATOM      7  C   UNL     1       2.418  -1.706   1.177  1.00  0.00     0.338 C 
ATOM      8  O   UNL     1       1.267  -2.080   1.403  1.00  0.00    -0.246 OA
BRANCH   7   9
ATOM      9  C   UNL     1       3.101  -0.895   2.241  1.00  0.00     0.060 A 
ATOM     10  C   UNL     1       4.283  -0.170   2.086  1.00  0.00     0.016 A 
ATOM     11  C   UNL     1       2.467  -0.836   3.498  1.00  0.00     0.016 A 
ATOM     12  C   UNL     1       4.848   0.547   3.123  1.00  0.00     0.010 A 
ATOM     13  C   UNL     1       3.034  -0.130   4.564  1.00  0.00     0.010 A 
ATOM     14  C   UNL     1       4.251   0.530   4.375  1.00  0.00    -0.014 A 
BRANCH  14  15
ATOM     15  C   UNL     1       5.101   0.968   5.490  1.00  0.00     0.031 A 
ATOM     16  C   UNL     1       5.844  -0.103   6.231  1.00  0.00     0.074 A 
ATOM     17  C   UNL     1       5.373   2.273   5.649  1.00  0.00     0.049 A 
ATOM     18  N   UNL     1       6.664  -0.004   7.239  1.00  0.00    -0.248 NA
ATOM     19  C   UNL     1       5.659  -1.482   5.740  1.00  0.00     0.031 C 
ATOM     20  C   UNL     1       4.840   3.352   4.812  1.00  0.00     0.029 A 
ATOM     21  N   UNL     1       6.202   2.907   6.529  1.00  0.00    -0.354 N 
ATOM     22  C   UNL     1       7.061  -1.304   7.523  1.00  0.00     0.074 A 
ATOM     23  C   UNL     1       6.402  -2.178   6.583  1.00  0.00     0.031 C 
ATOM     24  C   UNL     1       5.369   4.518   5.217  1.00  0.00     0.029 A 
ATOM     25  C   UNL     1       6.213   4.272   6.380  1.00  0.00     0.049 A 
ATOM     26  H   UNL     1       6.738   2.433   7.205  1.00  0.00     0.167 HD
ATOM     27  C   UNL     1       7.896  -1.719   8.501  1.00  0.00     0.037 A 
ATOM     28  C   UNL     1       6.812   5.203   7.143  1.00  0.00     0.037 A 
ATOM     29  C   UNL     1       8.524  -0.808   9.415  1.00  0.00     0.049 A 
ATOM     30  C   UNL     1       7.619   4.715   8.319  1.00  0.00     0.074 A 
ATOM     31  C   UNL     1       9.313  -1.081  10.514  1.00  0.00     0.029 A 
ATOM     32  N   UNL     1       8.420   0.577   9.322  1.00  0.00    -0.354 N 
ATOM     33  N   UNL     1       7.912   3.482   8.667  1.00  0.00    -0.248 NA
ATOM     34  C   UNL     1       8.162   5.738   9.217  1.00  0.00     0.031 C 
ATOM     35  C   UNL     1       9.639   0.139  11.119  1.00  0.00     0.029 A 
ATOM     36  C   UNL     1       9.110   1.174  10.359  1.00  0.00     0.049 A 
ATOM     37  H   UNL     1       7.926   1.060   8.620  1.00  0.00     0.167 HD
ATOM     38  C   UNL     1       8.691   3.579   9.809  1.00  0.00     0.074 A 
ATOM     39  C   UNL     1       8.840   4.997  10.082  1.00  0.00     0.031 C 
ATOM     40  C   UNL     1       9.235   2.596  10.571  1.00  0.00     0.037 A 
BRANCH  27  41
ATOM     41  C   UNL     1       8.059  -3.201   8.672  1.00  0.00     0.064 A 
ATOM     42  C   UNL     1       8.739  -3.997   7.737  1.00  0.00     0.173 A 
ATOM     43  C   UNL     1       7.449  -3.847   9.759  1.00  0.00     0.173 A 
ATOM     44  F   UNL     1       9.307  -3.436   6.659  1.00  0.00    -0.203 F 
ATOM     45  C   UNL     1       8.768  -5.385   7.863  1.00  0.00     0.198 A 
ATOM     46  C   UNL     1       7.506  -5.232   9.898  1.00  0.00     0.198 A 
ATOM     47  F   UNL     1       6.773  -3.138  10.674  1.00  0.00    -0.203 F 
ATOM     48  F   UNL     1       9.356  -6.131   6.917  1.00  0.00    -0.200 F 
ATOM     49  C   UNL     1       8.154  -6.001   8.944  1.00  0.00     0.200 A 
ATOM     50  F   UNL     1       6.910  -5.823  10.943  1.00  0.00    -0.200 F 
ATOM     51  F   UNL     1       8.168  -7.336   9.054  1.00  0.00    -0.200 F 
ENDBRANCH  27  41
BRANCH  28  52
ATOM     52  C   UNL     1       6.618   6.653   6.868  1.00  0.00     0.064 A 
ATOM     53  C   UNL     1       7.696   7.487   6.542  1.00  0.00     0.173 A 
ATOM     54  C   UNL     1       5.346   7.245   6.952  1.00  0.00     0.173 A 
ATOM     55  F   UNL     1       8.936   6.981   6.468  1.00  0.00    -0.203 F 
ATOM     56  C   UNL     1       7.514   8.855   6.333  1.00  0.00     0.198 A 
ATOM     57  C   UNL     1       5.160   8.604   6.710  1.00  0.00     0.198 A 
ATOM     58  F   UNL     1       4.276   6.499   7.265  1.00  0.00    -0.203 F 
ATOM     59  F   UNL     1       8.571   9.637   6.076  1.00  0.00    -0.200 F 
ATOM     60  C   UNL     1       6.246   9.411   6.412  1.00  0.00     0.200 A 
ATOM     61  F   UNL     1       3.930   9.132   6.774  1.00  0.00    -0.200 F 
ATOM     62  F   UNL     1       6.073  10.725   6.213  1.00  0.00    -0.200 F 
ENDBRANCH  28  52
BRANCH  40  63
ATOM     63  C   UNL     1      10.075   3.033  11.732  1.00  0.00     0.064 A 
ATOM     64  C   UNL     1       9.509   3.603  12.880  1.00  0.00     0.173 A 
ATOM     65  C   UNL     1      11.463   2.828  11.708  1.00  0.00     0.173 A 
ATOM     66  F   UNL     1       8.188   3.832  12.940  1.00  0.00    -0.203 F 
ATOM     67  C   UNL     1      10.308   3.980  13.954  1.00  0.00     0.198 A 
ATOM     68  C   UNL     1      12.253   3.171  12.798  1.00  0.00     0.198 A 
ATOM     69  F   UNL     1      12.047   2.276  10.634  1.00  0.00    -0.203 F 
ATOM     70  F   UNL     1       9.755   4.574  15.021  1.00  0.00    -0.200 F 
ATOM     71  C   UNL     1      11.676   3.755  13.916  1.00  0.00     0.200 A 
ATOM     72  F   UNL     1      13.571   2.935  12.768  1.00  0.00    -0.200 F 
ATOM     73  F   UNL     1      12.442   4.107  14.957  1.00  0.00    -0.200 F 
ENDBRANCH  40  63
ENDBRANCH  14  15
ENDBRANCH   7   9
ENDBRANCH   6   7
ENDBRANCH   5   6
ENDBRANCH   4   5
ENDBRANCH   3   4
ENDBRANCH   2   3
ENDBRANCH   1   2
BRANCH   1  74
ATOM     74  O   UNL     1       2.065   2.567  -2.473  1.00  0.00    -0.377 OA
BRANCH  74  75
ATOM     75  C   UNL     1       3.469   2.517  -2.701  1.00  0.00     0.188 C 
BRANCH  75  76
ATOM     76  C   UNL     1       4.398   3.132  -1.623  1.00  0.00     0.188 C 
BRANCH  76  77
ATOM     77  O   UNL     1       3.710   3.790  -0.577  1.00  0.00    -0.376 OA
BRANCH  77  78
ATOM     78  C   UNL     1       3.535   5.192  -0.743  1.00  0.00     0.202 C 
BRANCH  78  79
ATOM     79  C   UNL     1       2.991   5.716  -2.088  1.00  0.00     0.261 C 
BRANCH  79  80
ATOM     80  O   UNL     1       3.678   5.273  -3.285  1.00  0.00    -0.459 OA
BRANCH  80  81
ATOM     81  C   UNL     1       4.909   5.759  -3.592  1.00  0.00     0.365 C 
ATOM     82  O   UNL     1       5.462   6.651  -2.956  1.00  0.00    -0.245 OA
BRANCH  81  83
ATOM     83  C   UNL     1       5.533   4.984  -4.796  1.00  0.00     0.304 C 
ATOM     84  C   UNL     1       6.834   5.642  -5.265  1.00  0.00     0.153 C 
ATOM     85  N   UNL     1       5.816   3.553  -4.438  1.00  0.00    -0.317 N 
ATOM     86  S   UNL     1       8.073   4.323  -5.390  1.00  0.00    -0.085 SA
ATOM     87  C   UNL     1       6.830   3.002  -5.344  1.00  0.00     0.303 C 
ATOM     88  H   UNL     1       4.958   3.008  -4.520  1.00  0.00     0.348 HD
ATOM     89  H   UNL     1       6.162   3.508  -3.479  1.00  0.00     0.348 HD
BRANCH  87  90
ATOM     90  C   UNL     1       6.426   2.570  -6.738  1.00  0.00     0.163 A 
ATOM     91  N   UNL     1       7.319   2.196  -7.635  1.00  0.00    -0.234 NA
ATOM     92  S   UNL     1       4.795   2.476  -7.280  1.00  0.00    -0.112 S 
ATOM     93  C   UNL     1       6.729   2.034  -8.868  1.00  0.00     0.082 A 
ATOM     94  C   UNL     1       5.341   2.167  -8.887  1.00  0.00     0.055 A 
ATOM     95  C   UNL     1       7.415   1.785 -10.072  1.00  0.00     0.030 A 
ATOM     96  C   UNL     1       4.611   2.063 -10.083  1.00  0.00     0.021 A 
ATOM     97  C   UNL     1       6.703   1.718 -11.272  1.00  0.00     0.002 A 
ATOM     98  C   UNL     1       5.319   1.858 -11.274  1.00  0.00     0.002 A 
ENDBRANCH  87  90
ENDBRANCH  81  83
ENDBRANCH  80  81
ENDBRANCH  79  80
ENDBRANCH  78  79
ENDBRANCH  77  78
ENDBRANCH  76  77
ENDBRANCH  75  76
ENDBRANCH  74  75
ENDBRANCH   1  74
TORSDOF 21
