REMARK SMILES C[C@@]1(CN2C(=O)c3ccc(C(=O)OCCOCCOCCOCCOC(=O)c4ccc(-c5c6nc(c(-c7c(F)c(F)c(F)c(F)c7F)c7ccc([nH]7)c(-c7c(F)c(F)c(F)c(F)c7F)c7nc(c(-c8c(F)c(F)c(F)c(F)c8F)c8ccc5[nH]8)C=C7)C=C6)cc4)cc3C2=O)CCCO1
REMARK SMILES IDX 19 1 18 2 17 3 16 4 15 5 14 6 13 7 11 8 12 9 10 10 4 11 5 12
REMARK SMILES IDX 93 13 6 14 7 15 92 16 94 17 8 18 91 19 9 20 3 21 2 22 1 23
REMARK SMILES IDX 95 24 98 25 96 26 97 27 20 28 21 29 22 30 23 31 24 32 25 33
REMARK SMILES IDX 26 34 27 35 28 36 29 37 90 38 30 39 89 40 31 41 32 42 33 43
REMARK SMILES IDX 83 44 34 45 88 46 82 47 84 48 35 49 87 50 81 51 80 52 36 54
REMARK SMILES IDX 68 55 48 56 67 57 49 58 52 59 66 60 85 61 50 62 51 63 65 65
REMARK SMILES IDX 86 66 53 67 37 68 38 69 46 70 39 71 40 72 44 73 47 74 41 75
REMARK SMILES IDX 42 76 45 77 43 78 69 79 70 80 78 81 71 82 72 83 76 84 79 85
REMARK SMILES IDX 73 86 74 87 77 88 75 89 54 90 55 91 63 92 56 93 57 94 61 95
REMARK SMILES IDX 64 96 58 97 59 98 62 99 60 100
REMARK H PARENT 84 53 52 64
REMARK Flexibility Score: inf
ROOT
ATOM      1  O   UNL     1       9.679  -1.620  -3.391  1.00  0.00    -0.377 OA
ENDROOT
BRANCH   1   2
ATOM      2  C   UNL     1       8.582  -1.113  -4.136  1.00  0.00     0.188 C 
BRANCH   2   3
ATOM      3  C   UNL     1       8.798   0.204  -4.909  1.00  0.00     0.188 C 
BRANCH   3   4
ATOM      4  O   UNL     1      10.164   0.554  -5.040  1.00  0.00    -0.376 OA
BRANCH   4   5
ATOM      5  C   UNL     1      10.696   1.605  -4.256  1.00  0.00     0.202 C 
BRANCH   5   6
ATOM      6  C   UNL     1      10.558   1.580  -2.725  1.00  0.00     0.261 C 
BRANCH   6   7
ATOM      7  O   UNL     1       9.312   1.111  -2.200  1.00  0.00    -0.460 OA
BRANCH   7   8
ATOM      8  C   UNL     1       8.262   1.958  -2.249  1.00  0.00     0.338 C 
ATOM      9  O   UNL     1       8.264   3.098  -2.676  1.00  0.00    -0.246 OA
BRANCH   8  10
ATOM     10  C   UNL     1       7.041   1.193  -1.891  1.00  0.00     0.060 A 
ATOM     11  N   UNL     1       2.665  -0.154  -2.119  1.00  0.00    -0.271 N 
ATOM     12  C   UNL     1       3.435  -0.839  -1.218  1.00  0.00     0.261 C 
ATOM     13  C   UNL     1       3.415   0.698  -2.880  1.00  0.00     0.261 C 
ATOM     14  O   UNL     1       3.122  -1.728  -0.455  1.00  0.00    -0.269 OA
ATOM     15  C   UNL     1       4.782  -0.281  -1.320  1.00  0.00     0.053 A 
ATOM     16  C   UNL     1       4.766   0.669  -2.326  1.00  0.00     0.054 A 
ATOM     17  O   UNL     1       3.100   1.347  -3.864  1.00  0.00    -0.269 OA
ATOM     18  C   UNL     1       5.917  -0.542  -0.575  1.00  0.00     0.015 A 
ATOM     19  C   UNL     1       5.878   1.423  -2.642  1.00  0.00     0.030 A 
ATOM     20  C   UNL     1       7.062   0.208  -0.871  1.00  0.00     0.016 A 
BRANCH  11  21
ATOM     21  C   UNL     1       1.220  -0.283  -2.226  1.00  0.00     0.164 C 
BRANCH  21  22
ATOM     22  C   UNL     1       0.454   0.602  -1.198  1.00  0.00     0.084 C 
ATOM     23  C   UNL     1       0.758   0.217   0.251  1.00  0.00     0.044 C 
ATOM     24  C   UNL     1      -1.056   0.563  -1.458  1.00  0.00     0.039 C 
ATOM     25  O   UNL     1       0.845   1.983  -1.379  1.00  0.00    -0.373 OA
ATOM     26  C   UNL     1      -1.267   1.707  -2.419  1.00  0.00     0.031 C 
ATOM     27  C   UNL     1      -0.249   2.718  -1.943  1.00  0.00     0.161 C 
ENDBRANCH  21  22
ENDBRANCH  11  21
ENDBRANCH   8  10
ENDBRANCH   7   8
ENDBRANCH   6   7
ENDBRANCH   5   6
ENDBRANCH   4   5
ENDBRANCH   3   4
ENDBRANCH   2   3
ENDBRANCH   1   2
BRANCH   1  28
ATOM     28  C   UNL     1      10.912  -1.910  -4.052  1.00  0.00     0.188 C 
BRANCH  28  29
ATOM     29  C   UNL     1      11.045  -1.973  -5.595  1.00  0.00     0.188 C 
BRANCH  29  30
ATOM     30  O   UNL     1       9.818  -2.059  -6.297  1.00  0.00    -0.376 OA
BRANCH  30  31
ATOM     31  C   UNL     1       9.480  -3.290  -6.907  1.00  0.00     0.202 C 
BRANCH  31  32
ATOM     32  C   UNL     1       9.253  -4.483  -5.969  1.00  0.00     0.261 C 
BRANCH  32  33
ATOM     33  O   UNL     1      10.312  -4.765  -5.042  1.00  0.00    -0.460 OA
BRANCH  33  34
ATOM     34  C   UNL     1      11.482  -5.199  -5.559  1.00  0.00     0.338 C 
ATOM     35  O   UNL     1      11.746  -5.386  -6.732  1.00  0.00    -0.246 OA
BRANCH  34  36
ATOM     36  C   UNL     1      12.470  -5.238  -4.461  1.00  0.00     0.060 A 
ATOM     37  C   UNL     1      13.613  -4.431  -4.544  1.00  0.00     0.016 A 
ATOM     38  C   UNL     1      12.266  -6.065  -3.354  1.00  0.00     0.016 A 
ATOM     39  C   UNL     1      14.574  -4.478  -3.533  1.00  0.00     0.010 A 
ATOM     40  C   UNL     1      13.239  -6.126  -2.353  1.00  0.00     0.010 A 
ATOM     41  C   UNL     1      14.414  -5.359  -2.455  1.00  0.00    -0.014 A 
BRANCH  41  42
ATOM     42  C   UNL     1      15.556  -5.621  -1.545  1.00  0.00     0.031 A 
ATOM     43  C   UNL     1      16.386  -6.855  -1.779  1.00  0.00     0.074 A 
ATOM     44  C   UNL     1      15.876  -4.769  -0.555  1.00  0.00     0.049 A 
ATOM     45  N   UNL     1      17.396  -7.324  -1.091  1.00  0.00    -0.248 NA
ATOM     46  C   UNL     1      16.024  -7.671  -2.950  1.00  0.00     0.031 C 
ATOM     47  C   UNL     1      15.178  -3.522  -0.254  1.00  0.00     0.029 A 
ATOM     48  N   UNL     1      16.872  -4.835   0.390  1.00  0.00    -0.354 N 
ATOM     49  C   UNL     1      17.793  -8.481  -1.750  1.00  0.00     0.074 A 
ATOM     50  C   UNL     1      16.888  -8.671  -2.862  1.00  0.00     0.031 C 
ATOM     51  C   UNL     1      15.756  -2.947   0.816  1.00  0.00     0.029 A 
ATOM     52  C   UNL     1      16.841  -3.803   1.295  1.00  0.00     0.049 A 
ATOM     53  H   UNL     1      17.543  -5.555   0.415  1.00  0.00     0.167 HD
ATOM     54  C   UNL     1      18.832  -9.301  -1.465  1.00  0.00     0.037 A 
ATOM     55  C   UNL     1      17.585  -3.594   2.399  1.00  0.00     0.037 A 
ATOM     56  C   UNL     1      19.723  -9.120  -0.350  1.00  0.00     0.049 A 
ATOM     57  C   UNL     1      18.676  -4.579   2.751  1.00  0.00     0.074 A 
ATOM     58  C   UNL     1      20.794  -9.906   0.036  1.00  0.00     0.029 A 
ATOM     59  N   UNL     1      19.644  -8.077   0.561  1.00  0.00    -0.354 N 
ATOM     60  N   UNL     1      19.055  -5.662   2.116  1.00  0.00    -0.248 NA
ATOM     61  C   UNL     1      19.448  -4.306   3.972  1.00  0.00     0.031 C 
ATOM     62  C   UNL     1      21.331  -9.368   1.210  1.00  0.00     0.029 A 
ATOM     63  C   UNL     1      20.637  -8.210   1.518  1.00  0.00     0.049 A 
ATOM     64  H   UNL     1      18.980  -7.350   0.532  1.00  0.00     0.167 HD
ATOM     65  C   UNL     1      20.128  -6.175   2.837  1.00  0.00     0.074 A 
ATOM     66  C   UNL     1      20.352  -5.273   3.946  1.00  0.00     0.031 C 
ATOM     67  C   UNL     1      20.860  -7.292   2.606  1.00  0.00     0.037 A 
BRANCH  54  68
ATOM     68  C   UNL     1      19.056 -10.479  -2.369  1.00  0.00     0.064 A 
ATOM     69  C   UNL     1      19.526 -10.316  -3.681  1.00  0.00     0.173 A 
ATOM     70  C   UNL     1      18.849 -11.786  -1.904  1.00  0.00     0.173 A 
ATOM     71  F   UNL     1      19.726  -9.086  -4.179  1.00  0.00    -0.203 F 
ATOM     72  C   UNL     1      19.762 -11.417  -4.500  1.00  0.00     0.198 A 
ATOM     73  C   UNL     1      19.117 -12.886  -2.714  1.00  0.00     0.198 A 
ATOM     74  F   UNL     1      18.403 -11.998  -0.657  1.00  0.00    -0.203 F 
ATOM     75  F   UNL     1      20.171 -11.235  -5.763  1.00  0.00    -0.200 F 
ATOM     76  C   UNL     1      19.568 -12.701  -4.013  1.00  0.00     0.200 A 
ATOM     77  F   UNL     1      18.942 -14.126  -2.237  1.00  0.00    -0.200 F 
ATOM     78  F   UNL     1      19.810 -13.760  -4.796  1.00  0.00    -0.200 F 
ENDBRANCH  54  68
BRANCH  55  79
ATOM     79  C   UNL     1      17.315  -2.427   3.284  1.00  0.00     0.064 A 
ATOM     80  C   UNL     1      18.270  -1.417   3.473  1.00  0.00     0.173 A 
ATOM     81  C   UNL     1      16.119  -2.332   4.012  1.00  0.00     0.173 A 
ATOM     82  F   UNL     1      19.441  -1.472   2.821  1.00  0.00    -0.203 F 
ATOM     83  C   UNL     1      18.058  -0.385   4.386  1.00  0.00     0.198 A 
ATOM     84  C   UNL     1      15.892  -1.278   4.895  1.00  0.00     0.198 A 
ATOM     85  F   UNL     1      15.170  -3.269   3.872  1.00  0.00    -0.203 F 
ATOM     86  F   UNL     1      19.020   0.522   4.603  1.00  0.00    -0.200 F 
ATOM     87  C   UNL     1      16.867  -0.314   5.093  1.00  0.00     0.200 A 
ATOM     88  F   UNL     1      14.733  -1.207   5.565  1.00  0.00    -0.200 F 
ATOM     89  F   UNL     1      16.667   0.673   5.976  1.00  0.00    -0.200 F 
ENDBRANCH  55  79
BRANCH  67  90
ATOM     90  C   UNL     1      22.009  -7.574   3.534  1.00  0.00     0.064 A 
ATOM     91  C   UNL     1      21.808  -7.953   4.870  1.00  0.00     0.173 A 
ATOM     92  C   UNL     1      23.331  -7.495   3.069  1.00  0.00     0.173 A 
ATOM     93  F   UNL     1      20.565  -8.034   5.370  1.00  0.00    -0.203 F 
ATOM     94  C   UNL     1      22.887  -8.206   5.714  1.00  0.00     0.198 A 
ATOM     95  C   UNL     1      24.406  -7.785   3.904  1.00  0.00     0.198 A 
ATOM     96  F   UNL     1      23.582  -7.149   1.797  1.00  0.00    -0.203 F 
ATOM     97  F   UNL     1      22.672  -8.506   7.002  1.00  0.00    -0.200 F 
ATOM     98  C   UNL     1      24.184  -8.129   5.229  1.00  0.00     0.200 A 
ATOM     99  F   UNL     1      25.657  -7.729   3.428  1.00  0.00    -0.200 F 
ATOM    100  F   UNL     1      25.221  -8.378   6.040  1.00  0.00    -0.200 F 
ENDBRANCH  67  90
ENDBRANCH  41  42
ENDBRANCH  34  36
ENDBRANCH  33  34
ENDBRANCH  32  33
ENDBRANCH  31  32
ENDBRANCH  30  31
ENDBRANCH  29  30
ENDBRANCH  28  29
ENDBRANCH   1  28
TORSDOF 22
