REMARK SMILES O=C(Cc1ccc(S(=O)(=O)C[C@H]2CCCO2)cc1)OCCOCCOCCOCCOC(=O)c1ccc(-c2c3nc(c(-c4c(F)c(F)c(F)c(F)c4F)c4ccc([nH]4)c(-c4c(F)c(F)c(F)c(F)c4F)c4nc(c(-c5c(F)c(F)c(F)c(F)c5F)c5ccc2[nH]5)C=C4)C=C3)cc1
REMARK SMILES IDX 24 1 23 2 22 3 21 4 20 5 19 6 2 7 1 8 3 9 4 10 5 11 18 12
REMARK SMILES IDX 6 13 17 14 7 15 8 16 9 17 10 18 11 19 12 20 13 21 16 22
REMARK SMILES IDX 14 23 15 24 25 25 26 26 27 27 28 28 29 29 30 30 31 31 32 32
REMARK SMILES IDX 33 33 34 34 35 35 96 36 36 37 95 38 37 39 38 40 39 41 89 42
REMARK SMILES IDX 40 43 94 44 88 45 90 46 41 47 93 48 87 49 86 50 42 52 74 53
REMARK SMILES IDX 54 54 73 55 55 56 58 57 72 58 91 59 56 60 57 61 71 63 92 64
REMARK SMILES IDX 59 65 43 66 44 67 52 68 45 69 46 70 50 71 53 72 47 73 48 74
REMARK SMILES IDX 51 75 49 76 75 77 76 78 84 79 77 80 78 81 82 82 85 83 79 84
REMARK SMILES IDX 80 85 83 86 81 87 60 88 61 89 69 90 62 91 63 92 67 93 70 94
REMARK SMILES IDX 64 95 65 96 68 97 66 98
REMARK H PARENT 90 51 58 62
REMARK Flexibility Score: inf
ROOT
ATOM      1  C   UNL     1       5.781   2.082   3.029  1.00  0.00     0.188 C 
ENDROOT
BRANCH   1   2
ATOM      2  C   UNL     1       4.596   1.601   2.202  1.00  0.00     0.188 C 
BRANCH   2   3
ATOM      3  O   UNL     1       4.552   0.252   1.738  1.00  0.00    -0.376 OA
BRANCH   3   4
ATOM      4  C   UNL     1       5.662  -0.395   1.143  1.00  0.00     0.202 C 
BRANCH   4   5
ATOM      5  C   UNL     1       6.375   0.229  -0.051  1.00  0.00     0.261 C 
BRANCH   5   6
ATOM      6  O   UNL     1       6.206   1.637  -0.193  1.00  0.00    -0.463 OA
BRANCH   6   7
ATOM      7  C   UNL     1       5.309   2.139  -1.081  1.00  0.00     0.310 C 
ATOM      8  O   UNL     1       5.593   3.147  -1.724  1.00  0.00    -0.252 OA
BRANCH   7   9
ATOM      9  C   UNL     1       3.921   1.519  -1.141  1.00  0.00     0.158 C 
BRANCH   9  10
ATOM     10  C   UNL     1       3.759   0.474  -2.204  1.00  0.00    -0.037 A 
ATOM     11  C   UNL     1       3.702   0.857  -3.546  1.00  0.00     0.005 A 
ATOM     12  C   UNL     1       3.736  -0.887  -1.866  1.00  0.00     0.005 A 
ATOM     13  C   UNL     1       3.773  -0.106  -4.546  1.00  0.00     0.020 A 
ATOM     14  C   UNL     1       3.829  -1.854  -2.859  1.00  0.00     0.020 A 
ATOM     15  C   UNL     1       3.913  -1.450  -4.192  1.00  0.00     0.067 A 
BRANCH  15  16
ATOM     16  S   UNL     1       4.353  -2.630  -5.440  1.00  0.00     0.180 S 
ATOM     17  O   UNL     1       3.200  -3.500  -5.581  1.00  0.00    -0.224 OA
ATOM     18  O   UNL     1       4.858  -1.901  -6.588  1.00  0.00    -0.224 OA
BRANCH  16  19
ATOM     19  C   UNL     1       5.680  -3.607  -4.786  1.00  0.00     0.174 C 
BRANCH  19  20
ATOM     20  C   UNL     1       6.979  -2.900  -4.418  1.00  0.00     0.133 C 
ATOM     21  C   UNL     1       7.876  -2.464  -5.564  1.00  0.00     0.035 C 
ATOM     22  O   UNL     1       6.783  -1.772  -3.560  1.00  0.00    -0.377 OA
ATOM     23  C   UNL     1       7.810  -0.960  -5.539  1.00  0.00     0.031 C 
ATOM     24  C   UNL     1       7.501  -0.649  -4.093  1.00  0.00     0.160 C 
ENDBRANCH  19  20
ENDBRANCH  16  19
ENDBRANCH  15  16
ENDBRANCH   9  10
ENDBRANCH   7   9
ENDBRANCH   6   7
ENDBRANCH   5   6
ENDBRANCH   4   5
ENDBRANCH   3   4
ENDBRANCH   2   3
ENDBRANCH   1   2
BRANCH   1  25
ATOM     25  O   UNL     1       5.809   1.558   4.345  1.00  0.00    -0.377 OA
BRANCH  25  26
ATOM     26  C   UNL     1       6.160   0.193   4.422  1.00  0.00     0.188 C 
BRANCH  26  27
ATOM     27  C   UNL     1       5.001  -0.817   4.561  1.00  0.00     0.188 C 
BRANCH  27  28
ATOM     28  O   UNL     1       3.670  -0.425   4.865  1.00  0.00    -0.376 OA
BRANCH  28  29
ATOM     29  C   UNL     1       3.404   0.752   5.606  1.00  0.00     0.202 C 
BRANCH  29  30
ATOM     30  C   UNL     1       3.933   0.873   7.040  1.00  0.00     0.261 C 
BRANCH  30  31
ATOM     31  O   UNL     1       5.316   0.536   7.204  1.00  0.00    -0.460 OA
BRANCH  31  32
ATOM     32  C   UNL     1       5.575  -0.689   7.719  1.00  0.00     0.338 C 
ATOM     33  O   UNL     1       4.771  -1.511   8.127  1.00  0.00    -0.246 OA
BRANCH  32  34
ATOM     34  C   UNL     1       7.010  -0.988   7.517  1.00  0.00     0.060 A 
ATOM     35  C   UNL     1       7.357  -2.198   6.894  1.00  0.00     0.016 A 
ATOM     36  C   UNL     1       7.998  -0.057   7.850  1.00  0.00     0.016 A 
ATOM     37  C   UNL     1       8.692  -2.493   6.622  1.00  0.00     0.010 A 
ATOM     38  C   UNL     1       9.337  -0.368   7.616  1.00  0.00     0.010 A 
ATOM     39  C   UNL     1       9.689  -1.602   7.036  1.00  0.00    -0.014 A 
BRANCH  39  40
ATOM     40  C   UNL     1      11.087  -2.068   7.166  1.00  0.00     0.031 A 
ATOM     41  C   UNL     1      11.481  -2.665   8.486  1.00  0.00     0.074 A 
ATOM     42  C   UNL     1      11.990  -1.919   6.184  1.00  0.00     0.049 A 
ATOM     43  N   UNL     1      12.663  -2.986   8.940  1.00  0.00    -0.248 NA
ATOM     44  C   UNL     1      10.381  -2.913   9.434  1.00  0.00     0.031 C 
ATOM     45  C   UNL     1      11.714  -1.396   4.850  1.00  0.00     0.029 A 
ATOM     46  N   UNL     1      13.340  -2.165   6.183  1.00  0.00    -0.354 N 
ATOM     47  C   UNL     1      12.450  -3.447  10.232  1.00  0.00     0.074 A 
ATOM     48  C   UNL     1      11.033  -3.352  10.496  1.00  0.00     0.031 C 
ATOM     49  C   UNL     1      12.871  -1.320   4.169  1.00  0.00     0.029 A 
ATOM     50  C   UNL     1      13.969  -1.748   5.037  1.00  0.00     0.049 A 
ATOM     51  H   UNL     1      13.812  -2.598   6.931  1.00  0.00     0.167 HD
ATOM     52  C   UNL     1      13.359  -3.902  11.124  1.00  0.00     0.037 A 
ATOM     53  C   UNL     1      15.284  -1.679   4.748  1.00  0.00     0.037 A 
ATOM     54  C   UNL     1      14.769  -3.975  10.859  1.00  0.00     0.049 A 
ATOM     55  C   UNL     1      16.292  -2.131   5.775  1.00  0.00     0.074 A 
ATOM     56  C   UNL     1      15.778  -4.440  11.680  1.00  0.00     0.029 A 
ATOM     57  N   UNL     1      15.368  -3.553   9.681  1.00  0.00    -0.354 N 
ATOM     58  N   UNL     1      16.090  -2.591   6.987  1.00  0.00    -0.248 NA
ATOM     59  C   UNL     1      17.710  -2.054   5.395  1.00  0.00     0.031 C 
ATOM     60  C   UNL     1      16.996  -4.244  11.021  1.00  0.00     0.029 A 
ATOM     61  C   UNL     1      16.739  -3.719   9.764  1.00  0.00     0.049 A 
ATOM     62  H   UNL     1      14.888  -3.189   8.902  1.00  0.00     0.167 HD
ATOM     63  C   UNL     1      17.347  -2.884   7.503  1.00  0.00     0.074 A 
ATOM     64  C   UNL     1      18.307  -2.550   6.471  1.00  0.00     0.031 C 
ATOM     65  C   UNL     1      17.676  -3.390   8.718  1.00  0.00     0.037 A 
BRANCH  52  66
ATOM     66  C   UNL     1      12.848  -4.288  12.480  1.00  0.00     0.064 A 
ATOM     67  C   UNL     1      12.031  -5.412  12.674  1.00  0.00     0.173 A 
ATOM     68  C   UNL     1      13.153  -3.498  13.599  1.00  0.00     0.173 A 
ATOM     69  F   UNL     1      11.689  -6.186  11.632  1.00  0.00    -0.203 F 
ATOM     70  C   UNL     1      11.503  -5.706  13.929  1.00  0.00     0.198 A 
ATOM     71  C   UNL     1      12.653  -3.815  14.858  1.00  0.00     0.198 A 
ATOM     72  F   UNL     1      13.927  -2.410  13.469  1.00  0.00    -0.203 F 
ATOM     73  F   UNL     1      10.666  -6.742  14.075  1.00  0.00    -0.200 F 
ATOM     74  C   UNL     1      11.818  -4.911  15.020  1.00  0.00     0.200 A 
ATOM     75  F   UNL     1      12.965  -3.050  15.913  1.00  0.00    -0.200 F 
ATOM     76  F   UNL     1      11.304  -5.191  16.226  1.00  0.00    -0.200 F 
ENDBRANCH  52  66
BRANCH  53  77
ATOM     77  C   UNL     1      15.717  -1.130   3.437  1.00  0.00     0.064 A 
ATOM     78  C   UNL     1      16.270  -1.958   2.451  1.00  0.00     0.173 A 
ATOM     79  C   UNL     1      15.566   0.232   3.135  1.00  0.00     0.173 A 
ATOM     80  F   UNL     1      16.458  -3.262   2.701  1.00  0.00    -0.203 F 
ATOM     81  C   UNL     1      16.656  -1.444   1.214  1.00  0.00     0.198 A 
ATOM     82  C   UNL     1      15.930   0.740   1.890  1.00  0.00     0.198 A 
ATOM     83  F   UNL     1      15.044   1.067   4.046  1.00  0.00    -0.203 F 
ATOM     84  F   UNL     1      17.206  -2.253   0.298  1.00  0.00    -0.200 F 
ATOM     85  C   UNL     1      16.477  -0.099   0.931  1.00  0.00     0.200 A 
ATOM     86  F   UNL     1      15.741   2.038   1.616  1.00  0.00    -0.200 F 
ATOM     87  F   UNL     1      16.832   0.390  -0.265  1.00  0.00    -0.200 F 
ENDBRANCH  53  77
BRANCH  65  88
ATOM     88  C   UNL     1      19.126  -3.665   8.992  1.00  0.00     0.064 A 
ATOM     89  C   UNL     1      20.042  -2.632   9.238  1.00  0.00     0.173 A 
ATOM     90  C   UNL     1      19.583  -4.988   9.097  1.00  0.00     0.173 A 
ATOM     91  F   UNL     1      19.658  -1.351   9.140  1.00  0.00    -0.203 F 
ATOM     92  C   UNL     1      21.366  -2.915   9.567  1.00  0.00     0.198 A 
ATOM     93  C   UNL     1      20.898  -5.268   9.454  1.00  0.00     0.198 A 
ATOM     94  F   UNL     1      18.743  -6.012   8.880  1.00  0.00    -0.203 F 
ATOM     95  F   UNL     1      22.233  -1.914   9.768  1.00  0.00    -0.200 F 
ATOM     96  C   UNL     1      21.789  -4.231   9.686  1.00  0.00     0.200 A 
ATOM     97  F   UNL     1      21.300  -6.539   9.585  1.00  0.00    -0.200 F 
ATOM     98  F   UNL     1      23.058  -4.501  10.022  1.00  0.00    -0.200 F 
ENDBRANCH  65  88
ENDBRANCH  39  40
ENDBRANCH  32  34
ENDBRANCH  31  32
ENDBRANCH  30  31
ENDBRANCH  29  30
ENDBRANCH  28  29
ENDBRANCH  27  28
ENDBRANCH  26  27
ENDBRANCH  25  26
ENDBRANCH   1  25
TORSDOF 24
