REMARK SMILES Cc1ccc([C@@H](C)Nc2ccc(N)cc2C(=O)OCCOCCOCCOCCOC(=O)c2ccc(-c3c4nc(c(-c5c(F)c(F)c(F)c(F)c5F)c5ccc([nH]5)c(-c5c(F)c(F)c(F)c(F)c5F)c5nc(c(-c6c(F)c(F)c(F)c(F)c6F)c6ccc3[nH]6)C=C5)C=C4)cc2)cc1F
REMARK SMILES IDX 23 1 22 2 21 3 20 4 19 5 18 6 16 7 17 8 15 9 9 10 10 11
REMARK SMILES IDX 11 12 14 13 12 14 8 15 6 17 7 18 5 19 1 20 2 21 3 22 97 23
REMARK SMILES IDX 4 24 96 25 98 26 13 27 24 30 25 31 26 32 27 33 28 34 29 35
REMARK SMILES IDX 30 36 31 37 32 38 33 39 34 40 95 41 35 42 94 43 36 44 37 45
REMARK SMILES IDX 38 46 88 47 39 48 93 49 87 50 89 51 40 52 92 53 86 54 85 55
REMARK SMILES IDX 41 57 73 58 53 59 72 60 54 61 57 62 71 63 90 64 55 65 56 66
REMARK SMILES IDX 70 68 91 69 58 70 42 71 43 72 51 73 44 74 45 75 49 76 52 77
REMARK SMILES IDX 46 78 47 79 50 80 48 81 74 82 75 83 83 84 76 85 77 86 81 87
REMARK SMILES IDX 84 88 78 89 79 90 82 91 80 92 59 93 60 94 68 95 61 96 62 97
REMARK SMILES IDX 66 98 69 99 63 100 64 101 67 102 65 103
REMARK H PARENT 8 16 13 28 13 29 89 56 57 67
REMARK Flexibility Score: inf
ROOT
ATOM      1  C   UNL     1      -1.113  -4.247  -1.667  1.00  0.00     0.188 C 
ENDROOT
BRANCH   1   2
ATOM      2  C   UNL     1      -1.778  -4.861  -2.916  1.00  0.00     0.188 C 
BRANCH   2   3
ATOM      3  O   UNL     1      -1.996  -4.061  -4.070  1.00  0.00    -0.376 OA
BRANCH   3   4
ATOM      4  C   UNL     1      -2.860  -2.933  -4.066  1.00  0.00     0.202 C 
BRANCH   4   5
ATOM      5  C   UNL     1      -4.083  -2.896  -3.152  1.00  0.00     0.261 C 
BRANCH   5   6
ATOM      6  O   UNL     1      -3.746  -3.207  -1.794  1.00  0.00    -0.460 OA
BRANCH   6   7
ATOM      7  C   UNL     1      -4.651  -3.957  -1.120  1.00  0.00     0.340 C 
ATOM      8  O   UNL     1      -5.762  -4.263  -1.518  1.00  0.00    -0.246 OA
BRANCH   7   9
ATOM      9  C   UNL     1      -4.013  -4.602   0.047  1.00  0.00     0.085 A 
ATOM     10  C   UNL     1      -3.571  -3.985   1.226  1.00  0.00     0.049 A 
ATOM     11  C   UNL     1      -3.051  -4.879   2.202  1.00  0.00     0.029 A 
ATOM     12  C   UNL     1      -2.957  -6.265   2.027  1.00  0.00     0.027 A 
ATOM     13  C   UNL     1      -3.910  -6.012  -0.126  1.00  0.00     0.043 A 
ATOM     14  C   UNL     1      -3.399  -6.852   0.858  1.00  0.00     0.032 A 
BRANCH  10  15
ATOM     15  N   UNL     1      -3.567  -2.671   1.624  1.00  0.00    -0.378 N 
ATOM     16  H   UNL     1      -3.334  -2.615   2.579  1.00  0.00     0.161 HD
BRANCH  15  17
ATOM     17  C   UNL     1      -3.794  -1.328   1.096  1.00  0.00     0.106 C 
ATOM     18  C   UNL     1      -4.899  -1.170   0.068  1.00  0.00     0.036 C 
BRANCH  17  19
ATOM     19  C   UNL     1      -2.501  -0.566   0.805  1.00  0.00    -0.023 A 
ATOM     20  C   UNL     1       1.045   1.910   0.501  1.00  0.00     0.047 C 
ATOM     21  C   UNL     1      -0.174   1.051   0.594  1.00  0.00    -0.015 A 
ATOM     22  C   UNL     1      -1.420   1.557   0.224  1.00  0.00     0.007 A 
ATOM     23  C   UNL     1      -0.095  -0.273   1.022  1.00  0.00     0.126 A 
ATOM     24  C   UNL     1      -2.566   0.763   0.342  1.00  0.00     0.006 A 
ATOM     25  C   UNL     1      -1.231  -1.077   1.121  1.00  0.00     0.045 A 
ATOM     26  F   UNL     1       1.087  -0.784   1.396  1.00  0.00    -0.207 F 
ENDBRANCH  17  19
ENDBRANCH  15  17
ENDBRANCH  10  15
BRANCH  14  27
ATOM     27  N   UNL     1      -3.222  -8.204   0.632  1.00  0.00    -0.399 N 
ATOM     28  H   UNL     1      -2.858  -8.778   1.344  1.00  0.00     0.156 HD
ATOM     29  H   UNL     1      -3.459  -8.592  -0.241  1.00  0.00     0.156 HD
ENDBRANCH  14  27
ENDBRANCH   7   9
ENDBRANCH   6   7
ENDBRANCH   5   6
ENDBRANCH   4   5
ENDBRANCH   3   4
ENDBRANCH   2   3
ENDBRANCH   1   2
BRANCH   1  30
ATOM     30  O   UNL     1       0.171  -3.692  -1.868  1.00  0.00    -0.377 OA
BRANCH  30  31
ATOM     31  C   UNL     1       0.185  -2.488  -2.614  1.00  0.00     0.188 C 
BRANCH  31  32
ATOM     32  C   UNL     1       0.733  -2.663  -4.045  1.00  0.00     0.188 C 
BRANCH  32  33
ATOM     33  O   UNL     1       1.886  -3.475  -4.281  1.00  0.00    -0.376 OA
BRANCH  33  34
ATOM     34  C   UNL     1       1.968  -4.752  -3.648  1.00  0.00     0.202 C 
BRANCH  34  35
ATOM     35  C   UNL     1       2.968  -4.757  -2.480  1.00  0.00     0.261 C 
BRANCH  35  36
ATOM     36  O   UNL     1       2.908  -3.542  -1.739  1.00  0.00    -0.460 OA
BRANCH  36  37
ATOM     37  C   UNL     1       3.522  -2.530  -2.383  1.00  0.00     0.338 C 
ATOM     38  O   UNL     1       4.317  -2.580  -3.306  1.00  0.00    -0.246 OA
BRANCH  37  39
ATOM     39  C   UNL     1       3.157  -1.259  -1.760  1.00  0.00     0.060 A 
ATOM     40  C   UNL     1       3.115  -0.153  -2.625  1.00  0.00     0.016 A 
ATOM     41  C   UNL     1       3.483  -1.171  -0.413  1.00  0.00     0.016 A 
ATOM     42  C   UNL     1       3.805   0.972  -2.252  1.00  0.00     0.010 A 
ATOM     43  C   UNL     1       4.186  -0.062  -0.046  1.00  0.00     0.010 A 
ATOM     44  C   UNL     1       4.466   0.898  -1.034  1.00  0.00    -0.014 A 
BRANCH  44  45
ATOM     45  C   UNL     1       5.732   1.561  -0.839  1.00  0.00     0.031 A 
ATOM     46  C   UNL     1       5.770   2.778  -0.047  1.00  0.00     0.074 A 
ATOM     47  C   UNL     1       6.827   0.864  -1.213  1.00  0.00     0.049 A 
ATOM     48  N   UNL     1       6.793   3.544   0.044  1.00  0.00    -0.248 NA
ATOM     49  C   UNL     1       4.607   3.259   0.682  1.00  0.00     0.031 C 
ATOM     50  C   UNL     1       8.194   1.008  -0.738  1.00  0.00     0.029 A 
ATOM     51  N   UNL     1       6.916  -0.061  -2.267  1.00  0.00    -0.354 N 
ATOM     52  C   UNL     1       6.545   4.412   1.077  1.00  0.00     0.074 A 
ATOM     53  C   UNL     1       5.139   4.270   1.369  1.00  0.00     0.031 C 
ATOM     54  C   UNL     1       9.019   0.414  -1.617  1.00  0.00     0.029 A 
ATOM     55  C   UNL     1       8.223   0.057  -2.781  1.00  0.00     0.049 A 
ATOM     56  H   UNL     1       6.208  -0.668  -2.583  1.00  0.00     0.167 HD
ATOM     57  C   UNL     1       7.611   5.021   1.665  1.00  0.00     0.037 A 
ATOM     58  C   UNL     1       8.399   0.600  -4.024  1.00  0.00     0.037 A 
ATOM     59  C   UNL     1       8.852   4.688   0.961  1.00  0.00     0.049 A 
ATOM     60  C   UNL     1       9.106   1.948  -4.024  1.00  0.00     0.074 A 
ATOM     61  C   UNL     1       9.875   3.775   1.163  1.00  0.00     0.029 A 
ATOM     62  N   UNL     1       8.967   5.083  -0.358  1.00  0.00    -0.354 N 
ATOM     63  N   UNL     1       9.398   2.638  -2.955  1.00  0.00    -0.248 NA
ATOM     64  C   UNL     1       9.464   2.659  -5.251  1.00  0.00     0.031 C 
ATOM     65  C   UNL     1      10.608   3.647  -0.058  1.00  0.00     0.029 A 
ATOM     66  C   UNL     1      10.035   4.488  -0.994  1.00  0.00     0.049 A 
ATOM     67  H   UNL     1       8.355   5.718  -0.795  1.00  0.00     0.167 HD
ATOM     68  C   UNL     1       9.920   3.852  -3.312  1.00  0.00     0.074 A 
ATOM     69  C   UNL     1       9.937   3.820  -4.764  1.00  0.00     0.031 C 
ATOM     70  C   UNL     1      10.262   4.807  -2.395  1.00  0.00     0.037 A 
BRANCH  57  71
ATOM     71  C   UNL     1       7.538   5.679   3.015  1.00  0.00     0.064 A 
ATOM     72  C   UNL     1       8.662   5.686   3.864  1.00  0.00     0.173 A 
ATOM     73  C   UNL     1       6.381   6.272   3.557  1.00  0.00     0.173 A 
ATOM     74  F   UNL     1       9.856   5.246   3.447  1.00  0.00    -0.203 F 
ATOM     75  C   UNL     1       8.600   6.143   5.181  1.00  0.00     0.198 A 
ATOM     76  C   UNL     1       6.300   6.670   4.894  1.00  0.00     0.198 A 
ATOM     77  F   UNL     1       5.312   6.540   2.797  1.00  0.00    -0.203 F 
ATOM     78  F   UNL     1       9.704   6.126   5.940  1.00  0.00    -0.200 F 
ATOM     79  C   UNL     1       7.410   6.598   5.709  1.00  0.00     0.200 A 
ATOM     80  F   UNL     1       5.138   7.128   5.383  1.00  0.00    -0.200 F 
ATOM     81  F   UNL     1       7.340   6.995   6.987  1.00  0.00    -0.200 F 
ENDBRANCH  57  71
BRANCH  58  82
ATOM     82  C   UNL     1       7.321   0.210  -4.980  1.00  0.00     0.064 A 
ATOM     83  C   UNL     1       7.204  -1.140  -5.371  1.00  0.00     0.173 A 
ATOM     84  C   UNL     1       6.226   1.046  -5.227  1.00  0.00     0.173 A 
ATOM     85  F   UNL     1       8.225  -1.986  -5.162  1.00  0.00    -0.203 F 
ATOM     86  C   UNL     1       6.020  -1.644  -5.912  1.00  0.00     0.198 A 
ATOM     87  C   UNL     1       5.040   0.538  -5.762  1.00  0.00     0.198 A 
ATOM     88  F   UNL     1       6.265   2.338  -4.870  1.00  0.00    -0.203 F 
ATOM     89  F   UNL     1       5.928  -2.943  -6.231  1.00  0.00    -0.200 F 
ATOM     90  C   UNL     1       4.929  -0.807  -6.083  1.00  0.00     0.200 A 
ATOM     91  F   UNL     1       3.979   1.345  -5.909  1.00  0.00    -0.200 F 
ATOM     92  F   UNL     1       3.766  -1.290  -6.544  1.00  0.00    -0.200 F 
ENDBRANCH  58  82
BRANCH  70  93
ATOM     93  C   UNL     1      10.810   6.165  -2.751  1.00  0.00     0.064 A 
ATOM     94  C   UNL     1      11.793   6.351  -3.733  1.00  0.00     0.173 A 
ATOM     95  C   UNL     1      10.439   7.326  -2.030  1.00  0.00     0.173 A 
ATOM     96  F   UNL     1      12.287   5.309  -4.416  1.00  0.00    -0.203 F 
ATOM     97  C   UNL     1      12.312   7.617  -4.022  1.00  0.00     0.198 A 
ATOM     98  C   UNL     1      11.004   8.573  -2.276  1.00  0.00     0.198 A 
ATOM     99  F   UNL     1       9.492   7.303  -1.082  1.00  0.00    -0.203 F 
ATOM    100  F   UNL     1      13.197   7.759  -5.018  1.00  0.00    -0.200 F 
ATOM    101  C   UNL     1      11.924   8.724  -3.289  1.00  0.00     0.200 A 
ATOM    102  F   UNL     1      10.636   9.626  -1.531  1.00  0.00    -0.200 F 
ATOM    103  F   UNL     1      12.434   9.933  -3.558  1.00  0.00    -0.200 F 
ENDBRANCH  70  93
ENDBRANCH  44  45
ENDBRANCH  37  39
ENDBRANCH  36  37
ENDBRANCH  35  36
ENDBRANCH  34  35
ENDBRANCH  33  34
ENDBRANCH  32  33
ENDBRANCH  31  32
ENDBRANCH  30  31
ENDBRANCH   1  30
TORSDOF 24
