REMARK SMILES O=C(OCCOCCOCCOCCOC(=O)c1ccc(-c2c3nc(c(-c4c(F)c(F)c(F)c(F)c4F)c4ccc([nH]4)c(-c4c(F)c(F)c(F)c(F)c4F)c4nc(c(-c5c(F)c(F)c(F)c(F)c5F)c5ccc2[nH]5)C=C4)C=C3)cc1)c1ccc(C[C@H]2SC(=O)N(c3ccccc3)C2=O)cc1
REMARK SMILES IDX 8 1 7 2 6 3 5 4 4 5 3 6 2 7 1 8 81 9 82 10 100 11 83 12
REMARK SMILES IDX 99 13 84 14 85 15 86 16 87 17 97 18 88 19 90 20 98 21 89 22
REMARK SMILES IDX 91 23 92 24 96 25 93 26 95 27 94 28 9 29 10 30 11 31 12 32
REMARK SMILES IDX 13 33 14 34 15 35 16 36 17 37 18 38 19 39 80 40 20 41 79 42
REMARK SMILES IDX 21 43 22 44 23 45 73 46 24 47 78 48 72 49 74 50 25 51 77 52
REMARK SMILES IDX 71 53 70 54 26 56 58 57 38 58 57 59 39 60 42 61 56 62 75 63
REMARK SMILES IDX 40 64 41 65 55 67 76 68 43 69 27 70 28 71 36 72 29 73 30 74
REMARK SMILES IDX 34 75 37 76 31 77 32 78 35 79 33 80 59 81 60 82 68 83 61 84
REMARK SMILES IDX 62 85 66 86 69 87 63 88 64 89 67 90 65 91 44 92 45 93 53 94
REMARK SMILES IDX 46 95 47 96 51 97 54 98 48 99 49 100 52 101 50 102
REMARK H PARENT 74 55 42 66
REMARK Flexibility Score: inf
ROOT
ATOM      1  C   UNL     1       8.809   1.787 -10.797  1.00  0.00     0.188 C 
ENDROOT
BRANCH   1   2
ATOM      2  C   UNL     1       7.355   1.954 -10.339  1.00  0.00     0.188 C 
BRANCH   2   3
ATOM      3  O   UNL     1       7.222   1.573  -8.977  1.00  0.00    -0.376 OA
BRANCH   3   4
ATOM      4  C   UNL     1       6.017   1.045  -8.462  1.00  0.00     0.202 C 
BRANCH   4   5
ATOM      5  C   UNL     1       4.709   1.640  -8.949  1.00  0.00     0.261 C 
BRANCH   5   6
ATOM      6  O   UNL     1       4.775   2.925  -9.599  1.00  0.00    -0.460 OA
BRANCH   6   7
ATOM      7  C   UNL     1       5.273   4.111  -9.189  1.00  0.00     0.338 C 
ATOM      8  O   UNL     1       5.351   5.049  -9.977  1.00  0.00    -0.246 OA
BRANCH   7   9
ATOM      9  C   UNL     1       5.637   4.359  -7.783  1.00  0.00     0.060 A 
ATOM     10  C   UNL     1       6.790   3.849  -7.190  1.00  0.00     0.016 A 
ATOM     11  C   UNL     1       4.902   5.328  -7.098  1.00  0.00     0.016 A 
ATOM     12  C   UNL     1       7.096   4.137  -5.865  1.00  0.00     0.004 A 
ATOM     13  C   UNL     1       5.228   5.654  -5.779  1.00  0.00     0.004 A 
ATOM     14  C   UNL     1       6.288   5.006  -5.134  1.00  0.00    -0.046 A 
BRANCH  14  15
ATOM     15  C   UNL     1       6.544   5.200  -3.663  1.00  0.00     0.060 C 
BRANCH  15  16
ATOM     16  C   UNL     1       5.915   4.083  -2.811  1.00  0.00     0.151 C 
ATOM     17  S   UNL     1       6.760   2.484  -2.950  1.00  0.00    -0.050 SA
ATOM     18  C   UNL     1       6.053   4.466  -1.359  1.00  0.00     0.248 C 
ATOM     19  C   UNL     1       7.614   2.704  -1.438  1.00  0.00     0.293 C 
ATOM     20  N   UNL     1       7.055   3.745  -0.727  1.00  0.00    -0.240 N 
ATOM     21  O   UNL     1       5.396   5.395  -0.893  1.00  0.00    -0.273 OA
ATOM     22  O   UNL     1       8.523   1.960  -1.130  1.00  0.00    -0.261 OA
BRANCH  20  23
ATOM     23  C   UNL     1       7.498   4.082   0.582  1.00  0.00     0.053 A 
ATOM     24  C   UNL     1       6.584   4.518   1.552  1.00  0.00     0.027 A 
ATOM     25  C   UNL     1       8.857   4.023   0.923  1.00  0.00     0.027 A 
ATOM     26  C   UNL     1       7.015   4.906   2.821  1.00  0.00     0.002 A 
ATOM     27  C   UNL     1       9.291   4.439   2.184  1.00  0.00     0.002 A 
ATOM     28  C   UNL     1       8.371   4.881   3.131  1.00  0.00     0.000 A 
ENDBRANCH  20  23
ENDBRANCH  15  16
ENDBRANCH  14  15
ENDBRANCH   7   9
ENDBRANCH   6   7
ENDBRANCH   5   6
ENDBRANCH   4   5
ENDBRANCH   3   4
ENDBRANCH   2   3
ENDBRANCH   1   2
BRANCH   1  29
ATOM     29  O   UNL     1       9.287   0.441 -10.854  1.00  0.00    -0.377 OA
BRANCH  29  30
ATOM     30  C   UNL     1       8.924  -0.401  -9.761  1.00  0.00     0.188 C 
BRANCH  30  31
ATOM     31  C   UNL     1       9.429  -0.031  -8.343  1.00  0.00     0.188 C 
BRANCH  31  32
ATOM     32  O   UNL     1       9.824   1.325  -8.206  1.00  0.00    -0.376 OA
BRANCH  32  33
ATOM     33  C   UNL     1      11.213   1.593  -8.086  1.00  0.00     0.202 C 
BRANCH  33  34
ATOM     34  C   UNL     1      12.195   1.091  -9.166  1.00  0.00     0.261 C 
BRANCH  34  35
ATOM     35  O   UNL     1      11.914  -0.187  -9.758  1.00  0.00    -0.460 OA
BRANCH  35  36
ATOM     36  C   UNL     1      12.306  -1.293  -9.090  1.00  0.00     0.338 C 
ATOM     37  O   UNL     1      12.928  -1.333  -8.044  1.00  0.00    -0.246 OA
BRANCH  36  38
ATOM     38  C   UNL     1      11.624  -2.463  -9.702  1.00  0.00     0.060 A 
ATOM     39  C   UNL     1      10.851  -3.279  -8.862  1.00  0.00     0.016 A 
ATOM     40  C   UNL     1      11.654  -2.708 -11.079  1.00  0.00     0.016 A 
ATOM     41  C   UNL     1      10.136  -4.354  -9.389  1.00  0.00     0.010 A 
ATOM     42  C   UNL     1      10.959  -3.808 -11.604  1.00  0.00     0.010 A 
ATOM     43  C   UNL     1      10.227  -4.657 -10.755  1.00  0.00    -0.014 A 
BRANCH  43  44
ATOM     44  C   UNL     1       9.752  -5.988 -11.212  1.00  0.00     0.031 A 
ATOM     45  C   UNL     1      10.762  -7.102 -11.296  1.00  0.00     0.074 A 
ATOM     46  C   UNL     1       8.451  -6.241 -11.446  1.00  0.00     0.049 A 
ATOM     47  N   UNL     1      10.592  -8.366 -11.588  1.00  0.00    -0.248 NA
ATOM     48  C   UNL     1      12.158  -6.737 -10.999  1.00  0.00     0.031 C 
ATOM     49  C   UNL     1       7.371  -5.262 -11.367  1.00  0.00     0.029 A 
ATOM     50  N   UNL     1       7.820  -7.412 -11.790  1.00  0.00    -0.354 N 
ATOM     51  C   UNL     1      11.851  -8.946 -11.493  1.00  0.00     0.074 A 
ATOM     52  C   UNL     1      12.784  -7.890 -11.169  1.00  0.00     0.031 C 
ATOM     53  C   UNL     1       6.208  -5.872 -11.660  1.00  0.00     0.029 A 
ATOM     54  C   UNL     1       6.465  -7.279 -11.967  1.00  0.00     0.049 A 
ATOM     55  H   UNL     1       8.295  -8.268 -11.900  1.00  0.00     0.167 HD
ATOM     56  C   UNL     1      12.198 -10.246 -11.641  1.00  0.00     0.037 A 
ATOM     57  C   UNL     1       5.543  -8.187 -12.347  1.00  0.00     0.037 A 
ATOM     58  C   UNL     1      11.275 -11.296 -11.982  1.00  0.00     0.049 A 
ATOM     59  C   UNL     1       5.970  -9.617 -12.584  1.00  0.00     0.074 A 
ATOM     60  C   UNL     1      11.530 -12.643 -12.168  1.00  0.00     0.029 A 
ATOM     61  N   UNL     1       9.917 -11.113 -12.199  1.00  0.00    -0.354 N 
ATOM     62  N   UNL     1       7.157 -10.162 -12.466  1.00  0.00    -0.248 NA
ATOM     63  C   UNL     1       4.920 -10.561 -12.995  1.00  0.00     0.031 C 
ATOM     64  C   UNL     1      10.338 -13.265 -12.553  1.00  0.00     0.029 A 
ATOM     65  C   UNL     1       9.326 -12.319 -12.539  1.00  0.00     0.049 A 
ATOM     66  H   UNL     1       9.444 -10.253 -12.122  1.00  0.00     0.167 HD
ATOM     67  C   UNL     1       6.993 -11.511 -12.761  1.00  0.00     0.074 A 
ATOM     68  C   UNL     1       5.585 -11.707 -13.031  1.00  0.00     0.031 C 
ATOM     69  C   UNL     1       7.922 -12.498 -12.811  1.00  0.00     0.037 A 
BRANCH  56  70
ATOM     70  C   UNL     1      13.645 -10.601 -11.451  1.00  0.00     0.064 A 
ATOM     71  C   UNL     1      14.255 -10.554 -10.187  1.00  0.00     0.173 A 
ATOM     72  C   UNL     1      14.424 -11.024 -12.538  1.00  0.00     0.173 A 
ATOM     73  F   UNL     1      13.560 -10.138  -9.117  1.00  0.00    -0.203 F 
ATOM     74  C   UNL     1      15.594 -10.896 -10.024  1.00  0.00     0.198 A 
ATOM     75  C   UNL     1      15.754 -11.397 -12.366  1.00  0.00     0.198 A 
ATOM     76  F   UNL     1      13.891 -11.085 -13.768  1.00  0.00    -0.203 F 
ATOM     77  F   UNL     1      16.168 -10.799  -8.816  1.00  0.00    -0.200 F 
ATOM     78  C   UNL     1      16.340 -11.327 -11.111  1.00  0.00     0.200 A 
ATOM     79  F   UNL     1      16.468 -11.826 -13.415  1.00  0.00    -0.200 F 
ATOM     80  F   UNL     1      17.625 -11.669 -10.951  1.00  0.00    -0.200 F 
ENDBRANCH  56  70
BRANCH  57  81
ATOM     81  C   UNL     1       4.125  -7.779 -12.553  1.00  0.00     0.064 A 
ATOM     82  C   UNL     1       3.090  -8.287 -11.755  1.00  0.00     0.173 A 
ATOM     83  C   UNL     1       3.771  -6.908 -13.595  1.00  0.00     0.173 A 
ATOM     84  F   UNL     1       3.369  -9.146 -10.763  1.00  0.00    -0.203 F 
ATOM     85  C   UNL     1       1.757  -7.964 -12.008  1.00  0.00     0.198 A 
ATOM     86  C   UNL     1       2.442  -6.556 -13.824  1.00  0.00     0.198 A 
ATOM     87  F   UNL     1       4.719  -6.396 -14.394  1.00  0.00    -0.203 F 
ATOM     88  F   UNL     1       0.784  -8.516 -11.270  1.00  0.00    -0.200 F 
ATOM     89  C   UNL     1       1.435  -7.094 -13.039  1.00  0.00     0.200 A 
ATOM     90  F   UNL     1       2.139  -5.704 -14.813  1.00  0.00    -0.200 F 
ATOM     91  F   UNL     1       0.155  -6.784 -13.282  1.00  0.00    -0.200 F 
ENDBRANCH  57  81
BRANCH  69  92
ATOM     92  C   UNL     1       7.436 -13.884 -13.140  1.00  0.00     0.064 A 
ATOM     93  C   UNL     1       6.931 -14.210 -14.409  1.00  0.00     0.173 A 
ATOM     94  C   UNL     1       7.479 -14.902 -12.174  1.00  0.00     0.173 A 
ATOM     95  F   UNL     1       6.860 -13.274 -15.368  1.00  0.00    -0.203 F 
ATOM     96  C   UNL     1       6.440 -15.485 -14.680  1.00  0.00     0.198 A 
ATOM     97  C   UNL     1       7.025 -16.186 -12.462  1.00  0.00     0.198 A 
ATOM     98  F   UNL     1       7.965 -14.653 -10.949  1.00  0.00    -0.203 F 
ATOM     99  F   UNL     1       5.891 -15.748 -15.874  1.00  0.00    -0.200 F 
ATOM    100  C   UNL     1       6.490 -16.472 -13.709  1.00  0.00     0.200 A 
ATOM    101  F   UNL     1       7.093 -17.145 -11.528  1.00  0.00    -0.200 F 
ATOM    102  F   UNL     1       6.013 -17.697 -13.970  1.00  0.00    -0.200 F 
ENDBRANCH  69  92
ENDBRANCH  43  44
ENDBRANCH  36  38
ENDBRANCH  35  36
ENDBRANCH  34  35
ENDBRANCH  33  34
ENDBRANCH  32  33
ENDBRANCH  31  32
ENDBRANCH  30  31
ENDBRANCH  29  30
ENDBRANCH   1  29
TORSDOF 23
