REMARK SMILES C[C@@H]1CN(C(=O)Nc2ccc(O)c(C(=O)OCCOCCOCCOCCOC(=O)c3ccc(-c4c5nc(c(-c6c(F)c(F)c(F)c(F)c6F)c6ccc([nH]6)c(-c6c(F)c(F)c(F)c(F)c6F)c6nc(c(-c7c(F)c(F)c(F)c(F)c7F)c7ccc4[nH]7)C=C6)C=C5)cc3)c2)C[C@@H]1C
REMARK SMILES IDX 22 1 21 2 20 3 19 4 18 5 17 6 16 7 14 8 15 9 13 10 8 11 9 12
REMARK SMILES IDX 94 13 10 14 11 15 7 16 5 17 6 18 4 20 1 21 2 22 3 23 96 24
REMARK SMILES IDX 95 25 97 26 12 27 23 29 24 30 25 31 26 32 27 33 28 34 29 35
REMARK SMILES IDX 30 36 31 37 32 38 93 39 33 40 92 41 34 42 35 43 36 44 86 45
REMARK SMILES IDX 37 46 91 47 85 48 87 49 38 50 90 51 84 52 83 53 39 55 71 56
REMARK SMILES IDX 51 57 70 58 52 59 55 60 69 61 88 62 53 63 54 64 68 66 89 67
REMARK SMILES IDX 56 68 40 69 41 70 49 71 42 72 43 73 47 74 50 75 44 76 45 77
REMARK SMILES IDX 48 78 46 79 72 80 73 81 81 82 74 83 75 84 79 85 82 86 76 87
REMARK SMILES IDX 77 88 80 89 78 90 57 91 58 92 66 93 59 94 60 95 64 96 67 97
REMARK SMILES IDX 61 98 62 99 65 100 63 101
REMARK H PARENT 7 19 12 28 87 54 55 65
REMARK Flexibility Score: inf
ROOT
ATOM      1  O   UNL     1      -4.240   6.584   0.305  1.00  0.00    -0.377 OA
ENDROOT
BRANCH   1   2
ATOM      2  C   UNL     1      -4.868   5.435  -0.250  1.00  0.00     0.188 C 
BRANCH   2   3
ATOM      3  C   UNL     1      -5.777   4.543   0.629  1.00  0.00     0.188 C 
BRANCH   3   4
ATOM      4  O   UNL     1      -6.138   5.133   1.864  1.00  0.00    -0.376 OA
BRANCH   4   5
ATOM      5  C   UNL     1      -5.649   4.583   3.072  1.00  0.00     0.202 C 
BRANCH   5   6
ATOM      6  C   UNL     1      -4.135   4.438   3.283  1.00  0.00     0.261 C 
BRANCH   6   7
ATOM      7  O   UNL     1      -3.385   4.149   2.105  1.00  0.00    -0.460 OA
BRANCH   7   8
ATOM      8  C   UNL     1      -3.210   2.851   1.773  1.00  0.00     0.342 C 
ATOM      9  O   UNL     1      -3.632   1.881   2.378  1.00  0.00    -0.246 OA
BRANCH   8  10
ATOM     10  C   UNL     1      -2.673   2.809   0.393  1.00  0.00     0.103 A 
ATOM     11  C   UNL     1      -2.857   1.887  -1.825  1.00  0.00     0.044 A 
ATOM     12  C   UNL     1      -1.916   2.806  -2.296  1.00  0.00     0.030 A 
ATOM     13  C   UNL     1      -3.296   1.931  -0.504  1.00  0.00     0.045 A 
ATOM     14  C   UNL     1      -1.296   3.682  -1.405  1.00  0.00     0.049 A 
ATOM     15  C   UNL     1      -1.648   3.655  -0.054  1.00  0.00     0.130 A 
BRANCH  11  16
ATOM     16  N   UNL     1      -3.274   0.836  -2.639  1.00  0.00    -0.308 N 
ATOM     17  C   UNL     1      -2.618  -0.327  -2.934  1.00  0.00     0.321 C 
ATOM     18  O   UNL     1      -3.226  -1.146  -3.631  1.00  0.00    -0.248 OA
ATOM     19  H   UNL     1      -4.159   0.944  -3.056  1.00  0.00     0.171 HD
BRANCH  17  20
ATOM     20  N   UNL     1      -1.381  -0.609  -2.414  1.00  0.00    -0.324 N 
ATOM     21  C   UNL     1       1.338  -0.249   0.069  1.00  0.00     0.010 C 
ATOM     22  C   UNL     1       0.711  -0.653  -1.259  1.00  0.00     0.010 C 
ATOM     23  C   UNL     1      -0.518   0.193  -1.563  1.00  0.00     0.125 C 
ATOM     24  C   UNL     1       0.177  -2.087  -1.404  1.00  0.00     0.010 C 
ATOM     25  C   UNL     1      -0.804  -1.935  -2.578  1.00  0.00     0.125 C 
ATOM     26  C   UNL     1      -0.536  -2.623  -0.161  1.00  0.00     0.010 C 
ENDBRANCH  17  20
ENDBRANCH  11  16
BRANCH  15  27
ATOM     27  O   UNL     1      -0.967   4.444   0.828  1.00  0.00    -0.507 OA
ATOM     28  H   UNL     1      -0.284   5.008   0.522  1.00  0.00     0.293 HD
ENDBRANCH  15  27
ENDBRANCH   8  10
ENDBRANCH   7   8
ENDBRANCH   6   7
ENDBRANCH   5   6
ENDBRANCH   4   5
ENDBRANCH   3   4
ENDBRANCH   2   3
ENDBRANCH   1   2
BRANCH   1  29
ATOM     29  C   UNL     1      -4.992   7.456   1.144  1.00  0.00     0.188 C 
BRANCH  29  30
ATOM     30  C   UNL     1      -6.510   7.665   0.920  1.00  0.00     0.188 C 
BRANCH  30  31
ATOM     31  O   UNL     1      -7.051   6.957  -0.181  1.00  0.00    -0.376 OA
BRANCH  31  32
ATOM     32  C   UNL     1      -7.395   7.692  -1.342  1.00  0.00     0.202 C 
BRANCH  32  33
ATOM     33  C   UNL     1      -6.269   8.439  -2.072  1.00  0.00     0.261 C 
BRANCH  33  34
ATOM     34  O   UNL     1      -5.448   9.297  -1.264  1.00  0.00    -0.460 OA
BRANCH  34  35
ATOM     35  C   UNL     1      -6.039  10.386  -0.736  1.00  0.00     0.338 C 
ATOM     36  O   UNL     1      -7.203  10.737  -0.871  1.00  0.00    -0.246 OA
BRANCH  35  37
ATOM     37  C   UNL     1      -5.085  11.014   0.197  1.00  0.00     0.060 A 
ATOM     38  C   UNL     1      -5.443  11.155   1.544  1.00  0.00     0.016 A 
ATOM     39  C   UNL     1      -3.854  11.484  -0.265  1.00  0.00     0.016 A 
ATOM     40  C   UNL     1      -4.595  11.827   2.423  1.00  0.00     0.010 A 
ATOM     41  C   UNL     1      -3.014  12.177   0.611  1.00  0.00     0.010 A 
ATOM     42  C   UNL     1      -3.408  12.396   1.943  1.00  0.00    -0.014 A 
BRANCH  42  43
ATOM     43  C   UNL     1      -2.731  13.440   2.751  1.00  0.00     0.031 A 
ATOM     44  C   UNL     1      -3.038  14.880   2.429  1.00  0.00     0.074 A 
ATOM     45  C   UNL     1      -1.917  13.130   3.774  1.00  0.00     0.049 A 
ATOM     46  N   UNL     1      -2.555  15.976   2.957  1.00  0.00    -0.248 NA
ATOM     47  C   UNL     1      -4.028  15.114   1.363  1.00  0.00     0.031 C 
ATOM     48  C   UNL     1      -1.591  11.778   4.221  1.00  0.00     0.029 A 
ATOM     49  N   UNL     1      -1.214  13.947   4.625  1.00  0.00    -0.354 N 
ATOM     50  C   UNL     1      -3.185  17.021   2.291  1.00  0.00     0.074 A 
ATOM     51  C   UNL     1      -4.045  16.434   1.288  1.00  0.00     0.031 C 
ATOM     52  C   UNL     1      -0.744  11.857   5.263  1.00  0.00     0.029 A 
ATOM     53  C   UNL     1      -0.444  13.262   5.534  1.00  0.00     0.049 A 
ATOM     54  H   UNL     1      -1.257  14.929   4.588  1.00  0.00     0.167 HD
ATOM     55  C   UNL     1      -3.073  18.352   2.509  1.00  0.00     0.037 A 
ATOM     56  C   UNL     1       0.417  13.727   6.461  1.00  0.00     0.037 A 
ATOM     57  C   UNL     1      -2.211  18.936   3.501  1.00  0.00     0.049 A 
ATOM     58  C   UNL     1       0.600  15.220   6.611  1.00  0.00     0.074 A 
ATOM     59  C   UNL     1      -1.997  20.273   3.781  1.00  0.00     0.029 A 
ATOM     60  N   UNL     1      -1.419  18.210   4.378  1.00  0.00    -0.354 N 
ATOM     61  N   UNL     1       0.003  16.202   5.979  1.00  0.00    -0.248 NA
ATOM     62  C   UNL     1       1.573  15.667   7.618  1.00  0.00     0.031 C 
ATOM     63  C   UNL     1      -1.040  20.359   4.798  1.00  0.00     0.029 A 
ATOM     64  C   UNL     1      -0.710  19.074   5.197  1.00  0.00     0.049 A 
ATOM     65  H   UNL     1      -1.368  17.228   4.414  1.00  0.00     0.167 HD
ATOM     66  C   UNL     1       0.484  17.375   6.551  1.00  0.00     0.074 A 
ATOM     67  C   UNL     1       1.415  16.981   7.585  1.00  0.00     0.031 C 
ATOM     68  C   UNL     1       0.182  18.663   6.250  1.00  0.00     0.037 A 
BRANCH  55  69
ATOM     69  C   UNL     1      -3.895  19.267   1.649  1.00  0.00     0.064 A 
ATOM     70  C   UNL     1      -5.291  19.341   1.780  1.00  0.00     0.173 A 
ATOM     71  C   UNL     1      -3.280  20.107   0.709  1.00  0.00     0.173 A 
ATOM     72  F   UNL     1      -5.931  18.546   2.650  1.00  0.00    -0.203 F 
ATOM     73  C   UNL     1      -6.040  20.207   0.987  1.00  0.00     0.198 A 
ATOM     74  C   UNL     1      -4.029  20.996  -0.058  1.00  0.00     0.198 A 
ATOM     75  F   UNL     1      -1.949  20.076   0.543  1.00  0.00    -0.203 F 
ATOM     76  F   UNL     1      -7.376  20.227   1.097  1.00  0.00    -0.200 F 
ATOM     77  C   UNL     1      -5.408  21.041   0.077  1.00  0.00     0.200 A 
ATOM     78  F   UNL     1      -3.414  21.810  -0.927  1.00  0.00    -0.200 F 
ATOM     79  F   UNL     1      -6.129  21.884  -0.675  1.00  0.00    -0.200 F 
ENDBRANCH  55  69
BRANCH  56  80
ATOM     80  C   UNL     1       1.189  12.790   7.323  1.00  0.00     0.064 A 
ATOM     81  C   UNL     1       1.012  12.773   8.714  1.00  0.00     0.173 A 
ATOM     82  C   UNL     1       2.175  11.950   6.785  1.00  0.00     0.173 A 
ATOM     83  F   UNL     1       0.099  13.575   9.283  1.00  0.00    -0.203 F 
ATOM     84  C   UNL     1       1.823  11.992   9.536  1.00  0.00     0.198 A 
ATOM     85  C   UNL     1       2.960  11.141   7.604  1.00  0.00     0.198 A 
ATOM     86  F   UNL     1       2.389  11.925   5.461  1.00  0.00    -0.203 F 
ATOM     87  F   UNL     1       1.687  12.061  10.867  1.00  0.00    -0.200 F 
ATOM     88  C   UNL     1       2.796  11.175   8.980  1.00  0.00     0.200 A 
ATOM     89  F   UNL     1       3.890  10.344   7.061  1.00  0.00    -0.200 F 
ATOM     90  F   UNL     1       3.585  10.436   9.771  1.00  0.00    -0.200 F 
ENDBRANCH  56  80
BRANCH  68  91
ATOM     91  C   UNL     1       0.787  19.737   7.112  1.00  0.00     0.064 A 
ATOM     92  C   UNL     1       2.160  20.024   7.099  1.00  0.00     0.173 A 
ATOM     93  C   UNL     1      -0.034  20.506   7.953  1.00  0.00     0.173 A 
ATOM     94  F   UNL     1       2.991  19.315   6.321  1.00  0.00    -0.203 F 
ATOM     95  C   UNL     1       2.694  21.006   7.930  1.00  0.00     0.198 A 
ATOM     96  C   UNL     1       0.497  21.515   8.751  1.00  0.00     0.198 A 
ATOM     97  F   UNL     1      -1.357  20.285   7.995  1.00  0.00    -0.203 F 
ATOM     98  F   UNL     1       4.018  21.214   7.952  1.00  0.00    -0.200 F 
ATOM     99  C   UNL     1       1.862  21.754   8.750  1.00  0.00     0.200 A 
ATOM    100  F   UNL     1      -0.311  22.250   9.526  1.00  0.00    -0.200 F 
ATOM    101  F   UNL     1       2.378  22.700   9.547  1.00  0.00    -0.200 F 
ENDBRANCH  68  91
ENDBRANCH  42  43
ENDBRANCH  35  37
ENDBRANCH  34  35
ENDBRANCH  33  34
ENDBRANCH  32  33
ENDBRANCH  31  32
ENDBRANCH  30  31
ENDBRANCH  29  30
ENDBRANCH   1  29
TORSDOF 23
