REMARK SMILES O=C(OCCOCCOCCOCCOC(=O)c1ccc(-c2c3nc(c(-c4c(F)c(F)c(F)c(F)c4F)c4ccc([nH]4)c(-c4c(F)c(F)c(F)c(F)c4F)c4nc(c(-c5c(F)c(F)c(F)c(F)c5F)c5ccc2[nH]5)C=C4)C=C3)cc1)C1=Cc2cc(Cl)cc(C#Cc3ccccc3)c2O[C@@H]1C(F)(F)F
REMARK SMILES IDX 9 1 8 2 7 3 6 4 5 5 4 6 3 7 2 8 1 9 81 10 82 11 99 12 83 13
REMARK SMILES IDX 98 14 84 15 97 16 85 17 88 18 86 19 87 20 100 21 101 22
REMARK SMILES IDX 102 23 103 24 89 25 90 26 91 27 92 28 96 29 93 30 95 31
REMARK SMILES IDX 94 32 10 33 11 34 12 35 13 36 14 37 15 38 16 39 17 40 18 41
REMARK SMILES IDX 19 42 80 43 20 44 79 45 21 46 22 47 23 48 73 49 24 50 78 51
REMARK SMILES IDX 72 52 74 53 25 54 77 55 71 56 70 57 26 59 58 60 38 61 57 62
REMARK SMILES IDX 39 63 42 64 56 65 75 66 40 67 41 68 55 70 76 71 43 72 27 73
REMARK SMILES IDX 28 74 36 75 29 76 30 77 34 78 37 79 31 80 32 81 35 82 33 83
REMARK SMILES IDX 59 84 60 85 68 86 61 87 62 88 66 89 69 90 63 91 64 92 67 93
REMARK SMILES IDX 65 94 44 95 45 96 53 97 46 98 47 99 51 100 54 101 48 102
REMARK SMILES IDX 49 103 52 104 50 105
REMARK H PARENT 74 58 42 69
REMARK Flexibility Score: inf
ROOT
ATOM      1  O   UNL     1       2.729  -3.959   1.081  1.00  0.00    -0.377 OA
ENDROOT
BRANCH   1   2
ATOM      2  C   UNL     1       1.883  -2.870   0.788  1.00  0.00     0.188 C 
BRANCH   2   3
ATOM      3  C   UNL     1       2.134  -2.229  -0.579  1.00  0.00     0.188 C 
BRANCH   3   4
ATOM      4  O   UNL     1       3.419  -1.670  -0.972  1.00  0.00    -0.376 OA
BRANCH   4   5
ATOM      5  C   UNL     1       4.142  -0.231  -0.785  1.00  0.00     0.202 C 
BRANCH   5   6
ATOM      6  C   UNL     1       3.422   1.552   0.233  1.00  0.00     0.261 C 
BRANCH   6   7
ATOM      7  O   UNL     1       2.651   2.719  -0.415  1.00  0.00    -0.460 OA
BRANCH   7   8
ATOM      8  C   UNL     1       2.945   2.888  -1.710  1.00  0.00     0.338 C 
ATOM      9  O   UNL     1       2.456   3.627  -2.525  1.00  0.00    -0.246 OA
BRANCH   8  10
ATOM     10  C   UNL     1       3.706   1.669  -1.839  1.00  0.00     0.087 C 
ATOM     11  C   UNL     1       5.068   1.808  -1.279  1.00  0.00     0.027 C 
ATOM     12  C   UNL     1       2.333   0.502  -1.140  1.00  0.00     0.316 C 
ATOM     13  C   UNL     1       5.594   1.038   0.274  1.00  0.00     0.020 A 
ATOM     14  O   UNL     1       2.845  -0.241   0.579  1.00  0.00    -0.474 OA
ATOM     15  C   UNL     1       6.869   1.264   0.721  1.00  0.00     0.032 A 
ATOM     16  C   UNL     1       4.505   0.107   1.264  1.00  0.00     0.143 A 
ATOM     17  C   UNL     1       7.172   0.681   1.962  1.00  0.00     0.043 A 
ATOM     18  C   UNL     1       4.890  -0.380   2.494  1.00  0.00     0.069 A 
ATOM     19  Cl  UNL     1       8.787   0.908   2.559  1.00  0.00    -0.084 Cl
ATOM     20  C   UNL     1       6.252  -0.084   2.791  1.00  0.00     0.041 A 
BRANCH  12  21
ATOM     21  C   UNL     1       1.954  -0.207  -2.557  1.00  0.00     0.430 C 
ATOM     22  F   UNL     1       0.977  -1.132  -2.545  1.00  0.00    -0.167 F 
ATOM     23  F   UNL     1       1.470   0.782  -3.370  1.00  0.00    -0.167 F 
ATOM     24  F   UNL     1       3.009  -0.716  -3.237  1.00  0.00    -0.167 F 
ENDBRANCH  12  21
BRANCH  18  25
ATOM     25  C   UNL     1       4.132  -1.141   3.438  1.00  0.00    -0.058 C 
ATOM     26  C   UNL     1       3.662  -1.862   4.276  1.00  0.00    -0.062 C 
BRANCH  26  27
ATOM     27  C   UNL     1       3.243  -2.816   5.267  1.00  0.00     0.025 A 
ATOM     28  C   UNL     1       3.422  -2.556   6.629  1.00  0.00     0.017 A 
ATOM     29  C   UNL     1       2.748  -4.060   4.874  1.00  0.00     0.017 A 
ATOM     30  C   UNL     1       3.191  -3.556   7.580  1.00  0.00     0.001 A 
ATOM     31  C   UNL     1       2.468  -5.043   5.829  1.00  0.00     0.001 A 
ATOM     32  C   UNL     1       2.721  -4.803   7.179  1.00  0.00     0.000 A 
ENDBRANCH  26  27
ENDBRANCH  18  25
ENDBRANCH   8  10
ENDBRANCH   7   8
ENDBRANCH   6   7
ENDBRANCH   5   6
ENDBRANCH   4   5
ENDBRANCH   3   4
ENDBRANCH   2   3
ENDBRANCH   1   2
BRANCH   1  33
ATOM     33  C   UNL     1       4.083  -3.571   1.157  1.00  0.00     0.188 C 
BRANCH  33  34
ATOM     34  C   UNL     1       5.006  -4.005   0.011  1.00  0.00     0.188 C 
BRANCH  34  35
ATOM     35  O   UNL     1       4.582  -4.817  -1.069  1.00  0.00    -0.376 OA
BRANCH  35  36
ATOM     36  C   UNL     1       3.428  -5.625  -0.963  1.00  0.00     0.202 C 
BRANCH  36  37
ATOM     37  C   UNL     1       3.385  -6.752   0.082  1.00  0.00     0.261 C 
BRANCH  37  38
ATOM     38  O   UNL     1       3.932  -6.459   1.377  1.00  0.00    -0.460 OA
BRANCH  38  39
ATOM     39  C   UNL     1       5.254  -6.700   1.547  1.00  0.00     0.338 C 
ATOM     40  O   UNL     1       6.040  -7.147   0.733  1.00  0.00    -0.246 OA
BRANCH  39  41
ATOM     41  C   UNL     1       5.643  -6.212   2.891  1.00  0.00     0.060 A 
ATOM     42  C   UNL     1       6.657  -5.252   3.042  1.00  0.00     0.016 A 
ATOM     43  C   UNL     1       4.987  -6.706   4.010  1.00  0.00     0.016 A 
ATOM     44  C   UNL     1       7.023  -4.787   4.316  1.00  0.00     0.010 A 
ATOM     45  C   UNL     1       5.360  -6.245   5.273  1.00  0.00     0.010 A 
ATOM     46  C   UNL     1       6.398  -5.303   5.454  1.00  0.00    -0.014 A 
BRANCH  46  47
ATOM     47  C   UNL     1       6.904  -5.067   6.844  1.00  0.00     0.031 A 
ATOM     48  C   UNL     1       7.322  -6.280   7.641  1.00  0.00     0.074 A 
ATOM     49  C   UNL     1       6.938  -3.860   7.447  1.00  0.00     0.049 A 
ATOM     50  N   UNL     1       7.539  -6.414   8.924  1.00  0.00    -0.248 NA
ATOM     51  C   UNL     1       7.466  -7.533   6.877  1.00  0.00     0.031 C 
ATOM     52  C   UNL     1       6.627  -2.576   6.828  1.00  0.00     0.029 A 
ATOM     53  N   UNL     1       7.196  -3.534   8.763  1.00  0.00    -0.354 N 
ATOM     54  C   UNL     1       7.809  -7.763   9.113  1.00  0.00     0.074 A 
ATOM     55  C   UNL     1       7.595  -8.422   7.845  1.00  0.00     0.031 C 
ATOM     56  C   UNL     1       6.619  -1.618   7.774  1.00  0.00     0.029 A 
ATOM     57  C   UNL     1       6.929  -2.219   9.068  1.00  0.00     0.049 A 
ATOM     58  H   UNL     1       7.538  -4.181   9.421  1.00  0.00     0.167 HD
ATOM     59  C   UNL     1       8.274  -8.395  10.215  1.00  0.00     0.037 A 
ATOM     60  C   UNL     1       6.912  -1.578  10.255  1.00  0.00     0.037 A 
ATOM     61  C   UNL     1       8.575  -7.736  11.454  1.00  0.00     0.049 A 
ATOM     62  C   UNL     1       7.351  -2.305  11.503  1.00  0.00     0.074 A 
ATOM     63  C   UNL     1       9.156  -8.265  12.592  1.00  0.00     0.029 A 
ATOM     64  N   UNL     1       8.328  -6.397  11.712  1.00  0.00    -0.354 N 
ATOM     65  N   UNL     1       7.688  -3.562  11.654  1.00  0.00    -0.248 NA
ATOM     66  C   UNL     1       7.462  -1.508  12.735  1.00  0.00     0.031 C 
ATOM     67  C   UNL     1       9.209  -7.258  13.560  1.00  0.00     0.029 A 
ATOM     68  C   UNL     1       8.722  -6.087  13.003  1.00  0.00     0.049 A 
ATOM     69  H   UNL     1       7.931  -5.761  11.073  1.00  0.00     0.167 HD
ATOM     70  C   UNL     1       8.125  -3.687  12.968  1.00  0.00     0.074 A 
ATOM     71  C   UNL     1       7.991  -2.383  13.579  1.00  0.00     0.031 C 
ATOM     72  C   UNL     1       8.618  -4.781  13.600  1.00  0.00     0.037 A 
BRANCH  59  73
ATOM     73  C   UNL     1       8.525  -9.872  10.105  1.00  0.00     0.064 A 
ATOM     74  C   UNL     1       9.515 -10.390   9.253  1.00  0.00     0.173 A 
ATOM     75  C   UNL     1       7.771 -10.782  10.860  1.00  0.00     0.173 A 
ATOM     76  F   UNL     1      10.261  -9.564   8.502  1.00  0.00    -0.203 F 
ATOM     77  C   UNL     1       9.698 -11.762   9.115  1.00  0.00     0.198 A 
ATOM     78  C   UNL     1       7.989 -12.153  10.754  1.00  0.00     0.198 A 
ATOM     79  F   UNL     1       6.820 -10.342  11.698  1.00  0.00    -0.203 F 
ATOM     80  F   UNL     1      10.589 -12.231   8.231  1.00  0.00    -0.200 F 
ATOM     81  C   UNL     1       8.940 -12.642   9.871  1.00  0.00     0.200 A 
ATOM     82  F   UNL     1       7.270 -13.002  11.500  1.00  0.00    -0.200 F 
ATOM     83  F   UNL     1       9.119 -13.963   9.741  1.00  0.00    -0.200 F 
ENDBRANCH  59  73
BRANCH  60  84
ATOM     84  C   UNL     1       6.505  -0.148  10.336  1.00  0.00     0.064 A 
ATOM     85  C   UNL     1       7.452   0.856  10.586  1.00  0.00     0.173 A 
ATOM     86  C   UNL     1       5.161   0.237  10.227  1.00  0.00     0.173 A 
ATOM     87  F   UNL     1       8.745   0.533  10.727  1.00  0.00    -0.203 F 
ATOM     88  C   UNL     1       7.067   2.185  10.757  1.00  0.00     0.198 A 
ATOM     89  C   UNL     1       4.780   1.572  10.376  1.00  0.00     0.198 A 
ATOM     90  F   UNL     1       4.215  -0.683   9.989  1.00  0.00    -0.203 F 
ATOM     91  F   UNL     1       7.988   3.113  11.054  1.00  0.00    -0.200 F 
ATOM     92  C   UNL     1       5.732   2.542  10.651  1.00  0.00     0.200 A 
ATOM     93  F   UNL     1       3.489   1.915  10.267  1.00  0.00    -0.200 F 
ATOM     94  F   UNL     1       5.362   3.819  10.825  1.00  0.00    -0.200 F 
ENDBRANCH  60  84
BRANCH  72  95
ATOM     95  C   UNL     1       9.136  -4.615  15.000  1.00  0.00     0.064 A 
ATOM     96  C   UNL     1       8.285  -4.375  16.088  1.00  0.00     0.173 A 
ATOM     97  C   UNL     1      10.508  -4.764  15.263  1.00  0.00     0.173 A 
ATOM     98  F   UNL     1       6.968  -4.212  15.893  1.00  0.00    -0.203 F 
ATOM     99  C   UNL     1       8.791  -4.269  17.382  1.00  0.00     0.198 A 
ATOM    100  C   UNL     1      11.004  -4.696  16.561  1.00  0.00     0.198 A 
ATOM    101  F   UNL     1      11.367  -5.002  14.259  1.00  0.00    -0.203 F 
ATOM    102  F   UNL     1       7.965  -3.992  18.401  1.00  0.00    -0.200 F 
ATOM    103  C   UNL     1      10.147  -4.441  17.619  1.00  0.00     0.200 A 
ATOM    104  F   UNL     1      12.312  -4.883  16.788  1.00  0.00    -0.200 F 
ATOM    105  F   UNL     1      10.627  -4.356  18.867  1.00  0.00    -0.200 F 
ENDBRANCH  72  95
ENDBRANCH  46  47
ENDBRANCH  39  41
ENDBRANCH  38  39
ENDBRANCH  37  38
ENDBRANCH  36  37
ENDBRANCH  35  36
ENDBRANCH  34  35
ENDBRANCH  33  34
ENDBRANCH   1  33
TORSDOF 23
