REMARK SMILES CC[C@@H](Sc1nnc2ccc3ccccc3n12)C(=O)Nc1cccc(C(=O)OCCOCCOCCOCCOC(=O)c2ccc(-c3c4nc(c(-c5c(F)c(F)c(F)c(F)c5F)c5ccc([nH]5)c(-c5c(F)c(F)c(F)c(F)c5F)c5nc(c(-c6c(F)c(F)c(F)c(F)c6F)c6ccc3[nH]6)C=C5)C=C4)cc2)c1
REMARK SMILES IDX 33 1 32 2 31 3 30 4 29 5 28 6 26 7 27 8 25 9 21 10 22 11
REMARK SMILES IDX 106 12 23 13 24 14 20 15 18 16 19 17 3 19 2 20 1 21 4 22
REMARK SMILES IDX 5 23 6 24 17 25 7 26 8 27 16 28 9 29 11 30 15 31 10 32 12 33
REMARK SMILES IDX 14 34 13 35 34 36 35 37 36 38 37 39 38 40 39 41 40 42 41 43
REMARK SMILES IDX 42 44 43 45 44 46 105 47 45 48 104 49 46 50 47 51 48 52
REMARK SMILES IDX 98 53 49 54 103 55 97 56 99 57 50 58 102 59 96 60 95 61
REMARK SMILES IDX 51 63 83 64 63 65 82 66 64 67 67 68 81 69 100 70 65 71 66 72
REMARK SMILES IDX 80 74 101 75 68 76 52 77 53 78 61 79 54 80 55 81 59 82 62 83
REMARK SMILES IDX 56 84 57 85 60 86 58 87 84 88 85 89 93 90 86 91 87 92 91 93
REMARK SMILES IDX 94 94 88 95 89 96 92 97 90 98 69 99 70 100 78 101 71 102
REMARK SMILES IDX 72 103 76 104 79 105 73 106 74 107 77 108 75 109
REMARK H PARENT 20 18 99 62 67 73
REMARK Flexibility Score: inf
ROOT
ATOM      1  C   UNL     1      -4.146  -2.818  -3.063  1.00  0.00     0.188 C 
ENDROOT
BRANCH   1   2
ATOM      2  C   UNL     1      -5.497  -2.901  -2.341  1.00  0.00     0.188 C 
BRANCH   2   3
ATOM      3  O   UNL     1      -6.679  -3.299  -3.016  1.00  0.00    -0.376 OA
BRANCH   3   4
ATOM      4  C   UNL     1      -7.228  -2.661  -4.162  1.00  0.00     0.202 C 
BRANCH   4   5
ATOM      5  C   UNL     1      -7.069  -1.193  -4.598  1.00  0.00     0.261 C 
BRANCH   5   6
ATOM      6  O   UNL     1      -5.846  -0.539  -4.269  1.00  0.00    -0.460 OA
BRANCH   6   7
ATOM      7  C   UNL     1      -5.912   0.193  -3.142  1.00  0.00     0.338 C 
ATOM      8  O   UNL     1      -6.920   0.417  -2.489  1.00  0.00    -0.246 OA
BRANCH   7   9
ATOM      9  C   UNL     1      -4.564   0.537  -2.635  1.00  0.00     0.062 A 
ATOM     10  C   UNL     1      -2.223   1.147  -2.809  1.00  0.00     0.042 A 
ATOM     11  C   UNL     1      -2.241   1.382  -1.439  1.00  0.00     0.026 A 
ATOM     12  C   UNL     1      -3.433   0.804  -3.432  1.00  0.00     0.041 A 
ATOM     13  C   UNL     1      -3.305   0.991  -0.636  1.00  0.00     0.003 A 
ATOM     14  C   UNL     1      -4.462   0.546  -1.238  1.00  0.00     0.016 A 
BRANCH  10  15
ATOM     15  N   UNL     1      -1.059   1.363  -3.571  1.00  0.00    -0.325 N 
ATOM     16  C   UNL     1       0.283   1.170  -3.317  1.00  0.00     0.237 C 
ATOM     17  O   UNL     1       1.065   1.733  -4.101  1.00  0.00    -0.273 OA
ATOM     18  H   UNL     1      -1.240   1.726  -4.468  1.00  0.00     0.169 HD
BRANCH  16  19
ATOM     19  C   UNL     1       0.879   0.194  -2.240  1.00  0.00     0.144 C 
BRANCH  19  20
ATOM     20  C   UNL     1       0.590   0.626  -0.796  1.00  0.00     0.021 C 
ATOM     21  C   UNL     1       1.504   0.214   0.344  1.00  0.00     0.005 C 
ENDBRANCH  19  20
BRANCH  19  22
ATOM     22  S   UNL     1       0.398  -1.516  -2.773  1.00  0.00    -0.072 SA
BRANCH  22  23
ATOM     23  C   UNL     1       1.394  -2.564  -1.815  1.00  0.00     0.196 A 
ATOM     24  N   UNL     1       2.136  -2.192  -0.801  1.00  0.00    -0.122 NA
ATOM     25  N   UNL     1       1.253  -3.932  -1.761  1.00  0.00    -0.270 N 
ATOM     26  N   UNL     1       2.145  -3.221   0.114  1.00  0.00    -0.129 NA
ATOM     27  C   UNL     1       1.513  -4.237  -0.434  1.00  0.00     0.161 A 
ATOM     28  C   UNL     1       1.024  -4.930  -2.731  1.00  0.00     0.057 A 
ATOM     29  C   UNL     1       1.133  -5.503   0.066  1.00  0.00     0.050 A 
ATOM     30  C   UNL     1       0.806  -6.234  -2.235  1.00  0.00    -0.001 A 
ATOM     31  C   UNL     1       1.177  -4.695  -4.098  1.00  0.00     0.027 A 
ATOM     32  C   UNL     1       0.747  -6.468  -0.784  1.00  0.00     0.014 A 
ATOM     33  C   UNL     1       0.710  -7.300  -3.128  1.00  0.00     0.010 A 
ATOM     34  C   UNL     1       1.138  -5.783  -4.974  1.00  0.00     0.002 A 
ATOM     35  C   UNL     1       0.909  -7.077  -4.492  1.00  0.00     0.001 A 
ENDBRANCH  22  23
ENDBRANCH  19  22
ENDBRANCH  16  19
ENDBRANCH  10  15
ENDBRANCH   7   9
ENDBRANCH   6   7
ENDBRANCH   5   6
ENDBRANCH   4   5
ENDBRANCH   3   4
ENDBRANCH   2   3
ENDBRANCH   1   2
BRANCH   1  36
ATOM     36  O   UNL     1      -4.268  -2.523  -4.428  1.00  0.00    -0.377 OA
BRANCH  36  37
ATOM     37  C   UNL     1      -4.426  -3.614  -5.316  1.00  0.00     0.188 C 
BRANCH  37  38
ATOM     38  C   UNL     1      -4.909  -5.006  -4.831  1.00  0.00     0.188 C 
BRANCH  38  39
ATOM     39  O   UNL     1      -4.226  -5.482  -3.688  1.00  0.00    -0.376 OA
BRANCH  39  40
ATOM     40  C   UNL     1      -3.115  -6.335  -3.889  1.00  0.00     0.202 C 
BRANCH  40  41
ATOM     41  C   UNL     1      -2.076  -6.001  -4.969  1.00  0.00     0.261 C 
BRANCH  41  42
ATOM     42  O   UNL     1      -2.591  -5.525  -6.213  1.00  0.00    -0.460 OA
BRANCH  42  43
ATOM     43  C   UNL     1      -2.643  -6.282  -7.322  1.00  0.00     0.338 C 
ATOM     44  O   UNL     1      -2.113  -7.359  -7.523  1.00  0.00    -0.246 OA
BRANCH  43  45
ATOM     45  C   UNL     1      -3.782  -5.690  -8.063  1.00  0.00     0.060 A 
ATOM     46  C   UNL     1      -3.807  -4.329  -8.389  1.00  0.00     0.016 A 
ATOM     47  C   UNL     1      -4.966  -6.442  -8.060  1.00  0.00     0.016 A 
ATOM     48  C   UNL     1      -5.041  -3.713  -8.596  1.00  0.00     0.010 A 
ATOM     49  C   UNL     1      -6.200  -5.815  -8.244  1.00  0.00     0.010 A 
ATOM     50  C   UNL     1      -6.250  -4.441  -8.474  1.00  0.00    -0.014 A 
BRANCH  50  51
ATOM     51  C   UNL     1      -7.484  -3.781  -8.939  1.00  0.00     0.031 A 
ATOM     52  C   UNL     1      -7.311  -3.382 -10.360  1.00  0.00     0.074 A 
ATOM     53  C   UNL     1      -8.690  -3.632  -8.338  1.00  0.00     0.049 A 
ATOM     54  N   UNL     1      -7.242  -2.184 -10.833  1.00  0.00    -0.248 NA
ATOM     55  C   UNL     1      -6.953  -4.436 -11.326  1.00  0.00     0.031 C 
ATOM     56  C   UNL     1      -9.145  -4.215  -7.077  1.00  0.00     0.029 A 
ATOM     57  N   UNL     1      -9.816  -2.972  -8.786  1.00  0.00    -0.354 N 
ATOM     58  C   UNL     1      -7.023  -2.340 -12.197  1.00  0.00     0.074 A 
ATOM     59  C   UNL     1      -6.664  -3.714 -12.408  1.00  0.00     0.031 C 
ATOM     60  C   UNL     1     -10.488  -4.062  -6.963  1.00  0.00     0.029 A 
ATOM     61  C   UNL     1     -10.985  -3.277  -8.083  1.00  0.00     0.049 A 
ATOM     62  H   UNL     1      -9.798  -2.338  -9.538  1.00  0.00     0.167 HD
ATOM     63  C   UNL     1      -7.467  -1.398 -13.069  1.00  0.00     0.037 A 
ATOM     64  C   UNL     1     -12.265  -2.948  -8.413  1.00  0.00     0.037 A 
ATOM     65  C   UNL     1      -7.739  -0.161 -12.388  1.00  0.00     0.049 A 
ATOM     66  C   UNL     1     -12.213  -1.787  -9.327  1.00  0.00     0.074 A 
ATOM     67  C   UNL     1      -7.008   0.861 -11.825  1.00  0.00     0.029 A 
ATOM     68  N   UNL     1      -9.004  -0.091 -11.878  1.00  0.00    -0.354 N 
ATOM     69  N   UNL     1     -11.876  -0.587  -8.954  1.00  0.00    -0.248 NA
ATOM     70  C   UNL     1     -12.280  -2.006 -10.768  1.00  0.00     0.031 C 
ATOM     71  C   UNL     1      -7.852   1.458 -10.840  1.00  0.00     0.029 A 
ATOM     72  C   UNL     1      -9.084   0.808 -10.855  1.00  0.00     0.049 A 
ATOM     73  H   UNL     1      -9.764  -0.623 -12.207  1.00  0.00     0.167 HD
ATOM     74  C   UNL     1     -11.264  -0.055 -10.068  1.00  0.00     0.074 A 
ATOM     75  C   UNL     1     -11.707  -0.876 -11.187  1.00  0.00     0.031 C 
ATOM     76  C   UNL     1     -10.188   0.767  -9.928  1.00  0.00     0.037 A 
BRANCH  63  77
ATOM     77  C   UNL     1      -8.178  -1.742 -14.362  1.00  0.00     0.064 A 
ATOM     78  C   UNL     1      -8.562  -0.695 -15.224  1.00  0.00     0.173 A 
ATOM     79  C   UNL     1      -8.789  -2.991 -14.620  1.00  0.00     0.173 A 
ATOM     80  F   UNL     1      -8.083   0.545 -15.045  1.00  0.00    -0.203 F 
ATOM     81  C   UNL     1      -9.522  -0.876 -16.225  1.00  0.00     0.198 A 
ATOM     82  C   UNL     1      -9.704  -3.180 -15.652  1.00  0.00     0.198 A 
ATOM     83  F   UNL     1      -8.629  -4.048 -13.816  1.00  0.00    -0.203 F 
ATOM     84  F   UNL     1      -9.946   0.176 -16.938  1.00  0.00    -0.200 F 
ATOM     85  C   UNL     1     -10.092  -2.118 -16.438  1.00  0.00     0.200 A 
ATOM     86  F   UNL     1     -10.270  -4.384 -15.816  1.00  0.00    -0.200 F 
ATOM     87  F   UNL     1     -11.051  -2.282 -17.358  1.00  0.00    -0.200 F 
ENDBRANCH  63  77
BRANCH  64  88
ATOM     88  C   UNL     1     -13.564  -3.642  -8.167  1.00  0.00     0.064 A 
ATOM     89  C   UNL     1     -14.797  -2.997  -8.406  1.00  0.00     0.173 A 
ATOM     90  C   UNL     1     -13.624  -5.037  -8.007  1.00  0.00     0.173 A 
ATOM     91  F   UNL     1     -14.844  -1.670  -8.598  1.00  0.00    -0.203 F 
ATOM     92  C   UNL     1     -15.996  -3.709  -8.542  1.00  0.00     0.198 A 
ATOM     93  C   UNL     1     -14.823  -5.747  -8.135  1.00  0.00     0.198 A 
ATOM     94  F   UNL     1     -12.506  -5.753  -7.827  1.00  0.00    -0.203 F 
ATOM     95  F   UNL     1     -17.129  -3.065  -8.856  1.00  0.00    -0.200 F 
ATOM     96  C   UNL     1     -16.003  -5.087  -8.425  1.00  0.00     0.200 A 
ATOM     97  F   UNL     1     -14.812  -7.085  -8.050  1.00  0.00    -0.200 F 
ATOM     98  F   UNL     1     -17.131  -5.781  -8.634  1.00  0.00    -0.200 F 
ENDBRANCH  64  88
BRANCH  76  99
ATOM     99  C   UNL     1     -10.065   1.540  -8.657  1.00  0.00     0.064 A 
ATOM    100  C   UNL     1      -9.820   0.976  -7.396  1.00  0.00     0.173 A 
ATOM    101  C   UNL     1     -10.095   2.938  -8.757  1.00  0.00     0.173 A 
ATOM    102  F   UNL     1      -9.709  -0.351  -7.238  1.00  0.00    -0.203 F 
ATOM    103  C   UNL     1      -9.632   1.789  -6.280  1.00  0.00     0.198 A 
ATOM    104  C   UNL     1      -9.864   3.744  -7.650  1.00  0.00     0.198 A 
ATOM    105  F   UNL     1     -10.299   3.522  -9.948  1.00  0.00    -0.203 F 
ATOM    106  F   UNL     1      -9.410   1.236  -5.079  1.00  0.00    -0.200 F 
ATOM    107  C   UNL     1      -9.639   3.170  -6.411  1.00  0.00     0.200 A 
ATOM    108  F   UNL     1      -9.831   5.076  -7.794  1.00  0.00    -0.200 F 
ATOM    109  F   UNL     1      -9.402   3.950  -5.347  1.00  0.00    -0.200 F 
ENDBRANCH  76  99
ENDBRANCH  50  51
ENDBRANCH  43  45
ENDBRANCH  42  43
ENDBRANCH  41  42
ENDBRANCH  40  41
ENDBRANCH  39  40
ENDBRANCH  38  39
ENDBRANCH  37  38
ENDBRANCH  36  37
ENDBRANCH   1  36
TORSDOF 25
