REMARK SMILES O=C(/C=C/c1ccc(O)c(O)c1)OCCOCCOCCOCCOC(=O)c1ccc(-c2c3nc(c(-c4c(F)c(F)c(F)c(F)c4F)c4ccc([nH]4)c(-c4c(F)c(F)c(F)c(F)c4F)c4nc(c(-c5c(F)c(F)c(F)c(F)c5F)c5ccc2[nH]5)C=C4)C=C3)cc1
REMARK SMILES IDX 19 1 18 2 17 3 16 4 15 5 14 6 13 7 2 8 1 9 3 10 4 11 5 12
REMARK SMILES IDX 6 13 12 14 7 15 10 16 8 17 11 18 9 20 20 22 21 23 22 24
REMARK SMILES IDX 23 25 24 26 25 27 26 28 27 29 28 30 29 31 90 32 30 33 89 34
REMARK SMILES IDX 31 35 32 36 33 37 83 38 34 39 88 40 82 41 84 42 35 43 87 44
REMARK SMILES IDX 81 45 80 46 36 48 68 49 48 50 67 51 49 52 52 53 66 54 85 55
REMARK SMILES IDX 50 56 51 57 65 59 86 60 53 61 37 62 38 63 46 64 39 65 40 66
REMARK SMILES IDX 44 67 47 68 41 69 42 70 45 71 43 72 69 73 70 74 78 75 71 76
REMARK SMILES IDX 72 77 76 78 79 79 73 80 74 81 77 82 75 83 54 84 55 85 63 86
REMARK SMILES IDX 56 87 57 88 61 89 64 90 58 91 59 92 62 93 60 94
REMARK H PARENT 11 19 9 21 84 47 52 58
REMARK Flexibility Score: inf
ROOT
ATOM      1  O   UNL     1       2.543   0.332   3.484  1.00  0.00    -0.377 OA
ENDROOT
BRANCH   1   2
ATOM      2  C   UNL     1       2.051   0.222   2.159  1.00  0.00     0.188 C 
BRANCH   2   3
ATOM      3  C   UNL     1       2.784  -0.760   1.249  1.00  0.00     0.188 C 
BRANCH   3   4
ATOM      4  O   UNL     1       4.170  -0.621   0.983  1.00  0.00    -0.376 OA
BRANCH   4   5
ATOM      5  C   UNL     1       4.825   0.502   0.434  1.00  0.00     0.202 C 
BRANCH   5   6
ATOM      6  C   UNL     1       4.199   1.413  -0.614  1.00  0.00     0.261 C 
BRANCH   6   7
ATOM      7  O   UNL     1       2.893   1.096  -1.099  1.00  0.00    -0.460 OA
BRANCH   7   8
ATOM      8  C   UNL     1       2.587   0.141  -2.007  1.00  0.00     0.330 C 
ATOM      9  O   UNL     1       1.556   0.224  -2.667  1.00  0.00    -0.247 OA
BRANCH   8  10
ATOM     10  C   UNL     1       3.296  -1.150  -1.952  1.00  0.00     0.094 C 
ATOM     11  C   UNL     1       4.615  -1.363  -2.033  1.00  0.00     0.016 C 
BRANCH  11  12
ATOM     12  C   UNL     1       5.202  -2.685  -1.786  1.00  0.00    -0.021 A 
ATOM     13  C   UNL     1       4.857  -3.790  -2.575  1.00  0.00     0.012 A 
ATOM     14  C   UNL     1       6.162  -2.838  -0.774  1.00  0.00     0.058 A 
ATOM     15  C   UNL     1       5.504  -5.018  -2.401  1.00  0.00     0.051 A 
ATOM     16  C   UNL     1       6.803  -4.058  -0.610  1.00  0.00     0.157 A 
ATOM     17  C   UNL     1       6.494  -5.136  -1.432  1.00  0.00     0.157 A 
BRANCH  16  18
ATOM     18  O   UNL     1       7.766  -4.181   0.350  1.00  0.00    -0.504 OA
ATOM     19  H   UNL     1       8.205  -5.000   0.470  1.00  0.00     0.293 HD
ENDBRANCH  16  18
BRANCH  17  20
ATOM     20  O   UNL     1       7.208  -6.288  -1.264  1.00  0.00    -0.504 OA
ATOM     21  H   UNL     1       7.027  -7.034  -1.801  1.00  0.00     0.293 HD
ENDBRANCH  17  20
ENDBRANCH  11  12
ENDBRANCH   8  10
ENDBRANCH   7   8
ENDBRANCH   6   7
ENDBRANCH   5   6
ENDBRANCH   4   5
ENDBRANCH   3   4
ENDBRANCH   2   3
ENDBRANCH   1   2
BRANCH   1  22
ATOM     22  C   UNL     1       3.880   0.782   3.562  1.00  0.00     0.188 C 
BRANCH  22  23
ATOM     23  C   UNL     1       4.930  -0.328   3.788  1.00  0.00     0.188 C 
BRANCH  23  24
ATOM     24  O   UNL     1       4.555  -1.685   3.950  1.00  0.00    -0.376 OA
BRANCH  24  25
ATOM     25  C   UNL     1       3.389  -2.045   4.667  1.00  0.00     0.202 C 
BRANCH  25  26
ATOM     26  C   UNL     1       3.041  -1.430   6.036  1.00  0.00     0.261 C 
BRANCH  26  27
ATOM     27  O   UNL     1       3.405  -0.061   6.249  1.00  0.00    -0.460 OA
BRANCH  27  28
ATOM     28  C   UNL     1       4.567   0.152   6.907  1.00  0.00     0.338 C 
ATOM     29  O   UNL     1       5.314  -0.687   7.388  1.00  0.00    -0.246 OA
BRANCH  28  30
ATOM     30  C   UNL     1       4.926   1.582   6.779  1.00  0.00     0.060 A 
ATOM     31  C   UNL     1       6.174   1.907   6.223  1.00  0.00     0.016 A 
ATOM     32  C   UNL     1       4.042   2.591   7.166  1.00  0.00     0.016 A 
ATOM     33  C   UNL     1       6.560   3.237   6.091  1.00  0.00     0.010 A 
ATOM     34  C   UNL     1       4.445   3.926   7.072  1.00  0.00     0.010 A 
ATOM     35  C   UNL     1       5.725   4.247   6.581  1.00  0.00    -0.014 A 
BRANCH  35  36
ATOM     36  C   UNL     1       6.315   5.576   6.867  1.00  0.00     0.031 A 
ATOM     37  C   UNL     1       6.830   5.815   8.261  1.00  0.00     0.074 A 
ATOM     38  C   UNL     1       6.442   6.523   5.924  1.00  0.00     0.049 A 
ATOM     39  N   UNL     1       7.363   6.888   8.784  1.00  0.00    -0.248 NA
ATOM     40  C   UNL     1       6.720   4.681   9.194  1.00  0.00     0.031 C 
ATOM     41  C   UNL     1       6.041   6.387   4.527  1.00  0.00     0.029 A 
ATOM     42  N   UNL     1       6.948   7.795   6.011  1.00  0.00    -0.354 N 
ATOM     43  C   UNL     1       7.636   6.561  10.107  1.00  0.00     0.074 A 
ATOM     44  C   UNL     1       7.177   5.207  10.316  1.00  0.00     0.031 C 
ATOM     45  C   UNL     1       6.311   7.538   3.885  1.00  0.00     0.029 A 
ATOM     46  C   UNL     1       6.872   8.499   4.836  1.00  0.00     0.049 A 
ATOM     47  H   UNL     1       7.330   8.167   6.838  1.00  0.00     0.167 HD
ATOM     48  C   UNL     1       8.224   7.319  11.061  1.00  0.00     0.037 A 
ATOM     49  C   UNL     1       7.202   9.778   4.572  1.00  0.00     0.037 A 
ATOM     50  C   UNL     1       8.672   8.669  10.848  1.00  0.00     0.049 A 
ATOM     51  C   UNL     1       7.778  10.635   5.673  1.00  0.00     0.074 A 
ATOM     52  C   UNL     1       9.290   9.524  11.742  1.00  0.00     0.029 A 
ATOM     53  N   UNL     1       8.536   9.365   9.655  1.00  0.00    -0.354 N 
ATOM     54  N   UNL     1       8.051  10.319   6.916  1.00  0.00    -0.248 NA
ATOM     55  C   UNL     1       8.096  12.028   5.327  1.00  0.00     0.031 C 
ATOM     56  C   UNL     1       9.466  10.760  11.110  1.00  0.00     0.029 A 
ATOM     57  C   UNL     1       9.030  10.651   9.799  1.00  0.00     0.049 A 
ATOM     58  H   UNL     1       8.145   8.998   8.829  1.00  0.00     0.167 HD
ATOM     59  C   UNL     1       8.610  11.457   7.488  1.00  0.00     0.074 A 
ATOM     60  C   UNL     1       8.640  12.468   6.452  1.00  0.00     0.031 C 
ATOM     61  C   UNL     1       9.065  11.644   8.753  1.00  0.00     0.037 A 
BRANCH  48  62
ATOM     62  C   UNL     1       8.359   6.715  12.430  1.00  0.00     0.064 A 
ATOM     63  C   UNL     1       9.210   5.628  12.685  1.00  0.00     0.173 A 
ATOM     64  C   UNL     1       7.608   7.222  13.501  1.00  0.00     0.173 A 
ATOM     65  F   UNL     1       9.937   5.091  11.693  1.00  0.00    -0.203 F 
ATOM     66  C   UNL     1       9.270   5.045  13.949  1.00  0.00     0.198 A 
ATOM     67  C   UNL     1       7.699   6.662  14.772  1.00  0.00     0.198 A 
ATOM     68  F   UNL     1       6.779   8.260  13.315  1.00  0.00    -0.203 F 
ATOM     69  F   UNL     1      10.033   3.962  14.150  1.00  0.00    -0.200 F 
ATOM     70  C   UNL     1       8.519   5.565  14.992  1.00  0.00     0.200 A 
ATOM     71  F   UNL     1       6.984   7.176  15.782  1.00  0.00    -0.200 F 
ATOM     72  F   UNL     1       8.575   5.002  16.207  1.00  0.00    -0.200 F 
ENDBRANCH  48  62
BRANCH  49  73
ATOM     73  C   UNL     1       7.007  10.328   3.204  1.00  0.00     0.064 A 
ATOM     74  C   UNL     1       8.103  10.672   2.401  1.00  0.00     0.173 A 
ATOM     75  C   UNL     1       5.723  10.529   2.675  1.00  0.00     0.173 A 
ATOM     76  F   UNL     1       9.350  10.524   2.872  1.00  0.00    -0.203 F 
ATOM     77  C   UNL     1       7.923  11.208   1.127  1.00  0.00     0.198 A 
ATOM     78  C   UNL     1       5.545  11.037   1.390  1.00  0.00     0.198 A 
ATOM     79  F   UNL     1       4.640  10.220   3.403  1.00  0.00    -0.203 F 
ATOM     80  F   UNL     1       8.988  11.568   0.398  1.00  0.00    -0.200 F 
ATOM     81  C   UNL     1       6.645  11.383   0.620  1.00  0.00     0.200 A 
ATOM     82  F   UNL     1       4.308  11.192   0.898  1.00  0.00    -0.200 F 
ATOM     83  F   UNL     1       6.473  11.889  -0.609  1.00  0.00    -0.200 F 
ENDBRANCH  49  73
BRANCH  61  84
ATOM     84  C   UNL     1       9.695  12.971   9.076  1.00  0.00     0.064 A 
ATOM     85  C   UNL     1       8.946  14.155   9.152  1.00  0.00     0.173 A 
ATOM     86  C   UNL     1      11.069  13.048   9.355  1.00  0.00     0.173 A 
ATOM     87  F   UNL     1       7.631  14.141   8.886  1.00  0.00    -0.203 F 
ATOM     88  C   UNL     1       9.556  15.369   9.459  1.00  0.00     0.198 A 
ATOM     89  C   UNL     1      11.668  14.256   9.699  1.00  0.00     0.198 A 
ATOM     90  F   UNL     1      11.832  11.945   9.308  1.00  0.00    -0.203 F 
ATOM     91  F   UNL     1       8.831  16.497   9.468  1.00  0.00    -0.200 F 
ATOM     92  C   UNL     1      10.913  15.418   9.740  1.00  0.00     0.200 A 
ATOM     93  F   UNL     1      12.976  14.296   9.989  1.00  0.00    -0.200 F 
ATOM     94  F   UNL     1      11.496  16.586  10.042  1.00  0.00    -0.200 F 
ENDBRANCH  61  84
ENDBRANCH  35  36
ENDBRANCH  28  30
ENDBRANCH  27  28
ENDBRANCH  26  27
ENDBRANCH  25  26
ENDBRANCH  24  25
ENDBRANCH  23  24
ENDBRANCH  22  23
ENDBRANCH   1  22
TORSDOF 23
