REMARK SMILES CC(C)N(CCCC(=O)OCCOCCOCCOCCOC(=O)c1ccc(-c2c3nc(c(-c4c(F)c(F)c(F)c(F)c4F)c4ccc([nH]4)c(-c4c(F)c(F)c(F)c(F)c4F)c4nc(c(-c5c(F)c(F)c(F)c(F)c5F)c5ccc2[nH]5)C=C4)C=C3)cc1)c1cc(Cl)c(Cl)cc1[N+](=O)[O-]
REMARK SMILES IDX 14 1 13 2 12 3 11 4 10 5 8 6 9 7 7 8 6 9 5 10 4 11 2 12 1 13
REMARK SMILES IDX 3 14 88 15 89 16 95 17 90 18 94 19 91 20 92 21 93 22 96 23
REMARK SMILES IDX 97 24 98 25 15 26 16 27 17 28 18 29 19 30 20 31 21 32 22 33
REMARK SMILES IDX 23 34 24 35 25 36 26 37 87 38 27 39 86 40 28 41 29 42 30 43
REMARK SMILES IDX 80 44 31 45 85 46 79 47 81 48 32 49 84 50 78 51 77 52 33 54
REMARK SMILES IDX 65 55 45 56 64 57 46 58 49 59 63 60 82 61 47 62 48 63 62 65
REMARK SMILES IDX 83 66 50 67 34 68 35 69 43 70 36 71 37 72 41 73 44 74 38 75
REMARK SMILES IDX 39 76 42 77 40 78 66 79 67 80 75 81 68 82 69 83 73 84 76 85
REMARK SMILES IDX 70 86 71 87 74 88 72 89 51 90 52 91 60 92 53 93 54 94 58 95
REMARK SMILES IDX 61 96 55 97 56 98 59 99 57 100
REMARK H PARENT 81 53 49 64
REMARK Flexibility Score: inf
ROOT
ATOM      1  C   UNL     1      -6.223  -1.168  -2.595  1.00  0.00     0.188 C 
ENDROOT
BRANCH   1   2
ATOM      2  O   UNL     1      -6.564   0.197  -2.482  1.00  0.00    -0.376 OA
BRANCH   2   3
ATOM      3  C   UNL     1      -6.252   0.937  -1.315  1.00  0.00     0.202 C 
BRANCH   3   4
ATOM      4  C   UNL     1      -5.015   0.675  -0.439  1.00  0.00     0.261 C 
BRANCH   4   5
ATOM      5  O   UNL     1      -4.246  -0.477  -0.784  1.00  0.00    -0.463 OA
BRANCH   5   6
ATOM      6  C   UNL     1      -4.309  -1.552   0.028  1.00  0.00     0.305 C 
ATOM      7  O   UNL     1      -4.986  -1.608   1.046  1.00  0.00    -0.252 OA
BRANCH   6   8
ATOM      8  C   UNL     1      -3.579  -2.752  -0.544  1.00  0.00     0.124 C 
BRANCH   8   9
ATOM      9  C   UNL     1      -2.271  -2.582  -1.341  1.00  0.00     0.033 C 
BRANCH   9  10
ATOM     10  C   UNL     1      -1.453  -1.290  -1.218  1.00  0.00     0.117 C 
BRANCH  10  11
ATOM     11  N   UNL     1      -0.528  -1.314  -0.072  1.00  0.00    -0.364 N 
BRANCH  11  12
ATOM     12  C   UNL     1       0.895  -1.586  -0.348  1.00  0.00     0.076 C 
ATOM     13  C   UNL     1       1.768  -0.365  -0.084  1.00  0.00     0.030 C 
ATOM     14  C   UNL     1       1.398  -2.821   0.387  1.00  0.00     0.030 C 
ENDBRANCH  11  12
BRANCH  11  15
ATOM     15  C   UNL     1      -1.076  -1.133   1.187  1.00  0.00     0.117 A 
ATOM     16  C   UNL     1      -1.615  -2.249   1.850  1.00  0.00     0.055 A 
ATOM     17  C   UNL     1      -1.298   0.109   1.802  1.00  0.00     0.294 A 
ATOM     18  C   UNL     1      -2.461  -2.123   2.963  1.00  0.00     0.062 A 
ATOM     19  C   UNL     1      -2.096   0.258   2.949  1.00  0.00     0.110 A 
ATOM     20  Cl  UNL     1      -3.224  -3.557   3.554  1.00  0.00    -0.083 Cl
ATOM     21  C   UNL     1      -2.717  -0.861   3.500  1.00  0.00     0.066 A 
ATOM     22  Cl  UNL     1      -3.799  -0.613   4.821  1.00  0.00    -0.082 Cl
BRANCH  17  23
ATOM     23  N   UNL     1      -0.699   1.319   1.285  1.00  0.00     0.065 N 
ATOM     24  O   UNL     1       0.200   1.826   1.974  1.00  0.00    -0.258 OA
ATOM     25  O   UNL     1      -1.179   1.809   0.255  1.00  0.00    -0.258 OA
ENDBRANCH  17  23
ENDBRANCH  11  15
ENDBRANCH  10  11
ENDBRANCH   9  10
ENDBRANCH   8   9
ENDBRANCH   6   8
ENDBRANCH   5   6
ENDBRANCH   4   5
ENDBRANCH   3   4
ENDBRANCH   2   3
ENDBRANCH   1   2
BRANCH   1  26
ATOM     26  C   UNL     1      -4.945  -1.427  -3.415  1.00  0.00     0.188 C 
BRANCH  26  27
ATOM     27  O   UNL     1      -3.978  -0.391  -3.498  1.00  0.00    -0.377 OA
BRANCH  27  28
ATOM     28  C   UNL     1      -4.332   0.835  -4.138  1.00  0.00     0.188 C 
BRANCH  28  29
ATOM     29  C   UNL     1      -5.603   0.959  -5.012  1.00  0.00     0.188 C 
BRANCH  29  30
ATOM     30  O   UNL     1      -6.159  -0.261  -5.469  1.00  0.00    -0.376 OA
BRANCH  30  31
ATOM     31  C   UNL     1      -5.836  -0.702  -6.779  1.00  0.00     0.202 C 
BRANCH  31  32
ATOM     32  C   UNL     1      -4.354  -0.959  -7.098  1.00  0.00     0.261 C 
BRANCH  32  33
ATOM     33  O   UNL     1      -3.477   0.169  -6.949  1.00  0.00    -0.460 OA
BRANCH  33  34
ATOM     34  C   UNL     1      -3.741   1.261  -7.694  1.00  0.00     0.338 C 
ATOM     35  O   UNL     1      -4.616   1.395  -8.534  1.00  0.00    -0.246 OA
BRANCH  34  36
ATOM     36  C   UNL     1      -2.901   2.362  -7.189  1.00  0.00     0.060 A 
ATOM     37  C   UNL     1      -3.521   3.490  -6.635  1.00  0.00     0.016 A 
ATOM     38  C   UNL     1      -1.510   2.281  -7.269  1.00  0.00     0.016 A 
ATOM     39  C   UNL     1      -2.749   4.561  -6.192  1.00  0.00     0.010 A 
ATOM     40  C   UNL     1      -0.739   3.368  -6.852  1.00  0.00     0.010 A 
ATOM     41  C   UNL     1      -1.359   4.526  -6.348  1.00  0.00    -0.014 A 
BRANCH  41  42
ATOM     42  C   UNL     1      -0.581   5.777  -6.199  1.00  0.00     0.031 A 
ATOM     43  C   UNL     1      -0.253   6.557  -7.443  1.00  0.00     0.074 A 
ATOM     44  C   UNL     1      -0.204   6.230  -4.992  1.00  0.00     0.049 A 
ATOM     45  N   UNL     1       0.461   7.644  -7.582  1.00  0.00    -0.248 NA
ATOM     46  C   UNL     1      -0.805   6.034  -8.704  1.00  0.00     0.031 C 
ATOM     47  C   UNL     1      -0.510   5.591  -3.715  1.00  0.00     0.029 A 
ATOM     48  N   UNL     1       0.531   7.338  -4.650  1.00  0.00    -0.354 N 
ATOM     49  C   UNL     1       0.448   7.929  -8.941  1.00  0.00     0.074 A 
ATOM     50  C   UNL     1      -0.314   6.886  -9.590  1.00  0.00     0.031 C 
ATOM     51  C   UNL     1       0.049   6.310  -2.725  1.00  0.00     0.029 A 
ATOM     52  C   UNL     1       0.780   7.436  -3.304  1.00  0.00     0.049 A 
ATOM     53  H   UNL     1       0.849   7.998  -5.307  1.00  0.00     0.167 HD
ATOM     54  C   UNL     1       1.016   8.973  -9.588  1.00  0.00     0.037 A 
ATOM     55  C   UNL     1       1.539   8.321  -2.626  1.00  0.00     0.037 A 
ATOM     56  C   UNL     1       1.776  10.007  -8.938  1.00  0.00     0.049 A 
ATOM     57  C   UNL     1       2.235   9.426  -3.383  1.00  0.00     0.074 A 
ATOM     58  C   UNL     1       2.385  11.114  -9.501  1.00  0.00     0.029 A 
ATOM     59  N   UNL     1       2.037  10.055  -7.576  1.00  0.00    -0.354 N 
ATOM     60  N   UNL     1       2.206   9.703  -4.665  1.00  0.00    -0.248 NA
ATOM     61  C   UNL     1       3.069  10.345  -2.595  1.00  0.00     0.031 C 
ATOM     62  C   UNL     1       3.069  11.796  -8.491  1.00  0.00     0.029 A 
ATOM     63  C   UNL     1       2.826  11.156  -7.286  1.00  0.00     0.049 A 
ATOM     64  H   UNL     1       1.711   9.403  -6.915  1.00  0.00     0.167 HD
ATOM     65  C   UNL     1       2.985  10.842  -4.830  1.00  0.00     0.074 A 
ATOM     66  C   UNL     1       3.461  11.214  -3.515  1.00  0.00     0.031 C 
ATOM     67  C   UNL     1       3.281  11.520  -5.968  1.00  0.00     0.037 A 
BRANCH  54  68
ATOM     68  C   UNL     1       0.865   9.032 -11.081  1.00  0.00     0.064 A 
ATOM     69  C   UNL     1      -0.369   9.307 -11.691  1.00  0.00     0.173 A 
ATOM     70  C   UNL     1       1.980   8.846 -11.912  1.00  0.00     0.173 A 
ATOM     71  F   UNL     1      -1.470   9.475 -10.943  1.00  0.00    -0.203 F 
ATOM     72  C   UNL     1      -0.484   9.370 -13.077  1.00  0.00     0.198 A 
ATOM     73  C   UNL     1       1.867   8.943 -13.296  1.00  0.00     0.198 A 
ATOM     74  F   UNL     1       3.183   8.581 -11.381  1.00  0.00    -0.203 F 
ATOM     75  F   UNL     1      -1.681   9.585 -13.639  1.00  0.00    -0.200 F 
ATOM     76  C   UNL     1       0.635   9.197 -13.878  1.00  0.00     0.200 A 
ATOM     77  F   UNL     1       2.953   8.789 -14.067  1.00  0.00    -0.200 F 
ATOM     78  F   UNL     1       0.525   9.270 -15.212  1.00  0.00    -0.200 F 
ENDBRANCH  54  68
BRANCH  55  79
ATOM     79  C   UNL     1       1.707   8.190  -1.154  1.00  0.00     0.064 A 
ATOM     80  C   UNL     1       1.214   9.166  -0.277  1.00  0.00     0.173 A 
ATOM     81  C   UNL     1       2.403   7.106  -0.596  1.00  0.00     0.173 A 
ATOM     82  F   UNL     1       0.568  10.237  -0.762  1.00  0.00    -0.203 F 
ATOM     83  C   UNL     1       1.433   9.078   1.097  1.00  0.00     0.198 A 
ATOM     84  C   UNL     1       2.592   7.002   0.781  1.00  0.00     0.198 A 
ATOM     85  F   UNL     1       2.904   6.149  -1.389  1.00  0.00    -0.203 F 
ATOM     86  F   UNL     1       1.006  10.059   1.904  1.00  0.00    -0.200 F 
ATOM     87  C   UNL     1       2.116   7.994   1.625  1.00  0.00     0.200 A 
ATOM     88  F   UNL     1       3.250   5.951   1.287  1.00  0.00    -0.200 F 
ATOM     89  F   UNL     1       2.332   7.914   2.945  1.00  0.00    -0.200 F 
ENDBRANCH  55  79
BRANCH  67  90
ATOM     90  C   UNL     1       4.119  12.761  -5.839  1.00  0.00     0.064 A 
ATOM     91  C   UNL     1       5.480  12.706  -5.503  1.00  0.00     0.173 A 
ATOM     92  C   UNL     1       3.561  14.023  -6.102  1.00  0.00     0.173 A 
ATOM     93  F   UNL     1       6.062  11.528  -5.232  1.00  0.00    -0.203 F 
ATOM     94  C   UNL     1       6.242  13.868  -5.405  1.00  0.00     0.198 A 
ATOM     95  C   UNL     1       4.334  15.178  -6.039  1.00  0.00     0.198 A 
ATOM     96  F   UNL     1       2.267  14.133  -6.439  1.00  0.00    -0.203 F 
ATOM     97  F   UNL     1       7.526  13.795  -5.030  1.00  0.00    -0.200 F 
ATOM     98  C   UNL     1       5.671  15.102  -5.681  1.00  0.00     0.200 A 
ATOM     99  F   UNL     1       3.784  16.367  -6.326  1.00  0.00    -0.200 F 
ATOM    100  F   UNL     1       6.408  16.217  -5.596  1.00  0.00    -0.200 F 
ENDBRANCH  67  90
ENDBRANCH  41  42
ENDBRANCH  34  36
ENDBRANCH  33  34
ENDBRANCH  32  33
ENDBRANCH  31  32
ENDBRANCH  30  31
ENDBRANCH  29  30
ENDBRANCH  28  29
ENDBRANCH  27  28
ENDBRANCH  26  27
ENDBRANCH   1  26
TORSDOF 26
