REMARK SMILES CC1(C)NC(=O)N(CCC(=O)N2CCC[C@H]2C(=O)OCCOCCOCCOCCOC(=O)c2ccc(-c3c4nc(c(-c5c(F)c(F)c(F)c(F)c5F)c5ccc([nH]5)c(-c5c(F)c(F)c(F)c(F)c5F)c5nc(c(-c6c(F)c(F)c(F)c(F)c6F)c6ccc3[nH]6)C=C5)C=C4)cc2)C1=O
REMARK SMILES IDX 24 1 23 2 22 3 21 4 20 5 19 6 17 7 18 8 16 9 12 10 13 11
REMARK SMILES IDX 14 12 15 13 10 14 11 15 9 16 8 17 7 18 1 19 2 20 3 21 4 22
REMARK SMILES IDX 97 23 5 24 98 26 6 27 25 28 26 29 27 30 28 31 29 32 30 33
REMARK SMILES IDX 31 34 32 35 33 36 34 37 35 38 96 39 36 40 95 41 37 42 38 43
REMARK SMILES IDX 39 44 89 45 40 46 94 47 88 48 90 49 41 50 93 51 87 52 86 53
REMARK SMILES IDX 42 55 74 56 54 57 73 58 55 59 58 60 72 61 91 62 56 63 57 64
REMARK SMILES IDX 71 66 92 67 59 68 43 69 44 70 52 71 45 72 46 73 50 74 53 75
REMARK SMILES IDX 47 76 48 77 51 78 49 79 75 80 76 81 84 82 77 83 78 84 82 85
REMARK SMILES IDX 85 86 79 87 80 88 83 89 81 90 60 91 61 92 69 93 62 94 63 95
REMARK SMILES IDX 67 96 70 97 64 98 65 99 68 100 66 101
REMARK H PARENT 4 25 90 54 58 65
REMARK Flexibility Score: inf
ROOT
ATOM      1  C   UNL     1      -1.114   3.453   2.454  1.00  0.00     0.188 C 
ENDROOT
BRANCH   1   2
ATOM      2  C   UNL     1      -1.246   2.902   1.044  1.00  0.00     0.188 C 
BRANCH   2   3
ATOM      3  O   UNL     1      -2.529   2.337   0.799  1.00  0.00    -0.376 OA
BRANCH   3   4
ATOM      4  C   UNL     1      -2.630   0.953   1.114  1.00  0.00     0.202 C 
BRANCH   4   5
ATOM      5  C   UNL     1      -3.011   0.607   2.578  1.00  0.00     0.261 C 
BRANCH   5   6
ATOM      6  O   UNL     1      -2.070   0.640   3.698  1.00  0.00    -0.462 OA
BRANCH   6   7
ATOM      7  C   UNL     1      -0.751   0.511   3.476  1.00  0.00     0.328 C 
ATOM      8  O   UNL     1      -0.275   0.475   2.355  1.00  0.00    -0.250 OA
BRANCH   7   9
ATOM      9  C   UNL     1       0.173   0.435   4.683  1.00  0.00     0.195 C 
ATOM     10  N   UNL     1       0.224   1.575   5.581  1.00  0.00    -0.329 N 
ATOM     11  C   UNL     1      -0.480   1.221   6.806  1.00  0.00     0.120 C 
ATOM     12  C   UNL     1      -0.163  -0.253   6.981  1.00  0.00     0.024 C 
ATOM     13  C   UNL     1      -0.141  -0.787   5.554  1.00  0.00     0.039 C 
BRANCH  10  14
ATOM     14  C   UNL     1       1.194   2.558   5.593  1.00  0.00     0.225 C 
ATOM     15  O   UNL     1       1.506   3.079   6.676  1.00  0.00    -0.275 OA
BRANCH  14  16
ATOM     16  C   UNL     1       1.723   3.253   4.327  1.00  0.00     0.122 C 
BRANCH  16  17
ATOM     17  C   UNL     1       2.524   2.809   3.086  1.00  0.00     0.140 C 
BRANCH  17  18
ATOM     18  N   UNL     1       2.394   1.526   2.413  1.00  0.00    -0.262 N 
ATOM     19  C   UNL     1       2.893  -0.231  -0.648  1.00  0.00     0.045 C 
ATOM     20  C   UNL     1       2.178  -0.141   0.694  1.00  0.00     0.115 C 
ATOM     21  C   UNL     1       0.918  -1.005   0.594  1.00  0.00     0.045 C 
ATOM     22  N   UNL     1       2.972  -0.555   1.827  1.00  0.00    -0.324 N 
ATOM     23  C   UNL     1       2.022   1.355   1.096  1.00  0.00     0.255 C 
ATOM     24  C   UNL     1       3.074   0.413   2.801  1.00  0.00     0.325 C 
ATOM     25  H   UNL     1       3.398  -1.440   1.896  1.00  0.00     0.166 HD
ATOM     26  O   UNL     1       1.708   2.255   0.324  1.00  0.00    -0.272 OA
ATOM     27  O   UNL     1       3.702   0.270   3.837  1.00  0.00    -0.248 OA
ENDBRANCH  17  18
ENDBRANCH  16  17
ENDBRANCH  14  16
ENDBRANCH  10  14
ENDBRANCH   7   9
ENDBRANCH   6   7
ENDBRANCH   5   6
ENDBRANCH   4   5
ENDBRANCH   3   4
ENDBRANCH   2   3
ENDBRANCH   1   2
BRANCH   1  28
ATOM     28  O   UNL     1      -2.322   3.726   3.122  1.00  0.00    -0.377 OA
BRANCH  28  29
ATOM     29  C   UNL     1      -3.215   4.615   2.479  1.00  0.00     0.188 C 
BRANCH  29  30
ATOM     30  C   UNL     1      -2.745   5.548   1.338  1.00  0.00     0.188 C 
BRANCH  30  31
ATOM     31  O   UNL     1      -1.388   5.927   1.274  1.00  0.00    -0.376 OA
BRANCH  31  32
ATOM     32  C   UNL     1      -0.741   6.866   2.105  1.00  0.00     0.202 C 
BRANCH  32  33
ATOM     33  C   UNL     1      -1.301   7.540   3.365  1.00  0.00     0.261 C 
BRANCH  33  34
ATOM     34  O   UNL     1      -2.619   7.206   3.770  1.00  0.00    -0.460 OA
BRANCH  34  35
ATOM     35  C   UNL     1      -3.620   7.936   3.231  1.00  0.00     0.338 C 
ATOM     36  O   UNL     1      -3.526   8.850   2.430  1.00  0.00    -0.246 OA
BRANCH  35  37
ATOM     37  C   UNL     1      -4.878   7.250   3.591  1.00  0.00     0.060 A 
ATOM     38  C   UNL     1      -5.699   6.787   2.551  1.00  0.00     0.016 A 
ATOM     39  C   UNL     1      -5.155   6.914   4.922  1.00  0.00     0.016 A 
ATOM     40  C   UNL     1      -6.798   5.987   2.837  1.00  0.00     0.010 A 
ATOM     41  C   UNL     1      -6.293   6.164   5.214  1.00  0.00     0.010 A 
ATOM     42  C   UNL     1      -7.132   5.731   4.172  1.00  0.00    -0.014 A 
BRANCH  42  43
ATOM     43  C   UNL     1      -8.526   5.347   4.472  1.00  0.00     0.031 A 
ATOM     44  C   UNL     1      -9.505   6.477   4.630  1.00  0.00     0.074 A 
ATOM     45  C   UNL     1      -8.918   4.067   4.560  1.00  0.00     0.049 A 
ATOM     46  N   UNL     1     -10.779   6.445   4.917  1.00  0.00    -0.248 NA
ATOM     47  C   UNL     1      -8.967   7.836   4.432  1.00  0.00     0.031 C 
ATOM     48  C   UNL     1      -8.061   2.900   4.367  1.00  0.00     0.029 A 
ATOM     49  N   UNL     1     -10.152   3.540   4.843  1.00  0.00    -0.354 N 
ATOM     50  C   UNL     1     -11.186   7.772   4.936  1.00  0.00     0.074 A 
ATOM     51  C   UNL     1     -10.029   8.588   4.659  1.00  0.00     0.031 C 
ATOM     52  C   UNL     1      -8.795   1.788   4.559  1.00  0.00     0.029 A 
ATOM     53  C   UNL     1     -10.161   2.170   4.918  1.00  0.00     0.049 A 
ATOM     54  H   UNL     1     -10.955   4.093   4.980  1.00  0.00     0.167 HD
ATOM     55  C   UNL     1     -12.422   8.267   5.164  1.00  0.00     0.037 A 
ATOM     56  C   UNL     1     -11.160   1.335   5.264  1.00  0.00     0.037 A 
ATOM     57  C   UNL     1     -13.562   7.446   5.459  1.00  0.00     0.049 A 
ATOM     58  C   UNL     1     -12.514   1.916   5.597  1.00  0.00     0.074 A 
ATOM     59  C   UNL     1     -14.864   7.837   5.705  1.00  0.00     0.029 A 
ATOM     60  N   UNL     1     -13.525   6.063   5.563  1.00  0.00    -0.354 N 
ATOM     61  N   UNL     1     -12.904   3.169   5.593  1.00  0.00    -0.248 NA
ATOM     62  C   UNL     1     -13.568   0.966   5.979  1.00  0.00     0.031 C 
ATOM     63  C   UNL     1     -15.603   6.694   6.023  1.00  0.00     0.029 A 
ATOM     64  C   UNL     1     -14.778   5.585   5.902  1.00  0.00     0.049 A 
ATOM     65  H   UNL     1     -12.727   5.505   5.418  1.00  0.00     0.167 HD
ATOM     66  C   UNL     1     -14.250   3.156   5.939  1.00  0.00     0.074 A 
ATOM     67  C   UNL     1     -14.612   1.767   6.134  1.00  0.00     0.031 C 
ATOM     68  C   UNL     1     -15.112   4.194   6.082  1.00  0.00     0.037 A 
BRANCH  55  69
ATOM     69  C   UNL     1     -12.581   9.758   5.154  1.00  0.00     0.064 A 
ATOM     70  C   UNL     1     -12.475  10.508   3.973  1.00  0.00     0.173 A 
ATOM     71  C   UNL     1     -12.845  10.445   6.348  1.00  0.00     0.173 A 
ATOM     72  F   UNL     1     -12.193   9.902   2.809  1.00  0.00    -0.203 F 
ATOM     73  C   UNL     1     -12.607  11.894   3.992  1.00  0.00     0.198 A 
ATOM     74  C   UNL     1     -13.010  11.827   6.357  1.00  0.00     0.198 A 
ATOM     75  F   UNL     1     -12.944   9.776   7.506  1.00  0.00    -0.203 F 
ATOM     76  F   UNL     1     -12.449  12.596   2.861  1.00  0.00    -0.200 F 
ATOM     77  C   UNL     1     -12.884  12.551   5.181  1.00  0.00     0.200 A 
ATOM     78  F   UNL     1     -13.285  12.458   7.507  1.00  0.00    -0.200 F 
ATOM     79  F   UNL     1     -13.020  13.884   5.197  1.00  0.00    -0.200 F 
ENDBRANCH  55  69
BRANCH  56  80
ATOM     80  C   UNL     1     -10.919  -0.131   5.335  1.00  0.00     0.064 A 
ATOM     81  C   UNL     1     -11.549  -1.018   4.452  1.00  0.00     0.173 A 
ATOM     82  C   UNL     1     -10.067  -0.679   6.307  1.00  0.00     0.173 A 
ATOM     83  F   UNL     1     -12.393  -0.549   3.521  1.00  0.00    -0.203 F 
ATOM     84  C   UNL     1     -11.353  -2.395   4.548  1.00  0.00     0.198 A 
ATOM     85  C   UNL     1      -9.848  -2.053   6.383  1.00  0.00     0.198 A 
ATOM     86  F   UNL     1      -9.442   0.122   7.182  1.00  0.00    -0.203 F 
ATOM     87  F   UNL     1     -12.007  -3.223   3.722  1.00  0.00    -0.200 F 
ATOM     88  C   UNL     1     -10.497  -2.911   5.510  1.00  0.00     0.200 A 
ATOM     89  F   UNL     1      -9.009  -2.546   7.305  1.00  0.00    -0.200 F 
ATOM     90  F   UNL     1     -10.305  -4.234   5.599  1.00  0.00    -0.200 F 
ENDBRANCH  56  80
BRANCH  68  91
ATOM     91  C   UNL     1     -16.538   3.870   6.422  1.00  0.00     0.064 A 
ATOM     92  C   UNL     1     -16.907   3.389   7.686  1.00  0.00     0.173 A 
ATOM     93  C   UNL     1     -17.558   4.106   5.485  1.00  0.00     0.173 A 
ATOM     94  F   UNL     1     -15.971   3.139   8.614  1.00  0.00    -0.203 F 
ATOM     95  C   UNL     1     -18.241   3.127   7.990  1.00  0.00     0.198 A 
ATOM     96  C   UNL     1     -18.892   3.878   5.805  1.00  0.00     0.198 A 
ATOM     97  F   UNL     1     -17.260   4.580   4.266  1.00  0.00    -0.203 F 
ATOM     98  F   UNL     1     -18.565   2.618   9.186  1.00  0.00    -0.200 F 
ATOM     99  C   UNL     1     -19.232   3.380   7.053  1.00  0.00     0.200 A 
ATOM    100  F   UNL     1     -19.850   4.144   4.906  1.00  0.00    -0.200 F 
ATOM    101  F   UNL     1     -20.516   3.139   7.352  1.00  0.00    -0.200 F 
ENDBRANCH  68  91
ENDBRANCH  42  43
ENDBRANCH  35  37
ENDBRANCH  34  35
ENDBRANCH  33  34
ENDBRANCH  32  33
ENDBRANCH  31  32
ENDBRANCH  30  31
ENDBRANCH  29  30
ENDBRANCH  28  29
ENDBRANCH   1  28
TORSDOF 24
