REMARK SMILES CN(Cc1ccncc1)C(=O)c1cccn1CC(=O)OCCOCCOCCOCCOC(=O)c1ccc(-c2c3nc(c(-c4c(F)c(F)c(F)c(F)c4F)c4ccc([nH]4)c(-c4c(F)c(F)c(F)c(F)c4F)c4nc(c(-c5c(F)c(F)c(F)c(F)c5F)c5ccc2[nH]5)C=C4)C=C3)cc1
REMARK SMILES IDX 24 1 23 2 22 3 21 4 20 5 18 6 19 7 17 8 16 9 12 10 13 11
REMARK SMILES IDX 14 12 15 13 10 14 11 15 2 16 1 17 3 18 4 19 5 20 9 21 6 22
REMARK SMILES IDX 8 23 7 24 25 25 26 26 27 27 28 28 29 29 30 30 31 31 32 32
REMARK SMILES IDX 33 33 34 34 35 35 36 36 97 37 37 38 96 39 38 40 39 41 40 42
REMARK SMILES IDX 90 43 41 44 95 45 89 46 91 47 42 48 94 49 88 50 87 51 43 53
REMARK SMILES IDX 75 54 55 55 74 56 56 57 59 58 73 59 92 60 57 61 58 62 72 64
REMARK SMILES IDX 93 65 60 66 44 67 45 68 53 69 46 70 47 71 51 72 54 73 48 74
REMARK SMILES IDX 49 75 52 76 50 77 76 78 77 79 85 80 78 81 79 82 83 83 86 84
REMARK SMILES IDX 80 85 81 86 84 87 82 88 61 89 62 90 70 91 63 92 64 93 68 94
REMARK SMILES IDX 71 95 65 96 66 97 69 98 67 99
REMARK H PARENT 91 52 59 63
REMARK Flexibility Score: inf
ROOT
ATOM      1  C   UNL     1       2.995   1.771   7.326  1.00  0.00     0.188 C 
ENDROOT
BRANCH   1   2
ATOM      2  O   UNL     1       4.354   2.194   7.290  1.00  0.00    -0.376 OA
BRANCH   2   3
ATOM      3  C   UNL     1       4.782   3.025   6.228  1.00  0.00     0.202 C 
BRANCH   3   4
ATOM      4  C   UNL     1       4.685   2.457   4.801  1.00  0.00     0.261 C 
BRANCH   4   5
ATOM      5  O   UNL     1       3.659   1.463   4.584  1.00  0.00    -0.462 OA
BRANCH   5   6
ATOM      6  C   UNL     1       4.046   0.163   4.639  1.00  0.00     0.326 C 
ATOM      7  O   UNL     1       5.219  -0.188   4.747  1.00  0.00    -0.250 OA
BRANCH   6   8
ATOM      8  C   UNL     1       2.923  -0.858   4.621  1.00  0.00     0.244 C 
BRANCH   8   9
ATOM      9  N   UNL     1       1.536  -0.381   4.677  1.00  0.00    -0.332 N 
ATOM     10  C   UNL     1       0.738   0.089   3.626  1.00  0.00     0.107 A 
ATOM     11  C   UNL     1      -0.408   0.567   4.255  1.00  0.00     0.033 A 
ATOM     12  C   UNL     1      -0.424   0.145   5.602  1.00  0.00     0.020 A 
ATOM     13  C   UNL     1       0.767  -0.492   5.821  1.00  0.00     0.087 A 
BRANCH  10  14
ATOM     14  C   UNL     1       1.109  -0.046   2.212  1.00  0.00     0.270 C 
ATOM     15  O   UNL     1       2.038  -0.800   1.904  1.00  0.00    -0.267 OA
BRANCH  14  16
ATOM     16  N   UNL     1       0.413   0.584   1.167  1.00  0.00    -0.336 N 
ATOM     17  C   UNL     1       0.761   0.150  -0.181  1.00  0.00     0.147 C 
BRANCH  16  18
ATOM     18  C   UNL     1      -0.531   1.691   1.274  1.00  0.00     0.155 C 
BRANCH  18  19
ATOM     19  C   UNL     1      -1.975   1.320   1.533  1.00  0.00    -0.026 A 
ATOM     20  C   UNL     1      -2.866   2.343   1.889  1.00  0.00     0.025 A 
ATOM     21  C   UNL     1      -2.439   0.001   1.576  1.00  0.00     0.025 A 
ATOM     22  C   UNL     1      -4.131   2.004   2.342  1.00  0.00     0.111 A 
ATOM     23  C   UNL     1      -3.721  -0.236   2.051  1.00  0.00     0.111 A 
ATOM     24  N   UNL     1      -4.573   0.735   2.444  1.00  0.00    -0.265 NA
ENDBRANCH  18  19
ENDBRANCH  16  18
ENDBRANCH  14  16
ENDBRANCH  10  14
ENDBRANCH   8   9
ENDBRANCH   6   8
ENDBRANCH   5   6
ENDBRANCH   4   5
ENDBRANCH   3   4
ENDBRANCH   2   3
ENDBRANCH   1   2
BRANCH   1  25
ATOM     25  C   UNL     1       1.891   2.557   6.569  1.00  0.00     0.188 C 
BRANCH  25  26
ATOM     26  O   UNL     1       2.179   3.919   6.290  1.00  0.00    -0.377 OA
BRANCH  26  27
ATOM     27  C   UNL     1       1.546   4.863   7.138  1.00  0.00     0.188 C 
BRANCH  27  28
ATOM     28  C   UNL     1       1.869   4.709   8.632  1.00  0.00     0.188 C 
BRANCH  28  29
ATOM     29  O   UNL     1       1.662   3.392   9.131  1.00  0.00    -0.376 OA
BRANCH  29  30
ATOM     30  C   UNL     1       0.528   3.076   9.918  1.00  0.00     0.202 C 
BRANCH  30  31
ATOM     31  C   UNL     1      -0.776   2.856   9.141  1.00  0.00     0.261 C 
BRANCH  31  32
ATOM     32  O   UNL     1      -1.165   3.937   8.301  1.00  0.00    -0.460 OA
BRANCH  32  33
ATOM     33  C   UNL     1      -1.272   5.103   8.961  1.00  0.00     0.338 C 
ATOM     34  O   UNL     1      -0.977   5.362  10.111  1.00  0.00    -0.246 OA
BRANCH  33  35
ATOM     35  C   UNL     1      -1.943   6.081   8.133  1.00  0.00     0.060 A 
ATOM     36  C   UNL     1      -1.536   7.403   8.322  1.00  0.00     0.016 A 
ATOM     37  C   UNL     1      -3.209   5.709   7.673  1.00  0.00     0.016 A 
ATOM     38  C   UNL     1      -2.494   8.378   8.238  1.00  0.00     0.010 A 
ATOM     39  C   UNL     1      -4.176   6.681   7.631  1.00  0.00     0.010 A 
ATOM     40  C   UNL     1      -3.813   7.993   7.960  1.00  0.00    -0.014 A 
BRANCH  40  41
ATOM     41  C   UNL     1      -4.795   9.063   7.841  1.00  0.00     0.031 A 
ATOM     42  C   UNL     1      -4.757   9.620   6.407  1.00  0.00     0.074 A 
ATOM     43  C   UNL     1      -5.464   9.368   8.997  1.00  0.00     0.049 A 
ATOM     44  N   UNL     1      -5.114  10.779   5.958  1.00  0.00    -0.248 NA
ATOM     45  C   UNL     1      -4.179   8.785   5.307  1.00  0.00     0.031 C 
ATOM     46  C   UNL     1      -5.339   8.638  10.286  1.00  0.00     0.029 A 
ATOM     47  N   UNL     1      -6.367  10.348   9.341  1.00  0.00    -0.354 N 
ATOM     48  C   UNL     1      -5.035  10.728   4.550  1.00  0.00     0.074 A 
ATOM     49  C   UNL     1      -4.336   9.531   4.215  1.00  0.00     0.031 C 
ATOM     50  C   UNL     1      -6.053   9.244  11.263  1.00  0.00     0.029 A 
ATOM     51  C   UNL     1      -6.731  10.403  10.718  1.00  0.00     0.049 A 
ATOM     52  H   UNL     1      -6.739  10.973   8.677  1.00  0.00     0.167 HD
ATOM     53  C   UNL     1      -5.701  11.608   3.750  1.00  0.00     0.037 A 
ATOM     54  C   UNL     1      -7.491  11.348  11.361  1.00  0.00     0.037 A 
ATOM     55  C   UNL     1      -6.335  12.595   4.554  1.00  0.00     0.049 A 
ATOM     56  C   UNL     1      -8.014  12.177  10.270  1.00  0.00     0.074 A 
ATOM     57  C   UNL     1      -5.819  13.629   5.288  1.00  0.00     0.029 A 
ATOM     58  N   UNL     1      -7.607  12.315   4.990  1.00  0.00    -0.354 N 
ATOM     59  N   UNL     1      -8.961  11.809   9.461  1.00  0.00    -0.248 NA
ATOM     60  C   UNL     1      -7.364  13.463   9.991  1.00  0.00     0.031 C 
ATOM     61  C   UNL     1      -6.603  13.612   6.457  1.00  0.00     0.029 A 
ATOM     62  C   UNL     1      -7.701  12.760   6.283  1.00  0.00     0.049 A 
ATOM     63  H   UNL     1      -8.319  11.876   4.470  1.00  0.00     0.167 HD
ATOM     64  C   UNL     1      -8.776  12.665   8.404  1.00  0.00     0.074 A 
ATOM     65  C   UNL     1      -8.070  13.817   8.921  1.00  0.00     0.031 C 
ATOM     66  C   UNL     1      -8.691  12.161   7.146  1.00  0.00     0.037 A 
BRANCH  53  67
ATOM     67  C   UNL     1      -6.074  11.562   2.299  1.00  0.00     0.064 A 
ATOM     68  C   UNL     1      -6.514  12.767   1.698  1.00  0.00     0.173 A 
ATOM     69  C   UNL     1      -6.388  10.377   1.622  1.00  0.00     0.173 A 
ATOM     70  F   UNL     1      -6.208  13.956   2.241  1.00  0.00    -0.203 F 
ATOM     71  C   UNL     1      -7.360  12.772   0.594  1.00  0.00     0.198 A 
ATOM     72  C   UNL     1      -7.193  10.391   0.479  1.00  0.00     0.198 A 
ATOM     73  F   UNL     1      -6.021   9.182   2.101  1.00  0.00    -0.203 F 
ATOM     74  F   UNL     1      -7.885  13.927   0.162  1.00  0.00    -0.200 F 
ATOM     75  C   UNL     1      -7.718  11.580  -0.002  1.00  0.00     0.200 A 
ATOM     76  F   UNL     1      -7.528   9.233  -0.106  1.00  0.00    -0.200 F 
ATOM     77  F   UNL     1      -8.595  11.571  -1.014  1.00  0.00    -0.200 F 
ENDBRANCH  53  67
BRANCH  54  78
ATOM     78  C   UNL     1      -7.888  11.786  12.758  1.00  0.00     0.064 A 
ATOM     79  C   UNL     1      -7.700  11.067  13.943  1.00  0.00     0.173 A 
ATOM     80  C   UNL     1      -8.473  13.076  12.957  1.00  0.00     0.173 A 
ATOM     81  F   UNL     1      -7.269   9.800  13.916  1.00  0.00    -0.203 F 
ATOM     82  C   UNL     1      -7.973  11.630  15.210  1.00  0.00     0.198 A 
ATOM     83  C   UNL     1      -8.691  13.653  14.206  1.00  0.00     0.198 A 
ATOM     84  F   UNL     1      -8.865  13.844  11.932  1.00  0.00    -0.203 F 
ATOM     85  F   UNL     1      -7.780  10.902  16.319  1.00  0.00    -0.200 F 
ATOM     86  C   UNL     1      -8.428  12.933  15.341  1.00  0.00     0.200 A 
ATOM     87  F   UNL     1      -9.145  14.914  14.284  1.00  0.00    -0.200 F 
ATOM     88  F   UNL     1      -8.625  13.485  16.546  1.00  0.00    -0.200 F 
ENDBRANCH  54  78
BRANCH  66  89
ATOM     89  C   UNL     1      -9.358  10.806   6.970  1.00  0.00     0.064 A 
ATOM     90  C   UNL     1     -10.732  10.665   7.224  1.00  0.00     0.173 A 
ATOM     91  C   UNL     1      -8.669   9.616   6.681  1.00  0.00     0.173 A 
ATOM     92  F   UNL     1     -11.478  11.751   7.477  1.00  0.00    -0.203 F 
ATOM     93  C   UNL     1     -11.361   9.415   7.220  1.00  0.00     0.198 A 
ATOM     94  C   UNL     1      -9.290   8.364   6.679  1.00  0.00     0.198 A 
ATOM     95  F   UNL     1      -7.375   9.637   6.379  1.00  0.00    -0.203 F 
ATOM     96  F   UNL     1     -12.675   9.329   7.467  1.00  0.00    -0.200 F 
ATOM     97  C   UNL     1     -10.638   8.263   6.955  1.00  0.00     0.200 A 
ATOM     98  F   UNL     1      -8.578   7.261   6.399  1.00  0.00    -0.200 F 
ATOM     99  F   UNL     1     -11.243   7.066   6.942  1.00  0.00    -0.200 F 
ENDBRANCH  66  89
ENDBRANCH  40  41
ENDBRANCH  33  35
ENDBRANCH  32  33
ENDBRANCH  31  32
ENDBRANCH  30  31
ENDBRANCH  29  30
ENDBRANCH  28  29
ENDBRANCH  27  28
ENDBRANCH  26  27
ENDBRANCH  25  26
ENDBRANCH   1  25
TORSDOF 25
