REMARK SMILES COC(=O)c1c(NC(=O)[C@@H]2C[C@@H]2C(=O)OCCOCCOCCOCCOC(=O)c2ccc(-c3c4nc(c(-c5c(F)c(F)c(F)c(F)c5F)c5ccc([nH]5)c(-c5c(F)c(F)c(F)c(F)c5F)c5nc(c(-c6c(F)c(F)c(F)c(F)c6F)c6ccc3[nH]6)C=C5)C=C4)cc2)sc2c1CC[N@@H+](Cc1ccccc1)C2
REMARK SMILES IDX 20 1 19 2 18 3 17 4 16 5 15 6 13 7 14 8 12 9 10 10 11 11
REMARK SMILES IDX 8 12 7 13 9 15 6 16 5 17 95 18 93 19 94 20 96 21 106 22
REMARK SMILES IDX 97 23 98 24 3 26 4 27 2 28 1 29 99 30 100 31 101 32 105 33
REMARK SMILES IDX 102 34 104 35 103 36 21 37 22 38 23 39 24 40 25 41 26 42
REMARK SMILES IDX 27 43 28 44 29 45 30 46 31 47 92 48 32 49 91 50 33 51 34 52
REMARK SMILES IDX 35 53 85 54 36 55 90 56 84 57 86 58 37 59 89 60 83 61 82 62
REMARK SMILES IDX 38 64 70 65 50 66 69 67 51 68 54 69 68 70 87 71 52 72 53 73
REMARK SMILES IDX 67 75 88 76 55 77 39 78 40 79 48 80 41 81 42 82 46 83 49 84
REMARK SMILES IDX 43 85 44 86 47 87 45 88 71 89 72 90 80 91 73 92 74 93 78 94
REMARK SMILES IDX 81 95 75 96 76 97 79 98 77 99 56 100 57 101 65 102 58 103
REMARK SMILES IDX 59 104 63 105 66 106 60 107 61 108 64 109 62 110
REMARK H PARENT 7 14 98 25 86 63 54 74
REMARK Flexibility Score: inf
ROOT
ATOM      1  C   UNL     1      -3.434  -2.985   2.097  1.00  0.00     0.188 C 
ENDROOT
BRANCH   1   2
ATOM      2  C   UNL     1      -4.397  -2.620   0.948  1.00  0.00     0.188 C 
BRANCH   2   3
ATOM      3  O   UNL     1      -5.008  -3.751   0.365  1.00  0.00    -0.376 OA
BRANCH   3   4
ATOM      4  C   UNL     1      -4.516  -4.174  -0.888  1.00  0.00     0.202 C 
BRANCH   4   5
ATOM      5  C   UNL     1      -3.009  -4.450  -1.010  1.00  0.00     0.261 C 
BRANCH   5   6
ATOM      6  O   UNL     1      -2.112  -3.456  -0.470  1.00  0.00    -0.463 OA
BRANCH   6   7
ATOM      7  C   UNL     1      -2.040  -2.271  -1.123  1.00  0.00     0.309 C 
ATOM      8  O   UNL     1      -2.651  -2.000  -2.147  1.00  0.00    -0.252 OA
BRANCH   7   9
ATOM      9  C   UNL     1      -1.043  -1.335  -0.526  1.00  0.00     0.112 C 
ATOM     10  C   UNL     1      -1.089  -0.341   0.630  1.00  0.00     0.094 C 
ATOM     11  C   UNL     1      -1.370   0.128  -0.767  1.00  0.00     0.030 C 
BRANCH  10  12
ATOM     12  C   UNL     1      -2.097  -0.191   1.692  1.00  0.00     0.229 C 
ATOM     13  N   UNL     1      -1.829  -0.472   3.009  1.00  0.00    -0.317 N 
ATOM     14  H   UNL     1      -2.542  -0.150   3.607  1.00  0.00     0.170 HD
ATOM     15  O   UNL     1      -3.209   0.258   1.419  1.00  0.00    -0.274 OA
BRANCH  13  16
ATOM     16  C   UNL     1      -0.811  -1.091   3.705  1.00  0.00     0.110 A 
ATOM     17  C   UNL     1       0.450  -1.627   3.512  1.00  0.00     0.098 A 
ATOM     18  C   UNL     1       1.010  -2.105   4.765  1.00  0.00    -0.006 A 
ATOM     19  S   UNL     1      -1.328  -1.268   5.343  1.00  0.00    -0.116 S 
ATOM     20  C   UNL     1       0.164  -1.890   5.831  1.00  0.00     0.065 A 
ATOM     21  C   UNL     1       2.411  -2.605   5.000  1.00  0.00     0.099 C 
ATOM     22  C   UNL     1       0.542  -2.079   7.271  1.00  0.00     0.310 C 
ATOM     23  C   UNL     1       2.759  -2.750   6.508  1.00  0.00     0.267 C 
ATOM     24  N   UNL     1       1.995  -1.935   7.471  1.00  0.00    -0.326 N 
ATOM     25  H   UNL     1       2.198  -2.335   8.388  1.00  0.00     0.348 HD
BRANCH  17  26
ATOM     26  C   UNL     1       1.212  -1.671   2.269  1.00  0.00     0.341 C 
ATOM     27  O   UNL     1       1.407  -2.670   1.640  1.00  0.00    -0.246 OA
BRANCH  26  28
ATOM     28  O   UNL     1       1.711  -0.429   1.962  1.00  0.00    -0.465 OA
ATOM     29  C   UNL     1       2.377  -0.314   0.701  1.00  0.00     0.282 C 
ENDBRANCH  26  28
ENDBRANCH  17  26
BRANCH  24  30
ATOM     30  C   UNL     1       2.471  -0.553   7.664  1.00  0.00     0.299 C 
BRANCH  30  31
ATOM     31  C   UNL     1       2.433   0.384   6.475  1.00  0.00     0.006 A 
ATOM     32  C   UNL     1       3.555   0.539   5.649  1.00  0.00     0.009 A 
ATOM     33  C   UNL     1       1.259   1.077   6.144  1.00  0.00     0.009 A 
ATOM     34  C   UNL     1       3.473   1.286   4.472  1.00  0.00     0.001 A 
ATOM     35  C   UNL     1       1.169   1.803   4.955  1.00  0.00     0.001 A 
ATOM     36  C   UNL     1       2.273   1.896   4.113  1.00  0.00     0.000 A 
ENDBRANCH  30  31
ENDBRANCH  24  30
ENDBRANCH  13  16
ENDBRANCH  10  12
ENDBRANCH   7   9
ENDBRANCH   6   7
ENDBRANCH   5   6
ENDBRANCH   4   5
ENDBRANCH   3   4
ENDBRANCH   2   3
ENDBRANCH   1   2
BRANCH   1  37
ATOM     37  O   UNL     1      -3.484  -4.224   2.776  1.00  0.00    -0.377 OA
BRANCH  37  38
ATOM     38  C   UNL     1      -4.668  -4.983   2.733  1.00  0.00     0.188 C 
BRANCH  38  39
ATOM     39  C   UNL     1      -6.050  -4.356   3.039  1.00  0.00     0.188 C 
BRANCH  39  40
ATOM     40  O   UNL     1      -6.344  -2.975   2.975  1.00  0.00    -0.376 OA
BRANCH  40  41
ATOM     41  C   UNL     1      -5.946  -1.929   3.843  1.00  0.00     0.202 C 
BRANCH  41  42
ATOM     42  C   UNL     1      -5.303  -2.090   5.205  1.00  0.00     0.261 C 
BRANCH  42  43
ATOM     43  O   UNL     1      -4.625  -3.306   5.375  1.00  0.00    -0.460 OA
BRANCH  43  44
ATOM     44  C   UNL     1      -5.434  -4.216   5.946  1.00  0.00     0.338 C 
ATOM     45  O   UNL     1      -6.646  -4.157   6.088  1.00  0.00    -0.246 OA
BRANCH  44  46
ATOM     46  C   UNL     1      -4.622  -5.234   6.590  1.00  0.00     0.060 A 
ATOM     47  C   UNL     1      -5.345  -6.328   7.063  1.00  0.00     0.016 A 
ATOM     48  C   UNL     1      -3.398  -4.818   7.129  1.00  0.00     0.016 A 
ATOM     49  C   UNL     1      -4.970  -6.851   8.269  1.00  0.00     0.010 A 
ATOM     50  C   UNL     1      -3.042  -5.322   8.348  1.00  0.00     0.010 A 
ATOM     51  C   UNL     1      -3.876  -6.278   8.927  1.00  0.00    -0.014 A 
BRANCH  51  52
ATOM     52  C   UNL     1      -3.481  -6.876  10.177  1.00  0.00     0.031 A 
ATOM     53  C   UNL     1      -2.847  -8.188   9.929  1.00  0.00     0.074 A 
ATOM     54  C   UNL     1      -3.607  -6.223  11.345  1.00  0.00     0.049 A 
ATOM     55  N   UNL     1      -3.272  -9.344  10.308  1.00  0.00    -0.248 NA
ATOM     56  C   UNL     1      -1.743  -8.252   8.949  1.00  0.00     0.031 C 
ATOM     57  C   UNL     1      -3.997  -4.821  11.525  1.00  0.00     0.029 A 
ATOM     58  N   UNL     1      -3.287  -6.621  12.608  1.00  0.00    -0.354 N 
ATOM     59  C   UNL     1      -2.331 -10.250   9.828  1.00  0.00     0.074 A 
ATOM     60  C   UNL     1      -1.588  -9.568   8.813  1.00  0.00     0.031 C 
ATOM     61  C   UNL     1      -3.657  -4.424  12.771  1.00  0.00     0.029 A 
ATOM     62  C   UNL     1      -3.134  -5.565  13.501  1.00  0.00     0.049 A 
ATOM     63  H   UNL     1      -3.175  -7.565  12.864  1.00  0.00     0.167 HD
ATOM     64  C   UNL     1      -1.994 -11.312  10.608  1.00  0.00     0.037 A 
ATOM     65  C   UNL     1      -2.522  -5.630  14.709  1.00  0.00     0.037 A 
ATOM     66  C   UNL     1      -3.047 -11.565  11.563  1.00  0.00     0.049 A 
ATOM     67  C   UNL     1      -2.479  -7.058  15.110  1.00  0.00     0.074 A 
ATOM     68  C   UNL     1      -4.322 -12.082  11.533  1.00  0.00     0.029 A 
ATOM     69  N   UNL     1      -2.932 -10.828  12.712  1.00  0.00    -0.354 N 
ATOM     70  N   UNL     1      -3.536  -7.747  15.439  1.00  0.00    -0.248 NA
ATOM     71  C   UNL     1      -1.290  -7.850  14.805  1.00  0.00     0.031 C 
ATOM     72  C   UNL     1      -5.000 -11.544  12.668  1.00  0.00     0.029 A 
ATOM     73  C   UNL     1      -4.114 -10.744  13.388  1.00  0.00     0.049 A 
ATOM     74  H   UNL     1      -2.094 -10.409  13.015  1.00  0.00     0.167 HD
ATOM     75  C   UNL     1      -3.277  -9.017  14.962  1.00  0.00     0.074 A 
ATOM     76  C   UNL     1      -1.836  -9.068  14.758  1.00  0.00     0.031 C 
ATOM     77  C   UNL     1      -4.285  -9.780  14.450  1.00  0.00     0.037 A 
BRANCH  64  78
ATOM     78  C   UNL     1      -0.548 -11.678  10.939  1.00  0.00     0.064 A 
ATOM     79  C   UNL     1      -0.339 -12.690  11.902  1.00  0.00     0.173 A 
ATOM     80  C   UNL     1       0.589 -10.889  10.650  1.00  0.00     0.173 A 
ATOM     81  F   UNL     1      -1.332 -13.525  12.243  1.00  0.00    -0.203 F 
ATOM     82  C   UNL     1       0.859 -12.804  12.612  1.00  0.00     0.198 A 
ATOM     83  C   UNL     1       1.793 -11.027  11.340  1.00  0.00     0.198 A 
ATOM     84  F   UNL     1       0.585  -9.895   9.759  1.00  0.00    -0.203 F 
ATOM     85  F   UNL     1       0.957 -13.691  13.611  1.00  0.00    -0.200 F 
ATOM     86  C   UNL     1       1.917 -11.957  12.346  1.00  0.00     0.200 A 
ATOM     87  F   UNL     1       2.804 -10.188  11.069  1.00  0.00    -0.200 F 
ATOM     88  F   UNL     1       3.038 -12.011  13.076  1.00  0.00    -0.200 F 
ENDBRANCH  64  78
BRANCH  65  89
ATOM     89  C   UNL     1      -1.741  -4.588  15.419  1.00  0.00     0.064 A 
ATOM     90  C   UNL     1      -1.405  -4.744  16.775  1.00  0.00     0.173 A 
ATOM     91  C   UNL     1      -1.075  -3.557  14.728  1.00  0.00     0.173 A 
ATOM     92  F   UNL     1      -1.964  -5.723  17.501  1.00  0.00    -0.203 F 
ATOM     93  C   UNL     1      -0.434  -3.946  17.389  1.00  0.00     0.198 A 
ATOM     94  C   UNL     1      -0.115  -2.753  15.345  1.00  0.00     0.198 A 
ATOM     95  F   UNL     1      -1.267  -3.367  13.415  1.00  0.00    -0.203 F 
ATOM     96  F   UNL     1      -0.089  -4.177  18.664  1.00  0.00    -0.200 F 
ATOM     97  C   UNL     1       0.219  -2.960  16.670  1.00  0.00     0.200 A 
ATOM     98  F   UNL     1       0.531  -1.822  14.629  1.00  0.00    -0.200 F 
ATOM     99  F   UNL     1       1.196  -2.240  17.238  1.00  0.00    -0.200 F 
ENDBRANCH  65  89
BRANCH  77 100
ATOM    100  C   UNL     1      -5.672  -9.498  14.930  1.00  0.00     0.064 A 
ATOM    101  C   UNL     1      -6.373  -8.304  14.705  1.00  0.00     0.173 A 
ATOM    102  C   UNL     1      -6.342 -10.532  15.600  1.00  0.00     0.173 A 
ATOM    103  F   UNL     1      -5.826  -7.304  13.998  1.00  0.00    -0.203 F 
ATOM    104  C   UNL     1      -7.675  -8.141  15.176  1.00  0.00     0.198 A 
ATOM    105  C   UNL     1      -7.654 -10.383  16.029  1.00  0.00     0.198 A 
ATOM    106  F   UNL     1      -5.728 -11.708  15.808  1.00  0.00    -0.203 F 
ATOM    107  F   UNL     1      -8.321  -6.983  14.979  1.00  0.00    -0.200 F 
ATOM    108  C   UNL     1      -8.316  -9.183  15.830  1.00  0.00     0.200 A 
ATOM    109  F   UNL     1      -8.281 -11.410  16.619  1.00  0.00    -0.200 F 
ATOM    110  F   UNL     1      -9.579  -9.038  16.253  1.00  0.00    -0.200 F 
ENDBRANCH  77 100
ENDBRANCH  51  52
ENDBRANCH  44  46
ENDBRANCH  43  44
ENDBRANCH  42  43
ENDBRANCH  41  42
ENDBRANCH  40  41
ENDBRANCH  39  40
ENDBRANCH  38  39
ENDBRANCH  37  38
ENDBRANCH   1  37
TORSDOF 26
