REMARK SMILES CC(C)[NH2+][C@]1(C(=O)OCCOCCOCCOCCOC(=O)c2ccc(-c3c4nc(c(-c5c(F)c(F)c(F)c(F)c5F)c5ccc([nH]5)c(-c5c(F)c(F)c(F)c(F)c5F)c5nc(c(-c6c(F)c(F)c(F)c(F)c6F)c6ccc3[nH]6)C=C5)C=C4)cc2)CC[C@@H](Oc2cc(F)ccc2F)C1
REMARK SMILES IDX 14 1 13 2 12 3 11 4 10 5 9 6 8 7 6 8 7 9 5 10 86 11 98 12
REMARK SMILES IDX 87 13 88 14 4 15 2 18 1 19 3 20 89 21 90 22 91 23 96 24
REMARK SMILES IDX 92 25 95 26 97 27 93 28 94 29 15 30 16 31 17 32 18 33 19 34
REMARK SMILES IDX 20 35 21 36 22 37 23 38 24 39 85 40 25 41 84 42 26 43 27 44
REMARK SMILES IDX 28 45 78 46 29 47 83 48 77 49 79 50 30 51 82 52 76 53 75 54
REMARK SMILES IDX 31 56 63 57 43 58 62 59 44 60 47 61 61 62 80 63 45 64 46 65
REMARK SMILES IDX 60 67 81 68 48 69 32 70 33 71 41 72 34 73 35 74 39 75 42 76
REMARK SMILES IDX 36 77 37 78 40 79 38 80 64 81 65 82 73 83 66 84 67 85 71 86
REMARK SMILES IDX 74 87 68 88 69 89 72 90 70 91 49 92 50 93 58 94 51 95 52 96
REMARK SMILES IDX 56 97 59 98 53 99 54 100 57 101 55 102
REMARK H PARENT 4 16 4 17 79 55 47 66
REMARK Flexibility Score: inf
ROOT
ATOM      1  O   UNL     1       0.953  -1.280   1.460  1.00  0.00    -0.377 OA
ENDROOT
BRANCH   1   2
ATOM      2  C   UNL     1      -0.358  -1.641   1.853  1.00  0.00     0.188 C 
BRANCH   2   3
ATOM      3  C   UNL     1      -1.409  -1.462   0.746  1.00  0.00     0.188 C 
BRANCH   3   4
ATOM      4  O   UNL     1      -0.912  -1.409  -0.575  1.00  0.00    -0.376 OA
BRANCH   4   5
ATOM      5  C   UNL     1      -0.264  -0.255  -1.084  1.00  0.00     0.202 C 
BRANCH   5   6
ATOM      6  C   UNL     1       0.146   1.018  -0.308  1.00  0.00     0.261 C 
BRANCH   6   7
ATOM      7  O   UNL     1      -0.137   1.111   1.089  1.00  0.00    -0.459 OA
BRANCH   7   8
ATOM      8  C   UNL     1      -1.308   1.694   1.439  1.00  0.00     0.368 C 
ATOM      9  O   UNL     1      -2.100   2.159   0.622  1.00  0.00    -0.245 OA
BRANCH   8  10
ATOM     10  C   UNL     1      -1.595   1.637   2.983  1.00  0.00     0.198 C 
ATOM     11  C   UNL     1      -2.020   3.054   3.389  1.00  0.00     0.085 C 
ATOM     12  C   UNL     1      -2.843   0.752   3.140  1.00  0.00     0.126 C 
ATOM     13  C   UNL     1      -3.378   2.954   4.072  1.00  0.00     0.052 C 
ATOM     14  C   UNL     1      -3.783   1.475   4.088  1.00  0.00     0.180 C 
BRANCH  10  15
ATOM     15  N   UNL     1      -0.421   1.165   3.752  1.00  0.00    -0.330 N 
ATOM     16  H   UNL     1      -0.027   0.386   3.227  1.00  0.00     0.347 HD
ATOM     17  H   UNL     1       0.130   2.018   3.853  1.00  0.00     0.347 HD
BRANCH  15  18
ATOM     18  C   UNL     1      -0.545   0.708   5.136  1.00  0.00     0.176 C 
ATOM     19  C   UNL     1       0.711  -0.100   5.493  1.00  0.00     0.075 C 
ATOM     20  C   UNL     1      -0.701   1.841   6.148  1.00  0.00     0.075 C 
ENDBRANCH  15  18
ENDBRANCH  10  15
BRANCH  14  21
ATOM     21  O   UNL     1      -5.173   1.161   3.878  1.00  0.00    -0.487 OA
BRANCH  21  22
ATOM     22  C   UNL     1      -5.738   1.735   2.771  1.00  0.00     0.158 A 
ATOM     23  C   UNL     1      -6.401   2.951   2.923  1.00  0.00     0.088 A 
ATOM     24  C   UNL     1      -5.711   1.119   1.517  1.00  0.00     0.165 A 
ATOM     25  C   UNL     1      -6.888   3.604   1.797  1.00  0.00     0.127 A 
ATOM     26  C   UNL     1      -6.194   1.780   0.390  1.00  0.00     0.046 A 
ATOM     27  F   UNL     1      -5.209  -0.116   1.369  1.00  0.00    -0.203 F 
ATOM     28  F   UNL     1      -7.462   4.806   1.935  1.00  0.00    -0.207 F 
ATOM     29  C   UNL     1      -6.768   3.043   0.529  1.00  0.00     0.042 A 
ENDBRANCH  21  22
ENDBRANCH  14  21
ENDBRANCH   8  10
ENDBRANCH   7   8
ENDBRANCH   6   7
ENDBRANCH   5   6
ENDBRANCH   4   5
ENDBRANCH   3   4
ENDBRANCH   2   3
ENDBRANCH   1   2
BRANCH   1  30
ATOM     30  C   UNL     1       1.745  -2.261   0.807  1.00  0.00     0.188 C 
BRANCH  30  31
ATOM     31  C   UNL     1       1.094  -3.454   0.071  1.00  0.00     0.188 C 
BRANCH  31  32
ATOM     32  O   UNL     1      -0.037  -4.017   0.719  1.00  0.00    -0.376 OA
BRANCH  32  33
ATOM     33  C   UNL     1       0.119  -5.203   1.480  1.00  0.00     0.202 C 
BRANCH  33  34
ATOM     34  C   UNL     1       0.974  -5.121   2.755  1.00  0.00     0.261 C 
BRANCH  34  35
ATOM     35  O   UNL     1       2.316  -4.644   2.585  1.00  0.00    -0.460 OA
BRANCH  35  36
ATOM     36  C   UNL     1       3.133  -5.364   1.790  1.00  0.00     0.338 C 
ATOM     37  O   UNL     1       2.879  -6.420   1.233  1.00  0.00    -0.246 OA
BRANCH  36  38
ATOM     38  C   UNL     1       4.348  -4.562   1.538  1.00  0.00     0.060 A 
ATOM     39  C   UNL     1       4.677  -4.237   0.215  1.00  0.00     0.016 A 
ATOM     40  C   UNL     1       5.153  -4.130   2.594  1.00  0.00     0.016 A 
ATOM     41  C   UNL     1       5.842  -3.523  -0.059  1.00  0.00     0.010 A 
ATOM     42  C   UNL     1       6.333  -3.435   2.317  1.00  0.00     0.010 A 
ATOM     43  C   UNL     1       6.704  -3.167   0.987  1.00  0.00    -0.014 A 
BRANCH  43  44
ATOM     44  C   UNL     1       8.082  -2.722   0.669  1.00  0.00     0.031 A 
ATOM     45  C   UNL     1       9.188  -3.740   0.727  1.00  0.00     0.074 A 
ATOM     46  C   UNL     1       8.345  -1.458   0.293  1.00  0.00     0.049 A 
ATOM     47  N   UNL     1      10.471  -3.594   0.515  1.00  0.00    -0.248 NA
ATOM     48  C   UNL     1       8.789  -5.115   1.074  1.00  0.00     0.031 C 
ATOM     49  C   UNL     1       7.354  -0.395   0.152  1.00  0.00     0.029 A 
ATOM     50  N   UNL     1       9.535  -0.859  -0.037  1.00  0.00    -0.354 N 
ATOM     51  C   UNL     1      11.030  -4.851   0.709  1.00  0.00     0.074 A 
ATOM     52  C   UNL     1       9.955  -5.740   1.091  1.00  0.00     0.031 C 
ATOM     53  C   UNL     1       7.980   0.734  -0.227  1.00  0.00     0.029 A 
ATOM     54  C   UNL     1       9.417   0.478  -0.322  1.00  0.00     0.049 A 
ATOM     55  H   UNL     1      10.392  -1.343  -0.066  1.00  0.00     0.167 HD
ATOM     56  C   UNL     1      12.322  -5.232   0.571  1.00  0.00     0.037 A 
ATOM     57  C   UNL     1      10.366   1.392  -0.605  1.00  0.00     0.037 A 
ATOM     58  C   UNL     1      13.389  -4.343   0.194  1.00  0.00     0.049 A 
ATOM     59  C   UNL     1      11.810   0.960  -0.674  1.00  0.00     0.074 A 
ATOM     60  C   UNL     1      14.729  -4.633   0.013  1.00  0.00     0.029 A 
ATOM     61  N   UNL     1      13.236  -2.985  -0.049  1.00  0.00    -0.354 N 
ATOM     62  N   UNL     1      12.330  -0.234  -0.515  1.00  0.00    -0.248 NA
ATOM     63  C   UNL     1      12.801   2.005  -0.970  1.00  0.00     0.031 C 
ATOM     64  C   UNL     1      15.399  -3.439  -0.275  1.00  0.00     0.029 A 
ATOM     65  C   UNL     1      14.465  -2.418  -0.348  1.00  0.00     0.049 A 
ATOM     66  H   UNL     1      12.382  -2.498  -0.015  1.00  0.00     0.167 HD
ATOM     67  C   UNL     1      13.696  -0.090  -0.726  1.00  0.00     0.074 A 
ATOM     68  C   UNL     1      13.923   1.304  -1.040  1.00  0.00     0.031 C 
ATOM     69  C   UNL     1      14.675  -1.028  -0.667  1.00  0.00     0.037 A 
BRANCH  56  70
ATOM     70  C   UNL     1      12.657  -6.666   0.864  1.00  0.00     0.064 A 
ATOM     71  C   UNL     1      12.229  -7.714   0.034  1.00  0.00     0.173 A 
ATOM     72  C   UNL     1      13.441  -6.995   1.980  1.00  0.00     0.173 A 
ATOM     73  F   UNL     1      11.464  -7.457  -1.038  1.00  0.00    -0.203 F 
ATOM     74  C   UNL     1      12.550  -9.037   0.326  1.00  0.00     0.198 A 
ATOM     75  C   UNL     1      13.789  -8.316   2.250  1.00  0.00     0.198 A 
ATOM     76  F   UNL     1      13.878  -6.033   2.807  1.00  0.00    -0.203 F 
ATOM     77  F   UNL     1      12.084 -10.025  -0.451  1.00  0.00    -0.200 F 
ATOM     78  C   UNL     1      13.336  -9.336   1.429  1.00  0.00     0.200 A 
ATOM     79  F   UNL     1      14.561  -8.600   3.308  1.00  0.00    -0.200 F 
ATOM     80  F   UNL     1      13.651 -10.609   1.704  1.00  0.00    -0.200 F 
ENDBRANCH  56  70
BRANCH  57  81
ATOM     81  C   UNL     1       9.990   2.814  -0.832  1.00  0.00     0.064 A 
ATOM     82  C   UNL     1      10.160   3.419  -2.085  1.00  0.00     0.173 A 
ATOM     83  C   UNL     1       9.483   3.606   0.209  1.00  0.00     0.173 A 
ATOM     84  F   UNL     1      10.667   2.713  -3.107  1.00  0.00    -0.203 F 
ATOM     85  C   UNL     1       9.860   4.766  -2.282  1.00  0.00     0.198 A 
ATOM     86  C   UNL     1       9.152   4.943   0.002  1.00  0.00     0.198 A 
ATOM     87  F   UNL     1       9.305   3.079   1.429  1.00  0.00    -0.203 F 
ATOM     88  F   UNL     1      10.087   5.333  -3.475  1.00  0.00    -0.200 F 
ATOM     89  C   UNL     1       9.350   5.525  -1.240  1.00  0.00     0.200 A 
ATOM     90  F   UNL     1       8.647   5.669   1.009  1.00  0.00    -0.200 F 
ATOM     91  F   UNL     1       9.061   6.820  -1.430  1.00  0.00    -0.200 F 
ENDBRANCH  57  81
BRANCH  69  92
ATOM     92  C   UNL     1      16.076  -0.590  -0.997  1.00  0.00     0.064 A 
ATOM     93  C   UNL     1      16.805   0.265  -0.158  1.00  0.00     0.173 A 
ATOM     94  C   UNL     1      16.709  -1.062  -2.159  1.00  0.00     0.173 A 
ATOM     95  F   UNL     1      16.246   0.754   0.959  1.00  0.00    -0.203 F 
ATOM     96  C   UNL     1      18.100   0.661  -0.488  1.00  0.00     0.198 A 
ATOM     97  C   UNL     1      18.016  -0.694  -2.466  1.00  0.00     0.198 A 
ATOM     98  F   UNL     1      16.063  -1.891  -2.993  1.00  0.00    -0.203 F 
ATOM     99  F   UNL     1      18.753   1.528   0.298  1.00  0.00    -0.200 F 
ATOM    100  C   UNL     1      18.706   0.176  -1.637  1.00  0.00     0.200 A 
ATOM    101  F   UNL     1      18.607  -1.181  -3.566  1.00  0.00    -0.200 F 
ATOM    102  F   UNL     1      19.953   0.554  -1.949  1.00  0.00    -0.200 F 
ENDBRANCH  69  92
ENDBRANCH  43  44
ENDBRANCH  36  38
ENDBRANCH  35  36
ENDBRANCH  34  35
ENDBRANCH  33  34
ENDBRANCH  32  33
ENDBRANCH  31  32
ENDBRANCH  30  31
ENDBRANCH   1  30
TORSDOF 24
