REMARK SMILES C[C@@H](CC(=O)OCCOCCOCCOCCOC(=O)c1ccc(-c2c3nc(c(-c4c(F)c(F)c(F)c(F)c4F)c4ccc([nH]4)c(-c4c(F)c(F)c(F)c(F)c4F)c4nc(c(-c5c(F)c(F)c(F)c(F)c5F)c5ccc2[nH]5)C=C4)C=C3)cc1)NC(=O)[C@@H]1CCCN(C(N)=O)C1
REMARK SMILES IDX 11 1 10 2 9 3 8 4 7 5 6 6 4 7 5 8 3 9 2 10 1 11 84 12 85 13
REMARK SMILES IDX 86 15 87 16 88 17 95 18 89 19 91 20 90 21 92 22 93 23 94 24
REMARK SMILES IDX 12 27 13 28 14 29 15 30 16 31 17 32 18 33 19 34 20 35 21 36
REMARK SMILES IDX 22 37 83 38 23 39 82 40 24 41 25 42 26 43 76 44 27 45 81 46
REMARK SMILES IDX 75 47 77 48 28 49 80 50 74 51 73 52 29 54 61 55 41 56 60 57
REMARK SMILES IDX 42 58 45 59 59 60 78 61 43 62 44 63 58 65 79 66 46 67 30 68
REMARK SMILES IDX 31 69 39 70 32 71 33 72 37 73 40 74 34 75 35 76 38 77 36 78
REMARK SMILES IDX 62 79 63 80 71 81 64 82 65 83 69 84 72 85 66 86 67 87 70 88
REMARK SMILES IDX 68 89 47 90 48 91 56 92 49 93 50 94 54 95 57 96 51 97 52 98
REMARK SMILES IDX 55 99 53 100
REMARK H PARENT 84 14 93 25 93 26 77 53 45 64
REMARK Flexibility Score: inf
ROOT
ATOM      1  C   UNL     1      -2.068  -0.546   3.228  1.00  0.00     0.188 C 
ENDROOT
BRANCH   1   2
ATOM      2  C   UNL     1      -1.764  -0.618   4.723  1.00  0.00     0.188 C 
BRANCH   2   3
ATOM      3  O   UNL     1      -1.599   0.584   5.454  1.00  0.00    -0.376 OA
BRANCH   3   4
ATOM      4  C   UNL     1      -0.614   1.537   5.059  1.00  0.00     0.202 C 
BRANCH   4   5
ATOM      5  C   UNL     1       0.803   1.079   4.669  1.00  0.00     0.261 C 
BRANCH   5   6
ATOM      6  O   UNL     1       0.860   0.425   3.383  1.00  0.00    -0.463 OA
BRANCH   6   7
ATOM      7  C   UNL     1       1.266  -0.859   3.374  1.00  0.00     0.307 C 
ATOM      8  O   UNL     1       1.677  -1.453   4.368  1.00  0.00    -0.252 OA
BRANCH   7   9
ATOM      9  C   UNL     1       1.131  -1.592   2.058  1.00  0.00     0.147 C 
BRANCH   9  10
ATOM     10  C   UNL     1       0.673  -0.997   0.715  1.00  0.00     0.090 C 
ATOM     11  C   UNL     1       0.993   0.467   0.446  1.00  0.00     0.031 C 
BRANCH  10  12
ATOM     12  N   UNL     1      -0.709  -1.310   0.319  1.00  0.00    -0.353 N 
ATOM     13  C   UNL     1      -1.307  -2.155  -0.560  1.00  0.00     0.225 C 
ATOM     14  H   UNL     1      -1.365  -0.770   0.816  1.00  0.00     0.163 HD
ATOM     15  O   UNL     1      -2.545  -2.065  -0.599  1.00  0.00    -0.275 OA
BRANCH  13  16
ATOM     16  C   UNL     1      -0.638  -3.209  -1.467  1.00  0.00     0.098 C 
ATOM     17  C   UNL     1      -0.299  -4.533  -0.789  1.00  0.00     0.017 C 
ATOM     18  C   UNL     1       0.489  -2.752  -2.384  1.00  0.00     0.134 C 
ATOM     19  C   UNL     1       1.052  -4.495  -0.101  1.00  0.00     0.022 C 
ATOM     20  N   UNL     1       1.802  -2.743  -1.745  1.00  0.00    -0.324 N 
ATOM     21  C   UNL     1       2.172  -3.948  -0.992  1.00  0.00     0.121 C 
BRANCH  20  22
ATOM     22  C   UNL     1       2.740  -1.738  -1.870  1.00  0.00     0.314 C 
ATOM     23  N   UNL     1       2.357  -0.605  -2.503  1.00  0.00    -0.351 N 
ATOM     24  O   UNL     1       3.864  -1.781  -1.380  1.00  0.00    -0.249 OA
ATOM     25  H   UNL     1       1.460  -0.545  -2.904  1.00  0.00     0.161 HD
ATOM     26  H   UNL     1       2.975   0.159  -2.562  1.00  0.00     0.161 HD
ENDBRANCH  20  22
ENDBRANCH  13  16
ENDBRANCH  10  12
ENDBRANCH   9  10
ENDBRANCH   7   9
ENDBRANCH   6   7
ENDBRANCH   5   6
ENDBRANCH   4   5
ENDBRANCH   3   4
ENDBRANCH   2   3
ENDBRANCH   1   2
BRANCH   1  27
ATOM     27  O   UNL     1      -1.572   0.601   2.579  1.00  0.00    -0.377 OA
BRANCH  27  28
ATOM     28  C   UNL     1      -2.478   1.562   2.062  1.00  0.00     0.188 C 
BRANCH  28  29
ATOM     29  C   UNL     1      -3.862   1.706   2.702  1.00  0.00     0.188 C 
BRANCH  29  30
ATOM     30  O   UNL     1      -4.881   0.749   2.447  1.00  0.00    -0.376 OA
BRANCH  30  31
ATOM     31  C   UNL     1      -4.923  -0.032   1.262  1.00  0.00     0.202 C 
BRANCH  31  32
ATOM     32  C   UNL     1      -5.000   0.601  -0.135  1.00  0.00     0.261 C 
BRANCH  32  33
ATOM     33  O   UNL     1      -4.197   1.760  -0.359  1.00  0.00    -0.460 OA
BRANCH  33  34
ATOM     34  C   UNL     1      -4.816   2.939  -0.127  1.00  0.00     0.338 C 
ATOM     35  O   UNL     1      -5.949   3.123   0.268  1.00  0.00    -0.246 OA
BRANCH  34  36
ATOM     36  C   UNL     1      -3.840   4.022  -0.336  1.00  0.00     0.060 A 
ATOM     37  C   UNL     1      -3.552   4.888   0.725  1.00  0.00     0.016 A 
ATOM     38  C   UNL     1      -3.301   4.240  -1.605  1.00  0.00     0.016 A 
ATOM     39  C   UNL     1      -2.765   6.016   0.507  1.00  0.00     0.010 A 
ATOM     40  C   UNL     1      -2.531   5.381  -1.828  1.00  0.00     0.010 A 
ATOM     41  C   UNL     1      -2.304   6.297  -0.784  1.00  0.00    -0.014 A 
BRANCH  41  42
ATOM     42  C   UNL     1      -1.802   7.651  -1.107  1.00  0.00     0.031 A 
ATOM     43  C   UNL     1      -2.754   8.620  -1.752  1.00  0.00     0.074 A 
ATOM     44  C   UNL     1      -0.537   8.011  -0.838  1.00  0.00     0.049 A 
ATOM     45  N   UNL     1      -2.526   9.807  -2.249  1.00  0.00    -0.248 NA
ATOM     46  C   UNL     1      -4.156   8.182  -1.857  1.00  0.00     0.031 C 
ATOM     47  C   UNL     1       0.452   7.180  -0.157  1.00  0.00     0.029 A 
ATOM     48  N   UNL     1       0.134   9.172  -1.127  1.00  0.00    -0.354 N 
ATOM     49  C   UNL     1      -3.747  10.248  -2.742  1.00  0.00     0.074 A 
ATOM     50  C   UNL     1      -4.708   9.194  -2.509  1.00  0.00     0.031 C 
ATOM     51  C   UNL     1       1.616   7.851  -0.102  1.00  0.00     0.029 A 
ATOM     52  C   UNL     1       1.462   9.136  -0.783  1.00  0.00     0.049 A 
ATOM     53  H   UNL     1      -0.296   9.956  -1.541  1.00  0.00     0.167 HD
ATOM     54  C   UNL     1      -4.039  11.430  -3.333  1.00  0.00     0.037 A 
ATOM     55  C   UNL     1       2.443  10.027  -1.027  1.00  0.00     0.037 A 
ATOM     56  C   UNL     1      -3.074  12.473  -3.558  1.00  0.00     0.049 A 
ATOM     57  C   UNL     1       2.113  11.301  -1.766  1.00  0.00     0.074 A 
ATOM     58  C   UNL     1      -3.263  13.712  -4.143  1.00  0.00     0.029 A 
ATOM     59  N   UNL     1      -1.733  12.392  -3.212  1.00  0.00    -0.354 N 
ATOM     60  N   UNL     1       0.958  11.717  -2.228  1.00  0.00    -0.248 NA
ATOM     61  C   UNL     1       3.224  12.230  -2.016  1.00  0.00     0.031 C 
ATOM     62  C   UNL     1      -2.025  14.356  -4.207  1.00  0.00     0.029 A 
ATOM     63  C   UNL     1      -1.078  13.551  -3.594  1.00  0.00     0.049 A 
ATOM     64  H   UNL     1      -1.310  11.625  -2.762  1.00  0.00     0.167 HD
ATOM     65  C   UNL     1       1.194  12.971  -2.779  1.00  0.00     0.074 A 
ATOM     66  C   UNL     1       2.603  13.248  -2.596  1.00  0.00     0.031 C 
ATOM     67  C   UNL     1       0.321  13.821  -3.374  1.00  0.00     0.037 A 
BRANCH  54  68
ATOM     68  C   UNL     1      -5.446  11.642  -3.810  1.00  0.00     0.064 A 
ATOM     69  C   UNL     1      -6.517  11.800  -2.918  1.00  0.00     0.173 A 
ATOM     70  C   UNL     1      -5.722  11.716  -5.184  1.00  0.00     0.173 A 
ATOM     71  F   UNL     1      -6.311  11.721  -1.595  1.00  0.00    -0.203 F 
ATOM     72  C   UNL     1      -7.815  11.996  -3.384  1.00  0.00     0.198 A 
ATOM     73  C   UNL     1      -7.015  11.947  -5.646  1.00  0.00     0.198 A 
ATOM     74  F   UNL     1      -4.734  11.574  -6.082  1.00  0.00    -0.203 F 
ATOM     75  F   UNL     1      -8.830  12.091  -2.515  1.00  0.00    -0.200 F 
ATOM     76  C   UNL     1      -8.061  12.078  -4.747  1.00  0.00     0.200 A 
ATOM     77  F   UNL     1      -7.247  12.041  -6.963  1.00  0.00    -0.200 F 
ATOM     78  F   UNL     1      -9.309  12.276  -5.193  1.00  0.00    -0.200 F 
ENDBRANCH  54  68
BRANCH  55  79
ATOM     79  C   UNL     1       3.834   9.741  -0.589  1.00  0.00     0.064 A 
ATOM     80  C   UNL     1       4.453  10.516   0.402  1.00  0.00     0.173 A 
ATOM     81  C   UNL     1       4.583   8.706  -1.167  1.00  0.00     0.173 A 
ATOM     82  F   UNL     1       3.787  11.533   0.969  1.00  0.00    -0.203 F 
ATOM     83  C   UNL     1       5.774  10.283   0.779  1.00  0.00     0.198 A 
ATOM     84  C   UNL     1       5.893   8.452  -0.766  1.00  0.00     0.198 A 
ATOM     85  F   UNL     1       4.040   7.933  -2.119  1.00  0.00    -0.203 F 
ATOM     86  F   UNL     1       6.358  11.074   1.690  1.00  0.00    -0.200 F 
ATOM     87  C   UNL     1       6.491   9.247   0.199  1.00  0.00     0.200 A 
ATOM     88  F   UNL     1       6.577   7.441  -1.319  1.00  0.00    -0.200 F 
ATOM     89  F   UNL     1       7.761   9.022   0.563  1.00  0.00    -0.200 F 
ENDBRANCH  55  79
BRANCH  67  90
ATOM     90  C   UNL     1       0.834  15.166  -3.804  1.00  0.00     0.064 A 
ATOM     91  C   UNL     1       1.687  15.321  -4.905  1.00  0.00     0.173 A 
ATOM     92  C   UNL     1       0.396  16.325  -3.143  1.00  0.00     0.173 A 
ATOM     93  F   UNL     1       2.143  14.245  -5.564  1.00  0.00    -0.203 F 
ATOM     94  C   UNL     1       2.097  16.587  -5.318  1.00  0.00     0.198 A 
ATOM     95  C   UNL     1       0.781  17.589  -3.579  1.00  0.00     0.198 A 
ATOM     96  F   UNL     1      -0.429  16.233  -2.089  1.00  0.00    -0.203 F 
ATOM     97  F   UNL     1       2.945  16.711  -6.349  1.00  0.00    -0.200 F 
ATOM     98  C   UNL     1       1.635  17.719  -4.663  1.00  0.00     0.200 A 
ATOM     99  F   UNL     1       0.317  18.681  -2.957  1.00  0.00    -0.200 F 
ATOM    100  F   UNL     1       2.016  18.936  -5.075  1.00  0.00    -0.200 F 
ENDBRANCH  67  90
ENDBRANCH  41  42
ENDBRANCH  34  36
ENDBRANCH  33  34
ENDBRANCH  32  33
ENDBRANCH  31  32
ENDBRANCH  30  31
ENDBRANCH  29  30
ENDBRANCH  28  29
ENDBRANCH  27  28
ENDBRANCH   1  27
TORSDOF 24
