REMARK SMILES Cc1ccc(C#N)cc1Nc1cc(C)c(N)c(C(=O)OCCOCCOCCOCCOC(=O)c2ccc(-c3c4nc(c(-c5c(F)c(F)c(F)c(F)c5F)c5ccc([nH]5)c(-c5c(F)c(F)c(F)c(F)c5F)c5nc(c(-c6c(F)c(F)c(F)c(F)c6F)c6ccc3[nH]6)C=C5)C=C4)cc2)c1
REMARK SMILES IDX 25 1 24 2 23 3 22 4 21 5 20 6 18 7 19 8 17 9 11 10 12 11
REMARK SMILES IDX 98 12 13 13 14 14 15 15 10 16 9 18 1 19 2 20 3 21 4 22 8 23
REMARK SMILES IDX 5 24 6 25 7 26 16 27 26 30 27 31 28 32 29 33 30 34 31 35
REMARK SMILES IDX 32 36 33 37 34 38 35 39 36 40 97 41 37 42 96 43 38 44 39 45
REMARK SMILES IDX 40 46 90 47 41 48 95 49 89 50 91 51 42 52 94 53 88 54 87 55
REMARK SMILES IDX 43 57 75 58 55 59 74 60 56 61 59 62 73 63 92 64 57 65 58 66
REMARK SMILES IDX 72 68 93 69 60 70 44 71 45 72 53 73 46 74 47 75 51 76 54 77
REMARK SMILES IDX 48 78 49 79 52 80 50 81 76 82 77 83 85 84 78 85 79 86 83 87
REMARK SMILES IDX 86 88 80 89 81 90 84 91 82 92 61 93 62 94 70 95 63 96 64 97
REMARK SMILES IDX 68 98 71 99 65 100 66 101 69 102 67 103
REMARK H PARENT 10 17 16 28 16 29 91 56 59 67
REMARK Flexibility Score: inf
ROOT
ATOM      1  C   UNL     1      -6.744  -0.443   1.729  1.00  0.00     0.188 C 
ENDROOT
BRANCH   1   2
ATOM      2  C   UNL     1      -7.813  -1.513   1.399  1.00  0.00     0.188 C 
BRANCH   2   3
ATOM      3  O   UNL     1      -8.223  -2.307   2.493  1.00  0.00    -0.376 OA
BRANCH   3   4
ATOM      4  C   UNL     1      -7.780  -3.639   2.644  1.00  0.00     0.202 C 
BRANCH   4   5
ATOM      5  C   UNL     1      -6.294  -4.005   2.518  1.00  0.00     0.261 C 
BRANCH   5   6
ATOM      6  O   UNL     1      -5.523  -3.221   1.607  1.00  0.00    -0.460 OA
BRANCH   6   7
ATOM      7  C   UNL     1      -5.668  -3.505   0.291  1.00  0.00     0.340 C 
ATOM      8  O   UNL     1      -6.364  -4.389  -0.181  1.00  0.00    -0.246 OA
BRANCH   7   9
ATOM      9  C   UNL     1      -5.004  -2.432  -0.498  1.00  0.00     0.085 A 
ATOM     10  C   UNL     1      -3.043  -1.035  -0.817  1.00  0.00     0.040 A 
ATOM     11  C   UNL     1      -3.651  -0.490  -1.950  1.00  0.00     0.031 A 
ATOM     12  C   UNL     1      -3.760  -1.963  -0.064  1.00  0.00     0.044 A 
ATOM     13  C   UNL     1      -4.941  -0.886  -2.362  1.00  0.00    -0.025 A 
ATOM     14  C   UNL     1      -5.453  -0.296  -3.649  1.00  0.00     0.047 C 
ATOM     15  C   UNL     1      -5.623  -1.894  -1.651  1.00  0.00     0.049 A 
BRANCH  10  16
ATOM     16  N   UNL     1      -1.673  -0.810  -0.584  1.00  0.00    -0.355 N 
ATOM     17  H   UNL     1      -1.383   0.130  -0.561  1.00  0.00     0.167 HD
BRANCH  16  18
ATOM     18  C   UNL     1      -0.666  -1.782  -0.379  1.00  0.00     0.043 A 
ATOM     19  C   UNL     1       1.083   0.021   0.045  1.00  0.00     0.046 C 
ATOM     20  C   UNL     1       0.651  -1.418  -0.040  1.00  0.00    -0.027 A 
ATOM     21  C   UNL     1       1.600  -2.425   0.230  1.00  0.00     0.007 A 
ATOM     22  C   UNL     1       1.262  -3.779   0.164  1.00  0.00     0.020 A 
ATOM     23  C   UNL     1      -0.968  -3.155  -0.468  1.00  0.00     0.045 A 
ATOM     24  C   UNL     1      -0.029  -4.146  -0.190  1.00  0.00     0.054 A 
BRANCH  24  25
ATOM     25  C   UNL     1      -0.424  -5.525  -0.272  1.00  0.00     0.099 C 
ATOM     26  N   UNL     1      -0.774  -6.624  -0.341  1.00  0.00    -0.192 NA
ENDBRANCH  24  25
ENDBRANCH  16  18
ENDBRANCH  10  16
BRANCH  15  27
ATOM     27  N   UNL     1      -6.940  -2.227  -1.968  1.00  0.00    -0.398 N 
ATOM     28  H   UNL     1      -7.364  -1.849  -2.772  1.00  0.00     0.156 HD
ATOM     29  H   UNL     1      -7.446  -2.841  -1.388  1.00  0.00     0.156 HD
ENDBRANCH  15  27
ENDBRANCH   7   9
ENDBRANCH   6   7
ENDBRANCH   5   6
ENDBRANCH   4   5
ENDBRANCH   3   4
ENDBRANCH   2   3
ENDBRANCH   1   2
BRANCH   1  30
ATOM     30  O   UNL     1      -6.134  -0.379   3.011  1.00  0.00    -0.377 OA
BRANCH  30  31
ATOM     31  C   UNL     1      -6.879  -0.703   4.175  1.00  0.00     0.188 C 
BRANCH  31  32
ATOM     32  C   UNL     1      -8.374  -0.322   4.303  1.00  0.00     0.188 C 
BRANCH  32  33
ATOM     33  O   UNL     1      -8.953   0.257   3.155  1.00  0.00    -0.376 OA
BRANCH  33  34
ATOM     34  C   UNL     1      -9.069   1.655   3.007  1.00  0.00     0.202 C 
BRANCH  34  35
ATOM     35  C   UNL     1      -7.994   2.640   3.488  1.00  0.00     0.261 C 
BRANCH  35  36
ATOM     36  O   UNL     1      -7.181   2.256   4.598  1.00  0.00    -0.460 OA
BRANCH  36  37
ATOM     37  C   UNL     1      -7.723   2.349   5.834  1.00  0.00     0.338 C 
ATOM     38  O   UNL     1      -8.851   2.695   6.124  1.00  0.00    -0.246 OA
BRANCH  37  39
ATOM     39  C   UNL     1      -6.742   1.748   6.766  1.00  0.00     0.060 A 
ATOM     40  C   UNL     1      -5.454   2.277   6.845  1.00  0.00     0.016 A 
ATOM     41  C   UNL     1      -7.088   0.605   7.503  1.00  0.00     0.016 A 
ATOM     42  C   UNL     1      -4.518   1.677   7.686  1.00  0.00     0.010 A 
ATOM     43  C   UNL     1      -6.143  -0.005   8.332  1.00  0.00     0.010 A 
ATOM     44  C   UNL     1      -4.861   0.546   8.452  1.00  0.00    -0.014 A 
BRANCH  44  45
ATOM     45  C   UNL     1      -3.938   0.091   9.520  1.00  0.00     0.031 A 
ATOM     46  C   UNL     1      -3.121  -1.156   9.410  1.00  0.00     0.074 A 
ATOM     47  C   UNL     1      -3.852   0.857  10.624  1.00  0.00     0.049 A 
ATOM     48  N   UNL     1      -2.187  -1.595  10.217  1.00  0.00    -0.248 NA
ATOM     49  C   UNL     1      -3.391  -2.031   8.264  1.00  0.00     0.031 C 
ATOM     50  C   UNL     1      -4.646   2.063  10.860  1.00  0.00     0.029 A 
ATOM     51  N   UNL     1      -3.059   0.752  11.737  1.00  0.00    -0.354 N 
ATOM     52  C   UNL     1      -1.742  -2.790   9.670  1.00  0.00     0.074 A 
ATOM     53  C   UNL     1      -2.547  -3.031   8.489  1.00  0.00     0.031 C 
ATOM     54  C   UNL     1      -4.267   2.615  12.019  1.00  0.00     0.029 A 
ATOM     55  C   UNL     1      -3.234   1.781  12.628  1.00  0.00     0.049 A 
ATOM     56  H   UNL     1      -2.427   0.012  11.883  1.00  0.00     0.167 HD
ATOM     57  C   UNL     1      -0.743  -3.594  10.112  1.00  0.00     0.037 A 
ATOM     58  C   UNL     1      -2.630   2.036  13.803  1.00  0.00     0.037 A 
ATOM     59  C   UNL     1       0.035  -3.345  11.303  1.00  0.00     0.049 A 
ATOM     60  C   UNL     1      -1.543   1.119  14.283  1.00  0.00     0.074 A 
ATOM     61  C   UNL     1       1.111  -4.067  11.794  1.00  0.00     0.029 A 
ATOM     62  N   UNL     1      -0.192  -2.313  12.204  1.00  0.00    -0.354 N 
ATOM     63  N   UNL     1      -1.050   0.052  13.704  1.00  0.00    -0.248 NA
ATOM     64  C   UNL     1      -0.922   1.443  15.574  1.00  0.00     0.031 C 
ATOM     65  C   UNL     1       1.478  -3.525  13.029  1.00  0.00     0.029 A 
ATOM     66  C   UNL     1       0.689  -2.412  13.273  1.00  0.00     0.049 A 
ATOM     67  H   UNL     1      -0.877  -1.614  12.101  1.00  0.00     0.167 HD
ATOM     68  C   UNL     1      -0.055  -0.418  14.549  1.00  0.00     0.074 A 
ATOM     69  C   UNL     1       0.001   0.495  15.672  1.00  0.00     0.031 C 
ATOM     70  C   UNL     1       0.735  -1.510  14.400  1.00  0.00     0.037 A 
BRANCH  57  71
ATOM     71  C   UNL     1      -0.434  -4.833   9.316  1.00  0.00     0.064 A 
ATOM     72  C   UNL     1       0.114  -4.764   8.025  1.00  0.00     0.173 A 
ATOM     73  C   UNL     1      -0.623  -6.107   9.875  1.00  0.00     0.173 A 
ATOM     74  F   UNL     1       0.322  -3.573   7.442  1.00  0.00    -0.203 F 
ATOM     75  C   UNL     1       0.426  -5.920   7.313  1.00  0.00     0.198 A 
ATOM     76  C   UNL     1      -0.275  -7.260   9.175  1.00  0.00     0.198 A 
ATOM     77  F   UNL     1      -1.125  -6.236  11.112  1.00  0.00    -0.203 F 
ATOM     78  F   UNL     1       0.902  -5.826   6.064  1.00  0.00    -0.200 F 
ATOM     79  C   UNL     1       0.239  -7.166   7.891  1.00  0.00     0.200 A 
ATOM     80  F   UNL     1      -0.432  -8.462   9.746  1.00  0.00    -0.200 F 
ATOM     81  F   UNL     1       0.554  -8.277   7.210  1.00  0.00    -0.200 F 
ENDBRANCH  57  71
BRANCH  58  82
ATOM     82  C   UNL     1      -3.035   3.244  14.565  1.00  0.00     0.064 A 
ATOM     83  C   UNL     1      -2.190   4.356  14.658  1.00  0.00     0.173 A 
ATOM     84  C   UNL     1      -4.316   3.344  15.130  1.00  0.00     0.173 A 
ATOM     85  F   UNL     1      -0.952   4.302  14.146  1.00  0.00    -0.203 F 
ATOM     86  C   UNL     1      -2.614   5.529  15.279  1.00  0.00     0.198 A 
ATOM     87  C   UNL     1      -4.750   4.527  15.721  1.00  0.00     0.198 A 
ATOM     88  F   UNL     1      -5.165   2.309  15.056  1.00  0.00    -0.203 F 
ATOM     89  F   UNL     1      -1.783   6.576  15.367  1.00  0.00    -0.200 F 
ATOM     90  C   UNL     1      -3.899   5.619  15.796  1.00  0.00     0.200 A 
ATOM     91  F   UNL     1      -6.000   4.617  16.196  1.00  0.00    -0.200 F 
ATOM     92  F   UNL     1      -4.318   6.759  16.361  1.00  0.00    -0.200 F 
ENDBRANCH  58  82
BRANCH  70  93
ATOM     93  C   UNL     1       1.742  -1.798  15.480  1.00  0.00     0.064 A 
ATOM     94  C   UNL     1       1.350  -2.238  16.753  1.00  0.00     0.173 A 
ATOM     95  C   UNL     1       3.118  -1.718  15.213  1.00  0.00     0.173 A 
ATOM     96  F   UNL     1       0.048  -2.319  17.069  1.00  0.00    -0.203 F 
ATOM     97  C   UNL     1       2.295  -2.577  17.719  1.00  0.00     0.198 A 
ATOM     98  C   UNL     1       4.060  -2.093  16.168  1.00  0.00     0.198 A 
ATOM     99  F   UNL     1       3.551  -1.308  14.011  1.00  0.00    -0.203 F 
ATOM    100  F   UNL     1       1.896  -2.962  18.939  1.00  0.00    -0.200 F 
ATOM    101  C   UNL     1       3.648  -2.518  17.421  1.00  0.00     0.200 A 
ATOM    102  F   UNL     1       5.366  -2.054  15.870  1.00  0.00    -0.200 F 
ATOM    103  F   UNL     1       4.555  -2.871  18.342  1.00  0.00    -0.200 F 
ENDBRANCH  70  93
ENDBRANCH  44  45
ENDBRANCH  37  39
ENDBRANCH  36  37
ENDBRANCH  35  36
ENDBRANCH  34  35
ENDBRANCH  33  34
ENDBRANCH  32  33
ENDBRANCH  31  32
ENDBRANCH  30  31
ENDBRANCH   1  30
TORSDOF 24
