REMARK SMILES Cc1ccc(N2CCC[C@@H](Cn3cc(C(=O)OCCOCCOCCOCCOC(=O)c4ccc(-c5c6nc(c(-c7c(F)c(F)c(F)c(F)c7F)c7ccc([nH]7)c(-c7c(F)c(F)c(F)c(F)c7F)c7nc(c(-c8c(F)c(F)c(F)c(F)c8F)c8ccc5[nH]8)C=C7)C=C6)cc4)nn3)C2)nn1
REMARK SMILES IDX 22 1 21 2 20 3 19 4 18 5 17 6 15 7 16 8 14 9 12 10 13 11
REMARK SMILES IDX 96 12 95 13 11 14 10 15 6 16 7 17 97 18 8 19 9 20 5 21 1 22
REMARK SMILES IDX 2 23 3 24 99 25 4 26 98 27 23 28 24 29 25 30 26 31 27 32
REMARK SMILES IDX 28 33 29 34 30 35 31 36 32 37 33 38 94 39 34 40 93 41 35 42
REMARK SMILES IDX 36 43 37 44 87 45 38 46 92 47 86 48 88 49 39 50 91 51 85 52
REMARK SMILES IDX 84 53 40 55 72 56 52 57 71 58 53 59 56 60 70 61 89 62 54 63
REMARK SMILES IDX 55 64 69 66 90 67 57 68 41 69 42 70 50 71 43 72 44 73 48 74
REMARK SMILES IDX 51 75 45 76 46 77 49 78 47 79 73 80 74 81 82 82 75 83 76 84
REMARK SMILES IDX 80 85 83 86 77 87 78 88 81 89 79 90 58 91 59 92 67 93 60 94
REMARK SMILES IDX 61 95 65 96 68 97 62 98 63 99 66 100 64 101
REMARK H PARENT 88 54 56 65
REMARK Flexibility Score: inf
ROOT
ATOM      1  C   UNL     1       4.139  10.099  -3.219  1.00  0.00     0.188 C 
ENDROOT
BRANCH   1   2
ATOM      2  C   UNL     1       3.539  11.465  -2.834  1.00  0.00     0.188 C 
BRANCH   2   3
ATOM      3  O   UNL     1       3.947  12.089  -1.632  1.00  0.00    -0.376 OA
BRANCH   3   4
ATOM      4  C   UNL     1       3.666  11.614  -0.328  1.00  0.00     0.202 C 
BRANCH   4   5
ATOM      5  C   UNL     1       2.699  10.482   0.056  1.00  0.00     0.261 C 
BRANCH   5   6
ATOM      6  O   UNL     1       2.129   9.733  -1.004  1.00  0.00    -0.458 OA
BRANCH   6   7
ATOM      7  C   UNL     1       0.982  10.241  -1.538  1.00  0.00     0.360 C 
ATOM      8  O   UNL     1       0.354  11.176  -1.074  1.00  0.00    -0.244 OA
BRANCH   7   9
ATOM      9  C   UNL     1       0.676   9.585  -2.799  1.00  0.00     0.190 A 
ATOM     10  N   UNL     1       0.464   8.163  -4.402  1.00  0.00    -0.251 N 
ATOM     11  C   UNL     1       1.199   8.402  -3.283  1.00  0.00     0.146 A 
ATOM     12  N   UNL     1      -0.233   9.254  -4.760  1.00  0.00    -0.067 NA
ATOM     13  N   UNL     1      -0.156  10.115  -3.753  1.00  0.00    -0.123 NA
BRANCH  10  14
ATOM     14  C   UNL     1       0.065   6.863  -4.896  1.00  0.00     0.151 C 
BRANCH  14  15
ATOM     15  C   UNL     1      -0.870   6.123  -3.917  1.00  0.00     0.030 C 
ATOM     16  N   UNL     1      -1.044   4.897  -1.852  1.00  0.00    -0.355 N 
ATOM     17  C   UNL     1      -2.063   5.734  -1.243  1.00  0.00     0.118 C 
ATOM     18  C   UNL     1      -0.092   5.568  -2.711  1.00  0.00     0.123 C 
ATOM     19  C   UNL     1      -2.925   6.296  -2.373  1.00  0.00     0.022 C 
ATOM     20  C   UNL     1      -2.078   6.976  -3.454  1.00  0.00     0.009 C 
BRANCH  16  21
ATOM     21  C   UNL     1      -0.604   3.750  -1.225  1.00  0.00     0.151 A 
ATOM     22  C   UNL     1       1.015   0.026  -0.070  1.00  0.00     0.069 C 
ATOM     23  C   UNL     1       0.397   1.333  -0.443  1.00  0.00     0.060 A 
ATOM     24  C   UNL     1      -0.931   1.411  -0.826  1.00  0.00     0.029 A 
ATOM     25  N   UNL     1       1.180   2.430  -0.403  1.00  0.00    -0.154 NA
ATOM     26  C   UNL     1      -1.440   2.645  -1.206  1.00  0.00     0.051 A 
ATOM     27  N   UNL     1       0.678   3.636  -0.816  1.00  0.00    -0.133 NA
ENDBRANCH  16  21
ENDBRANCH  14  15
ENDBRANCH  10  14
ENDBRANCH   7   9
ENDBRANCH   6   7
ENDBRANCH   5   6
ENDBRANCH   4   5
ENDBRANCH   3   4
ENDBRANCH   2   3
ENDBRANCH   1   2
BRANCH   1  28
ATOM     28  O   UNL     1       4.648   9.348  -2.138  1.00  0.00    -0.377 OA
BRANCH  28  29
ATOM     29  C   UNL     1       5.970   9.648  -1.696  1.00  0.00     0.188 C 
BRANCH  29  30
ATOM     30  C   UNL     1       6.678  10.999  -2.021  1.00  0.00     0.188 C 
BRANCH  30  31
ATOM     31  O   UNL     1       6.201  11.703  -3.157  1.00  0.00    -0.376 OA
BRANCH  31  32
ATOM     32  C   UNL     1       6.896  11.814  -4.386  1.00  0.00     0.202 C 
BRANCH  32  33
ATOM     33  C   UNL     1       7.154  10.541  -5.195  1.00  0.00     0.261 C 
BRANCH  33  34
ATOM     34  O   UNL     1       7.489   9.439  -4.378  1.00  0.00    -0.460 OA
BRANCH  34  35
ATOM     35  C   UNL     1       8.672   9.594  -3.755  1.00  0.00     0.338 C 
ATOM     36  O   UNL     1       9.435  10.539  -3.836  1.00  0.00    -0.246 OA
BRANCH  35  37
ATOM     37  C   UNL     1       8.933   8.384  -2.964  1.00  0.00     0.060 A 
ATOM     38  C   UNL     1      10.051   8.498  -2.140  1.00  0.00     0.016 A 
ATOM     39  C   UNL     1       8.555   7.192  -3.588  1.00  0.00     0.016 A 
ATOM     40  C   UNL     1      11.040   7.578  -2.345  1.00  0.00     0.010 A 
ATOM     41  C   UNL     1       9.555   6.298  -3.828  1.00  0.00     0.010 A 
ATOM     42  C   UNL     1      10.811   6.586  -3.304  1.00  0.00    -0.014 A 
BRANCH  42  43
ATOM     43  C   UNL     1      11.939   5.815  -3.744  1.00  0.00     0.031 A 
ATOM     44  C   UNL     1      12.211   4.694  -2.833  1.00  0.00     0.074 A 
ATOM     45  C   UNL     1      12.592   6.103  -4.883  1.00  0.00     0.049 A 
ATOM     46  N   UNL     1      13.182   4.592  -1.991  1.00  0.00    -0.248 NA
ATOM     47  C   UNL     1      11.150   3.687  -2.671  1.00  0.00     0.031 C 
ATOM     48  C   UNL     1      12.236   7.032  -5.958  1.00  0.00     0.029 A 
ATOM     49  N   UNL     1      13.732   5.529  -5.340  1.00  0.00    -0.354 N 
ATOM     50  C   UNL     1      12.948   3.402  -1.318  1.00  0.00     0.074 A 
ATOM     51  C   UNL     1      11.592   3.022  -1.607  1.00  0.00     0.031 C 
ATOM     52  C   UNL     1      13.024   6.791  -7.035  1.00  0.00     0.029 A 
ATOM     53  C   UNL     1      14.019   5.797  -6.673  1.00  0.00     0.049 A 
ATOM     54  H   UNL     1      14.310   4.968  -4.774  1.00  0.00     0.167 HD
ATOM     55  C   UNL     1      13.972   2.679  -0.799  1.00  0.00     0.037 A 
ATOM     56  C   UNL     1      14.953   5.128  -7.396  1.00  0.00     0.037 A 
ATOM     57  C   UNL     1      15.157   3.483  -0.651  1.00  0.00     0.049 A 
ATOM     58  C   UNL     1      15.886   4.505  -6.411  1.00  0.00     0.074 A 
ATOM     59  C   UNL     1      15.485   4.581   0.119  1.00  0.00     0.029 A 
ATOM     60  N   UNL     1      16.088   3.441  -1.660  1.00  0.00    -0.354 N 
ATOM     61  N   UNL     1      16.677   5.191  -5.631  1.00  0.00    -0.248 NA
ATOM     62  C   UNL     1      15.578   3.155  -5.957  1.00  0.00     0.031 C 
ATOM     63  C   UNL     1      16.302   5.396  -0.718  1.00  0.00     0.029 A 
ATOM     64  C   UNL     1      16.477   4.729  -1.931  1.00  0.00     0.049 A 
ATOM     65  H   UNL     1      16.419   2.630  -2.110  1.00  0.00     0.167 HD
ATOM     66  C   UNL     1      16.642   4.528  -4.411  1.00  0.00     0.074 A 
ATOM     67  C   UNL     1      15.989   3.251  -4.689  1.00  0.00     0.031 C 
ATOM     68  C   UNL     1      16.876   5.191  -3.241  1.00  0.00     0.037 A 
BRANCH  55  69
ATOM     69  C   UNL     1      13.979   1.176  -0.769  1.00  0.00     0.064 A 
ATOM     70  C   UNL     1      14.978   0.510  -0.039  1.00  0.00     0.173 A 
ATOM     71  C   UNL     1      13.206   0.361  -1.629  1.00  0.00     0.173 A 
ATOM     72  F   UNL     1      15.793   1.192   0.780  1.00  0.00    -0.203 F 
ATOM     73  C   UNL     1      15.212  -0.858  -0.195  1.00  0.00     0.198 A 
ATOM     74  C   UNL     1      13.400  -1.012  -1.733  1.00  0.00     0.198 A 
ATOM     75  F   UNL     1      12.312   0.867  -2.487  1.00  0.00    -0.203 F 
ATOM     76  F   UNL     1      16.248  -1.429   0.434  1.00  0.00    -0.200 F 
ATOM     77  C   UNL     1      14.422  -1.618  -1.039  1.00  0.00     0.200 A 
ATOM     78  F   UNL     1      12.635  -1.722  -2.575  1.00  0.00    -0.200 F 
ATOM     79  F   UNL     1      14.675  -2.919  -1.224  1.00  0.00    -0.200 F 
ENDBRANCH  55  69
BRANCH  56  80
ATOM     80  C   UNL     1      14.816   4.598  -8.778  1.00  0.00     0.064 A 
ATOM     81  C   UNL     1      15.930   4.046  -9.437  1.00  0.00     0.173 A 
ATOM     82  C   UNL     1      13.557   4.324  -9.347  1.00  0.00     0.173 A 
ATOM     83  F   UNL     1      17.163   4.228  -8.941  1.00  0.00    -0.203 F 
ATOM     84  C   UNL     1      15.787   3.226 -10.561  1.00  0.00     0.198 A 
ATOM     85  C   UNL     1      13.417   3.510 -10.473  1.00  0.00     0.198 A 
ATOM     86  F   UNL     1      12.428   4.752  -8.767  1.00  0.00    -0.203 F 
ATOM     87  F   UNL     1      16.867   2.653 -11.112  1.00  0.00    -0.200 F 
ATOM     88  C   UNL     1      14.530   2.945 -11.068  1.00  0.00     0.200 A 
ATOM     89  F   UNL     1      12.192   3.218 -10.932  1.00  0.00    -0.200 F 
ATOM     90  F   UNL     1      14.386   2.097 -12.096  1.00  0.00    -0.200 F 
ENDBRANCH  56  80
BRANCH  68  91
ATOM     91  C   UNL     1      17.384   6.606  -3.334  1.00  0.00     0.064 A 
ATOM     92  C   UNL     1      16.637   7.673  -3.866  1.00  0.00     0.173 A 
ATOM     93  C   UNL     1      18.601   6.919  -2.718  1.00  0.00     0.173 A 
ATOM     94  F   UNL     1      15.421   7.469  -4.388  1.00  0.00    -0.203 F 
ATOM     95  C   UNL     1      17.105   8.986  -3.807  1.00  0.00     0.198 A 
ATOM     96  C   UNL     1      19.050   8.234  -2.628  1.00  0.00     0.198 A 
ATOM     97  F   UNL     1      19.331   5.949  -2.147  1.00  0.00    -0.203 F 
ATOM     98  F   UNL     1      16.375   9.986  -4.324  1.00  0.00    -0.200 F 
ATOM     99  C   UNL     1      18.307   9.266  -3.179  1.00  0.00     0.200 A 
ATOM    100  F   UNL     1      20.188   8.505  -1.975  1.00  0.00    -0.200 F 
ATOM    101  F   UNL     1      18.735  10.532  -3.076  1.00  0.00    -0.200 F 
ENDBRANCH  68  91
ENDBRANCH  42  43
ENDBRANCH  35  37
ENDBRANCH  34  35
ENDBRANCH  33  34
ENDBRANCH  32  33
ENDBRANCH  31  32
ENDBRANCH  30  31
ENDBRANCH  29  30
ENDBRANCH  28  29
ENDBRANCH   1  28
TORSDOF 23
