REMARK SMILES CC(C)CCc1cc2c(cc1Cl)C=C(C(=O)OCCOCCOCCOCCOC(=O)c1ccc(-c3c4nc(c(-c5c(F)c(F)c(F)c(F)c5F)c5ccc([nH]5)c(-c5c(F)c(F)c(F)c(F)c5F)c5nc(c(-c6c(F)c(F)c(F)c(F)c6F)c6ccc3[nH]6)C=C5)C=C4)cc1)[C@H](C(F)(F)F)O2
REMARK SMILES IDX 22 1 21 2 20 3 19 4 18 5 17 6 15 7 16 8 14 9 6 10 7 11 11 12
REMARK SMILES IDX 8 13 10 14 12 15 9 16 100 17 13 18 95 19 5 20 4 21 2 22 1 23
REMARK SMILES IDX 3 24 96 25 97 26 98 27 99 28 23 29 24 30 25 31 26 32 27 33
REMARK SMILES IDX 28 34 29 35 30 36 31 37 32 38 33 39 94 40 34 41 93 42 35 43
REMARK SMILES IDX 36 44 37 45 87 46 38 47 92 48 86 49 88 50 39 51 91 52 85 53
REMARK SMILES IDX 84 54 40 56 72 57 52 58 71 59 53 60 56 61 70 62 89 63 54 64
REMARK SMILES IDX 55 65 69 67 90 68 57 69 41 70 42 71 50 72 43 73 44 74 48 75
REMARK SMILES IDX 51 76 45 77 46 78 49 79 47 80 73 81 74 82 82 83 75 84 76 85
REMARK SMILES IDX 80 86 83 87 77 88 78 89 81 90 79 91 58 92 59 93 67 94 60 95
REMARK SMILES IDX 61 96 65 97 68 98 62 99 63 100 66 101 64 102
REMARK H PARENT 88 55 56 66
REMARK Flexibility Score: inf
ROOT
ATOM      1  C   UNL     1       1.657   9.342  -1.273  1.00  0.00     0.188 C 
ENDROOT
BRANCH   1   2
ATOM      2  C   UNL     1       1.816   9.609  -2.776  1.00  0.00     0.188 C 
BRANCH   2   3
ATOM      3  O   UNL     1       1.749  10.944  -3.260  1.00  0.00    -0.376 OA
BRANCH   3   4
ATOM      4  C   UNL     1       0.604  11.749  -2.971  1.00  0.00     0.202 C 
BRANCH   4   5
ATOM      5  C   UNL     1      -0.808  11.168  -3.155  1.00  0.00     0.261 C 
BRANCH   5   6
ATOM      6  O   UNL     1      -1.076  10.040  -2.300  1.00  0.00    -0.460 OA
BRANCH   6   7
ATOM      7  C   UNL     1      -1.556   8.944  -2.915  1.00  0.00     0.338 C 
ATOM      8  O   UNL     1      -1.938   8.876  -4.074  1.00  0.00    -0.246 OA
BRANCH   7   9
ATOM      9  C   UNL     1      -1.376   7.746  -2.078  1.00  0.00     0.087 C 
ATOM     10  C   UNL     1      -1.006   2.775  -1.333  1.00  0.00    -0.026 A 
ATOM     11  C   UNL     1      -1.637   3.847  -0.645  1.00  0.00     0.052 A 
ATOM     12  C   UNL     1      -0.208   3.110  -2.439  1.00  0.00     0.045 A 
ATOM     13  C   UNL     1      -1.500   5.176  -1.055  1.00  0.00     0.128 A 
ATOM     14  C   UNL     1       0.017   4.450  -2.774  1.00  0.00     0.032 A 
ATOM     15  Cl  UNL     1       0.442   2.001  -3.590  1.00  0.00    -0.084 Cl
ATOM     16  C   UNL     1      -0.656   5.473  -2.113  1.00  0.00     0.019 A 
ATOM     17  O   UNL     1      -2.294   6.104  -0.442  1.00  0.00    -0.475 OA
ATOM     18  C   UNL     1      -0.629   6.806  -2.670  1.00  0.00     0.027 C 
ATOM     19  C   UNL     1      -2.154   7.515  -0.812  1.00  0.00     0.316 C 
BRANCH  10  20
ATOM     20  C   UNL     1      -1.354   1.395  -0.801  1.00  0.00     0.037 C 
BRANCH  20  21
ATOM     21  C   UNL     1      -0.776   0.102  -1.387  1.00  0.00     0.008 C 
BRANCH  21  22
ATOM     22  C   UNL     1       0.733  -0.120  -1.160  1.00  0.00    -0.017 C 
ATOM     23  C   UNL     1       1.058  -0.503   0.282  1.00  0.00     0.007 C 
ATOM     24  C   UNL     1       1.241  -1.204  -2.118  1.00  0.00     0.007 C 
ENDBRANCH  21  22
ENDBRANCH  20  21
ENDBRANCH  10  20
BRANCH  19  25
ATOM     25  C   UNL     1      -1.639   8.268   0.427  1.00  0.00     0.430 C 
ATOM     26  F   UNL     1      -1.746   9.608   0.296  1.00  0.00    -0.167 F 
ATOM     27  F   UNL     1      -2.374   7.939   1.522  1.00  0.00    -0.167 F 
ATOM     28  F   UNL     1      -0.353   7.968   0.720  1.00  0.00    -0.167 F 
ENDBRANCH  19  25
ENDBRANCH   7   9
ENDBRANCH   6   7
ENDBRANCH   5   6
ENDBRANCH   4   5
ENDBRANCH   3   4
ENDBRANCH   2   3
ENDBRANCH   1   2
BRANCH   1  29
ATOM     29  O   UNL     1       0.921  10.343  -0.608  1.00  0.00    -0.377 OA
BRANCH  29  30
ATOM     30  C   UNL     1       1.638  11.149   0.313  1.00  0.00     0.188 C 
BRANCH  30  31
ATOM     31  C   UNL     1       3.022  11.665  -0.116  1.00  0.00     0.188 C 
BRANCH  31  32
ATOM     32  O   UNL     1       4.109  10.761  -0.185  1.00  0.00    -0.376 OA
BRANCH  32  33
ATOM     33  C   UNL     1       4.499   9.886   0.858  1.00  0.00     0.202 C 
BRANCH  33  34
ATOM     34  C   UNL     1       4.210  10.047   2.361  1.00  0.00     0.261 C 
BRANCH  34  35
ATOM     35  O   UNL     1       3.187  10.946   2.765  1.00  0.00    -0.460 OA
BRANCH  35  36
ATOM     36  C   UNL     1       3.572  12.225   2.985  1.00  0.00     0.338 C 
ATOM     37  O   UNL     1       4.677  12.694   2.852  1.00  0.00    -0.246 OA
BRANCH  36  38
ATOM     38  C   UNL     1       2.344  13.006   3.252  1.00  0.00     0.060 A 
ATOM     39  C   UNL     1       1.432  12.591   4.227  1.00  0.00     0.016 A 
ATOM     40  C   UNL     1       2.115  14.173   2.514  1.00  0.00     0.016 A 
ATOM     41  C   UNL     1       0.314  13.380   4.499  1.00  0.00     0.010 A 
ATOM     42  C   UNL     1       0.993  14.957   2.782  1.00  0.00     0.010 A 
ATOM     43  C   UNL     1       0.108  14.585   3.803  1.00  0.00    -0.014 A 
BRANCH  43  44
ATOM     44  C   UNL     1      -0.904  15.549   4.297  1.00  0.00     0.031 A 
ATOM     45  C   UNL     1      -2.213  15.759   3.607  1.00  0.00     0.074 A 
ATOM     46  C   UNL     1      -0.596  16.255   5.402  1.00  0.00     0.049 A 
ATOM     47  N   UNL     1      -3.226  16.499   3.982  1.00  0.00    -0.248 NA
ATOM     48  C   UNL     1      -2.414  15.061   2.330  1.00  0.00     0.031 C 
ATOM     49  C   UNL     1       0.674  16.160   6.124  1.00  0.00     0.029 A 
ATOM     50  N   UNL     1      -1.320  17.174   6.117  1.00  0.00    -0.354 N 
ATOM     51  C   UNL     1      -4.197  16.338   3.006  1.00  0.00     0.074 A 
ATOM     52  C   UNL     1      -3.630  15.472   1.990  1.00  0.00     0.031 C 
ATOM     53  C   UNL     1       0.625  16.956   7.202  1.00  0.00     0.029 A 
ATOM     54  C   UNL     1      -0.665  17.637   7.231  1.00  0.00     0.049 A 
ATOM     55  H   UNL     1      -2.221  17.473   5.856  1.00  0.00     0.167 HD
ATOM     56  C   UNL     1      -5.451  16.851   2.979  1.00  0.00     0.037 A 
ATOM     57  C   UNL     1      -1.063  18.504   8.180  1.00  0.00     0.037 A 
ATOM     58  C   UNL     1      -5.992  17.729   3.988  1.00  0.00     0.049 A 
ATOM     59  C   UNL     1      -2.443  19.091   8.102  1.00  0.00     0.074 A 
ATOM     60  C   UNL     1      -7.264  18.271   4.066  1.00  0.00     0.029 A 
ATOM     61  N   UNL     1      -5.289  18.208   5.085  1.00  0.00    -0.354 N 
ATOM     62  N   UNL     1      -3.387  18.862   7.222  1.00  0.00    -0.248 NA
ATOM     63  C   UNL     1      -2.818  20.048   9.151  1.00  0.00     0.031 C 
ATOM     64  C   UNL     1      -7.312  19.121   5.174  1.00  0.00     0.029 A 
ATOM     65  C   UNL     1      -6.091  19.063   5.826  1.00  0.00     0.049 A 
ATOM     66  H   UNL     1      -4.358  17.976   5.305  1.00  0.00     0.167 HD
ATOM     67  C   UNL     1      -4.474  19.626   7.621  1.00  0.00     0.074 A 
ATOM     68  C   UNL     1      -4.078  20.315   8.832  1.00  0.00     0.031 C 
ATOM     69  C   UNL     1      -5.689  19.743   7.033  1.00  0.00     0.037 A 
BRANCH  56  70
ATOM     70  C   UNL     1      -6.343  16.469   1.833  1.00  0.00     0.064 A 
ATOM     71  C   UNL     1      -6.857  15.169   1.713  1.00  0.00     0.173 A 
ATOM     72  C   UNL     1      -6.767  17.429   0.901  1.00  0.00     0.173 A 
ATOM     73  F   UNL     1      -6.484  14.212   2.576  1.00  0.00    -0.203 F 
ATOM     74  C   UNL     1      -7.747  14.840   0.693  1.00  0.00     0.198 A 
ATOM     75  C   UNL     1      -7.680  17.104  -0.100  1.00  0.00     0.198 A 
ATOM     76  F   UNL     1      -6.317  18.690   0.976  1.00  0.00    -0.203 F 
ATOM     77  F   UNL     1      -8.200  13.583   0.582  1.00  0.00    -0.200 F 
ATOM     78  C   UNL     1      -8.166  15.809  -0.205  1.00  0.00     0.200 A 
ATOM     79  F   UNL     1      -8.098  18.046  -0.956  1.00  0.00    -0.200 F 
ATOM     80  F   UNL     1      -9.039  15.496  -1.173  1.00  0.00    -0.200 F 
ENDBRANCH  56  70
BRANCH  57  81
ATOM     81  C   UNL     1      -0.151  18.814   9.310  1.00  0.00     0.064 A 
ATOM     82  C   UNL     1      -0.427  18.349  10.602  1.00  0.00     0.173 A 
ATOM     83  C   UNL     1       1.037  19.535   9.114  1.00  0.00     0.173 A 
ATOM     84  F   UNL     1      -1.557  17.667  10.841  1.00  0.00    -0.203 F 
ATOM     85  C   UNL     1       0.447  18.597  11.658  1.00  0.00     0.198 A 
ATOM     86  C   UNL     1       1.924  19.757  10.164  1.00  0.00     0.198 A 
ATOM     87  F   UNL     1       1.351  19.992   7.893  1.00  0.00    -0.203 F 
ATOM     88  F   UNL     1       0.146  18.164  12.890  1.00  0.00    -0.200 F 
ATOM     89  C   UNL     1       1.627  19.292  11.436  1.00  0.00     0.200 A 
ATOM     90  F   UNL     1       3.072  20.411   9.941  1.00  0.00    -0.200 F 
ATOM     91  F   UNL     1       2.476  19.514  12.448  1.00  0.00    -0.200 F 
ENDBRANCH  57  81
BRANCH  69  92
ATOM     92  C   UNL     1      -6.700  20.637   7.693  1.00  0.00     0.064 A 
ATOM     93  C   UNL     1      -6.575  22.034   7.664  1.00  0.00     0.173 A 
ATOM     94  C   UNL     1      -7.850  20.093   8.287  1.00  0.00     0.173 A 
ATOM     95  F   UNL     1      -5.487  22.603   7.122  1.00  0.00    -0.203 F 
ATOM     96  C   UNL     1      -7.559  22.852   8.211  1.00  0.00     0.198 A 
ATOM     97  C   UNL     1      -8.846  20.915   8.806  1.00  0.00     0.198 A 
ATOM     98  F   UNL     1      -8.021  18.764   8.336  1.00  0.00    -0.203 F 
ATOM     99  F   UNL     1      -7.404  24.183   8.199  1.00  0.00    -0.200 F 
ATOM    100  C   UNL     1      -8.699  22.293   8.770  1.00  0.00     0.200 A 
ATOM    101  F   UNL     1      -9.955  20.373   9.329  1.00  0.00    -0.200 F 
ATOM    102  F   UNL     1      -9.656  23.084   9.274  1.00  0.00    -0.200 F 
ENDBRANCH  69  92
ENDBRANCH  43  44
ENDBRANCH  36  38
ENDBRANCH  35  36
ENDBRANCH  34  35
ENDBRANCH  33  34
ENDBRANCH  32  33
ENDBRANCH  31  32
ENDBRANCH  30  31
ENDBRANCH  29  30
ENDBRANCH   1  29
TORSDOF 24
