REMARK SMILES O=C(CCCc1nc(-c2cccc(Cl)c2)no1)OCCOCCOCCOCCOC(=O)c1ccc(-c2c3nc(c(-c4c(F)c(F)c(F)c(F)c4F)c4ccc([nH]4)c(-c4c(F)c(F)c(F)c(F)c4F)c4nc(c(-c5c(F)c(F)c(F)c(F)c5F)c5ccc2[nH]5)C=C4)C=C3)cc1
REMARK SMILES IDX 23 1 22 2 21 3 20 4 19 5 18 6 2 7 1 8 3 9 4 10 5 11 6 12
REMARK SMILES IDX 7 13 17 14 8 15 16 16 9 17 10 18 15 19 11 20 13 21 12 22
REMARK SMILES IDX 14 23 24 24 25 25 26 26 27 27 28 28 29 29 30 30 31 31 32 32
REMARK SMILES IDX 33 33 34 34 95 35 35 36 94 37 36 38 37 39 38 40 88 41 39 42
REMARK SMILES IDX 93 43 87 44 89 45 40 46 92 47 86 48 85 49 41 51 73 52 53 53
REMARK SMILES IDX 72 54 54 55 57 56 71 57 90 58 55 59 56 60 70 62 91 63 58 64
REMARK SMILES IDX 42 65 43 66 51 67 44 68 45 69 49 70 52 71 46 72 47 73 50 74
REMARK SMILES IDX 48 75 74 76 75 77 83 78 76 79 77 80 81 81 84 82 78 83 79 84
REMARK SMILES IDX 82 85 80 86 59 87 60 88 68 89 61 90 62 91 66 92 69 93 63 94
REMARK SMILES IDX 64 95 67 96 65 97
REMARK H PARENT 89 50 57 61
REMARK Flexibility Score: inf
ROOT
ATOM      1  C   UNL     1       1.809  -0.357   2.499  1.00  0.00     0.188 C 
ENDROOT
BRANCH   1   2
ATOM      2  C   UNL     1       2.379  -0.704   1.115  1.00  0.00     0.188 C 
BRANCH   2   3
ATOM      3  O   UNL     1       3.552   0.019   0.694  1.00  0.00    -0.376 OA
BRANCH   3   4
ATOM      4  C   UNL     1       3.456   1.435   0.835  1.00  0.00     0.202 C 
BRANCH   4   5
ATOM      5  C   UNL     1       3.868   2.220  -0.412  1.00  0.00     0.261 C 
BRANCH   5   6
ATOM      6  O   UNL     1       3.813   1.524  -1.659  1.00  0.00    -0.463 OA
BRANCH   6   7
ATOM      7  C   UNL     1       2.805   0.649  -1.857  1.00  0.00     0.305 C 
ATOM      8  O   UNL     1       1.635   0.866  -1.573  1.00  0.00    -0.252 OA
BRANCH   7   9
ATOM      9  C   UNL     1       3.356  -0.691  -2.310  1.00  0.00     0.123 C 
BRANCH   9  10
ATOM     10  C   UNL     1       4.671  -0.651  -3.099  1.00  0.00     0.022 C 
BRANCH  10  11
ATOM     11  C   UNL     1       5.945  -0.138  -2.404  1.00  0.00     0.101 C 
BRANCH  11  12
ATOM     12  C   UNL     1       6.341  -0.854  -1.168  1.00  0.00     0.226 A 
ATOM     13  N   UNL     1       6.474  -2.140  -0.944  1.00  0.00    -0.191 NA
ATOM     14  O   UNL     1       6.758  -0.081  -0.122  1.00  0.00    -0.339 OA
ATOM     15  C   UNL     1       6.975  -2.171   0.342  1.00  0.00     0.202 A 
ATOM     16  N   UNL     1       7.178  -0.957   0.880  1.00  0.00    -0.057 NA
BRANCH  15  17
ATOM     17  C   UNL     1       7.236  -3.426   1.034  1.00  0.00     0.024 A 
ATOM     18  C   UNL     1       7.442  -4.600   0.292  1.00  0.00     0.012 A 
ATOM     19  C   UNL     1       7.253  -3.498   2.433  1.00  0.00     0.032 A 
ATOM     20  C   UNL     1       7.624  -5.827   0.934  1.00  0.00     0.002 A 
ATOM     21  C   UNL     1       7.420  -4.729   3.068  1.00  0.00     0.041 A 
ATOM     22  C   UNL     1       7.595  -5.894   2.325  1.00  0.00     0.020 A 
ATOM     23  Cl  UNL     1       7.404  -4.819   4.786  1.00  0.00    -0.084 Cl
ENDBRANCH  15  17
ENDBRANCH  11  12
ENDBRANCH  10  11
ENDBRANCH   9  10
ENDBRANCH   7   9
ENDBRANCH   6   7
ENDBRANCH   5   6
ENDBRANCH   4   5
ENDBRANCH   3   4
ENDBRANCH   2   3
ENDBRANCH   1   2
BRANCH   1  24
ATOM     24  O   UNL     1       2.634   0.517   3.248  1.00  0.00    -0.377 OA
BRANCH  24  25
ATOM     25  C   UNL     1       3.783  -0.026   3.881  1.00  0.00     0.188 C 
BRANCH  25  26
ATOM     26  C   UNL     1       4.413  -1.347   3.410  1.00  0.00     0.188 C 
BRANCH  26  27
ATOM     27  O   UNL     1       3.483  -2.425   3.314  1.00  0.00    -0.376 OA
BRANCH  27  28
ATOM     28  C   UNL     1       3.579  -3.435   4.312  1.00  0.00     0.202 C 
BRANCH  28  29
ATOM     29  C   UNL     1       2.833  -3.083   5.604  1.00  0.00     0.261 C 
BRANCH  29  30
ATOM     30  O   UNL     1       3.319  -1.903   6.264  1.00  0.00    -0.460 OA
BRANCH  30  31
ATOM     31  C   UNL     1       4.588  -1.935   6.724  1.00  0.00     0.338 C 
ATOM     32  O   UNL     1       5.324  -2.905   6.763  1.00  0.00    -0.246 OA
BRANCH  31  33
ATOM     33  C   UNL     1       5.030  -0.545   6.997  1.00  0.00     0.060 A 
ATOM     34  C   UNL     1       6.315  -0.164   6.588  1.00  0.00     0.016 A 
ATOM     35  C   UNL     1       4.186   0.384   7.616  1.00  0.00     0.016 A 
ATOM     36  C   UNL     1       6.789   1.118   6.876  1.00  0.00     0.010 A 
ATOM     37  C   UNL     1       4.659   1.668   7.905  1.00  0.00     0.010 A 
ATOM     38  C   UNL     1       5.986   2.015   7.595  1.00  0.00    -0.014 A 
BRANCH  38  39
ATOM     39  C   UNL     1       6.635   3.146   8.307  1.00  0.00     0.031 A 
ATOM     40  C   UNL     1       7.066   2.902   9.732  1.00  0.00     0.074 A 
ATOM     41  C   UNL     1       6.879   4.332   7.723  1.00  0.00     0.049 A 
ATOM     42  N   UNL     1       7.676   3.697  10.573  1.00  0.00    -0.248 NA
ATOM     43  C   UNL     1       6.758   1.571  10.283  1.00  0.00     0.031 C 
ATOM     44  C   UNL     1       6.540   4.689   6.349  1.00  0.00     0.029 A 
ATOM     45  N   UNL     1       7.481   5.459   8.227  1.00  0.00    -0.354 N 
ATOM     46  C   UNL     1       7.819   2.964  11.744  1.00  0.00     0.074 A 
ATOM     47  C   UNL     1       7.197   1.679  11.525  1.00  0.00     0.031 C 
ATOM     48  C   UNL     1       6.943   5.953   6.117  1.00  0.00     0.029 A 
ATOM     49  C   UNL     1       7.553   6.497   7.331  1.00  0.00     0.049 A 
ATOM     50  H   UNL     1       7.830   5.517   9.146  1.00  0.00     0.167 HD
ATOM     51  C   UNL     1       8.429   3.318  12.899  1.00  0.00     0.037 A 
ATOM     52  C   UNL     1       8.054   7.739   7.482  1.00  0.00     0.037 A 
ATOM     53  C   UNL     1       9.051   4.593  13.122  1.00  0.00     0.049 A 
ATOM     54  C   UNL     1       8.684   8.131   8.798  1.00  0.00     0.074 A 
ATOM     55  C   UNL     1       9.709   5.048  14.251  1.00  0.00     0.029 A 
ATOM     56  N   UNL     1       9.083   5.623  12.195  1.00  0.00    -0.354 N 
ATOM     57  N   UNL     1       8.857   7.417   9.884  1.00  0.00    -0.248 NA
ATOM     58  C   UNL     1       9.202   9.504   8.900  1.00  0.00     0.031 C 
ATOM     59  C   UNL     1      10.097   6.372  14.024  1.00  0.00     0.029 A 
ATOM     60  C   UNL     1       9.733   6.721  12.733  1.00  0.00     0.049 A 
ATOM     61  H   UNL     1       8.700   5.581  11.289  1.00  0.00     0.167 HD
ATOM     62  C   UNL     1       9.541   8.234  10.777  1.00  0.00     0.074 A 
ATOM     63  C   UNL     1       9.755   9.498  10.105  1.00  0.00     0.031 C 
ATOM     64  C   UNL     1       9.961   7.962  12.038  1.00  0.00     0.037 A 
BRANCH  51  65
ATOM     65  C   UNL     1       8.421   2.314  14.013  1.00  0.00     0.064 A 
ATOM     66  C   UNL     1       9.179   1.134  13.951  1.00  0.00     0.173 A 
ATOM     67  C   UNL     1       7.638   2.533  15.156  1.00  0.00     0.173 A 
ATOM     68  F   UNL     1       9.926   0.867  12.869  1.00  0.00    -0.203 F 
ATOM     69  C   UNL     1       9.126   0.195  14.978  1.00  0.00     0.198 A 
ATOM     70  C   UNL     1       7.613   1.607  16.195  1.00  0.00     0.198 A 
ATOM     71  F   UNL     1       6.893   3.643  15.264  1.00  0.00    -0.203 F 
ATOM     72  F   UNL     1       9.810  -0.952  14.870  1.00  0.00    -0.200 F 
ATOM     73  C   UNL     1       8.349   0.435  16.101  1.00  0.00     0.200 A 
ATOM     74  F   UNL     1       6.868   1.844  17.283  1.00  0.00    -0.200 F 
ATOM     75  F   UNL     1       8.299  -0.469  17.089  1.00  0.00    -0.200 F 
ENDBRANCH  51  65
BRANCH  52  76
ATOM     76  C   UNL     1       8.009   8.710   6.355  1.00  0.00     0.064 A 
ATOM     77  C   UNL     1       9.186   9.133   5.719  1.00  0.00     0.173 A 
ATOM     78  C   UNL     1       6.798   9.268   5.921  1.00  0.00     0.173 A 
ATOM     79  F   UNL     1      10.373   8.653   6.118  1.00  0.00    -0.203 F 
ATOM     80  C   UNL     1       9.154  10.093   4.708  1.00  0.00     0.198 A 
ATOM     81  C   UNL     1       6.766  10.207   4.891  1.00  0.00     0.198 A 
ATOM     82  F   UNL     1       5.645   8.904   6.500  1.00  0.00    -0.203 F 
ATOM     83  F   UNL     1      10.299  10.518   4.156  1.00  0.00    -0.200 F 
ATOM     84  C   UNL     1       7.944  10.625   4.292  1.00  0.00     0.200 A 
ATOM     85  F   UNL     1       5.593  10.714   4.487  1.00  0.00    -0.200 F 
ATOM     86  F   UNL     1       7.914  11.550   3.322  1.00  0.00    -0.200 F 
ENDBRANCH  52  76
BRANCH  64  87
ATOM     87  C   UNL     1      10.756   9.019  12.751  1.00  0.00     0.064 A 
ATOM     88  C   UNL     1      10.171  10.206  13.213  1.00  0.00     0.173 A 
ATOM     89  C   UNL     1      12.121   8.816  13.011  1.00  0.00     0.173 A 
ATOM     90  F   UNL     1       8.872  10.454  12.981  1.00  0.00    -0.203 F 
ATOM     91  C   UNL     1      10.929  11.166  13.879  1.00  0.00     0.198 A 
ATOM     92  C   UNL     1      12.868   9.762  13.707  1.00  0.00     0.198 A 
ATOM     93  F   UNL     1      12.728   7.691  12.602  1.00  0.00    -0.203 F 
ATOM     94  F   UNL     1      10.360  12.316  14.265  1.00  0.00    -0.200 F 
ATOM     95  C   UNL     1      12.274  10.940  14.132  1.00  0.00     0.200 A 
ATOM     96  F   UNL     1      14.163   9.534  13.965  1.00  0.00    -0.200 F 
ATOM     97  F   UNL     1      13.000  11.862  14.779  1.00  0.00    -0.200 F 
ENDBRANCH  64  87
ENDBRANCH  38  39
ENDBRANCH  31  33
ENDBRANCH  30  31
ENDBRANCH  29  30
ENDBRANCH  28  29
ENDBRANCH  27  28
ENDBRANCH  26  27
ENDBRANCH  25  26
ENDBRANCH  24  25
ENDBRANCH   1  24
TORSDOF 24
