REMARK SMILES CCc1c(C(=O)NCC(=O)OCCOCCOCCOCCOC(=O)c2ccc(-c3c4nc(c(-c5c(F)c(F)c(F)c(F)c5F)c5ccc([nH]5)c(-c5c(F)c(F)c(F)c(F)c5F)c5nc(c(-c6c(F)c(F)c(F)c(F)c6F)c6ccc3[nH]6)C=C5)C=C4)cc2)nnn1-c1ccc(Cl)cc1
REMARK SMILES IDX 16 1 15 2 14 3 13 4 12 5 11 6 9 7 10 8 8 9 7 10 5 11 6 12
REMARK SMILES IDX 4 14 3 15 91 16 89 17 90 18 2 19 1 20 92 21 93 22 98 23
REMARK SMILES IDX 94 24 97 25 95 26 96 27 17 28 18 29 19 30 20 31 21 32 22 33
REMARK SMILES IDX 23 34 24 35 25 36 26 37 27 38 88 39 28 40 87 41 29 42 30 43
REMARK SMILES IDX 31 44 81 45 32 46 86 47 80 48 82 49 33 50 85 51 79 52 78 53
REMARK SMILES IDX 34 55 66 56 46 57 65 58 47 59 50 60 64 61 83 62 48 63 49 64
REMARK SMILES IDX 63 66 84 67 51 68 35 69 36 70 44 71 37 72 38 73 42 74 45 75
REMARK SMILES IDX 39 76 40 77 43 78 41 79 67 80 68 81 76 82 69 83 70 84 74 85
REMARK SMILES IDX 77 86 71 87 72 88 75 89 73 90 52 91 53 92 61 93 54 94 55 95
REMARK SMILES IDX 59 96 62 97 56 98 57 99 60 100 58 101
REMARK H PARENT 7 13 82 54 50 65
REMARK Flexibility Score: inf
ROOT
ATOM      1  C   UNL     1      -3.422   1.611  -1.550  1.00  0.00     0.188 C 
ENDROOT
BRANCH   1   2
ATOM      2  C   UNL     1      -3.302   0.145  -2.016  1.00  0.00     0.188 C 
BRANCH   2   3
ATOM      3  O   UNL     1      -4.079  -0.893  -1.428  1.00  0.00    -0.376 OA
BRANCH   3   4
ATOM      4  C   UNL     1      -4.411  -0.884  -0.047  1.00  0.00     0.202 C 
BRANCH   4   5
ATOM      5  C   UNL     1      -3.279  -0.903   0.986  1.00  0.00     0.261 C 
BRANCH   5   6
ATOM      6  O   UNL     1      -2.337   0.175   0.850  1.00  0.00    -0.462 OA
BRANCH   6   7
ATOM      7  C   UNL     1      -1.172  -0.139   0.228  1.00  0.00     0.325 C 
ATOM      8  O   UNL     1      -0.857  -1.262  -0.153  1.00  0.00    -0.250 OA
BRANCH   7   9
ATOM      9  C   UNL     1      -0.331   1.096  -0.110  1.00  0.00     0.239 C 
BRANCH   9  10
ATOM     10  N   UNL     1      -0.582   2.312   0.620  1.00  0.00    -0.340 N 
ATOM     11  C   UNL     1       0.044   2.921   1.669  1.00  0.00     0.274 C 
ATOM     12  O   UNL     1      -0.330   4.085   1.853  1.00  0.00    -0.267 OA
ATOM     13  H   UNL     1      -1.369   2.806   0.296  1.00  0.00     0.164 HD
BRANCH  11  14
ATOM     14  C   UNL     1       1.045   2.310   2.559  1.00  0.00     0.174 A 
ATOM     15  C   UNL     1       1.681   1.070   2.706  1.00  0.00     0.077 A 
ATOM     16  N   UNL     1       2.374   1.196   3.912  1.00  0.00    -0.217 N 
ATOM     17  N   UNL     1       1.427   3.103   3.629  1.00  0.00    -0.124 NA
ATOM     18  N   UNL     1       2.148   2.393   4.469  1.00  0.00    -0.061 NA
BRANCH  15  19
ATOM     19  C   UNL     1       1.586  -0.257   2.023  1.00  0.00     0.055 C 
ATOM     20  C   UNL     1       2.501  -0.411   0.812  1.00  0.00     0.011 C 
ENDBRANCH  15  19
BRANCH  16  21
ATOM     21  C   UNL     1       3.056   0.193   4.637  1.00  0.00     0.067 A 
ATOM     22  C   UNL     1       2.735  -0.000   5.986  1.00  0.00     0.030 A 
ATOM     23  C   UNL     1       3.965  -0.656   3.998  1.00  0.00     0.030 A 
ATOM     24  C   UNL     1       3.256  -1.105   6.662  1.00  0.00     0.023 A 
ATOM     25  C   UNL     1       4.487  -1.754   4.678  1.00  0.00     0.023 A 
ATOM     26  C   UNL     1       4.116  -1.984   6.001  1.00  0.00     0.041 A 
ATOM     27  Cl  UNL     1       4.718  -3.370   6.821  1.00  0.00    -0.084 Cl
ENDBRANCH  16  21
ENDBRANCH  11  14
ENDBRANCH   9  10
ENDBRANCH   7   9
ENDBRANCH   6   7
ENDBRANCH   5   6
ENDBRANCH   4   5
ENDBRANCH   3   4
ENDBRANCH   2   3
ENDBRANCH   1   2
BRANCH   1  28
ATOM     28  O   UNL     1      -4.298   1.831  -0.466  1.00  0.00    -0.377 OA
BRANCH  28  29
ATOM     29  C   UNL     1      -5.574   2.346  -0.828  1.00  0.00     0.188 C 
BRANCH  29  30
ATOM     30  C   UNL     1      -6.316   1.648  -1.991  1.00  0.00     0.188 C 
BRANCH  30  31
ATOM     31  O   UNL     1      -5.535   1.466  -3.174  1.00  0.00    -0.376 OA
BRANCH  31  32
ATOM     32  C   UNL     1      -5.774   2.311  -4.293  1.00  0.00     0.202 C 
BRANCH  32  33
ATOM     33  C   UNL     1      -5.051   3.661  -4.231  1.00  0.00     0.261 C 
BRANCH  33  34
ATOM     34  O   UNL     1      -5.366   4.429  -3.075  1.00  0.00    -0.460 OA
BRANCH  34  35
ATOM     35  C   UNL     1      -6.676   4.711  -2.921  1.00  0.00     0.338 C 
ATOM     36  O   UNL     1      -7.590   4.382  -3.653  1.00  0.00    -0.246 OA
BRANCH  35  37
ATOM     37  C   UNL     1      -6.863   5.547  -1.731  1.00  0.00     0.060 A 
ATOM     38  C   UNL     1      -8.187   5.837  -1.406  1.00  0.00     0.016 A 
ATOM     39  C   UNL     1      -5.781   6.229  -1.152  1.00  0.00     0.016 A 
ATOM     40  C   UNL     1      -8.440   7.010  -0.743  1.00  0.00     0.010 A 
ATOM     41  C   UNL     1      -6.035   7.399  -0.475  1.00  0.00     0.010 A 
ATOM     42  C   UNL     1      -7.356   7.830  -0.410  1.00  0.00    -0.014 A 
BRANCH  42  43
ATOM     43  C   UNL     1      -7.671   9.223  -0.190  1.00  0.00     0.031 A 
ATOM     44  C   UNL     1      -8.297   9.544   1.101  1.00  0.00     0.074 A 
ATOM     45  C   UNL     1      -7.430  10.143  -1.143  1.00  0.00     0.049 A 
ATOM     46  N   UNL     1      -9.464  10.055   1.310  1.00  0.00    -0.248 NA
ATOM     47  C   UNL     1      -7.558   9.173   2.312  1.00  0.00     0.031 C 
ATOM     48  C   UNL     1      -6.601  10.006  -2.345  1.00  0.00     0.029 A 
ATOM     49  N   UNL     1      -7.815  11.446  -1.174  1.00  0.00    -0.354 N 
ATOM     50  C   UNL     1      -9.550  10.227   2.685  1.00  0.00     0.074 A 
ATOM     51  C   UNL     1      -8.407   9.566   3.261  1.00  0.00     0.031 C 
ATOM     52  C   UNL     1      -6.370  11.233  -2.861  1.00  0.00     0.029 A 
ATOM     53  C   UNL     1      -7.131  12.211  -2.101  1.00  0.00     0.049 A 
ATOM     54  H   UNL     1      -8.518  11.813  -0.589  1.00  0.00     0.167 HD
ATOM     55  C   UNL     1     -10.445  11.088   3.234  1.00  0.00     0.037 A 
ATOM     56  C   UNL     1      -7.120  13.562  -2.167  1.00  0.00     0.037 A 
ATOM     57  C   UNL     1     -11.551  11.355   2.354  1.00  0.00     0.049 A 
ATOM     58  C   UNL     1      -8.308  14.066  -1.434  1.00  0.00     0.074 A 
ATOM     59  C   UNL     1     -12.522  10.572   1.757  1.00  0.00     0.029 A 
ATOM     60  N   UNL     1     -11.612  12.566   1.712  1.00  0.00    -0.354 N 
ATOM     61  N   UNL     1      -9.538  13.948  -1.851  1.00  0.00    -0.248 NA
ATOM     62  C   UNL     1      -8.159  14.373  -0.018  1.00  0.00     0.031 C 
ATOM     63  C   UNL     1     -12.792  11.192   0.503  1.00  0.00     0.029 A 
ATOM     64  C   UNL     1     -11.974  12.318   0.413  1.00  0.00     0.049 A 
ATOM     65  H   UNL     1     -11.429  13.448   2.110  1.00  0.00     0.167 HD
ATOM     66  C   UNL     1     -10.287  13.758  -0.698  1.00  0.00     0.074 A 
ATOM     67  C   UNL     1      -9.407  14.146   0.397  1.00  0.00     0.031 C 
ATOM     68  C   UNL     1     -11.447  13.039  -0.721  1.00  0.00     0.037 A 
BRANCH  55  69
ATOM     69  C   UNL     1     -10.130  11.932   4.438  1.00  0.00     0.064 A 
ATOM     70  C   UNL     1     -11.164  12.643   5.073  1.00  0.00     0.173 A 
ATOM     71  C   UNL     1      -8.816  12.293   4.810  1.00  0.00     0.173 A 
ATOM     72  F   UNL     1     -12.447  12.402   4.767  1.00  0.00    -0.203 F 
ATOM     73  C   UNL     1     -10.897  13.682   5.968  1.00  0.00     0.198 A 
ATOM     74  C   UNL     1      -8.556  13.289   5.747  1.00  0.00     0.198 A 
ATOM     75  F   UNL     1      -7.738  11.780   4.204  1.00  0.00    -0.203 F 
ATOM     76  F   UNL     1     -11.908  14.414   6.454  1.00  0.00    -0.200 F 
ATOM     77  C   UNL     1      -9.594  14.005   6.302  1.00  0.00     0.200 A 
ATOM     78  F   UNL     1      -7.285  13.601   6.042  1.00  0.00    -0.200 F 
ATOM     79  F   UNL     1      -9.336  15.037   7.115  1.00  0.00    -0.200 F 
ENDBRANCH  55  69
BRANCH  56  80
ATOM     80  C   UNL     1      -5.993  14.430  -2.572  1.00  0.00     0.064 A 
ATOM     81  C   UNL     1      -6.201  15.774  -2.914  1.00  0.00     0.173 A 
ATOM     82  C   UNL     1      -4.653  14.027  -2.398  1.00  0.00     0.173 A 
ATOM     83  F   UNL     1      -7.447  16.251  -3.045  1.00  0.00    -0.203 F 
ATOM     84  C   UNL     1      -5.133  16.664  -3.064  1.00  0.00     0.198 A 
ATOM     85  C   UNL     1      -3.588  14.911  -2.565  1.00  0.00     0.198 A 
ATOM     86  F   UNL     1      -4.351  12.791  -1.975  1.00  0.00    -0.203 F 
ATOM     87  F   UNL     1      -5.372  17.955  -3.333  1.00  0.00    -0.200 F 
ATOM     88  C   UNL     1      -3.828  16.232  -2.886  1.00  0.00     0.200 A 
ATOM     89  F   UNL     1      -2.333  14.486  -2.357  1.00  0.00    -0.200 F 
ATOM     90  F   UNL     1      -2.808  17.096  -2.983  1.00  0.00    -0.200 F 
ENDBRANCH  56  80
BRANCH  68  91
ATOM     91  C   UNL     1     -12.050  12.737  -2.060  1.00  0.00     0.064 A 
ATOM     92  C   UNL     1     -11.425  11.927  -3.025  1.00  0.00     0.173 A 
ATOM     93  C   UNL     1     -13.355  13.172  -2.325  1.00  0.00     0.173 A 
ATOM     94  F   UNL     1     -10.221  11.386  -2.793  1.00  0.00    -0.203 F 
ATOM     95  C   UNL     1     -12.062  11.616  -4.224  1.00  0.00     0.198 A 
ATOM     96  C   UNL     1     -14.002  12.829  -3.509  1.00  0.00     0.198 A 
ATOM     97  F   UNL     1     -14.022  13.894  -1.411  1.00  0.00    -0.203 F 
ATOM     98  F   UNL     1     -11.441  10.855  -5.137  1.00  0.00    -0.200 F 
ATOM     99  C   UNL     1     -13.351  12.063  -4.463  1.00  0.00     0.200 A 
ATOM    100  F   UNL     1     -15.268  13.221  -3.715  1.00  0.00    -0.200 F 
ATOM    101  F   UNL     1     -13.978  11.733  -5.601  1.00  0.00    -0.200 F 
ENDBRANCH  68  91
ENDBRANCH  42  43
ENDBRANCH  35  37
ENDBRANCH  34  35
ENDBRANCH  33  34
ENDBRANCH  32  33
ENDBRANCH  31  32
ENDBRANCH  30  31
ENDBRANCH  29  30
ENDBRANCH  28  29
ENDBRANCH   1  28
TORSDOF 24
