REMARK SMILES CCC[C@H](NC(=O)c1cc2ccccc2[nH]1)C(=O)OCCOCCOCCOCCOC(=O)c1ccc(-c2c3nc(c(-c4c(F)c(F)c(F)c(F)c4F)c4ccc([nH]4)c(-c4c(F)c(F)c(F)c(F)c4F)c4nc(c(-c5c(F)c(F)c(F)c(F)c5F)c5ccc2[nH]5)C=C4)C=C3)cc1
REMARK SMILES IDX 25 1 24 2 23 3 22 4 21 5 20 6 19 7 17 8 18 9 4 10 3 11 2 12
REMARK SMILES IDX 1 13 5 14 6 15 7 17 8 18 9 19 16 20 10 21 15 22 11 24 14 25
REMARK SMILES IDX 12 26 13 27 26 28 27 29 28 30 29 31 30 32 31 33 32 34 33 35
REMARK SMILES IDX 34 36 35 37 96 38 36 39 95 40 37 41 38 42 39 43 89 44 40 45
REMARK SMILES IDX 94 46 88 47 90 48 41 49 93 50 87 51 86 52 42 54 74 55 54 56
REMARK SMILES IDX 73 57 55 58 58 59 72 60 91 61 56 62 57 63 71 65 92 66 59 67
REMARK SMILES IDX 43 68 44 69 52 70 45 71 46 72 50 73 53 74 47 75 48 76 51 77
REMARK SMILES IDX 49 78 75 79 76 80 84 81 77 82 78 83 82 84 85 85 79 86 80 87
REMARK SMILES IDX 83 88 81 89 60 90 61 91 69 92 62 93 63 94 67 95 70 96 64 97
REMARK SMILES IDX 65 98 68 99 66 100
REMARK H PARENT 5 16 16 23 90 53 58 64
REMARK Flexibility Score: inf
ROOT
ATOM      1  O   UNL     1       3.709  -3.789  -2.542  1.00  0.00    -0.377 OA
ENDROOT
BRANCH   1   2
ATOM      2  C   UNL     1       2.894  -3.721  -1.387  1.00  0.00     0.188 C 
BRANCH   2   3
ATOM      3  C   UNL     1       3.151  -4.760  -0.285  1.00  0.00     0.188 C 
BRANCH   3   4
ATOM      4  O   UNL     1       3.089  -6.097  -0.769  1.00  0.00    -0.376 OA
BRANCH   4   5
ATOM      5  C   UNL     1       1.919  -6.874  -0.583  1.00  0.00     0.202 C 
BRANCH   5   6
ATOM      6  C   UNL     1       0.657  -6.494  -1.384  1.00  0.00     0.261 C 
BRANCH   6   7
ATOM      7  O   UNL     1       0.241  -5.119  -1.331  1.00  0.00    -0.462 OA
BRANCH   7   8
ATOM      8  C   UNL     1      -0.065  -4.655  -0.097  1.00  0.00     0.328 C 
ATOM      9  O   UNL     1      -0.041  -5.356   0.908  1.00  0.00    -0.250 OA
BRANCH   8  10
ATOM     10  C   UNL     1      -0.496  -3.171  -0.087  1.00  0.00     0.192 C 
BRANCH  10  11
ATOM     11  C   UNL     1      -2.023  -3.094   0.028  1.00  0.00     0.037 C 
BRANCH  11  12
ATOM     12  C   UNL     1      -2.637  -3.967   1.125  1.00  0.00    -0.001 C 
ATOM     13  C   UNL     1      -2.065  -3.713   2.514  1.00  0.00     0.004 C 
ENDBRANCH  11  12
ENDBRANCH  10  11
BRANCH  10  14
ATOM     14  N   UNL     1      -0.029  -2.360  -1.226  1.00  0.00    -0.337 N 
ATOM     15  C   UNL     1       0.109  -0.994  -1.326  1.00  0.00     0.268 C 
ATOM     16  H   UNL     1       0.221  -2.869  -2.031  1.00  0.00     0.164 HD
ATOM     17  O   UNL     1       0.553  -0.518  -2.366  1.00  0.00    -0.268 OA
BRANCH  15  18
ATOM     18  C   UNL     1      -0.382  -0.192  -0.236  1.00  0.00     0.105 A 
ATOM     19  C   UNL     1      -1.389   0.757  -0.286  1.00  0.00     0.042 A 
ATOM     20  N   UNL     1       0.040  -0.236   1.072  1.00  0.00    -0.351 N 
ATOM     21  C   UNL     1      -1.780   1.041   1.049  1.00  0.00     0.000 A 
ATOM     22  C   UNL     1      -0.882   0.382   1.886  1.00  0.00     0.046 A 
ATOM     23  H   UNL     1       0.878  -0.650   1.381  1.00  0.00     0.167 HD
ATOM     24  C   UNL     1      -2.846   1.756   1.622  1.00  0.00     0.010 A 
ATOM     25  C   UNL     1      -0.997   0.397   3.280  1.00  0.00     0.026 A 
ATOM     26  C   UNL     1      -2.996   1.756   3.013  1.00  0.00     0.001 A 
ATOM     27  C   UNL     1      -2.085   1.085   3.827  1.00  0.00     0.002 A 
ENDBRANCH  15  18
ENDBRANCH  10  14
ENDBRANCH   8  10
ENDBRANCH   7   8
ENDBRANCH   6   7
ENDBRANCH   5   6
ENDBRANCH   4   5
ENDBRANCH   3   4
ENDBRANCH   2   3
ENDBRANCH   1   2
BRANCH   1  28
ATOM     28  C   UNL     1       3.757  -5.064  -3.161  1.00  0.00     0.188 C 
BRANCH  28  29
ATOM     29  C   UNL     1       5.034  -5.846  -2.807  1.00  0.00     0.188 C 
BRANCH  29  30
ATOM     30  O   UNL     1       6.032  -5.263  -1.986  1.00  0.00    -0.376 OA
BRANCH  30  31
ATOM     31  C   UNL     1       6.370  -3.888  -2.068  1.00  0.00     0.202 C 
BRANCH  31  32
ATOM     32  C   UNL     1       6.401  -3.068  -3.378  1.00  0.00     0.261 C 
BRANCH  32  33
ATOM     33  O   UNL     1       5.730  -3.576  -4.532  1.00  0.00    -0.460 OA
BRANCH  33  34
ATOM     34  C   UNL     1       6.401  -4.458  -5.300  1.00  0.00     0.338 C 
ATOM     35  O   UNL     1       7.528  -4.889  -5.131  1.00  0.00    -0.246 OA
BRANCH  34  36
ATOM     36  C   UNL     1       5.448  -4.959  -6.316  1.00  0.00     0.060 A 
ATOM     37  C   UNL     1       5.152  -6.329  -6.362  1.00  0.00     0.016 A 
ATOM     38  C   UNL     1       4.820  -4.071  -7.193  1.00  0.00     0.016 A 
ATOM     39  C   UNL     1       4.240  -6.819  -7.297  1.00  0.00     0.010 A 
ATOM     40  C   UNL     1       3.939  -4.567  -8.155  1.00  0.00     0.010 A 
ATOM     41  C   UNL     1       3.670  -5.946  -8.230  1.00  0.00    -0.014 A 
BRANCH  41  42
ATOM     42  C   UNL     1       3.000  -6.488  -9.433  1.00  0.00     0.031 A 
ATOM     43  C   UNL     1       3.830  -6.653 -10.675  1.00  0.00     0.074 A 
ATOM     44  C   UNL     1       1.696  -6.813  -9.436  1.00  0.00     0.049 A 
ATOM     45  N   UNL     1       3.465  -6.987 -11.885  1.00  0.00    -0.248 NA
ATOM     46  C   UNL     1       5.273  -6.396 -10.529  1.00  0.00     0.031 C 
ATOM     47  C   UNL     1       0.804  -6.749  -8.282  1.00  0.00     0.029 A 
ATOM     48  N   UNL     1       0.893  -7.244 -10.463  1.00  0.00    -0.354 N 
ATOM     49  C   UNL     1       4.628  -6.965 -12.644  1.00  0.00     0.074 A 
ATOM     50  C   UNL     1       5.705  -6.564 -11.768  1.00  0.00     0.031 C 
ATOM     51  C   UNL     1      -0.434  -7.104  -8.671  1.00  0.00     0.029 A 
ATOM     52  C   UNL     1      -0.426  -7.378 -10.108  1.00  0.00     0.049 A 
ATOM     53  H   UNL     1       1.231  -7.438 -11.367  1.00  0.00     0.167 HD
ATOM     54  C   UNL     1       4.782  -7.257 -13.956  1.00  0.00     0.037 A 
ATOM     55  C   UNL     1      -1.504  -7.653 -10.870  1.00  0.00     0.037 A 
ATOM     56  C   UNL     1       3.704  -7.647 -14.824  1.00  0.00     0.049 A 
ATOM     57  C   UNL     1      -1.322  -7.885 -12.351  1.00  0.00     0.074 A 
ATOM     58  C   UNL     1       3.754  -7.975 -16.166  1.00  0.00     0.029 A 
ATOM     59  N   UNL     1       2.377  -7.747 -14.434  1.00  0.00    -0.354 N 
ATOM     60  N   UNL     1      -0.220  -7.885 -13.062  1.00  0.00    -0.248 NA
ATOM     61  C   UNL     1      -2.536  -8.153 -13.135  1.00  0.00     0.031 C 
ATOM     62  C   UNL     1       2.448  -8.216 -16.603  1.00  0.00     0.029 A 
ATOM     63  C   UNL     1       1.593  -8.105 -15.518  1.00  0.00     0.049 A 
ATOM     64  H   UNL     1       2.042  -7.588 -13.522  1.00  0.00     0.167 HD
ATOM     65  C   UNL     1      -0.602  -8.187 -14.364  1.00  0.00     0.074 A 
ATOM     66  C   UNL     1      -2.037  -8.371 -14.344  1.00  0.00     0.031 C 
ATOM     67  C   UNL     1       0.167  -8.304 -15.475  1.00  0.00     0.037 A 
BRANCH  54  68
ATOM     68  C   UNL     1       6.159  -7.126 -14.537  1.00  0.00     0.064 A 
ATOM     69  C   UNL     1       7.191  -8.015 -14.201  1.00  0.00     0.173 A 
ATOM     70  C   UNL     1       6.443  -6.108 -15.459  1.00  0.00     0.173 A 
ATOM     71  F   UNL     1       6.976  -8.994 -13.309  1.00  0.00    -0.203 F 
ATOM     72  C   UNL     1       8.464  -7.872 -14.747  1.00  0.00     0.198 A 
ATOM     73  C   UNL     1       7.707  -5.989 -16.029  1.00  0.00     0.198 A 
ATOM     74  F   UNL     1       5.491  -5.232 -15.815  1.00  0.00    -0.203 F 
ATOM     75  F   UNL     1       9.448  -8.701 -14.373  1.00  0.00    -0.200 F 
ATOM     76  C   UNL     1       8.718  -6.866 -15.666  1.00  0.00     0.200 A 
ATOM     77  F   UNL     1       7.947  -5.024 -16.926  1.00  0.00    -0.200 F 
ATOM     78  F   UNL     1       9.941  -6.736 -16.198  1.00  0.00    -0.200 F 
ENDBRANCH  54  68
BRANCH  55  79
ATOM     79  C   UNL     1      -2.859  -7.702 -10.258  1.00  0.00     0.064 A 
ATOM     80  C   UNL     1      -3.580  -8.903 -10.192  1.00  0.00     0.173 A 
ATOM     81  C   UNL     1      -3.475  -6.546  -9.756  1.00  0.00     0.173 A 
ATOM     82  F   UNL     1      -3.047 -10.031 -10.683  1.00  0.00    -0.203 F 
ATOM     83  C   UNL     1      -4.871  -8.941  -9.668  1.00  0.00     0.198 A 
ATOM     84  C   UNL     1      -4.754  -6.591  -9.204  1.00  0.00     0.198 A 
ATOM     85  F   UNL     1      -2.833  -5.370  -9.798  1.00  0.00    -0.203 F 
ATOM     86  F   UNL     1      -5.556 -10.093  -9.665  1.00  0.00    -0.200 F 
ATOM     87  C   UNL     1      -5.454  -7.787  -9.168  1.00  0.00     0.200 A 
ATOM     88  F   UNL     1      -5.308  -5.476  -8.710  1.00  0.00    -0.200 F 
ATOM     89  F   UNL     1      -6.694  -7.825  -8.662  1.00  0.00    -0.200 F 
ENDBRANCH  55  79
BRANCH  67  90
ATOM     90  C   UNL     1      -0.511  -8.702 -16.755  1.00  0.00     0.064 A 
ATOM     91  C   UNL     1      -1.348  -7.822 -17.456  1.00  0.00     0.173 A 
ATOM     92  C   UNL     1      -0.261  -9.962 -17.323  1.00  0.00     0.173 A 
ATOM     93  F   UNL     1      -1.630  -6.612 -16.951  1.00  0.00    -0.203 F 
ATOM     94  C   UNL     1      -1.924  -8.196 -18.669  1.00  0.00     0.198 A 
ATOM     95  C   UNL     1      -0.811 -10.319 -18.550  1.00  0.00     0.198 A 
ATOM     96  F   UNL     1       0.540 -10.838 -16.698  1.00  0.00    -0.203 F 
ATOM     97  F   UNL     1      -2.753  -7.354 -19.301  1.00  0.00    -0.200 F 
ATOM     98  C   UNL     1      -1.646  -9.438 -19.219  1.00  0.00     0.200 A 
ATOM     99  F   UNL     1      -0.526 -11.513 -19.089  1.00  0.00    -0.200 F 
ATOM    100  F   UNL     1      -2.188  -9.789 -20.394  1.00  0.00    -0.200 F 
ENDBRANCH  67  90
ENDBRANCH  41  42
ENDBRANCH  34  36
ENDBRANCH  33  34
ENDBRANCH  32  33
ENDBRANCH  31  32
ENDBRANCH  30  31
ENDBRANCH  29  30
ENDBRANCH  28  29
ENDBRANCH   1  28
TORSDOF 24
