REMARK SMILES COc1ccc2c(c1)c(CC(=O)OCCOCCOCCOCCOC(=O)c1ccc(-c3c4nc(c(-c5c(F)c(F)c(F)c(F)c5F)c5ccc([nH]5)c(-c5c(F)c(F)c(F)c(F)c5F)c5nc(c(-c6c(F)c(F)c(F)c(F)c6F)c6ccc3[nH]6)C=C5)C=C4)cc1)c(C)n2C(=O)c1ccc(Cl)cc1
REMARK SMILES IDX 18 1 17 2 16 3 15 4 14 5 13 6 11 7 12 8 10 9 9 10 3 11 4 12
REMARK SMILES IDX 8 13 5 14 7 15 6 16 93 17 91 18 92 19 2 20 1 21 94 22 95 23
REMARK SMILES IDX 96 24 97 25 102 26 98 27 101 28 99 29 100 30 19 31 20 32
REMARK SMILES IDX 21 33 22 34 23 35 24 36 25 37 26 38 27 39 28 40 29 41 90 42
REMARK SMILES IDX 30 43 89 44 31 45 32 46 33 47 83 48 34 49 88 50 82 51 84 52
REMARK SMILES IDX 35 53 87 54 81 55 80 56 36 58 68 59 48 60 67 61 49 62 52 63
REMARK SMILES IDX 66 64 85 65 50 66 51 67 65 69 86 70 53 71 37 72 38 73 46 74
REMARK SMILES IDX 39 75 40 76 44 77 47 78 41 79 42 80 45 81 43 82 69 83 70 84
REMARK SMILES IDX 78 85 71 86 72 87 76 88 79 89 73 90 74 91 77 92 75 93 54 94
REMARK SMILES IDX 55 95 63 96 56 97 57 98 61 99 64 100 58 101 59 102 62 103
REMARK SMILES IDX 60 104
REMARK H PARENT 84 57 52 68
REMARK Flexibility Score: inf
ROOT
ATOM      1  C   UNL     1      -0.961   3.099   2.716  1.00  0.00     0.188 C 
ENDROOT
BRANCH   1   2
ATOM      2  C   UNL     1      -2.369   3.503   2.296  1.00  0.00     0.188 C 
BRANCH   2   3
ATOM      3  O   UNL     1      -2.582   4.900   2.329  1.00  0.00    -0.376 OA
BRANCH   3   4
ATOM      4  C   UNL     1      -3.200   5.470   3.469  1.00  0.00     0.202 C 
BRANCH   4   5
ATOM      5  C   UNL     1      -2.558   5.349   4.868  1.00  0.00     0.261 C 
BRANCH   5   6
ATOM      6  O   UNL     1      -1.957   4.095   5.257  1.00  0.00    -0.463 OA
BRANCH   6   7
ATOM      7  C   UNL     1      -2.763   3.104   5.700  1.00  0.00     0.310 C 
ATOM      8  O   UNL     1      -3.985   3.223   5.763  1.00  0.00    -0.252 OA
BRANCH   7   9
ATOM      9  C   UNL     1      -2.069   1.796   6.091  1.00  0.00     0.160 C 
BRANCH   9  10
ATOM     10  C   UNL     1      -0.565   1.609   5.925  1.00  0.00    -0.008 A 
ATOM     11  C   UNL     1       0.504  -0.311   2.771  1.00  0.00     0.119 A 
ATOM     12  C   UNL     1       1.865  -0.216   2.982  1.00  0.00     0.048 A 
ATOM     13  C   UNL     1      -0.381   0.131   3.766  1.00  0.00     0.057 A 
ATOM     14  C   UNL     1       2.358   0.384   4.142  1.00  0.00     0.031 A 
ATOM     15  C   UNL     1       0.091   0.851   4.896  1.00  0.00     0.008 A 
ATOM     16  C   UNL     1       1.474   0.955   5.087  1.00  0.00     0.057 A 
ATOM     17  N   UNL     1       1.698   1.662   6.282  1.00  0.00    -0.280 N 
ATOM     18  C   UNL     1       0.438   2.034   6.793  1.00  0.00     0.028 A 
ATOM     19  C   UNL     1       0.236   2.779   8.077  1.00  0.00     0.065 C 
BRANCH  11  20
ATOM     20  O   UNL     1      -0.079  -0.771   1.620  1.00  0.00    -0.497 OA
ATOM     21  C   UNL     1       0.735  -0.750   0.446  1.00  0.00     0.278 C 
ENDBRANCH  11  20
BRANCH  17  22
ATOM     22  C   UNL     1       2.977   1.939   6.861  1.00  0.00     0.262 C 
ATOM     23  O   UNL     1       3.043   2.571   7.913  1.00  0.00    -0.268 OA
BRANCH  22  24
ATOM     24  C   UNL     1       4.277   1.526   6.297  1.00  0.00     0.040 A 
ATOM     25  C   UNL     1       4.893   2.326   5.327  1.00  0.00     0.015 A 
ATOM     26  C   UNL     1       4.868   0.327   6.716  1.00  0.00     0.015 A 
ATOM     27  C   UNL     1       6.077   1.889   4.726  1.00  0.00     0.021 A 
ATOM     28  C   UNL     1       6.057  -0.100   6.116  1.00  0.00     0.021 A 
ATOM     29  C   UNL     1       6.648   0.675   5.115  1.00  0.00     0.041 A 
ATOM     30  Cl  UNL     1       8.080   0.120   4.341  1.00  0.00    -0.084 Cl
ENDBRANCH  22  24
ENDBRANCH  17  22
ENDBRANCH   9  10
ENDBRANCH   7   9
ENDBRANCH   6   7
ENDBRANCH   5   6
ENDBRANCH   4   5
ENDBRANCH   3   4
ENDBRANCH   2   3
ENDBRANCH   1   2
BRANCH   1  31
ATOM     31  O   UNL     1       0.193   3.781   2.293  1.00  0.00    -0.377 OA
BRANCH  31  32
ATOM     32  C   UNL     1       0.047   5.056   1.737  1.00  0.00     0.188 C 
BRANCH  32  33
ATOM     33  C   UNL     1      -0.289   5.065   0.242  1.00  0.00     0.188 C 
BRANCH  33  34
ATOM     34  O   UNL     1       0.132   4.031  -0.649  1.00  0.00    -0.376 OA
BRANCH  34  35
ATOM     35  C   UNL     1       1.009   3.001  -0.222  1.00  0.00     0.202 C 
BRANCH  35  36
ATOM     36  C   UNL     1       2.494   3.359  -0.026  1.00  0.00     0.261 C 
BRANCH  36  37
ATOM     37  O   UNL     1       2.700   4.581   0.687  1.00  0.00    -0.460 OA
BRANCH  37  38
ATOM     38  C   UNL     1       3.393   5.568   0.055  1.00  0.00     0.338 C 
ATOM     39  O   UNL     1       4.094   5.484  -0.920  1.00  0.00    -0.246 OA
BRANCH  38  40
ATOM     40  C   UNL     1       2.850   6.829   0.612  1.00  0.00     0.060 A 
ATOM     41  C   UNL     1       2.832   7.055   1.992  1.00  0.00     0.016 A 
ATOM     42  C   UNL     1       2.053   7.588  -0.255  1.00  0.00     0.016 A 
ATOM     43  C   UNL     1       1.891   7.941   2.510  1.00  0.00     0.010 A 
ATOM     44  C   UNL     1       1.104   8.463   0.269  1.00  0.00     0.010 A 
ATOM     45  C   UNL     1       0.986   8.600   1.654  1.00  0.00    -0.014 A 
BRANCH  45  46
ATOM     46  C   UNL     1       0.122   9.626   2.248  1.00  0.00     0.031 A 
ATOM     47  C   UNL     1       0.908  10.759   2.812  1.00  0.00     0.074 A 
ATOM     48  C   UNL     1      -1.221   9.731   2.173  1.00  0.00     0.049 A 
ATOM     49  N   UNL     1       0.882  11.255   4.006  1.00  0.00    -0.248 NA
ATOM     50  C   UNL     1       1.937  11.338   1.931  1.00  0.00     0.031 C 
ATOM     51  C   UNL     1      -2.156   8.923   1.393  1.00  0.00     0.029 A 
ATOM     52  N   UNL     1      -2.026  10.696   2.722  1.00  0.00    -0.354 N 
ATOM     53  C   UNL     1       1.804  12.297   3.990  1.00  0.00     0.074 A 
ATOM     54  C   UNL     1       2.515  12.217   2.742  1.00  0.00     0.031 C 
ATOM     55  C   UNL     1      -3.357   9.549   1.356  1.00  0.00     0.029 A 
ATOM     56  C   UNL     1      -3.303  10.749   2.180  1.00  0.00     0.049 A 
ATOM     57  H   UNL     1      -1.725  11.299   3.440  1.00  0.00     0.167 HD
ATOM     58  C   UNL     1       1.804  13.290   4.915  1.00  0.00     0.037 A 
ATOM     59  C   UNL     1      -4.210  11.748   2.328  1.00  0.00     0.037 A 
ATOM     60  C   UNL     1       1.143  12.909   6.129  1.00  0.00     0.049 A 
ATOM     61  C   UNL     1      -3.819  12.558   3.510  1.00  0.00     0.074 A 
ATOM     62  C   UNL     1       1.337  11.905   7.058  1.00  0.00     0.029 A 
ATOM     63  N   UNL     1      -0.098  13.426   6.400  1.00  0.00    -0.354 N 
ATOM     64  N   UNL     1      -3.910  12.164   4.749  1.00  0.00    -0.248 NA
ATOM     65  C   UNL     1      -2.980  13.727   3.288  1.00  0.00     0.031 C 
ATOM     66  C   UNL     1       0.033  11.558   7.512  1.00  0.00     0.029 A 
ATOM     67  C   UNL     1      -0.869  12.380   6.837  1.00  0.00     0.049 A 
ATOM     68  H   UNL     1      -0.380  14.364   6.300  1.00  0.00     0.167 HD
ATOM     69  C   UNL     1      -2.840  12.768   5.391  1.00  0.00     0.074 A 
ATOM     70  C   UNL     1      -2.374  13.800   4.474  1.00  0.00     0.031 C 
ATOM     71  C   UNL     1      -2.256  12.197   6.483  1.00  0.00     0.037 A 
BRANCH  58  72
ATOM     72  C   UNL     1       2.168  14.708   4.577  1.00  0.00     0.064 A 
ATOM     73  C   UNL     1       2.419  15.633   5.604  1.00  0.00     0.173 A 
ATOM     74  C   UNL     1       2.026  15.252   3.280  1.00  0.00     0.173 A 
ATOM     75  F   UNL     1       2.519  15.226   6.879  1.00  0.00    -0.203 F 
ATOM     76  C   UNL     1       2.491  17.005   5.353  1.00  0.00     0.198 A 
ATOM     77  C   UNL     1       2.161  16.613   3.024  1.00  0.00     0.198 A 
ATOM     78  F   UNL     1       1.645  14.505   2.235  1.00  0.00    -0.203 F 
ATOM     79  F   UNL     1       2.620  17.861   6.376  1.00  0.00    -0.200 F 
ATOM     80  C   UNL     1       2.367  17.493   4.064  1.00  0.00     0.200 A 
ATOM     81  F   UNL     1       2.015  17.066   1.771  1.00  0.00    -0.200 F 
ATOM     82  F   UNL     1       2.393  18.811   3.829  1.00  0.00    -0.200 F 
ENDBRANCH  58  72
BRANCH  59  83
ATOM     83  C   UNL     1      -5.264  12.206   1.382  1.00  0.00     0.064 A 
ATOM     84  C   UNL     1      -6.298  13.066   1.794  1.00  0.00     0.173 A 
ATOM     85  C   UNL     1      -5.143  12.011  -0.008  1.00  0.00     0.173 A 
ATOM     86  F   UNL     1      -6.457  13.361   3.093  1.00  0.00    -0.203 F 
ATOM     87  C   UNL     1      -7.148  13.695   0.875  1.00  0.00     0.198 A 
ATOM     88  C   UNL     1      -6.002  12.623  -0.923  1.00  0.00     0.198 A 
ATOM     89  F   UNL     1      -4.131  11.298  -0.519  1.00  0.00    -0.203 F 
ATOM     90  F   UNL     1      -8.081  14.556   1.305  1.00  0.00    -0.200 F 
ATOM     91  C   UNL     1      -6.997  13.474  -0.483  1.00  0.00     0.200 A 
ATOM     92  F   UNL     1      -5.819  12.427  -2.236  1.00  0.00    -0.200 F 
ATOM     93  F   UNL     1      -7.778  14.110  -1.368  1.00  0.00    -0.200 F 
ENDBRANCH  59  83
BRANCH  71  94
ATOM     94  C   UNL     1      -2.976  11.077   7.173  1.00  0.00     0.064 A 
ATOM     95  C   UNL     1      -3.256   9.844   6.562  1.00  0.00     0.173 A 
ATOM     96  C   UNL     1      -3.220  11.190   8.550  1.00  0.00     0.173 A 
ATOM     97  F   UNL     1      -2.954   9.623   5.275  1.00  0.00    -0.203 F 
ATOM     98  C   UNL     1      -3.784   8.784   7.295  1.00  0.00     0.198 A 
ATOM     99  C   UNL     1      -3.710  10.116   9.286  1.00  0.00     0.198 A 
ATOM    100  F   UNL     1      -2.919  12.329   9.195  1.00  0.00    -0.203 F 
ATOM    101  F   UNL     1      -4.046   7.618   6.689  1.00  0.00    -0.200 F 
ATOM    102  C   UNL     1      -3.998   8.915   8.658  1.00  0.00     0.200 A 
ATOM    103  F   UNL     1      -3.867  10.231  10.612  1.00  0.00    -0.200 F 
ATOM    104  F   UNL     1      -4.447   7.873   9.370  1.00  0.00    -0.200 F 
ENDBRANCH  71  94
ENDBRANCH  45  46
ENDBRANCH  38  40
ENDBRANCH  37  38
ENDBRANCH  36  37
ENDBRANCH  35  36
ENDBRANCH  34  35
ENDBRANCH  33  34
ENDBRANCH  32  33
ENDBRANCH  31  32
ENDBRANCH   1  31
TORSDOF 24
