REMARK SMILES CC(C)(C[NH+]1CCC(C(N)=S)CC1)C(=O)OCCOCCOCCOCCOC(=O)c1ccc(-c2c3nc(c(-c4c(F)c(F)c(F)c(F)c4F)c4ccc([nH]4)c(-c4c(F)c(F)c(F)c(F)c4F)c4nc(c(-c5c(F)c(F)c(F)c(F)c5F)c5ccc2[nH]5)C=C4)C=C3)cc1
REMARK SMILES IDX 21 1 20 2 19 3 18 4 17 5 16 6 14 7 15 8 2 9 1 10 3 11 4 12
REMARK SMILES IDX 5 13 6 14 13 15 7 17 12 18 8 19 9 20 11 21 10 22 22 25 23 26
REMARK SMILES IDX 24 27 25 28 26 29 27 30 28 31 29 32 30 33 31 34 32 35 93 36
REMARK SMILES IDX 33 37 92 38 34 39 35 40 36 41 86 42 37 43 91 44 85 45 87 46
REMARK SMILES IDX 38 47 90 48 84 49 83 50 39 52 71 53 51 54 70 55 52 56 55 57
REMARK SMILES IDX 69 58 88 59 53 60 54 61 68 63 89 64 56 65 40 66 41 67 49 68
REMARK SMILES IDX 42 69 43 70 47 71 50 72 44 73 45 74 48 75 46 76 72 77 73 78
REMARK SMILES IDX 81 79 74 80 75 81 79 82 82 83 76 84 77 85 80 86 78 87 57 88
REMARK SMILES IDX 58 89 66 90 59 91 60 92 64 93 67 94 61 95 62 96 65 97 63 98
REMARK H PARENT 5 16 10 23 10 24 87 51 55 62
REMARK Flexibility Score: inf
ROOT
ATOM      1  C   UNL     1      -0.126   1.886  -3.505  1.00  0.00     0.188 C 
ENDROOT
BRANCH   1   2
ATOM      2  C   UNL     1       1.239   2.541  -3.283  1.00  0.00     0.188 C 
BRANCH   2   3
ATOM      3  O   UNL     1       2.398   2.088  -3.970  1.00  0.00    -0.376 OA
BRANCH   3   4
ATOM      4  C   UNL     1       2.298   1.026  -4.899  1.00  0.00     0.202 C 
BRANCH   4   5
ATOM      5  C   UNL     1       2.268  -0.391  -4.303  1.00  0.00     0.261 C 
BRANCH   5   6
ATOM      6  O   UNL     1       1.307  -0.660  -3.257  1.00  0.00    -0.463 OA
BRANCH   6   7
ATOM      7  C   UNL     1       1.739  -0.450  -1.978  1.00  0.00     0.317 C 
ATOM      8  O   UNL     1       2.830   0.044  -1.711  1.00  0.00    -0.251 OA
BRANCH   7   9
ATOM      9  C   UNL     1       0.793  -1.031  -0.900  1.00  0.00     0.111 C 
ATOM     10  C   UNL     1       1.373  -0.671   0.477  1.00  0.00     0.029 C 
ATOM     11  C   UNL     1       0.939  -2.568  -1.066  1.00  0.00     0.029 C 
BRANCH   9  12
ATOM     12  C   UNL     1      -0.744  -0.708  -1.029  1.00  0.00     0.280 C 
BRANCH  12  13
ATOM     13  N   UNL     1      -1.490   0.444  -0.447  1.00  0.00    -0.334 N 
ATOM     14  C   UNL     1      -0.758   1.616   0.005  1.00  0.00     0.262 C 
ATOM     15  C   UNL     1      -2.725   0.706  -1.206  1.00  0.00     0.262 C 
ATOM     16  H   UNL     1      -1.751   0.114   0.483  1.00  0.00     0.348 HD
ATOM     17  C   UNL     1      -1.618   2.798   0.480  1.00  0.00     0.072 C 
ATOM     18  C   UNL     1      -3.585   1.860  -0.682  1.00  0.00     0.072 C 
ATOM     19  C   UNL     1      -2.741   3.118  -0.502  1.00  0.00     0.058 C 
BRANCH  19  20
ATOM     20  C   UNL     1      -3.483   4.389  -0.098  1.00  0.00     0.076 C 
ATOM     21  S   UNL     1      -4.890   4.458   0.790  1.00  0.00    -0.066 S 
BRANCH  20  22
ATOM     22  N   UNL     1      -2.890   5.563  -0.480  1.00  0.00    -0.393 N 
ATOM     23  H   UNL     1      -2.057   5.545  -1.005  1.00  0.00     0.157 HD
ATOM     24  H   UNL     1      -3.296   6.424  -0.229  1.00  0.00     0.157 HD
ENDBRANCH  20  22
ENDBRANCH  19  20
ENDBRANCH  12  13
ENDBRANCH   9  12
ENDBRANCH   7   9
ENDBRANCH   6   7
ENDBRANCH   5   6
ENDBRANCH   4   5
ENDBRANCH   3   4
ENDBRANCH   2   3
ENDBRANCH   1   2
BRANCH   1  25
ATOM     25  O   UNL     1      -0.433   1.550  -4.840  1.00  0.00    -0.377 OA
BRANCH  25  26
ATOM     26  C   UNL     1      -1.420   2.364  -5.439  1.00  0.00     0.188 C 
BRANCH  26  27
ATOM     27  C   UNL     1      -0.900   3.744  -5.864  1.00  0.00     0.188 C 
BRANCH  27  28
ATOM     28  O   UNL     1      -0.652   4.745  -4.886  1.00  0.00    -0.376 OA
BRANCH  28  29
ATOM     29  C   UNL     1      -1.578   5.046  -3.857  1.00  0.00     0.202 C 
BRANCH  29  30
ATOM     30  C   UNL     1      -3.067   5.265  -4.141  1.00  0.00     0.261 C 
BRANCH  30  31
ATOM     31  O   UNL     1      -3.673   4.184  -4.853  1.00  0.00    -0.460 OA
BRANCH  31  32
ATOM     32  C   UNL     1      -4.157   4.506  -6.068  1.00  0.00     0.338 C 
ATOM     33  O   UNL     1      -4.236   5.624  -6.572  1.00  0.00    -0.246 OA
BRANCH  32  34
ATOM     34  C   UNL     1      -4.373   3.276  -6.834  1.00  0.00     0.060 A 
ATOM     35  C   UNL     1      -3.660   3.137  -8.033  1.00  0.00     0.016 A 
ATOM     36  C   UNL     1      -5.274   2.296  -6.409  1.00  0.00     0.016 A 
ATOM     37  C   UNL     1      -3.877   2.034  -8.842  1.00  0.00     0.010 A 
ATOM     38  C   UNL     1      -5.528   1.211  -7.247  1.00  0.00     0.010 A 
ATOM     39  C   UNL     1      -4.866   1.113  -8.484  1.00  0.00    -0.014 A 
BRANCH  39  40
ATOM     40  C   UNL     1      -5.420   0.259  -9.551  1.00  0.00     0.031 A 
ATOM     41  C   UNL     1      -6.556   0.828 -10.355  1.00  0.00     0.074 A 
ATOM     42  C   UNL     1      -4.884  -0.938  -9.831  1.00  0.00     0.049 A 
ATOM     43  N   UNL     1      -7.238   0.291 -11.331  1.00  0.00    -0.248 NA
ATOM     44  C   UNL     1      -6.976   2.200 -10.013  1.00  0.00     0.031 C 
ATOM     45  C   UNL     1      -3.732  -1.526  -9.152  1.00  0.00     0.029 A 
ATOM     46  N   UNL     1      -5.243  -1.872 -10.766  1.00  0.00    -0.354 N 
ATOM     47  C   UNL     1      -8.161   1.256 -11.714  1.00  0.00     0.074 A 
ATOM     48  C   UNL     1      -7.975   2.402 -10.857  1.00  0.00     0.031 C 
ATOM     49  C   UNL     1      -3.490  -2.739  -9.681  1.00  0.00     0.029 A 
ATOM     50  C   UNL     1      -4.490  -3.017 -10.710  1.00  0.00     0.049 A 
ATOM     51  H   UNL     1      -5.971  -1.735 -11.414  1.00  0.00     0.167 HD
ATOM     52  C   UNL     1      -9.083   1.186 -12.700  1.00  0.00     0.037 A 
ATOM     53  C   UNL     1      -4.625  -4.164 -11.402  1.00  0.00     0.037 A 
ATOM     54  C   UNL     1      -9.263   0.025 -13.526  1.00  0.00     0.049 A 
ATOM     55  C   UNL     1      -5.722  -4.255 -12.433  1.00  0.00     0.074 A 
ATOM     56  C   UNL     1     -10.178  -0.183 -14.539  1.00  0.00     0.029 A 
ATOM     57  N   UNL     1      -8.506  -1.134 -13.416  1.00  0.00    -0.354 N 
ATOM     58  N   UNL     1      -6.596  -3.343 -12.793  1.00  0.00    -0.248 NA
ATOM     59  C   UNL     1      -5.856  -5.528 -13.153  1.00  0.00     0.031 C 
ATOM     60  C   UNL     1     -10.007  -1.488 -15.011  1.00  0.00     0.029 A 
ATOM     61  C   UNL     1      -8.947  -2.071 -14.331  1.00  0.00     0.049 A 
ATOM     62  H   UNL     1      -7.766  -1.268 -12.781  1.00  0.00     0.167 HD
ATOM     63  C   UNL     1      -7.357  -3.917 -13.802  1.00  0.00     0.074 A 
ATOM     64  C   UNL     1      -6.841  -5.257 -13.998  1.00  0.00     0.031 C 
ATOM     65  C   UNL     1      -8.386  -3.387 -14.509  1.00  0.00     0.037 A 
BRANCH  52  66
ATOM     66  C   UNL     1      -9.981   2.371 -12.895  1.00  0.00     0.064 A 
ATOM     67  C   UNL     1      -9.505   3.583 -13.419  1.00  0.00     0.173 A 
ATOM     68  C   UNL     1     -11.338   2.297 -12.547  1.00  0.00     0.173 A 
ATOM     69  F   UNL     1      -8.209   3.715 -13.743  1.00  0.00    -0.203 F 
ATOM     70  C   UNL     1     -10.348   4.681 -13.566  1.00  0.00     0.198 A 
ATOM     71  C   UNL     1     -12.185   3.388 -12.722  1.00  0.00     0.198 A 
ATOM     72  F   UNL     1     -11.843   1.165 -12.034  1.00  0.00    -0.203 F 
ATOM     73  F   UNL     1      -9.859   5.844 -14.020  1.00  0.00    -0.200 F 
ATOM     74  C   UNL     1     -11.688   4.581 -13.224  1.00  0.00     0.200 A 
ATOM     75  F   UNL     1     -13.481   3.287 -12.396  1.00  0.00    -0.200 F 
ATOM     76  F   UNL     1     -12.499   5.638 -13.367  1.00  0.00    -0.200 F 
ENDBRANCH  52  66
BRANCH  53  77
ATOM     77  C   UNL     1      -3.718  -5.310 -11.130  1.00  0.00     0.064 A 
ATOM     78  C   UNL     1      -2.792  -5.749 -12.085  1.00  0.00     0.173 A 
ATOM     79  C   UNL     1      -3.759  -5.992  -9.904  1.00  0.00     0.173 A 
ATOM     80  F   UNL     1      -2.726  -5.145 -13.281  1.00  0.00    -0.203 F 
ATOM     81  C   UNL     1      -1.952  -6.833 -11.831  1.00  0.00     0.198 A 
ATOM     82  C   UNL     1      -2.901  -7.057  -9.640  1.00  0.00     0.198 A 
ATOM     83  F   UNL     1      -4.627  -5.614  -8.953  1.00  0.00    -0.203 F 
ATOM     84  F   UNL     1      -1.103  -7.256 -12.777  1.00  0.00    -0.200 F 
ATOM     85  C   UNL     1      -2.002  -7.482 -10.606  1.00  0.00     0.200 A 
ATOM     86  F   UNL     1      -2.944  -7.671  -8.449  1.00  0.00    -0.200 F 
ATOM     87  F   UNL     1      -1.190  -8.519 -10.360  1.00  0.00    -0.200 F 
ENDBRANCH  53  77
BRANCH  65  88
ATOM     88  C   UNL     1      -8.985  -4.229 -15.594  1.00  0.00     0.064 A 
ATOM     89  C   UNL     1      -9.833  -5.306 -15.305  1.00  0.00     0.173 A 
ATOM     90  C   UNL     1      -8.778  -3.889 -16.939  1.00  0.00     0.173 A 
ATOM     91  F   UNL     1     -10.050  -5.673 -14.033  1.00  0.00    -0.203 F 
ATOM     92  C   UNL     1     -10.447  -6.022 -16.329  1.00  0.00     0.198 A 
ATOM     93  C   UNL     1      -9.416  -4.589 -17.958  1.00  0.00     0.198 A 
ATOM     94  F   UNL     1      -7.983  -2.858 -17.262  1.00  0.00    -0.203 F 
ATOM     95  F   UNL     1     -11.232  -7.067 -16.035  1.00  0.00    -0.200 F 
ATOM     96  C   UNL     1     -10.247  -5.656 -17.652  1.00  0.00     0.200 A 
ATOM     97  F   UNL     1      -9.236  -4.222 -19.235  1.00  0.00    -0.200 F 
ATOM     98  F   UNL     1     -10.856  -6.333 -18.635  1.00  0.00    -0.200 F 
ENDBRANCH  65  88
ENDBRANCH  39  40
ENDBRANCH  32  34
ENDBRANCH  31  32
ENDBRANCH  30  31
ENDBRANCH  29  30
ENDBRANCH  28  29
ENDBRANCH  27  28
ENDBRANCH  26  27
ENDBRANCH  25  26
ENDBRANCH   1  25
TORSDOF 24
