REMARK SMILES Cc1nn(C(C)C)c(C)c1S(=O)(=O)Nc1cccc(C(=O)OCCOCCOCCOCCOC(=O)c2ccc(-c3c4nc(c(-c5c(F)c(F)c(F)c(F)c5F)c5ccc([nH]5)c(-c5c(F)c(F)c(F)c(F)c5F)c5nc(c(-c6c(F)c(F)c(F)c(F)c6F)c6ccc3[nH]6)C=C5)C=C4)cc2)c1C
REMARK SMILES IDX 27 1 26 2 25 3 24 4 23 5 22 6 20 7 21 8 19 9 15 10 16 11
REMARK SMILES IDX 100 12 17 13 101 14 18 15 14 16 11 18 12 19 13 20 10 21 1 22
REMARK SMILES IDX 2 23 3 24 4 25 8 26 9 27 5 28 6 29 7 30 28 31 29 32 30 33
REMARK SMILES IDX 31 34 32 35 33 36 34 37 35 38 36 39 37 40 38 41 99 42 39 43
REMARK SMILES IDX 98 44 40 45 41 46 42 47 92 48 43 49 97 50 91 51 93 52 44 53
REMARK SMILES IDX 96 54 90 55 89 56 45 58 77 59 57 60 76 61 58 62 61 63 75 64
REMARK SMILES IDX 94 65 59 66 60 67 74 69 95 70 62 71 46 72 47 73 55 74 48 75
REMARK SMILES IDX 49 76 53 77 56 78 50 79 51 80 54 81 52 82 78 83 79 84 87 85
REMARK SMILES IDX 80 86 81 87 85 88 88 89 82 90 83 91 86 92 84 93 63 94 64 95
REMARK SMILES IDX 72 96 65 97 66 98 70 99 73 100 67 101 68 102 71 103 69 104
REMARK H PARENT 14 17 93 57 61 68
REMARK Flexibility Score: inf
ROOT
ATOM      1  C   UNL     1       3.012  -0.823   4.208  1.00  0.00     0.188 C 
ENDROOT
BRANCH   1   2
ATOM      2  C   UNL     1       1.969   0.114   4.856  1.00  0.00     0.188 C 
BRANCH   2   3
ATOM      3  O   UNL     1       0.979  -0.329   5.759  1.00  0.00    -0.376 OA
BRANCH   3   4
ATOM      4  C   UNL     1      -0.030  -1.157   5.220  1.00  0.00     0.202 C 
BRANCH   4   5
ATOM      5  C   UNL     1      -1.190  -0.565   4.449  1.00  0.00     0.261 C 
BRANCH   5   6
ATOM      6  O   UNL     1      -1.057  -0.999   3.104  1.00  0.00    -0.460 OA
BRANCH   6   7
ATOM      7  C   UNL     1      -0.972   0.051   2.291  1.00  0.00     0.338 C 
ATOM      8  O   UNL     1      -1.805   0.904   2.121  1.00  0.00    -0.246 OA
BRANCH   7   9
ATOM      9  C   UNL     1       0.439   0.087   1.865  1.00  0.00     0.065 A 
ATOM     10  C   UNL     1       2.135   1.421   0.942  1.00  0.00     0.053 A 
ATOM     11  C   UNL     1       2.841   0.283   0.534  1.00  0.00     0.027 A 
ATOM     12  C   UNL     1       1.028   1.346   1.772  1.00  0.00    -0.012 A 
ATOM     13  C   UNL     1       2.370  -0.981   0.865  1.00  0.00     0.003 A 
ATOM     14  C   UNL     1       0.511   2.510   2.586  1.00  0.00     0.047 C 
ATOM     15  C   UNL     1       1.122  -1.083   1.476  1.00  0.00     0.016 A 
BRANCH  10  16
ATOM     16  N   UNL     1       2.502   2.636   0.333  1.00  0.00    -0.279 N 
ATOM     17  H   UNL     1       3.334   3.104   0.575  1.00  0.00     0.180 HD
BRANCH  16  18
ATOM     18  S   UNL     1       1.438   3.256  -0.840  1.00  0.00     0.265 S 
ATOM     19  O   UNL     1       2.290   4.184  -1.563  1.00  0.00    -0.201 OA
ATOM     20  O   UNL     1       0.269   3.763  -0.158  1.00  0.00    -0.201 OA
BRANCH  18  21
ATOM     21  C   UNL     1       0.770   2.252  -2.091  1.00  0.00     0.131 A 
ATOM     22  C   UNL     1       0.040  -0.198  -1.234  1.00  0.00     0.070 C 
ATOM     23  C   UNL     1       0.284   0.912  -2.153  1.00  0.00     0.080 A 
ATOM     24  N   UNL     1      -0.111   0.593  -3.382  1.00  0.00    -0.176 NA
ATOM     25  N   UNL     1      -0.133   1.738  -4.042  1.00  0.00    -0.266 N 
ATOM     26  C   UNL     1       0.354   2.784  -3.317  1.00  0.00     0.056 A 
ATOM     27  C   UNL     1       0.334   4.181  -3.815  1.00  0.00     0.068 C 
BRANCH  25  28
ATOM     28  C   UNL     1      -0.670   1.685  -5.394  1.00  0.00     0.101 C 
ATOM     29  C   UNL     1       0.208   0.763  -6.241  1.00  0.00     0.033 C 
ATOM     30  C   UNL     1      -2.125   1.204  -5.375  1.00  0.00     0.033 C 
ENDBRANCH  25  28
ENDBRANCH  18  21
ENDBRANCH  16  18
ENDBRANCH  10  16
ENDBRANCH   7   9
ENDBRANCH   6   7
ENDBRANCH   5   6
ENDBRANCH   4   5
ENDBRANCH   3   4
ENDBRANCH   2   3
ENDBRANCH   1   2
BRANCH   1  31
ATOM     31  O   UNL     1       2.680  -2.155   3.854  1.00  0.00    -0.377 OA
BRANCH  31  32
ATOM     32  C   UNL     1       2.750  -3.133   4.883  1.00  0.00     0.188 C 
BRANCH  32  33
ATOM     33  C   UNL     1       3.772  -2.940   5.986  1.00  0.00     0.188 C 
BRANCH  33  34
ATOM     34  O   UNL     1       3.393  -1.804   6.759  1.00  0.00    -0.376 OA
BRANCH  34  35
ATOM     35  C   UNL     1       4.461  -1.092   7.374  1.00  0.00     0.202 C 
BRANCH  35  36
ATOM     36  C   UNL     1       5.298  -1.971   8.303  1.00  0.00     0.261 C 
BRANCH  36  37
ATOM     37  O   UNL     1       4.441  -2.470   9.352  1.00  0.00    -0.460 OA
BRANCH  37  38
ATOM     38  C   UNL     1       4.106  -3.787   9.256  1.00  0.00     0.338 C 
ATOM     39  O   UNL     1       4.889  -4.694   9.022  1.00  0.00    -0.246 OA
BRANCH  38  40
ATOM     40  C   UNL     1       2.620  -3.940   9.140  1.00  0.00     0.060 A 
ATOM     41  C   UNL     1       2.063  -5.191   8.820  1.00  0.00     0.016 A 
ATOM     42  C   UNL     1       1.850  -2.802   8.957  1.00  0.00     0.016 A 
ATOM     43  C   UNL     1       0.835  -5.277   8.133  1.00  0.00     0.010 A 
ATOM     44  C   UNL     1       0.707  -2.893   8.181  1.00  0.00     0.010 A 
ATOM     45  C   UNL     1       0.198  -4.117   7.704  1.00  0.00    -0.014 A 
BRANCH  45  46
ATOM     46  C   UNL     1      -0.896  -4.048   6.692  1.00  0.00     0.031 A 
ATOM     47  C   UNL     1      -2.091  -3.170   6.984  1.00  0.00     0.074 A 
ATOM     48  C   UNL     1      -0.644  -4.426   5.405  1.00  0.00     0.049 A 
ATOM     49  N   UNL     1      -3.031  -2.873   6.151  1.00  0.00    -0.248 NA
ATOM     50  C   UNL     1      -2.279  -2.478   8.255  1.00  0.00     0.031 C 
ATOM     51  C   UNL     1      -1.223  -3.853   4.183  1.00  0.00     0.029 A 
ATOM     52  N   UNL     1       0.276  -5.342   4.884  1.00  0.00    -0.354 N 
ATOM     53  C   UNL     1      -3.728  -1.761   6.611  1.00  0.00     0.074 A 
ATOM     54  C   UNL     1      -3.253  -1.608   7.963  1.00  0.00     0.031 C 
ATOM     55  C   UNL     1      -0.701  -4.418   3.083  1.00  0.00     0.029 A 
ATOM     56  C   UNL     1      -0.064  -5.622   3.535  1.00  0.00     0.049 A 
ATOM     57  H   UNL     1       1.037  -5.730   5.373  1.00  0.00     0.167 HD
ATOM     58  C   UNL     1      -4.523  -1.056   5.732  1.00  0.00     0.037 A 
ATOM     59  C   UNL     1      -0.556  -6.864   3.223  1.00  0.00     0.037 A 
ATOM     60  C   UNL     1      -4.585  -1.742   4.414  1.00  0.00     0.049 A 
ATOM     61  C   UNL     1      -2.079  -6.857   3.021  1.00  0.00     0.074 A 
ATOM     62  C   UNL     1      -4.334  -1.414   3.090  1.00  0.00     0.029 A 
ATOM     63  N   UNL     1      -4.792  -3.115   4.400  1.00  0.00    -0.354 N 
ATOM     64  N   UNL     1      -2.812  -5.771   3.100  1.00  0.00    -0.248 NA
ATOM     65  C   UNL     1      -2.913  -8.018   2.730  1.00  0.00     0.031 C 
ATOM     66  C   UNL     1      -4.382  -2.614   2.306  1.00  0.00     0.029 A 
ATOM     67  C   UNL     1      -4.710  -3.664   3.143  1.00  0.00     0.049 A 
ATOM     68  H   UNL     1      -4.978  -3.643   5.210  1.00  0.00     0.167 HD
ATOM     69  C   UNL     1      -4.135  -6.034   2.931  1.00  0.00     0.074 A 
ATOM     70  C   UNL     1      -4.150  -7.477   2.733  1.00  0.00     0.031 C 
ATOM     71  C   UNL     1      -5.098  -5.058   2.978  1.00  0.00     0.037 A 
BRANCH  58  72
ATOM     72  C   UNL     1      -5.169   0.334   5.947  1.00  0.00     0.064 A 
ATOM     73  C   UNL     1      -5.923   0.955   4.914  1.00  0.00     0.173 A 
ATOM     74  C   UNL     1      -5.075   1.133   7.109  1.00  0.00     0.173 A 
ATOM     75  F   UNL     1      -6.191   0.324   3.765  1.00  0.00    -0.203 F 
ATOM     76  C   UNL     1      -6.467   2.248   5.016  1.00  0.00     0.198 A 
ATOM     77  C   UNL     1      -5.649   2.412   7.224  1.00  0.00     0.198 A 
ATOM     78  F   UNL     1      -4.431   0.730   8.202  1.00  0.00    -0.203 F 
ATOM     79  F   UNL     1      -7.136   2.773   3.979  1.00  0.00    -0.200 F 
ATOM     80  C   UNL     1      -6.332   2.977   6.174  1.00  0.00     0.200 A 
ATOM     81  F   UNL     1      -5.527   3.090   8.376  1.00  0.00    -0.200 F 
ATOM     82  F   UNL     1      -6.868   4.201   6.284  1.00  0.00    -0.200 F 
ENDBRANCH  58  72
BRANCH  59  83
ATOM     83  C   UNL     1       0.377  -7.895   3.803  1.00  0.00     0.064 A 
ATOM     84  C   UNL     1       1.696  -7.802   3.286  1.00  0.00     0.173 A 
ATOM     85  C   UNL     1       0.253  -8.236   5.160  1.00  0.00     0.173 A 
ATOM     86  F   UNL     1       1.881  -7.534   1.983  1.00  0.00    -0.203 F 
ATOM     87  C   UNL     1       2.794  -7.687   4.141  1.00  0.00     0.198 A 
ATOM     88  C   UNL     1       1.372  -8.184   6.003  1.00  0.00     0.198 A 
ATOM     89  F   UNL     1      -0.962  -8.370   5.710  1.00  0.00    -0.203 F 
ATOM     90  F   UNL     1       3.981  -7.291   3.657  1.00  0.00    -0.200 F 
ATOM     91  C   UNL     1       2.617  -7.818   5.506  1.00  0.00     0.200 A 
ATOM     92  F   UNL     1       1.218  -8.334   7.327  1.00  0.00    -0.200 F 
ATOM     93  F   UNL     1       3.616  -7.505   6.345  1.00  0.00    -0.200 F 
ENDBRANCH  59  83
BRANCH  71  94
ATOM     94  C   UNL     1      -6.574  -5.344   2.938  1.00  0.00     0.064 A 
ATOM     95  C   UNL     1      -7.123  -6.306   2.089  1.00  0.00     0.173 A 
ATOM     96  C   UNL     1      -7.499  -4.623   3.735  1.00  0.00     0.173 A 
ATOM     97  F   UNL     1      -6.371  -6.908   1.157  1.00  0.00    -0.203 F 
ATOM     98  C   UNL     1      -8.469  -6.660   2.170  1.00  0.00     0.198 A 
ATOM     99  C   UNL     1      -8.854  -4.926   3.759  1.00  0.00     0.198 A 
ATOM    100  F   UNL     1      -7.131  -3.622   4.545  1.00  0.00    -0.203 F 
ATOM    101  F   UNL     1      -8.926  -7.680   1.433  1.00  0.00    -0.200 F 
ATOM    102  C   UNL     1      -9.330  -5.980   3.015  1.00  0.00     0.200 A 
ATOM    103  F   UNL     1      -9.681  -4.209   4.534  1.00  0.00    -0.200 F 
ATOM    104  F   UNL     1     -10.615  -6.341   3.111  1.00  0.00    -0.200 F 
ENDBRANCH  71  94
ENDBRANCH  45  46
ENDBRANCH  38  40
ENDBRANCH  37  38
ENDBRANCH  36  37
ENDBRANCH  35  36
ENDBRANCH  34  35
ENDBRANCH  33  34
ENDBRANCH  32  33
ENDBRANCH  31  32
ENDBRANCH   1  31
TORSDOF 24
