REMARK SMILES COc1ccc(C2=NN(C(=O)CCC(=O)OCCOCCOCCOCCOC(=O)c3ccc(-c4c5nc(c(-c6c(F)c(F)c(F)c(F)c6F)c6ccc([nH]6)c(-c6c(F)c(F)c(F)c(F)c6F)c6nc(c(-c7c(F)c(F)c(F)c(F)c7F)c7ccc4[nH]7)C=C6)C=C5)cc3)[C@H](c3ccc(Cl)cc3Cl)C2)cc1
REMARK SMILES IDX 20 1 19 2 18 3 17 4 16 5 14 6 15 7 13 8 12 9 10 10 11 11
REMARK SMILES IDX 9 12 7 13 8 14 103 15 94 16 6 17 3 18 4 19 105 20 5 21
REMARK SMILES IDX 104 22 2 23 1 24 95 25 96 26 101 27 97 28 100 29 102 30
REMARK SMILES IDX 98 31 99 32 21 33 22 34 23 35 24 36 25 37 26 38 27 39 28 40
REMARK SMILES IDX 29 41 30 42 31 43 32 44 93 45 33 46 92 47 34 48 35 49 36 50
REMARK SMILES IDX 86 51 37 52 91 53 85 54 87 55 38 56 90 57 84 58 83 59 39 61
REMARK SMILES IDX 71 62 51 63 70 64 52 65 55 66 69 67 88 68 53 69 54 70 68 72
REMARK SMILES IDX 89 73 56 74 40 75 41 76 49 77 42 78 43 79 47 80 50 81 44 82
REMARK SMILES IDX 45 83 48 84 46 85 72 86 73 87 81 88 74 89 75 90 79 91 82 92
REMARK SMILES IDX 76 93 77 94 80 95 78 96 57 97 58 98 66 99 59 100 60 101
REMARK SMILES IDX 64 102 67 103 61 104 62 105 65 106 63 107
REMARK H PARENT 87 60 55 71
REMARK Flexibility Score: inf
ROOT
ATOM      1  C   UNL     1       3.555  10.918   0.946  1.00  0.00     0.188 C 
ENDROOT
BRANCH   1   2
ATOM      2  O   UNL     1       4.981  10.910   0.175  1.00  0.00    -0.376 OA
BRANCH   2   3
ATOM      3  C   UNL     1       5.943   9.729  -0.057  1.00  0.00     0.202 C 
BRANCH   3   4
ATOM      4  C   UNL     1       6.307   8.680   1.078  1.00  0.00     0.261 C 
BRANCH   4   5
ATOM      5  O   UNL     1       5.349   8.658   2.145  1.00  0.00    -0.463 OA
BRANCH   5   6
ATOM      6  C   UNL     1       5.660   9.544   3.111  1.00  0.00     0.306 C 
ATOM      7  O   UNL     1       6.792   9.987   3.275  1.00  0.00    -0.252 OA
BRANCH   6   8
ATOM      8  C   UNL     1       4.500  10.025   3.952  1.00  0.00     0.132 C 
BRANCH   8   9
ATOM      9  C   UNL     1       3.014   9.989   3.568  1.00  0.00     0.114 C 
BRANCH   9  10
ATOM     10  C   UNL     1       2.363   8.838   2.786  1.00  0.00     0.243 C 
ATOM     11  O   UNL     1       1.592   8.170   3.510  1.00  0.00    -0.273 OA
BRANCH  10  12
ATOM     12  N   UNL     1       2.475   8.539   1.392  1.00  0.00    -0.225 N 
ATOM     13  C   UNL     1       2.686   6.641   0.435  1.00  0.00     0.071 C 
ATOM     14  N   UNL     1       1.938   7.311   1.227  1.00  0.00    -0.174 NA
ATOM     15  C   UNL     1       3.713   7.385  -0.406  1.00  0.00     0.091 C 
ATOM     16  C   UNL     1       3.285   8.920  -0.153  1.00  0.00     0.149 C 
BRANCH  13  17
ATOM     17  C   UNL     1       2.586   5.197   0.543  1.00  0.00    -0.002 A 
ATOM     18  C   UNL     1       2.256   2.508   0.564  1.00  0.00     0.118 A 
ATOM     19  C   UNL     1       1.273   3.316   1.143  1.00  0.00     0.047 A 
ATOM     20  C   UNL     1       3.518   3.013   0.304  1.00  0.00     0.047 A 
ATOM     21  C   UNL     1       1.389   4.678   1.029  1.00  0.00     0.014 A 
ATOM     22  C   UNL     1       3.695   4.385   0.339  1.00  0.00     0.014 A 
BRANCH  18  23
ATOM     23  O   UNL     1       1.801   1.467  -0.202  1.00  0.00    -0.497 OA
ATOM     24  C   UNL     1       2.431   0.220  -0.068  1.00  0.00     0.278 C 
ENDBRANCH  18  23
ENDBRANCH  13  17
BRANCH  16  25
ATOM     25  C   UNL     1       3.018  10.490  -1.317  1.00  0.00    -0.004 A 
ATOM     26  C   UNL     1       2.280   9.962  -2.652  1.00  0.00     0.009 A 
ATOM     27  C   UNL     1       3.125  12.288  -1.411  1.00  0.00     0.047 A 
ATOM     28  C   UNL     1       1.716  10.848  -4.277  1.00  0.00     0.021 A 
ATOM     29  C   UNL     1       2.651  13.280  -2.830  1.00  0.00     0.041 A 
ATOM     30  Cl  UNL     1       3.232  13.491  -0.123  1.00  0.00    -0.084 Cl
ATOM     31  C   UNL     1       1.954  12.607  -4.294  1.00  0.00     0.042 A 
ATOM     32  Cl  UNL     1       1.432  13.635  -5.553  1.00  0.00    -0.084 Cl
ENDBRANCH  16  25
ENDBRANCH  10  12
ENDBRANCH   9  10
ENDBRANCH   8   9
ENDBRANCH   6   8
ENDBRANCH   5   6
ENDBRANCH   4   5
ENDBRANCH   3   4
ENDBRANCH   2   3
ENDBRANCH   1   2
BRANCH   1  33
ATOM     33  C   UNL     1       1.719  10.486   0.400  1.00  0.00     0.188 C 
BRANCH  33  34
ATOM     34  O   UNL     1       1.066   9.233  -0.723  1.00  0.00    -0.377 OA
BRANCH  34  35
ATOM     35  C   UNL     1       1.494   8.125  -2.065  1.00  0.00     0.188 C 
BRANCH  35  36
ATOM     36  C   UNL     1       2.366   8.284  -3.834  1.00  0.00     0.188 C 
BRANCH  36  37
ATOM     37  O   UNL     1       3.575   9.614  -4.198  1.00  0.00    -0.376 OA
BRANCH  37  38
ATOM     38  C   UNL     1       3.344  11.285  -3.387  1.00  0.00     0.202 C 
BRANCH  38  39
ATOM     39  C   UNL     1       1.311  11.614  -2.550  1.00  0.00     0.261 C 
BRANCH  39  40
ATOM     40  O   UNL     1       0.036  10.342  -2.668  1.00  0.00    -0.460 OA
BRANCH  40  41
ATOM     41  C   UNL     1      -0.691   9.711  -3.677  1.00  0.00     0.338 C 
ATOM     42  O   UNL     1      -0.853  10.161  -4.806  1.00  0.00    -0.246 OA
BRANCH  41  43
ATOM     43  C   UNL     1      -1.107   8.229  -3.443  1.00  0.00     0.060 A 
ATOM     44  C   UNL     1      -0.492   7.156  -4.157  1.00  0.00     0.016 A 
ATOM     45  C   UNL     1      -2.130   7.845  -2.578  1.00  0.00     0.016 A 
ATOM     46  C   UNL     1      -0.751   5.781  -3.903  1.00  0.00     0.010 A 
ATOM     47  C   UNL     1      -2.493   6.467  -2.426  1.00  0.00     0.010 A 
ATOM     48  C   UNL     1      -1.805   5.414  -3.072  1.00  0.00    -0.014 A 
BRANCH  48  49
ATOM     49  C   UNL     1      -2.343   4.004  -3.097  1.00  0.00     0.031 A 
ATOM     50  C   UNL     1      -3.378   3.649  -4.106  1.00  0.00     0.074 A 
ATOM     51  C   UNL     1      -1.980   3.006  -2.267  1.00  0.00     0.049 A 
ATOM     52  N   UNL     1      -4.001   2.511  -4.263  1.00  0.00    -0.248 NA
ATOM     53  C   UNL     1      -3.756   4.699  -5.056  1.00  0.00     0.031 C 
ATOM     54  C   UNL     1      -0.923   3.147  -1.302  1.00  0.00     0.029 A 
ATOM     55  N   UNL     1      -2.444   1.705  -2.067  1.00  0.00    -0.354 N 
ATOM     56  C   UNL     1      -4.860   2.705  -5.321  1.00  0.00     0.074 A 
ATOM     57  C   UNL     1      -4.699   4.082  -5.751  1.00  0.00     0.031 C 
ATOM     58  C   UNL     1      -0.904   2.029  -0.573  1.00  0.00     0.029 A 
ATOM     59  C   UNL     1      -1.858   1.060  -1.000  1.00  0.00     0.049 A 
ATOM     60  H   UNL     1      -3.129   1.285  -2.638  1.00  0.00     0.167 HD
ATOM     61  C   UNL     1      -5.702   1.807  -5.877  1.00  0.00     0.037 A 
ATOM     62  C   UNL     1      -1.956  -0.138  -0.374  1.00  0.00     0.037 A 
ATOM     63  C   UNL     1      -5.887   0.449  -5.425  1.00  0.00     0.049 A 
ATOM     64  C   UNL     1      -2.897  -1.105  -0.986  1.00  0.00     0.074 A 
ATOM     65  C   UNL     1      -6.749  -0.507  -5.934  1.00  0.00     0.029 A 
ATOM     66  N   UNL     1      -5.229  -0.148  -4.355  1.00  0.00    -0.354 N 
ATOM     67  N   UNL     1      -3.633  -0.917  -2.047  1.00  0.00    -0.248 NA
ATOM     68  C   UNL     1      -3.004  -2.439  -0.385  1.00  0.00     0.031 C 
ATOM     69  C   UNL     1      -6.671  -1.650  -5.133  1.00  0.00     0.029 A 
ATOM     70  C   UNL     1      -5.703  -1.443  -4.168  1.00  0.00     0.049 A 
ATOM     71  H   UNL     1      -4.531   0.282  -3.811  1.00  0.00     0.167 HD
ATOM     72  C   UNL     1      -4.285  -2.106  -2.252  1.00  0.00     0.074 A 
ATOM     73  C   UNL     1      -3.789  -3.043  -1.262  1.00  0.00     0.031 C 
ATOM     74  C   UNL     1      -5.242  -2.369  -3.167  1.00  0.00     0.037 A 
BRANCH  61  75
ATOM     75  C   UNL     1      -6.538   2.312  -7.007  1.00  0.00     0.064 A 
ATOM     76  C   UNL     1      -5.979   2.647  -8.249  1.00  0.00     0.173 A 
ATOM     77  C   UNL     1      -7.918   2.480  -6.833  1.00  0.00     0.173 A 
ATOM     78  F   UNL     1      -4.656   2.539  -8.447  1.00  0.00    -0.203 F 
ATOM     79  C   UNL     1      -6.771   3.160  -9.270  1.00  0.00     0.198 A 
ATOM     80  C   UNL     1      -8.713   2.952  -7.870  1.00  0.00     0.198 A 
ATOM     81  F   UNL     1      -8.493   2.189  -5.657  1.00  0.00    -0.203 F 
ATOM     82  F   UNL     1      -6.208   3.540 -10.425  1.00  0.00    -0.200 F 
ATOM     83  C   UNL     1      -8.139   3.300  -9.083  1.00  0.00     0.200 A 
ATOM     84  F   UNL     1     -10.035   3.079  -7.691  1.00  0.00    -0.200 F 
ATOM     85  F   UNL     1      -8.903   3.784 -10.071  1.00  0.00    -0.200 F 
ENDBRANCH  61  75
BRANCH  62  86
ATOM     86  C   UNL     1      -1.108  -0.540   0.819  1.00  0.00     0.064 A 
ATOM     87  C   UNL     1      -0.236  -1.644   0.766  1.00  0.00     0.173 A 
ATOM     88  C   UNL     1      -1.116   0.178   2.030  1.00  0.00     0.173 A 
ATOM     89  F   UNL     1      -0.138  -2.369  -0.359  1.00  0.00    -0.203 F 
ATOM     90  C   UNL     1       0.569  -2.013   1.850  1.00  0.00     0.198 A 
ATOM     91  C   UNL     1      -0.267  -0.155   3.095  1.00  0.00     0.198 A 
ATOM     92  F   UNL     1      -1.909   1.250   2.168  1.00  0.00    -0.203 F 
ATOM     93  F   UNL     1       1.387  -3.070   1.745  1.00  0.00    -0.200 F 
ATOM     94  C   UNL     1       0.568  -1.255   3.007  1.00  0.00     0.200 A 
ATOM     95  F   UNL     1      -0.240   0.611   4.194  1.00  0.00    -0.200 F 
ATOM     96  F   UNL     1       1.395  -1.564   4.016  1.00  0.00    -0.200 F 
ENDBRANCH  62  86
BRANCH  74  97
ATOM     97  C   UNL     1      -5.818  -3.743  -3.102  1.00  0.00     0.064 A 
ATOM     98  C   UNL     1      -6.561  -4.170  -1.988  1.00  0.00     0.173 A 
ATOM     99  C   UNL     1      -5.559  -4.663  -4.123  1.00  0.00     0.173 A 
ATOM    100  F   UNL     1      -6.794  -3.331  -0.966  1.00  0.00    -0.203 F 
ATOM    101  C   UNL     1      -6.977  -5.490  -1.878  1.00  0.00     0.198 A 
ATOM    102  C   UNL     1      -6.020  -5.970  -4.031  1.00  0.00     0.198 A 
ATOM    103  F   UNL     1      -4.835  -4.302  -5.193  1.00  0.00    -0.203 F 
ATOM    104  F   UNL     1      -7.590  -5.905  -0.761  1.00  0.00    -0.200 F 
ATOM    105  C   UNL     1      -6.713  -6.386  -2.903  1.00  0.00     0.200 A 
ATOM    106  F   UNL     1      -5.769  -6.835  -5.022  1.00  0.00    -0.200 F 
ATOM    107  F   UNL     1      -7.108  -7.661  -2.793  1.00  0.00    -0.200 F 
ENDBRANCH  74  97
ENDBRANCH  48  49
ENDBRANCH  41  43
ENDBRANCH  40  41
ENDBRANCH  39  40
ENDBRANCH  38  39
ENDBRANCH  37  38
ENDBRANCH  36  37
ENDBRANCH  35  36
ENDBRANCH  34  35
ENDBRANCH  33  34
ENDBRANCH   1  33
TORSDOF 26
