REMARK SMILES C=CC[NH2+]CC(=O)N1CCC[C@@H]1C(=O)OCCOCCOCCOCCOC(=O)c1ccc(-c2c3nc(c(-c4c(F)c(F)c(F)c(F)c4F)c4ccc([nH]4)c(-c4c(F)c(F)c(F)c(F)c4F)c4nc(c(-c5c(F)c(F)c(F)c(F)c5F)c5ccc2[nH]5)C=C4)C=C3)cc1
REMARK SMILES IDX 19 1 18 2 17 3 16 4 15 5 13 6 14 7 12 8 8 9 9 10 10 11 11 12
REMARK SMILES IDX 6 13 7 14 5 15 4 16 3 19 2 20 1 21 20 22 21 23 22 24 23 25
REMARK SMILES IDX 24 26 25 27 26 28 27 29 28 30 29 31 30 32 31 33 92 34 32 35
REMARK SMILES IDX 91 36 33 37 34 38 35 39 85 40 36 41 90 42 84 43 86 44 37 45
REMARK SMILES IDX 89 46 83 47 82 48 38 50 70 51 50 52 69 53 51 54 54 55 68 56
REMARK SMILES IDX 87 57 52 58 53 59 67 61 88 62 55 63 39 64 40 65 48 66 41 67
REMARK SMILES IDX 42 68 46 69 49 70 43 71 44 72 47 73 45 74 71 75 72 76 80 77
REMARK SMILES IDX 73 78 74 79 78 80 81 81 75 82 76 83 79 84 77 85 56 86 57 87
REMARK SMILES IDX 65 88 58 89 59 90 63 91 66 92 60 93 61 94 64 95 62 96
REMARK H PARENT 4 17 4 18 86 49 54 60
REMARK Flexibility Score: inf
ROOT
ATOM      1  C   UNL     1      -7.579   0.446   2.623  1.00  0.00     0.188 C 
ENDROOT
BRANCH   1   2
ATOM      2  O   UNL     1      -8.427  -0.405   1.886  1.00  0.00    -0.376 OA
BRANCH   2   3
ATOM      3  C   UNL     1      -8.018  -1.334   0.905  1.00  0.00     0.202 C 
BRANCH   3   4
ATOM      4  C   UNL     1      -6.730  -1.307   0.060  1.00  0.00     0.261 C 
BRANCH   4   5
ATOM      5  O   UNL     1      -5.533  -0.732   0.594  1.00  0.00    -0.462 OA
BRANCH   5   6
ATOM      6  C   UNL     1      -5.351   0.591   0.309  1.00  0.00     0.328 C 
ATOM      7  O   UNL     1      -6.206   1.287  -0.226  1.00  0.00    -0.250 OA
BRANCH   6   8
ATOM      8  C   UNL     1      -3.951   1.118   0.681  1.00  0.00     0.195 C 
ATOM      9  N   UNL     1      -2.969   0.328  -0.048  1.00  0.00    -0.324 N 
ATOM     10  C   UNL     1      -1.901  -0.089   0.848  1.00  0.00     0.121 C 
ATOM     11  C   UNL     1      -2.518  -0.102   2.224  1.00  0.00     0.024 C 
ATOM     12  C   UNL     1      -3.472   1.078   2.136  1.00  0.00     0.039 C 
BRANCH   9  13
ATOM     13  C   UNL     1      -2.815   0.579  -1.403  1.00  0.00     0.278 C 
ATOM     14  O   UNL     1      -3.015   1.695  -1.881  1.00  0.00    -0.268 OA
BRANCH  13  15
ATOM     15  C   UNL     1      -2.505  -0.629  -2.300  1.00  0.00     0.362 C 
BRANCH  15  16
ATOM     16  N   UNL     1      -1.106  -0.651  -2.786  1.00  0.00    -0.335 N 
ATOM     17  H   UNL     1      -0.982  -1.423  -3.442  1.00  0.00     0.347 HD
ATOM     18  H   UNL     1      -0.888   0.225  -3.261  1.00  0.00     0.347 HD
BRANCH  16  19
ATOM     19  C   UNL     1      -0.226  -0.830  -1.649  1.00  0.00     0.289 C 
BRANCH  19  20
ATOM     20  C   UNL     1       1.229  -0.940  -1.919  1.00  0.00     0.025 C 
ATOM     21  C   UNL     1       2.117  -0.299  -1.142  1.00  0.00     0.010 C 
ENDBRANCH  19  20
ENDBRANCH  16  19
ENDBRANCH  15  16
ENDBRANCH  13  15
ENDBRANCH   9  13
ENDBRANCH   6   8
ENDBRANCH   5   6
ENDBRANCH   4   5
ENDBRANCH   3   4
ENDBRANCH   2   3
ENDBRANCH   1   2
BRANCH   1  22
ATOM     22  C   UNL     1      -6.363  -0.124   3.355  1.00  0.00     0.188 C 
BRANCH  22  23
ATOM     23  O   UNL     1      -6.502  -1.015   4.433  1.00  0.00    -0.377 OA
BRANCH  23  24
ATOM     24  C   UNL     1      -7.380  -2.089   4.234  1.00  0.00     0.188 C 
BRANCH  24  25
ATOM     25  C   UNL     1      -8.781  -1.813   4.783  1.00  0.00     0.188 C 
BRANCH  25  26
ATOM     26  O   UNL     1      -9.052  -0.775   5.721  1.00  0.00    -0.376 OA
BRANCH  26  27
ATOM     27  C   UNL     1      -8.034  -0.032   6.369  1.00  0.00     0.202 C 
BRANCH  27  28
ATOM     28  C   UNL     1      -7.047  -0.729   7.324  1.00  0.00     0.261 C 
BRANCH  28  29
ATOM     29  O   UNL     1      -6.703  -2.088   7.037  1.00  0.00    -0.460 OA
BRANCH  29  30
ATOM     30  C   UNL     1      -7.543  -3.025   7.527  1.00  0.00     0.338 C 
ATOM     31  O   UNL     1      -8.546  -2.854   8.197  1.00  0.00    -0.246 OA
BRANCH  30  32
ATOM     32  C   UNL     1      -7.120  -4.338   6.999  1.00  0.00     0.060 A 
ATOM     33  C   UNL     1      -8.047  -5.097   6.274  1.00  0.00     0.016 A 
ATOM     34  C   UNL     1      -5.823  -4.815   7.210  1.00  0.00     0.016 A 
ATOM     35  C   UNL     1      -7.688  -6.345   5.772  1.00  0.00     0.010 A 
ATOM     36  C   UNL     1      -5.474  -6.084   6.741  1.00  0.00     0.010 A 
ATOM     37  C   UNL     1      -6.417  -6.865   6.049  1.00  0.00    -0.014 A 
BRANCH  37  38
ATOM     38  C   UNL     1      -6.173  -8.309   5.836  1.00  0.00     0.031 A 
ATOM     39  C   UNL     1      -6.426  -9.238   6.990  1.00  0.00     0.074 A 
ATOM     40  C   UNL     1      -5.775  -8.789   4.646  1.00  0.00     0.049 A 
ATOM     41  N   UNL     1      -6.266 -10.534   7.068  1.00  0.00    -0.248 NA
ATOM     42  C   UNL     1      -6.930  -8.617   8.226  1.00  0.00     0.031 C 
ATOM     43  C   UNL     1      -5.548  -7.991   3.445  1.00  0.00     0.029 A 
ATOM     44  N   UNL     1      -5.487 -10.074   4.261  1.00  0.00    -0.354 N 
ATOM     45  C   UNL     1      -6.647 -10.879   8.358  1.00  0.00     0.074 A 
ATOM     46  C   UNL     1      -7.015  -9.658   9.039  1.00  0.00     0.031 C 
ATOM     47  C   UNL     1      -5.138  -8.805   2.455  1.00  0.00     0.029 A 
ATOM     48  C   UNL     1      -5.048 -10.173   2.965  1.00  0.00     0.049 A 
ATOM     49  H   UNL     1      -5.586 -10.851   4.858  1.00  0.00     0.167 HD
ATOM     50  C   UNL     1      -6.692 -12.108   8.922  1.00  0.00     0.037 A 
ATOM     51  C   UNL     1      -4.604 -11.247   2.282  1.00  0.00     0.037 A 
ATOM     52  C   UNL     1      -6.314 -13.318   8.245  1.00  0.00     0.049 A 
ATOM     53  C   UNL     1      -4.585 -12.595   2.959  1.00  0.00     0.074 A 
ATOM     54  C   UNL     1      -6.330 -14.616   8.723  1.00  0.00     0.029 A 
ATOM     55  N   UNL     1      -5.840 -13.375   6.942  1.00  0.00    -0.354 N 
ATOM     56  N   UNL     1      -4.968 -12.921   4.170  1.00  0.00    -0.248 NA
ATOM     57  C   UNL     1      -4.074 -13.726   2.170  1.00  0.00     0.031 C 
ATOM     58  C   UNL     1      -5.812 -15.452   7.729  1.00  0.00     0.029 A 
ATOM     59  C   UNL     1      -5.533 -14.684   6.609  1.00  0.00     0.049 A 
ATOM     60  H   UNL     1      -5.737 -12.600   6.344  1.00  0.00     0.167 HD
ATOM     61  C   UNL     1      -4.779 -14.294   4.277  1.00  0.00     0.074 A 
ATOM     62  C   UNL     1      -4.252 -14.741   3.004  1.00  0.00     0.031 C 
ATOM     63  C   UNL     1      -5.022 -15.111   5.331  1.00  0.00     0.037 A 
BRANCH  50  64
ATOM     64  C   UNL     1      -7.131 -12.192  10.354  1.00  0.00     0.064 A 
ATOM     65  C   UNL     1      -8.460 -11.952  10.736  1.00  0.00     0.173 A 
ATOM     66  C   UNL     1      -6.210 -12.529  11.358  1.00  0.00     0.173 A 
ATOM     67  F   UNL     1      -9.374 -11.606   9.818  1.00  0.00    -0.203 F 
ATOM     68  C   UNL     1      -8.843 -12.018  12.073  1.00  0.00     0.198 A 
ATOM     69  C   UNL     1      -6.604 -12.625  12.689  1.00  0.00     0.198 A 
ATOM     70  F   UNL     1      -4.927 -12.767  11.046  1.00  0.00    -0.203 F 
ATOM     71  F   UNL     1     -10.105 -11.732  12.422  1.00  0.00    -0.200 F 
ATOM     72  C   UNL     1      -7.917 -12.361  13.047  1.00  0.00     0.200 A 
ATOM     73  F   UNL     1      -5.710 -12.967  13.627  1.00  0.00    -0.200 F 
ATOM     74  F   UNL     1      -8.289 -12.430  14.333  1.00  0.00    -0.200 F 
ENDBRANCH  50  64
BRANCH  51  75
ATOM     75  C   UNL     1      -4.129 -11.093   0.881  1.00  0.00     0.064 A 
ATOM     76  C   UNL     1      -4.832 -11.662  -0.190  1.00  0.00     0.173 A 
ATOM     77  C   UNL     1      -2.951 -10.392   0.587  1.00  0.00     0.173 A 
ATOM     78  F   UNL     1      -5.950 -12.365   0.042  1.00  0.00    -0.203 F 
ATOM     79  C   UNL     1      -4.365 -11.551  -1.498  1.00  0.00     0.198 A 
ATOM     80  C   UNL     1      -2.500 -10.256  -0.724  1.00  0.00     0.198 A 
ATOM     81  F   UNL     1      -2.239  -9.829   1.575  1.00  0.00    -0.203 F 
ATOM     82  F   UNL     1      -5.031 -12.145  -2.498  1.00  0.00    -0.200 F 
ATOM     83  C   UNL     1      -3.203 -10.843  -1.765  1.00  0.00     0.200 A 
ATOM     84  F   UNL     1      -1.383  -9.560  -0.978  1.00  0.00    -0.200 F 
ATOM     85  F   UNL     1      -2.756 -10.733  -3.024  1.00  0.00    -0.200 F 
ENDBRANCH  51  75
BRANCH  63  86
ATOM     86  C   UNL     1      -4.770 -16.580   5.144  1.00  0.00     0.064 A 
ATOM     87  C   UNL     1      -3.472 -17.104   5.059  1.00  0.00     0.173 A 
ATOM     88  C   UNL     1      -5.845 -17.482   5.108  1.00  0.00     0.173 A 
ATOM     89  F   UNL     1      -2.410 -16.284   5.076  1.00  0.00    -0.203 F 
ATOM     90  C   UNL     1      -3.261 -18.474   4.919  1.00  0.00     0.198 A 
ATOM     91  C   UNL     1      -5.630 -18.853   5.001  1.00  0.00     0.198 A 
ATOM     92  F   UNL     1      -7.107 -17.034   5.195  1.00  0.00    -0.203 F 
ATOM     93  F   UNL     1      -2.014 -18.948   4.794  1.00  0.00    -0.200 F 
ATOM     94  C   UNL     1      -4.339 -19.347   4.900  1.00  0.00     0.200 A 
ATOM     95  F   UNL     1      -6.672 -19.696   5.000  1.00  0.00    -0.200 F 
ATOM     96  F   UNL     1      -4.133 -20.666   4.778  1.00  0.00    -0.200 F 
ENDBRANCH  63  86
ENDBRANCH  37  38
ENDBRANCH  30  32
ENDBRANCH  29  30
ENDBRANCH  28  29
ENDBRANCH  27  28
ENDBRANCH  26  27
ENDBRANCH  25  26
ENDBRANCH  24  25
ENDBRANCH  23  24
ENDBRANCH  22  23
ENDBRANCH   1  22
TORSDOF 25
