REMARK SMILES Cc1ccc(C)c(OCCNC(=O)CCC(=O)OCCOCCOCCOCCOC(=O)c2ccc(-c3c4nc(c(-c5c(F)c(F)c(F)c(F)c5F)c5ccc([nH]5)c(-c5c(F)c(F)c(F)c(F)c5F)c5nc(c(-c6c(F)c(F)c(F)c(F)c6F)c6ccc3[nH]6)C=C5)C=C4)cc2)c1
REMARK SMILES IDX 22 1 21 2 20 3 19 4 18 5 16 6 17 7 15 8 14 9 12 10 11 11
REMARK SMILES IDX 13 13 10 14 9 15 8 16 7 17 1 18 2 19 3 20 96 21 4 22 5 23
REMARK SMILES IDX 6 24 23 25 24 26 25 27 26 28 27 29 28 30 29 31 30 32 31 33
REMARK SMILES IDX 32 34 33 35 34 36 95 37 35 38 94 39 36 40 37 41 38 42 88 43
REMARK SMILES IDX 39 44 93 45 87 46 89 47 40 48 92 49 86 50 85 51 41 53 73 54
REMARK SMILES IDX 53 55 72 56 54 57 57 58 71 59 90 60 55 61 56 62 70 64 91 65
REMARK SMILES IDX 58 66 42 67 43 68 51 69 44 70 45 71 49 72 52 73 46 74 47 75
REMARK SMILES IDX 50 76 48 77 74 78 75 79 83 80 76 81 77 82 81 83 84 84 78 85
REMARK SMILES IDX 79 86 82 87 80 88 59 89 60 90 68 91 61 92 62 93 66 94 69 95
REMARK SMILES IDX 63 96 64 97 67 98 65 99
REMARK H PARENT 11 12 89 52 57 63
REMARK Flexibility Score: inf
ROOT
ATOM      1  C   UNL     1       0.145   5.075   1.993  1.00  0.00     0.188 C 
ENDROOT
BRANCH   1   2
ATOM      2  O   UNL     1      -0.324   4.116   1.056  1.00  0.00    -0.376 OA
BRANCH   2   3
ATOM      3  C   UNL     1      -1.061   4.666  -0.035  1.00  0.00     0.202 C 
BRANCH   3   4
ATOM      4  C   UNL     1      -0.154   5.201  -1.157  1.00  0.00     0.261 C 
BRANCH   4   5
ATOM      5  O   UNL     1       0.963   4.321  -1.428  1.00  0.00    -0.463 OA
BRANCH   5   6
ATOM      6  C   UNL     1       2.128   4.603  -0.781  1.00  0.00     0.306 C 
ATOM      7  O   UNL     1       2.336   5.610  -0.121  1.00  0.00    -0.252 OA
BRANCH   6   8
ATOM      8  C   UNL     1       3.161   3.517  -0.987  1.00  0.00     0.132 C 
BRANCH   8   9
ATOM      9  C   UNL     1       3.764   2.971   0.294  1.00  0.00     0.111 C 
BRANCH   9  10
ATOM     10  C   UNL     1       3.489   1.522   0.647  1.00  0.00     0.220 C 
ATOM     11  N   UNL     1       2.248   0.973   0.619  1.00  0.00    -0.353 N 
ATOM     12  H   UNL     1       2.232  -0.006   0.718  1.00  0.00     0.163 HD
ATOM     13  O   UNL     1       4.417   0.801   1.029  1.00  0.00    -0.275 OA
BRANCH  11  14
ATOM     14  C   UNL     1       0.940   1.588   0.468  1.00  0.00     0.157 C 
BRANCH  14  15
ATOM     15  C   UNL     1       0.312   1.567  -0.953  1.00  0.00     0.250 C 
BRANCH  15  16
ATOM     16  O   UNL     1      -0.640   0.537  -1.264  1.00  0.00    -0.491 OA
BRANCH  16  17
ATOM     17  C   UNL     1      -0.184  -0.702  -0.936  1.00  0.00     0.122 A 
ATOM     18  C   UNL     1       3.207  -2.254  -0.592  1.00  0.00     0.044 C 
ATOM     19  C   UNL     1       1.715  -2.111  -0.542  1.00  0.00    -0.047 A 
ATOM     20  C   UNL     1       0.913  -2.913   0.276  1.00  0.00     0.004 A 
ATOM     21  C   UNL     1       1.121  -1.075  -1.246  1.00  0.00     0.050 A 
ATOM     22  C   UNL     1      -0.453  -2.635   0.435  1.00  0.00     0.007 A 
ATOM     23  C   UNL     1      -1.014  -1.496  -0.143  1.00  0.00    -0.009 A 
ATOM     24  C   UNL     1      -2.448  -1.114   0.093  1.00  0.00     0.048 C 
ENDBRANCH  16  17
ENDBRANCH  15  16
ENDBRANCH  14  15
ENDBRANCH  11  14
ENDBRANCH   9  10
ENDBRANCH   8   9
ENDBRANCH   6   8
ENDBRANCH   5   6
ENDBRANCH   4   5
ENDBRANCH   3   4
ENDBRANCH   2   3
ENDBRANCH   1   2
BRANCH   1  25
ATOM     25  C   UNL     1       1.427   4.683   2.743  1.00  0.00     0.188 C 
BRANCH  25  26
ATOM     26  O   UNL     1       1.522   3.402   3.368  1.00  0.00    -0.377 OA
BRANCH  26  27
ATOM     27  C   UNL     1       0.320   2.828   3.860  1.00  0.00     0.188 C 
BRANCH  27  28
ATOM     28  C   UNL     1      -0.367   3.563   5.016  1.00  0.00     0.188 C 
BRANCH  28  29
ATOM     29  O   UNL     1      -0.067   4.954   5.027  1.00  0.00    -0.376 OA
BRANCH  29  30
ATOM     30  C   UNL     1       0.515   5.416   6.244  1.00  0.00     0.202 C 
BRANCH  30  31
ATOM     31  C   UNL     1      -0.570   5.689   7.292  1.00  0.00     0.261 C 
BRANCH  31  32
ATOM     32  O   UNL     1      -1.346   6.835   6.892  1.00  0.00    -0.460 OA
BRANCH  32  33
ATOM     33  C   UNL     1      -2.247   6.577   5.911  1.00  0.00     0.338 C 
ATOM     34  O   UNL     1      -3.081   5.684   5.927  1.00  0.00    -0.246 OA
BRANCH  33  35
ATOM     35  C   UNL     1      -1.900   7.388   4.712  1.00  0.00     0.060 A 
ATOM     36  C   UNL     1      -2.492   7.042   3.502  1.00  0.00     0.016 A 
ATOM     37  C   UNL     1      -0.842   8.314   4.725  1.00  0.00     0.016 A 
ATOM     38  C   UNL     1      -1.931   7.516   2.320  1.00  0.00     0.010 A 
ATOM     39  C   UNL     1      -0.272   8.770   3.533  1.00  0.00     0.010 A 
ATOM     40  C   UNL     1      -0.759   8.310   2.315  1.00  0.00    -0.014 A 
BRANCH  40  41
ATOM     41  C   UNL     1      -0.135   8.619   0.999  1.00  0.00     0.031 A 
ATOM     42  C   UNL     1      -1.119   8.912  -0.074  1.00  0.00     0.074 A 
ATOM     43  C   UNL     1       1.184   8.642   0.677  1.00  0.00     0.049 A 
ATOM     44  N   UNL     1      -1.254   8.307  -1.214  1.00  0.00    -0.248 NA
ATOM     45  C   UNL     1      -2.162   9.909   0.225  1.00  0.00     0.031 C 
ATOM     46  C   UNL     1       2.314   8.456   1.585  1.00  0.00     0.029 A 
ATOM     47  N   UNL     1       1.806   8.863  -0.543  1.00  0.00    -0.354 N 
ATOM     48  C   UNL     1      -2.266   8.996  -1.858  1.00  0.00     0.074 A 
ATOM     49  C   UNL     1      -2.894   9.858  -0.885  1.00  0.00     0.031 C 
ATOM     50  C   UNL     1       3.464   8.734   0.938  1.00  0.00     0.029 A 
ATOM     51  C   UNL     1       3.181   9.068  -0.452  1.00  0.00     0.049 A 
ATOM     52  H   UNL     1       1.319   8.874  -1.399  1.00  0.00     0.167 HD
ATOM     53  C   UNL     1      -2.280   9.129  -3.206  1.00  0.00     0.037 A 
ATOM     54  C   UNL     1       4.059   9.504  -1.396  1.00  0.00     0.037 A 
ATOM     55  C   UNL     1      -1.588   8.119  -3.940  1.00  0.00     0.049 A 
ATOM     56  C   UNL     1       3.506   9.300  -2.760  1.00  0.00     0.074 A 
ATOM     57  C   UNL     1      -1.893   6.925  -4.550  1.00  0.00     0.029 A 
ATOM     58  N   UNL     1      -0.230   8.235  -3.959  1.00  0.00    -0.354 N 
ATOM     59  N   UNL     1       3.583   8.193  -3.443  1.00  0.00    -0.248 NA
ATOM     60  C   UNL     1       2.692  10.348  -3.374  1.00  0.00     0.031 C 
ATOM     61  C   UNL     1      -0.661   6.358  -4.992  1.00  0.00     0.029 A 
ATOM     62  C   UNL     1       0.377   7.222  -4.658  1.00  0.00     0.049 A 
ATOM     63  H   UNL     1       0.261   8.965  -3.519  1.00  0.00     0.167 HD
ATOM     64  C   UNL     1       2.558   8.262  -4.358  1.00  0.00     0.074 A 
ATOM     65  C   UNL     1       2.154   9.661  -4.383  1.00  0.00     0.031 C 
ATOM     66  C   UNL     1       1.829   7.155  -4.685  1.00  0.00     0.037 A 
BRANCH  53  67
ATOM     67  C   UNL     1      -2.467  10.507  -3.764  1.00  0.00     0.064 A 
ATOM     68  C   UNL     1      -3.085  10.726  -4.996  1.00  0.00     0.173 A 
ATOM     69  C   UNL     1      -1.833  11.620  -3.161  1.00  0.00     0.173 A 
ATOM     70  F   UNL     1      -3.624   9.704  -5.675  1.00  0.00    -0.203 F 
ATOM     71  C   UNL     1      -3.118  12.004  -5.563  1.00  0.00     0.198 A 
ATOM     72  C   UNL     1      -1.919  12.898  -3.695  1.00  0.00     0.198 A 
ATOM     73  F   UNL     1      -1.056  11.470  -2.076  1.00  0.00    -0.203 F 
ATOM     74  F   UNL     1      -3.671  12.182  -6.770  1.00  0.00    -0.200 F 
ATOM     75  C   UNL     1      -2.558  13.089  -4.902  1.00  0.00     0.200 A 
ATOM     76  F   UNL     1      -1.344  13.924  -3.053  1.00  0.00    -0.200 F 
ATOM     77  F   UNL     1      -2.596  14.312  -5.446  1.00  0.00    -0.200 F 
ENDBRANCH  53  67
BRANCH  54  78
ATOM     78  C   UNL     1       5.402  10.145  -1.225  1.00  0.00     0.064 A 
ATOM     79  C   UNL     1       6.289  10.297  -2.312  1.00  0.00     0.173 A 
ATOM     80  C   UNL     1       5.770  10.829  -0.049  1.00  0.00     0.173 A 
ATOM     81  F   UNL     1       6.017   9.748  -3.504  1.00  0.00    -0.203 F 
ATOM     82  C   UNL     1       7.448  11.079  -2.226  1.00  0.00     0.198 A 
ATOM     83  C   UNL     1       6.944  11.580   0.046  1.00  0.00     0.198 A 
ATOM     84  F   UNL     1       4.959  10.867   1.016  1.00  0.00    -0.203 F 
ATOM     85  F   UNL     1       8.220  11.251  -3.309  1.00  0.00    -0.200 F 
ATOM     86  C   UNL     1       7.776  11.718  -1.046  1.00  0.00     0.200 A 
ATOM     87  F   UNL     1       7.231  12.218   1.191  1.00  0.00    -0.200 F 
ATOM     88  F   UNL     1       8.862  12.500  -0.973  1.00  0.00    -0.200 F 
ENDBRANCH  54  78
BRANCH  66  89
ATOM     89  C   UNL     1       2.525   5.839  -4.909  1.00  0.00     0.064 A 
ATOM     90  C   UNL     1       3.461   5.251  -4.047  1.00  0.00     0.173 A 
ATOM     91  C   UNL     1       2.210   5.106  -6.071  1.00  0.00     0.173 A 
ATOM     92  F   UNL     1       3.793   5.822  -2.883  1.00  0.00    -0.203 F 
ATOM     93  C   UNL     1       4.043   4.011  -4.332  1.00  0.00     0.198 A 
ATOM     94  C   UNL     1       2.743   3.842  -6.320  1.00  0.00     0.198 A 
ATOM     95  F   UNL     1       1.366   5.614  -6.984  1.00  0.00    -0.203 F 
ATOM     96  F   UNL     1       4.954   3.490  -3.498  1.00  0.00    -0.200 F 
ATOM     97  C   UNL     1       3.662   3.295  -5.449  1.00  0.00     0.200 A 
ATOM     98  F   UNL     1       2.358   3.154  -7.403  1.00  0.00    -0.200 F 
ATOM     99  F   UNL     1       4.173   2.077  -5.674  1.00  0.00    -0.200 F 
ENDBRANCH  66  89
ENDBRANCH  40  41
ENDBRANCH  33  35
ENDBRANCH  32  33
ENDBRANCH  31  32
ENDBRANCH  30  31
ENDBRANCH  29  30
ENDBRANCH  28  29
ENDBRANCH  27  28
ENDBRANCH  26  27
ENDBRANCH  25  26
ENDBRANCH   1  25
TORSDOF 26
