REMARK SMILES C[C@@H](C(=O)OCCOCCOCCOCCOC(=O)c1ccc(-c2c3nc(c(-c4c(F)c(F)c(F)c(F)c4F)c4ccc([nH]4)c(-c4c(F)c(F)c(F)c(F)c4F)c4nc(c(-c5c(F)c(F)c(F)c(F)c5F)c5ccc2[nH]5)C=C4)C=C3)cc1)c1ccc(-c2ccccc2)cc1
REMARK SMILES IDX 11 1 10 2 9 3 8 4 7 5 6 6 5 7 3 8 4 9 2 10 1 11 83 12 84 13
REMARK SMILES IDX 94 14 85 15 93 16 86 17 87 18 88 19 92 20 89 21 91 22 90 23
REMARK SMILES IDX 12 24 13 25 14 26 15 27 16 28 17 29 18 30 19 31 20 32 21 33
REMARK SMILES IDX 82 34 22 35 81 36 23 37 24 38 25 39 75 40 26 41 80 42 74 43
REMARK SMILES IDX 76 44 27 45 79 46 73 47 72 48 28 50 60 51 40 52 59 53 41 54
REMARK SMILES IDX 44 55 58 56 77 57 42 58 43 59 57 61 78 62 45 63 29 64 30 65
REMARK SMILES IDX 38 66 31 67 32 68 36 69 39 70 33 71 34 72 37 73 35 74 61 75
REMARK SMILES IDX 62 76 70 77 63 78 64 79 68 80 71 81 65 82 66 83 69 84 67 85
REMARK SMILES IDX 46 86 47 87 55 88 48 89 49 90 53 91 56 92 50 93 51 94 54 95
REMARK SMILES IDX 52 96
REMARK H PARENT 76 49 44 60
REMARK Flexibility Score: inf
ROOT
ATOM      1  O   UNL     1       2.403   0.694   2.872  1.00  0.00    -0.377 OA
ENDROOT
BRANCH   1   2
ATOM      2  C   UNL     1       1.004   0.759   2.677  1.00  0.00     0.188 C 
BRANCH   2   3
ATOM      3  C   UNL     1       0.179  -0.179   3.575  1.00  0.00     0.188 C 
BRANCH   3   4
ATOM      4  O   UNL     1       0.784  -0.753   4.722  1.00  0.00    -0.376 OA
BRANCH   4   5
ATOM      5  C   UNL     1       1.999  -1.479   4.617  1.00  0.00     0.202 C 
BRANCH   5   6
ATOM      6  C   UNL     1       2.433  -2.272   3.366  1.00  0.00     0.261 C 
BRANCH   6   7
ATOM      7  O   UNL     1       1.967  -1.794   2.095  1.00  0.00    -0.463 OA
BRANCH   7   8
ATOM      8  C   UNL     1       1.127  -2.603   1.407  1.00  0.00     0.313 C 
ATOM      9  O   UNL     1       0.810  -3.728   1.782  1.00  0.00    -0.252 OA
BRANCH   8  10
ATOM     10  C   UNL     1       0.546  -1.956   0.132  1.00  0.00     0.126 C 
ATOM     11  C   UNL     1       1.403  -0.856  -0.517  1.00  0.00     0.025 C 
BRANCH  10  12
ATOM     12  C   UNL     1      -0.952  -1.674   0.293  1.00  0.00    -0.034 A 
ATOM     13  C   UNL     1      -1.539  -0.401   0.334  1.00  0.00     0.005 A 
ATOM     14  C   UNL     1      -1.802  -2.779   0.463  1.00  0.00     0.005 A 
ATOM     15  C   UNL     1      -2.921  -0.247   0.547  1.00  0.00     0.009 A 
ATOM     16  C   UNL     1      -3.175  -2.625   0.670  1.00  0.00     0.009 A 
ATOM     17  C   UNL     1      -3.763  -1.356   0.710  1.00  0.00    -0.018 A 
BRANCH  17  18
ATOM     18  C   UNL     1      -5.219  -1.216   0.875  1.00  0.00    -0.018 A 
ATOM     19  C   UNL     1      -5.980  -0.494  -0.059  1.00  0.00     0.009 A 
ATOM     20  C   UNL     1      -5.899  -1.848   1.930  1.00  0.00     0.009 A 
ATOM     21  C   UNL     1      -7.372  -0.421   0.047  1.00  0.00     0.001 A 
ATOM     22  C   UNL     1      -7.291  -1.775   2.038  1.00  0.00     0.001 A 
ATOM     23  C   UNL     1      -8.027  -1.065   1.093  1.00  0.00     0.000 A 
ENDBRANCH  17  18
ENDBRANCH  10  12
ENDBRANCH   8  10
ENDBRANCH   7   8
ENDBRANCH   6   7
ENDBRANCH   5   6
ENDBRANCH   4   5
ENDBRANCH   3   4
ENDBRANCH   2   3
ENDBRANCH   1   2
BRANCH   1  24
ATOM     24  C   UNL     1       2.980   1.623   3.776  1.00  0.00     0.188 C 
BRANCH  24  25
ATOM     25  C   UNL     1       2.142   2.140   4.962  1.00  0.00     0.188 C 
BRANCH  25  26
ATOM     26  O   UNL     1       0.830   2.561   4.615  1.00  0.00    -0.376 OA
BRANCH  26  27
ATOM     27  C   UNL     1       0.586   3.944   4.408  1.00  0.00     0.202 C 
BRANCH  27  28
ATOM     28  C   UNL     1       1.243   4.604   3.184  1.00  0.00     0.261 C 
BRANCH  28  29
ATOM     29  O   UNL     1       2.677   4.549   3.121  1.00  0.00    -0.460 OA
BRANCH  29  30
ATOM     30  C   UNL     1       3.375   5.096   4.135  1.00  0.00     0.338 C 
ATOM     31  O   UNL     1       2.930   5.706   5.094  1.00  0.00    -0.246 OA
BRANCH  30  32
ATOM     32  C   UNL     1       4.782   4.664   4.002  1.00  0.00     0.060 A 
ATOM     33  C   UNL     1       5.366   3.930   5.042  1.00  0.00     0.016 A 
ATOM     34  C   UNL     1       5.518   4.973   2.856  1.00  0.00     0.016 A 
ATOM     35  C   UNL     1       6.702   3.537   4.958  1.00  0.00     0.010 A 
ATOM     36  C   UNL     1       6.864   4.600   2.782  1.00  0.00     0.010 A 
ATOM     37  C   UNL     1       7.471   3.913   3.849  1.00  0.00    -0.014 A 
BRANCH  37  38
ATOM     38  C   UNL     1       8.947   3.777   3.901  1.00  0.00     0.031 A 
ATOM     39  C   UNL     1       9.759   4.988   4.272  1.00  0.00     0.074 A 
ATOM     40  C   UNL     1       9.557   2.606   3.651  1.00  0.00     0.049 A 
ATOM     41  N   UNL     1      11.057   5.139   4.329  1.00  0.00    -0.248 NA
ATOM     42  C   UNL     1       8.996   6.197   4.625  1.00  0.00     0.031 C 
ATOM     43  C   UNL     1       8.881   1.352   3.329  1.00  0.00     0.029 A 
ATOM     44  N   UNL     1      10.893   2.288   3.621  1.00  0.00    -0.354 N 
ATOM     45  C   UNL     1      11.265   6.456   4.716  1.00  0.00     0.074 A 
ATOM     46  C   UNL     1       9.964   7.073   4.845  1.00  0.00     0.031 C 
ATOM     47  C   UNL     1       9.808   0.401   3.117  1.00  0.00     0.029 A 
ATOM     48  C   UNL     1      11.141   0.989   3.252  1.00  0.00     0.049 A 
ATOM     49  H   UNL     1      11.605   2.931   3.843  1.00  0.00     0.167 HD
ATOM     50  C   UNL     1      12.437   7.092   4.954  1.00  0.00     0.037 A 
ATOM     51  C   UNL     1      12.310   0.359   3.023  1.00  0.00     0.037 A 
ATOM     52  C   UNL     1      13.731   6.477   4.818  1.00  0.00     0.049 A 
ATOM     53  C   UNL     1      13.605   1.113   3.208  1.00  0.00     0.074 A 
ATOM     54  C   UNL     1      14.978   7.031   5.042  1.00  0.00     0.029 A 
ATOM     55  N   UNL     1      13.942   5.168   4.409  1.00  0.00    -0.354 N 
ATOM     56  N   UNL     1      13.797   2.352   3.594  1.00  0.00    -0.248 NA
ATOM     57  C   UNL     1      14.847   0.378   2.929  1.00  0.00     0.031 C 
ATOM     58  C   UNL     1      15.946   6.079   4.707  1.00  0.00     0.029 A 
ATOM     59  C   UNL     1      15.302   4.907   4.345  1.00  0.00     0.049 A 
ATOM     60  H   UNL     1      13.232   4.520   4.196  1.00  0.00     0.167 HD
ATOM     61  C   UNL     1      15.175   2.533   3.637  1.00  0.00     0.074 A 
ATOM     62  C   UNL     1      15.771   1.272   3.251  1.00  0.00     0.031 C 
ATOM     63  C   UNL     1      15.882   3.642   3.968  1.00  0.00     0.037 A 
BRANCH  50  64
ATOM     64  C   UNL     1      12.372   8.539   5.351  1.00  0.00     0.064 A 
ATOM     65  C   UNL     1      11.863   8.944   6.595  1.00  0.00     0.173 A 
ATOM     66  C   UNL     1      12.847   9.534   4.483  1.00  0.00     0.173 A 
ATOM     67  F   UNL     1      11.381   8.036   7.456  1.00  0.00    -0.203 F 
ATOM     68  C   UNL     1      11.805  10.292   6.941  1.00  0.00     0.198 A 
ATOM     69  C   UNL     1      12.819  10.878   4.847  1.00  0.00     0.198 A 
ATOM     70  F   UNL     1      13.346   9.203   3.282  1.00  0.00    -0.203 F 
ATOM     71  F   UNL     1      11.263  10.659   8.111  1.00  0.00    -0.200 F 
ATOM     72  C   UNL     1      12.290  11.257   6.071  1.00  0.00     0.200 A 
ATOM     73  F   UNL     1      13.302  11.807   4.010  1.00  0.00    -0.200 F 
ATOM     74  F   UNL     1      12.239  12.553   6.408  1.00  0.00    -0.200 F 
ENDBRANCH  50  64
BRANCH  51  75
ATOM     75  C   UNL     1      12.318  -1.058   2.570  1.00  0.00     0.064 A 
ATOM     76  C   UNL     1      12.840  -2.077   3.380  1.00  0.00     0.173 A 
ATOM     77  C   UNL     1      11.829  -1.420   1.306  1.00  0.00     0.173 A 
ATOM     78  F   UNL     1      13.346  -1.781   4.586  1.00  0.00    -0.203 F 
ATOM     79  C   UNL     1      12.893  -3.397   2.933  1.00  0.00     0.198 A 
ATOM     80  C   UNL     1      11.851  -2.744   0.874  1.00  0.00     0.198 A 
ATOM     81  F   UNL     1      11.323  -0.484   0.488  1.00  0.00    -0.203 F 
ATOM     82  F   UNL     1      13.448  -4.341   3.706  1.00  0.00    -0.200 F 
ATOM     83  C   UNL     1      12.392  -3.731   1.684  1.00  0.00     0.200 A 
ATOM     84  F   UNL     1      11.354  -3.063  -0.329  1.00  0.00    -0.200 F 
ATOM     85  F   UNL     1      12.441  -5.000   1.257  1.00  0.00    -0.200 F 
ENDBRANCH  51  75
BRANCH  63  86
ATOM     86  C   UNL     1      17.382   3.534   3.976  1.00  0.00     0.064 A 
ATOM     87  C   UNL     1      18.123   3.399   2.792  1.00  0.00     0.173 A 
ATOM     88  C   UNL     1      18.091   3.614   5.186  1.00  0.00     0.173 A 
ATOM     89  F   UNL     1      17.497   3.306   1.610  1.00  0.00    -0.203 F 
ATOM     90  C   UNL     1      19.514   3.317   2.823  1.00  0.00     0.198 A 
ATOM     91  C   UNL     1      19.482   3.569   5.209  1.00  0.00     0.198 A 
ATOM     92  F   UNL     1      17.433   3.755   6.347  1.00  0.00    -0.203 F 
ATOM     93  F   UNL     1      20.197   3.133   1.685  1.00  0.00    -0.200 F 
ATOM     94  C   UNL     1      20.192   3.411   4.029  1.00  0.00     0.200 A 
ATOM     95  F   UNL     1      20.135   3.680   6.374  1.00  0.00    -0.200 F 
ATOM     96  F   UNL     1      21.530   3.342   4.055  1.00  0.00    -0.200 F 
ENDBRANCH  63  86
ENDBRANCH  37  38
ENDBRANCH  30  32
ENDBRANCH  29  30
ENDBRANCH  28  29
ENDBRANCH  27  28
ENDBRANCH  26  27
ENDBRANCH  25  26
ENDBRANCH  24  25
ENDBRANCH   1  24
TORSDOF 22
