REMARK SMILES O=C(OCCOCCOCCOCCOC(=O)[C@H]1[C@@H](C(=O)NN2CCOCC2)[C@H]2C=C[C@@H]1CC2)c1ccc(-c2c3nc(c(-c4c(F)c(F)c(F)c(F)c4F)c4ccc([nH]4)c(-c4c(F)c(F)c(F)c(F)c4F)c4nc(c(-c5c(F)c(F)c(F)c(F)c5F)c5ccc2[nH]5)C=C4)C=C3)cc1
REMARK SMILES IDX 9 1 8 2 7 3 6 4 5 5 4 6 3 7 2 8 1 9 35 10 36 11 97 12 37 13
REMARK SMILES IDX 96 14 38 15 39 16 40 17 90 18 41 19 95 20 89 21 91 22 42 23
REMARK SMILES IDX 94 24 88 25 87 26 43 28 75 29 55 30 74 31 56 32 59 33 73 34
REMARK SMILES IDX 92 35 57 36 58 37 72 39 93 40 60 41 44 42 45 43 53 44 46 45
REMARK SMILES IDX 47 46 51 47 54 48 48 49 49 50 52 51 50 52 76 53 77 54 85 55
REMARK SMILES IDX 78 56 79 57 83 58 86 59 80 60 81 61 84 62 82 63 61 64 62 65
REMARK SMILES IDX 70 66 63 67 64 68 68 69 71 70 65 71 66 72 69 73 67 74 10 75
REMARK SMILES IDX 11 76 12 77 13 78 14 79 15 80 16 81 17 82 18 83 19 84 32 85
REMARK SMILES IDX 29 86 31 87 33 88 30 89 34 90 20 91 21 92 22 93 23 95 24 96
REMARK SMILES IDX 28 97 25 98 27 99 26 100
REMARK H PARENT 91 27 59 38 22 94
REMARK Flexibility Score: inf
ROOT
ATOM      1  O   UNL     1       8.413   2.698   3.506  1.00  0.00    -0.377 OA
ENDROOT
BRANCH   1   2
ATOM      2  C   UNL     1       9.805   2.908   3.316  1.00  0.00     0.188 C 
BRANCH   2   3
ATOM      3  C   UNL     1      10.168   3.519   1.961  1.00  0.00     0.188 C 
BRANCH   3   4
ATOM      4  O   UNL     1       9.868   4.922   1.931  1.00  0.00    -0.376 OA
BRANCH   4   5
ATOM      5  C   UNL     1       9.270   5.408   0.727  1.00  0.00     0.202 C 
BRANCH   5   6
ATOM      6  C   UNL     1      10.251   5.693  -0.410  1.00  0.00     0.261 C 
BRANCH   6   7
ATOM      7  O   UNL     1      11.383   4.815  -0.420  1.00  0.00    -0.460 OA
BRANCH   7   8
ATOM      8  C   UNL     1      12.515   4.879   0.324  1.00  0.00     0.338 C 
ATOM      9  O   UNL     1      13.374   4.020   0.125  1.00  0.00    -0.246 OA
BRANCH   8  10
ATOM     10  C   UNL     1      12.780   5.882   1.414  1.00  0.00     0.060 A 
ATOM     11  C   UNL     1      11.903   6.879   1.844  1.00  0.00     0.016 A 
ATOM     12  C   UNL     1      14.020   5.784   2.078  1.00  0.00     0.016 A 
ATOM     13  C   UNL     1      12.222   7.744   2.876  1.00  0.00     0.010 A 
ATOM     14  C   UNL     1      14.375   6.677   3.095  1.00  0.00     0.010 A 
ATOM     15  C   UNL     1      13.475   7.676   3.470  1.00  0.00    -0.014 A 
BRANCH  15  16
ATOM     16  C   UNL     1      13.861   8.852   4.261  1.00  0.00     0.031 A 
ATOM     17  C   UNL     1      14.578   9.948   3.531  1.00  0.00     0.074 A 
ATOM     18  C   UNL     1      13.349   9.024   5.491  1.00  0.00     0.049 A 
ATOM     19  N   UNL     1      14.986  11.108   3.964  1.00  0.00    -0.248 NA
ATOM     20  C   UNL     1      14.831   9.720   2.094  1.00  0.00     0.031 C 
ATOM     21  C   UNL     1      12.469   8.075   6.178  1.00  0.00     0.029 A 
ATOM     22  N   UNL     1      13.453  10.075   6.359  1.00  0.00    -0.354 N 
ATOM     23  C   UNL     1      15.552  11.736   2.863  1.00  0.00     0.074 A 
ATOM     24  C   UNL     1      15.435  10.841   1.738  1.00  0.00     0.031 C 
ATOM     25  C   UNL     1      12.113   8.593   7.366  1.00  0.00     0.029 A 
ATOM     26  C   UNL     1      12.790   9.872   7.543  1.00  0.00     0.049 A 
ATOM     27  H   UNL     1      13.955  10.897   6.154  1.00  0.00     0.167 HD
ATOM     28  C   UNL     1      16.128  12.957   2.812  1.00  0.00     0.037 A 
ATOM     29  C   UNL     1      12.784  10.632   8.654  1.00  0.00     0.037 A 
ATOM     30  C   UNL     1      16.242  13.809   3.961  1.00  0.00     0.049 A 
ATOM     31  C   UNL     1      13.571  11.918   8.617  1.00  0.00     0.074 A 
ATOM     32  C   UNL     1      16.904  15.013   4.090  1.00  0.00     0.029 A 
ATOM     33  N   UNL     1      15.666  13.525   5.194  1.00  0.00    -0.354 N 
ATOM     34  N   UNL     1      14.205  12.472   7.608  1.00  0.00    -0.248 NA
ATOM     35  C   UNL     1      13.659  12.677   9.869  1.00  0.00     0.031 C 
ATOM     36  C   UNL     1      16.767  15.435   5.418  1.00  0.00     0.029 A 
ATOM     37  C   UNL     1      15.972  14.524   6.099  1.00  0.00     0.049 A 
ATOM     38  H   UNL     1      15.122  12.730   5.394  1.00  0.00     0.167 HD
ATOM     39  C   UNL     1      14.753  13.649   8.097  1.00  0.00     0.074 A 
ATOM     40  C   UNL     1      14.348  13.742   9.487  1.00  0.00     0.031 C 
ATOM     41  C   UNL     1      15.530  14.568   7.470  1.00  0.00     0.037 A 
BRANCH  28  42
ATOM     42  C   UNL     1      16.744  13.370   1.509  1.00  0.00     0.064 A 
ATOM     43  C   UNL     1      15.967  13.730   0.398  1.00  0.00     0.173 A 
ATOM     44  C   UNL     1      18.139  13.361   1.358  1.00  0.00     0.173 A 
ATOM     45  F   UNL     1      14.627  13.715   0.477  1.00  0.00    -0.203 F 
ATOM     46  C   UNL     1      16.564  14.045  -0.822  1.00  0.00     0.198 A 
ATOM     47  C   UNL     1      18.733  13.700   0.145  1.00  0.00     0.198 A 
ATOM     48  F   UNL     1      18.927  13.005   2.384  1.00  0.00    -0.203 F 
ATOM     49  F   UNL     1      15.801  14.331  -1.886  1.00  0.00    -0.200 F 
ATOM     50  C   UNL     1      17.945  14.035  -0.945  1.00  0.00     0.200 A 
ATOM     51  F   UNL     1      20.068  13.686   0.029  1.00  0.00    -0.200 F 
ATOM     52  F   UNL     1      18.518  14.331  -2.120  1.00  0.00    -0.200 F 
ENDBRANCH  28  42
BRANCH  29  53
ATOM     53  C   UNL     1      12.104  10.169   9.896  1.00  0.00     0.064 A 
ATOM     54  C   UNL     1      11.069  10.905  10.488  1.00  0.00     0.173 A 
ATOM     55  C   UNL     1      12.523   9.000  10.554  1.00  0.00     0.173 A 
ATOM     56  F   UNL     1      10.642  12.040   9.916  1.00  0.00    -0.203 F 
ATOM     57  C   UNL     1      10.506  10.511  11.703  1.00  0.00     0.198 A 
ATOM     58  C   UNL     1      11.935   8.588  11.748  1.00  0.00     0.198 A 
ATOM     59  F   UNL     1      13.515   8.257  10.042  1.00  0.00    -0.203 F 
ATOM     60  F   UNL     1       9.566  11.273  12.280  1.00  0.00    -0.200 F 
ATOM     61  C   UNL     1      10.937   9.352  12.330  1.00  0.00     0.200 A 
ATOM     62  F   UNL     1      12.348   7.460  12.342  1.00  0.00    -0.200 F 
ATOM     63  F   UNL     1      10.403   8.981  13.502  1.00  0.00    -0.200 F 
ENDBRANCH  29  53
BRANCH  41  64
ATOM     64  C   UNL     1      15.952  15.755   8.281  1.00  0.00     0.064 A 
ATOM     65  C   UNL     1      16.905  15.644   9.303  1.00  0.00     0.173 A 
ATOM     66  C   UNL     1      15.424  17.023   8.001  1.00  0.00     0.173 A 
ATOM     67  F   UNL     1      17.426  14.447   9.615  1.00  0.00    -0.203 F 
ATOM     68  C   UNL     1      17.291  16.759  10.039  1.00  0.00     0.198 A 
ATOM     69  C   UNL     1      15.840  18.141   8.714  1.00  0.00     0.198 A 
ATOM     70  F   UNL     1      14.517  17.178   7.024  1.00  0.00    -0.203 F 
ATOM     71  F   UNL     1      18.161  16.623  11.049  1.00  0.00    -0.200 F 
ATOM     72  C   UNL     1      16.765  18.007   9.738  1.00  0.00     0.200 A 
ATOM     73  F   UNL     1      15.344  19.349   8.411  1.00  0.00    -0.200 F 
ATOM     74  F   UNL     1      17.145  19.081  10.443  1.00  0.00    -0.200 F 
ENDBRANCH  41  64
ENDBRANCH  15  16
ENDBRANCH   8  10
ENDBRANCH   7   8
ENDBRANCH   6   7
ENDBRANCH   5   6
ENDBRANCH   4   5
ENDBRANCH   3   4
ENDBRANCH   2   3
ENDBRANCH   1   2
BRANCH   1  75
ATOM     75  C   UNL     1       7.588   3.801   3.168  1.00  0.00     0.188 C 
BRANCH  75  76
ATOM     76  C   UNL     1       7.765   5.111   3.970  1.00  0.00     0.188 C 
BRANCH  76  77
ATOM     77  O   UNL     1       8.523   4.938   5.154  1.00  0.00    -0.376 OA
BRANCH  77  78
ATOM     78  C   UNL     1       7.850   4.447   6.310  1.00  0.00     0.202 C 
BRANCH  78  79
ATOM     79  C   UNL     1       6.630   3.511   6.181  1.00  0.00     0.261 C 
BRANCH  79  80
ATOM     80  O   UNL     1       5.734   3.942   5.135  1.00  0.00    -0.463 OA
BRANCH  80  81
ATOM     81  C   UNL     1       4.423   4.127   5.328  1.00  0.00     0.310 C 
ATOM     82  O   UNL     1       3.844   3.914   6.390  1.00  0.00    -0.252 OA
BRANCH  81  83
ATOM     83  C   UNL     1       3.710   4.651   4.070  1.00  0.00     0.119 C 
ATOM     84  C   UNL     1       3.519   6.205   3.929  1.00  0.00     0.101 C 
ATOM     85  C   UNL     1       4.093   4.041   2.666  1.00  0.00     0.026 C 
ATOM     86  C   UNL     1       3.331   6.513   2.417  1.00  0.00     0.025 C 
ATOM     87  C   UNL     1       5.009   4.932   1.829  1.00  0.00    -0.027 C 
ATOM     88  C   UNL     1       2.792   4.074   1.829  1.00  0.00     0.009 C 
ATOM     89  C   UNL     1       4.615   6.204   1.698  1.00  0.00    -0.027 C 
ATOM     90  C   UNL     1       2.265   5.535   1.816  1.00  0.00     0.009 C 
BRANCH  84  91
ATOM     91  C   UNL     1       4.518   7.019   4.782  1.00  0.00     0.238 C 
ATOM     92  O   UNL     1       4.750   6.680   5.951  1.00  0.00    -0.273 OA
ATOM     93  N   UNL     1       5.133   8.181   4.414  1.00  0.00    -0.288 N 
ATOM     94  H   UNL     1       5.722   8.586   5.091  1.00  0.00     0.185 HD
BRANCH  93  95
ATOM     95  N   UNL     1       5.037   8.870   3.204  1.00  0.00    -0.217 NA
ATOM     96  C   UNL     1       6.272   9.649   2.921  1.00  0.00     0.136 C 
ATOM     97  C   UNL     1       3.879   9.792   3.192  1.00  0.00     0.136 C 
ATOM     98  C   UNL     1       6.403  10.947   3.741  1.00  0.00     0.177 C 
ATOM     99  C   UNL     1       4.077  11.049   4.039  1.00  0.00     0.177 C 
ATOM    100  O   UNL     1       5.238  11.768   3.615  1.00  0.00    -0.379 OA
ENDBRANCH  93  95
ENDBRANCH  84  91
ENDBRANCH  81  83
ENDBRANCH  80  81
ENDBRANCH  79  80
ENDBRANCH  78  79
ENDBRANCH  77  78
ENDBRANCH  76  77
ENDBRANCH  75  76
ENDBRANCH   1  75
TORSDOF 22
