REMARK SMILES CC[C@H](c1ccccc1)[C@@H](C)OC(=O)c1ccccc1C(=O)OCCOCCOCCOCCOC(=O)c1ccc(-c2c3nc(c(-c4c(F)c(F)c(F)c(F)c4F)c4ccc([nH]4)c(-c4c(F)c(F)c(F)c(F)c4F)c4nc(c(-c5c(F)c(F)c(F)c(F)c5F)c5ccc2[nH]5)C=C4)C=C3)cc1
REMARK SMILES IDX 27 1 26 2 25 3 24 4 23 5 21 6 22 7 20 8 15 9 16 10 17 11
REMARK SMILES IDX 19 12 18 13 13 14 14 15 12 16 10 17 11 18 3 19 2 20 1 21
REMARK SMILES IDX 4 22 5 23 9 24 6 25 8 26 7 27 28 28 29 29 30 30 31 31 32 32
REMARK SMILES IDX 33 33 34 34 35 35 36 36 37 37 38 38 39 39 100 40 40 41 99 42
REMARK SMILES IDX 41 43 42 44 43 45 93 46 44 47 98 48 92 49 94 50 45 51 97 52
REMARK SMILES IDX 91 53 90 54 46 56 78 57 58 58 77 59 59 60 62 61 76 62 95 63
REMARK SMILES IDX 60 64 61 65 75 67 96 68 63 69 47 70 48 71 56 72 49 73 50 74
REMARK SMILES IDX 54 75 57 76 51 77 52 78 55 79 53 80 79 81 80 82 88 83 81 84
REMARK SMILES IDX 82 85 86 86 89 87 83 88 84 89 87 90 85 91 64 92 65 93 73 94
REMARK SMILES IDX 66 95 67 96 71 97 74 98 68 99 69 100 72 101 70 102
REMARK H PARENT 94 55 62 66
REMARK Flexibility Score: inf
ROOT
ATOM      1  C   UNL     1       1.254   9.116   1.094  1.00  0.00     0.188 C 
ENDROOT
BRANCH   1   2
ATOM      2  O   UNL     1       0.146   8.777   1.909  1.00  0.00    -0.376 OA
BRANCH   2   3
ATOM      3  C   UNL     1      -1.023   8.169   1.401  1.00  0.00     0.202 C 
BRANCH   3   4
ATOM      4  C   UNL     1      -0.937   6.977   0.447  1.00  0.00     0.261 C 
BRANCH   4   5
ATOM      5  O   UNL     1       0.309   6.880  -0.239  1.00  0.00    -0.460 OA
BRANCH   5   6
ATOM      6  C   UNL     1       0.320   7.122  -1.563  1.00  0.00     0.339 C 
ATOM      7  O   UNL     1      -0.625   7.506  -2.236  1.00  0.00    -0.246 OA
BRANCH   6   8
ATOM      8  C   UNL     1       1.710   7.060  -2.075  1.00  0.00     0.074 A 
ATOM      9  C   UNL     1       2.624   6.015  -1.851  1.00  0.00     0.074 A 
ATOM     10  C   UNL     1       3.914   6.103  -2.410  1.00  0.00     0.016 A 
ATOM     11  C   UNL     1       4.310   7.228  -3.131  1.00  0.00     0.001 A 
ATOM     12  C   UNL     1       2.129   8.198  -2.787  1.00  0.00     0.016 A 
ATOM     13  C   UNL     1       3.425   8.287  -3.299  1.00  0.00     0.001 A 
BRANCH   9  14
ATOM     14  C   UNL     1       2.398   4.831  -0.988  1.00  0.00     0.339 C 
ATOM     15  O   UNL     1       3.318   4.182  -0.515  1.00  0.00    -0.246 OA
BRANCH  14  16
ATOM     16  O   UNL     1       1.086   4.562  -0.846  1.00  0.00    -0.458 OA
BRANCH  16  17
ATOM     17  C   UNL     1       0.692   3.485   0.036  1.00  0.00     0.181 C 
ATOM     18  C   UNL     1       1.106   3.794   1.483  1.00  0.00     0.053 C 
BRANCH  17  19
ATOM     19  C   UNL     1       1.144   2.104  -0.516  1.00  0.00     0.060 C 
BRANCH  19  20
ATOM     20  C   UNL     1       0.867   2.026  -2.042  1.00  0.00     0.009 C 
ATOM     21  C   UNL     1       1.455   0.791  -2.704  1.00  0.00     0.005 C 
ENDBRANCH  19  20
BRANCH  19  22
ATOM     22  C   UNL     1       0.486   1.000   0.298  1.00  0.00    -0.041 A 
ATOM     23  C   UNL     1       1.107   0.566   1.481  1.00  0.00     0.004 A 
ATOM     24  C   UNL     1      -0.758   0.456  -0.052  1.00  0.00     0.004 A 
ATOM     25  C   UNL     1       0.484  -0.360   2.308  1.00  0.00     0.000 A 
ATOM     26  C   UNL     1      -1.373  -0.484   0.764  1.00  0.00     0.000 A 
ATOM     27  C   UNL     1      -0.758  -0.871   1.947  1.00  0.00     0.000 A 
ENDBRANCH  19  22
ENDBRANCH  17  19
ENDBRANCH  16  17
ENDBRANCH  14  16
ENDBRANCH   9  14
ENDBRANCH   6   8
ENDBRANCH   5   6
ENDBRANCH   4   5
ENDBRANCH   3   4
ENDBRANCH   2   3
ENDBRANCH   1   2
BRANCH   1  28
ATOM     28  C   UNL     1       2.470   8.158   1.212  1.00  0.00     0.188 C 
BRANCH  28  29
ATOM     29  O   UNL     1       2.800   7.476   2.417  1.00  0.00    -0.377 OA
BRANCH  29  30
ATOM     30  C   UNL     1       1.751   7.187   3.325  1.00  0.00     0.188 C 
BRANCH  30  31
ATOM     31  C   UNL     1       1.472   8.349   4.292  1.00  0.00     0.188 C 
BRANCH  31  32
ATOM     32  O   UNL     1       2.034   9.594   3.931  1.00  0.00    -0.376 OA
BRANCH  32  33
ATOM     33  C   UNL     1       3.427   9.838   4.035  1.00  0.00     0.202 C 
BRANCH  33  34
ATOM     34  C   UNL     1       4.533   8.817   4.394  1.00  0.00     0.261 C 
BRANCH  34  35
ATOM     35  O   UNL     1       4.171   7.517   4.861  1.00  0.00    -0.460 OA
BRANCH  35  36
ATOM     36  C   UNL     1       3.898   7.396   6.174  1.00  0.00     0.338 C 
ATOM     37  O   UNL     1       3.901   8.271   7.017  1.00  0.00    -0.246 OA
BRANCH  36  38
ATOM     38  C   UNL     1       3.411   6.019   6.404  1.00  0.00     0.060 A 
ATOM     39  C   UNL     1       2.091   5.838   6.832  1.00  0.00     0.016 A 
ATOM     40  C   UNL     1       4.261   4.922   6.241  1.00  0.00     0.016 A 
ATOM     41  C   UNL     1       1.632   4.565   7.160  1.00  0.00     0.010 A 
ATOM     42  C   UNL     1       3.807   3.647   6.594  1.00  0.00     0.010 A 
ATOM     43  C   UNL     1       2.506   3.473   7.104  1.00  0.00    -0.014 A 
BRANCH  43  44
ATOM     44  C   UNL     1       2.130   2.230   7.822  1.00  0.00     0.031 A 
ATOM     45  C   UNL     1       2.678   2.018   9.210  1.00  0.00     0.074 A 
ATOM     46  C   UNL     1       1.254   1.352   7.303  1.00  0.00     0.049 A 
ATOM     47  N   UNL     1       2.477   1.031  10.047  1.00  0.00    -0.248 NA
ATOM     48  C   UNL     1       3.575   3.066   9.725  1.00  0.00     0.031 C 
ATOM     49  C   UNL     1       0.600   1.463   6.001  1.00  0.00     0.029 A 
ATOM     50  N   UNL     1       0.761   0.185   7.830  1.00  0.00    -0.354 N 
ATOM     51  C   UNL     1       3.223   1.338  11.179  1.00  0.00     0.074 A 
ATOM     52  C   UNL     1       3.914   2.580  10.908  1.00  0.00     0.031 C 
ATOM     53  C   UNL     1      -0.206   0.399   5.827  1.00  0.00     0.029 A 
ATOM     54  C   UNL     1      -0.097  -0.478   6.989  1.00  0.00     0.049 A 
ATOM     55  H   UNL     1       1.000  -0.146   8.726  1.00  0.00     0.167 HD
ATOM     56  C   UNL     1       3.316   0.656  12.346  1.00  0.00     0.037 A 
ATOM     57  C   UNL     1      -0.705  -1.669   7.141  1.00  0.00     0.037 A 
ATOM     58  C   UNL     1       2.630  -0.580  12.618  1.00  0.00     0.049 A 
ATOM     59  C   UNL     1      -0.519  -2.447   8.413  1.00  0.00     0.074 A 
ATOM     60  C   UNL     1       2.639  -1.337  13.777  1.00  0.00     0.029 A 
ATOM     61  N   UNL     1       1.822  -1.251  11.712  1.00  0.00    -0.354 N 
ATOM     62  N   UNL     1       0.182  -2.151   9.477  1.00  0.00    -0.248 NA
ATOM     63  C   UNL     1      -1.238  -3.726   8.499  1.00  0.00     0.031 C 
ATOM     64  C   UNL     1       1.895  -2.499  13.548  1.00  0.00     0.029 A 
ATOM     65  C   UNL     1       1.355  -2.429  12.275  1.00  0.00     0.049 A 
ATOM     66  H   UNL     1       1.611  -0.937  10.803  1.00  0.00     0.167 HD
ATOM     67  C   UNL     1      -0.030  -3.191  10.371  1.00  0.00     0.074 A 
ATOM     68  C   UNL     1      -0.937  -4.118   9.727  1.00  0.00     0.031 C 
ATOM     69  C   UNL     1       0.471  -3.358  11.620  1.00  0.00     0.037 A 
BRANCH  56  70
ATOM     70  C   UNL     1       4.227   1.214  13.403  1.00  0.00     0.064 A 
ATOM     71  C   UNL     1       3.943   2.413  14.077  1.00  0.00     0.173 A 
ATOM     72  C   UNL     1       5.399   0.528  13.757  1.00  0.00     0.173 A 
ATOM     73  F   UNL     1       2.843   3.117  13.770  1.00  0.00    -0.203 F 
ATOM     74  C   UNL     1       4.817   2.921  15.036  1.00  0.00     0.198 A 
ATOM     75  C   UNL     1       6.251   1.020  14.742  1.00  0.00     0.198 A 
ATOM     76  F   UNL     1       5.718  -0.625  13.149  1.00  0.00    -0.203 F 
ATOM     77  F   UNL     1       4.557   4.098  15.620  1.00  0.00    -0.200 F 
ATOM     78  C   UNL     1       5.966   2.221  15.372  1.00  0.00     0.200 A 
ATOM     79  F   UNL     1       7.352   0.332  15.077  1.00  0.00    -0.200 F 
ATOM     80  F   UNL     1       6.803   2.708  16.298  1.00  0.00    -0.200 F 
ENDBRANCH  56  70
BRANCH  57  81
ATOM     81  C   UNL     1      -1.526  -2.252   6.055  1.00  0.00     0.064 A 
ATOM     82  C   UNL     1      -2.925  -2.233   6.107  1.00  0.00     0.173 A 
ATOM     83  C   UNL     1      -0.914  -2.945   5.004  1.00  0.00     0.173 A 
ATOM     84  F   UNL     1      -3.549  -1.636   7.133  1.00  0.00    -0.203 F 
ATOM     85  C   UNL     1      -3.686  -2.883   5.138  1.00  0.00     0.198 A 
ATOM     86  C   UNL     1      -1.676  -3.601   4.041  1.00  0.00     0.198 A 
ATOM     87  F   UNL     1       0.423  -2.980   4.912  1.00  0.00    -0.203 F 
ATOM     88  F   UNL     1      -5.024  -2.877   5.221  1.00  0.00    -0.200 F 
ATOM     89  C   UNL     1      -3.061  -3.561   4.102  1.00  0.00     0.200 A 
ATOM     90  F   UNL     1      -1.069  -4.230   3.025  1.00  0.00    -0.200 F 
ATOM     91  F   UNL     1      -3.792  -4.169   3.158  1.00  0.00    -0.200 F 
ENDBRANCH  57  81
BRANCH  69  92
ATOM     92  C   UNL     1       0.010  -4.569  12.381  1.00  0.00     0.064 A 
ATOM     93  C   UNL     1       0.368  -5.870  11.999  1.00  0.00     0.173 A 
ATOM     94  C   UNL     1      -0.823  -4.421  13.501  1.00  0.00     0.173 A 
ATOM     95  F   UNL     1       1.147  -6.069  10.924  1.00  0.00    -0.203 F 
ATOM     96  C   UNL     1      -0.133  -6.979  12.676  1.00  0.00     0.198 A 
ATOM     97  C   UNL     1      -1.288  -5.531  14.201  1.00  0.00     0.198 A 
ATOM     98  F   UNL     1      -1.194  -3.200  13.914  1.00  0.00    -0.203 F 
ATOM     99  F   UNL     1       0.155  -8.214  12.241  1.00  0.00    -0.200 F 
ATOM    100  C   UNL     1      -0.957  -6.809  13.778  1.00  0.00     0.200 A 
ATOM    101  F   UNL     1      -2.072  -5.362  15.275  1.00  0.00    -0.200 F 
ATOM    102  F   UNL     1      -1.444  -7.877  14.424  1.00  0.00    -0.200 F 
ENDBRANCH  69  92
ENDBRANCH  43  44
ENDBRANCH  36  38
ENDBRANCH  35  36
ENDBRANCH  34  35
ENDBRANCH  33  34
ENDBRANCH  32  33
ENDBRANCH  31  32
ENDBRANCH  30  31
ENDBRANCH  29  30
ENDBRANCH  28  29
ENDBRANCH   1  28
TORSDOF 26
