REMARK SMILES Cc1ccc(-c2ncccc2C(=O)OCCOCCOCCOCCOC(=O)c2ccc(-c3c4nc(c(-c5c(F)c(F)c(F)c(F)c5F)c5ccc([nH]5)c(-c5c(F)c(F)c(F)c(F)c5F)c5nc(c(-c6c(F)c(F)c(F)c(F)c6F)c6ccc3[nH]6)C=C5)C=C4)cc2)c(C)c1
REMARK SMILES IDX 21 1 20 2 19 3 18 4 17 5 16 6 15 7 14 8 12 9 13 10 11 11
REMARK SMILES IDX 6 12 7 13 8 14 10 15 9 16 5 17 1 18 2 19 3 20 94 21 4 22
REMARK SMILES IDX 92 23 93 24 22 25 23 26 24 27 25 28 26 29 27 30 28 31 29 32
REMARK SMILES IDX 30 33 91 34 31 35 90 36 32 37 33 38 34 39 84 40 35 41 89 42
REMARK SMILES IDX 83 43 85 44 36 45 88 46 82 47 81 48 37 50 69 51 49 52 68 53
REMARK SMILES IDX 50 54 53 55 67 56 86 57 51 58 52 59 66 61 87 62 54 63 38 64
REMARK SMILES IDX 39 65 47 66 40 67 41 68 45 69 48 70 42 71 43 72 46 73 44 74
REMARK SMILES IDX 70 75 71 76 79 77 72 78 73 79 77 80 80 81 74 82 75 83 78 84
REMARK SMILES IDX 76 85 55 86 56 87 64 88 57 89 58 90 62 91 65 92 59 93 60 94
REMARK SMILES IDX 63 95 61 96
REMARK H PARENT 85 49 53 60
REMARK Flexibility Score: inf
ROOT
ATOM      1  C   UNL     1       0.108  -6.170   2.889  1.00  0.00     0.188 C 
ENDROOT
BRANCH   1   2
ATOM      2  O   UNL     1      -0.855  -5.662   1.976  1.00  0.00    -0.377 OA
BRANCH   2   3
ATOM      3  C   UNL     1      -0.639  -4.384   1.388  1.00  0.00     0.188 C 
BRANCH   3   4
ATOM      4  C   UNL     1       0.153  -3.290   2.147  1.00  0.00     0.188 C 
BRANCH   4   5
ATOM      5  O   UNL     1       0.383  -3.598   3.512  1.00  0.00    -0.376 OA
BRANCH   5   6
ATOM      6  C   UNL     1      -0.267  -2.778   4.461  1.00  0.00     0.202 C 
BRANCH   6   7
ATOM      7  C   UNL     1      -1.797  -2.871   4.498  1.00  0.00     0.261 C 
BRANCH   7   8
ATOM      8  O   UNL     1      -2.462  -2.859   3.222  1.00  0.00    -0.460 OA
BRANCH   8   9
ATOM      9  C   UNL     1      -2.627  -1.675   2.580  1.00  0.00     0.340 C 
ATOM     10  O   UNL     1      -2.272  -0.585   2.985  1.00  0.00    -0.246 OA
BRANCH   9  11
ATOM     11  C   UNL     1      -3.276  -1.960   1.272  1.00  0.00     0.086 A 
ATOM     12  C   UNL     1      -2.780  -1.488   0.045  1.00  0.00     0.085 A 
ATOM     13  N   UNL     1      -3.379  -1.801  -1.139  1.00  0.00    -0.255 NA
ATOM     14  C   UNL     1      -4.470  -2.597  -1.111  1.00  0.00     0.112 A 
ATOM     15  C   UNL     1      -4.392  -2.811   1.256  1.00  0.00     0.019 A 
ATOM     16  C   UNL     1      -4.998  -3.135   0.048  1.00  0.00     0.021 A 
BRANCH  12  17
ATOM     17  C   UNL     1      -1.518  -0.745  -0.119  1.00  0.00     0.004 A 
ATOM     18  C   UNL     1       2.379   1.149  -0.110  1.00  0.00     0.044 C 
ATOM     19  C   UNL     1       1.030   0.497  -0.171  1.00  0.00    -0.051 A 
ATOM     20  C   UNL     1       0.897  -0.841  -0.533  1.00  0.00     0.004 A 
ATOM     21  C   UNL     1      -0.128   1.239   0.093  1.00  0.00     0.007 A 
ATOM     22  C   UNL     1      -0.363  -1.444  -0.526  1.00  0.00     0.011 A 
ATOM     23  C   UNL     1      -1.402   0.637   0.110  1.00  0.00    -0.041 A 
ATOM     24  C   UNL     1      -2.602   1.524   0.300  1.00  0.00     0.045 C 
ENDBRANCH  12  17
ENDBRANCH   9  11
ENDBRANCH   8   9
ENDBRANCH   7   8
ENDBRANCH   6   7
ENDBRANCH   5   6
ENDBRANCH   4   5
ENDBRANCH   3   4
ENDBRANCH   2   3
ENDBRANCH   1   2
BRANCH   1  25
ATOM     25  C   UNL     1       1.607  -5.998   2.556  1.00  0.00     0.188 C 
BRANCH  25  26
ATOM     26  O   UNL     1       1.861  -5.338   1.327  1.00  0.00    -0.376 OA
BRANCH  26  27
ATOM     27  C   UNL     1       2.252  -6.112   0.208  1.00  0.00     0.202 C 
BRANCH  27  28
ATOM     28  C   UNL     1       1.287  -7.192  -0.302  1.00  0.00     0.261 C 
BRANCH  28  29
ATOM     29  O   UNL     1       0.781  -8.108   0.678  1.00  0.00    -0.460 OA
BRANCH  29  30
ATOM     30  C   UNL     1       1.669  -8.931   1.269  1.00  0.00     0.338 C 
ATOM     31  O   UNL     1       2.868  -9.009   1.048  1.00  0.00    -0.246 OA
BRANCH  30  32
ATOM     32  C   UNL     1       0.985  -9.598   2.394  1.00  0.00     0.060 A 
ATOM     33  C   UNL     1       1.501  -9.437   3.688  1.00  0.00     0.016 A 
ATOM     34  C   UNL     1      -0.159 -10.370   2.177  1.00  0.00     0.016 A 
ATOM     35  C   UNL     1       0.911 -10.101   4.759  1.00  0.00     0.010 A 
ATOM     36  C   UNL     1      -0.733 -11.060   3.247  1.00  0.00     0.010 A 
ATOM     37  C   UNL     1      -0.163 -10.971   4.530  1.00  0.00    -0.014 A 
BRANCH  37  38
ATOM     38  C   UNL     1      -0.472 -11.987   5.563  1.00  0.00     0.031 A 
ATOM     39  C   UNL     1       0.163 -13.345   5.413  1.00  0.00     0.074 A 
ATOM     40  C   UNL     1      -1.207 -11.693   6.648  1.00  0.00     0.049 A 
ATOM     41  N   UNL     1       0.087 -14.394   6.191  1.00  0.00    -0.248 NA
ATOM     42  C   UNL     1       1.007 -13.544   4.221  1.00  0.00     0.031 C 
ATOM     43  C   UNL     1      -1.823 -10.399   6.930  1.00  0.00     0.029 A 
ATOM     44  N   UNL     1      -1.548 -12.473   7.725  1.00  0.00    -0.354 N 
ATOM     45  C   UNL     1       0.876 -15.366   5.588  1.00  0.00     0.074 A 
ATOM     46  C   UNL     1       1.379 -14.806   4.355  1.00  0.00     0.031 C 
ATOM     47  C   UNL     1      -2.469 -10.473   8.108  1.00  0.00     0.029 A 
ATOM     48  C   UNL     1      -2.332 -11.825   8.648  1.00  0.00     0.049 A 
ATOM     49  H   UNL     1      -1.258 -13.408   7.826  1.00  0.00     0.167 HD
ATOM     50  C   UNL     1       1.177 -16.608   6.033  1.00  0.00     0.037 A 
ATOM     51  C   UNL     1      -2.880 -12.285   9.789  1.00  0.00     0.037 A 
ATOM     52  C   UNL     1       0.671 -17.167   7.257  1.00  0.00     0.049 A 
ATOM     53  C   UNL     1      -2.611 -13.711  10.209  1.00  0.00     0.074 A 
ATOM     54  C   UNL     1       0.897 -18.422   7.792  1.00  0.00     0.029 A 
ATOM     55  N   UNL     1      -0.168 -16.500   8.137  1.00  0.00    -0.354 N 
ATOM     56  N   UNL     1      -1.851 -14.619   9.643  1.00  0.00    -0.248 NA
ATOM     57  C   UNL     1      -3.273 -14.172  11.438  1.00  0.00     0.031 C 
ATOM     58  C   UNL     1       0.152 -18.534   8.970  1.00  0.00     0.029 A 
ATOM     59  C   UNL     1      -0.485 -17.326   9.203  1.00  0.00     0.049 A 
ATOM     60  H   UNL     1      -0.490 -15.577   8.022  1.00  0.00     0.167 HD
ATOM     61  C   UNL     1      -1.912 -15.738  10.466  1.00  0.00     0.074 A 
ATOM     62  C   UNL     1      -2.764 -15.386  11.582  1.00  0.00     0.031 C 
ATOM     63  C   UNL     1      -1.323 -16.951  10.313  1.00  0.00     0.037 A 
BRANCH  50  64
ATOM     64  C   UNL     1       2.083 -17.448   5.181  1.00  0.00     0.064 A 
ATOM     65  C   UNL     1       3.446 -17.147   5.036  1.00  0.00     0.173 A 
ATOM     66  C   UNL     1       1.590 -18.585   4.523  1.00  0.00     0.173 A 
ATOM     67  F   UNL     1       3.964 -16.059   5.627  1.00  0.00    -0.203 F 
ATOM     68  C   UNL     1       4.276 -17.940   4.248  1.00  0.00     0.198 A 
ATOM     69  C   UNL     1       2.429 -19.394   3.763  1.00  0.00     0.198 A 
ATOM     70  F   UNL     1       0.294 -18.917   4.626  1.00  0.00    -0.203 F 
ATOM     71  F   UNL     1       5.564 -17.605   4.085  1.00  0.00    -0.200 F 
ATOM     72  C   UNL     1       3.769 -19.067   3.620  1.00  0.00     0.200 A 
ATOM     73  F   UNL     1       1.941 -20.490   3.166  1.00  0.00    -0.200 F 
ATOM     74  F   UNL     1       4.572 -19.837   2.871  1.00  0.00    -0.200 F 
ENDBRANCH  50  64
BRANCH  51  75
ATOM     75  C   UNL     1      -3.748 -11.409  10.623  1.00  0.00     0.064 A 
ATOM     76  C   UNL     1      -3.381 -11.057  11.931  1.00  0.00     0.173 A 
ATOM     77  C   UNL     1      -4.995 -10.967  10.159  1.00  0.00     0.173 A 
ATOM     78  F   UNL     1      -2.209 -11.476  12.433  1.00  0.00    -0.203 F 
ATOM     79  C   UNL     1      -4.244 -10.336  12.754  1.00  0.00     0.198 A 
ATOM     80  C   UNL     1      -5.843 -10.215  10.971  1.00  0.00     0.198 A 
ATOM     81  F   UNL     1      -5.400 -11.276   8.918  1.00  0.00    -0.203 F 
ATOM     82  F   UNL     1      -3.899 -10.082  14.024  1.00  0.00    -0.200 F 
ATOM     83  C   UNL     1      -5.473  -9.914  12.272  1.00  0.00     0.200 A 
ATOM     84  F   UNL     1      -7.024  -9.798  10.497  1.00  0.00    -0.200 F 
ATOM     85  F   UNL     1      -6.308  -9.231  13.067  1.00  0.00    -0.200 F 
ENDBRANCH  51  75
BRANCH  63  86
ATOM     86  C   UNL     1      -1.538 -17.962  11.405  1.00  0.00     0.064 A 
ATOM     87  C   UNL     1      -2.792 -18.547  11.639  1.00  0.00     0.173 A 
ATOM     88  C   UNL     1      -0.467 -18.362  12.221  1.00  0.00     0.173 A 
ATOM     89  F   UNL     1      -3.850 -18.194  10.894  1.00  0.00    -0.203 F 
ATOM     90  C   UNL     1      -2.977 -19.454  12.679  1.00  0.00     0.198 A 
ATOM     91  C   UNL     1      -0.647 -19.301  13.233  1.00  0.00     0.198 A 
ATOM     92  F   UNL     1       0.757 -17.847  12.034  1.00  0.00    -0.203 F 
ATOM     93  F   UNL     1      -4.200 -19.942  12.929  1.00  0.00    -0.200 F 
ATOM     94  C   UNL     1      -1.904 -19.834  13.471  1.00  0.00     0.200 A 
ATOM     95  F   UNL     1       0.395 -19.682  13.985  1.00  0.00    -0.200 F 
ATOM     96  F   UNL     1      -2.085 -20.707  14.472  1.00  0.00    -0.200 F 
ENDBRANCH  63  86
ENDBRANCH  37  38
ENDBRANCH  30  32
ENDBRANCH  29  30
ENDBRANCH  28  29
ENDBRANCH  27  28
ENDBRANCH  26  27
ENDBRANCH  25  26
ENDBRANCH   1  25
TORSDOF 21
