REMARK SMILES O=C(OCCOCCOCCOCCOC(=O)[C@@H]1[C@@H](C(=O)NCCCn2ccnc2)[C@@H]2C=C[C@H]1C2)c1ccc(-c2c3nc(c(-c4c(F)c(F)c(F)c(F)c4F)c4ccc([nH]4)c(-c4c(F)c(F)c(F)c(F)c4F)c4nc(c(-c5c(F)c(F)c(F)c(F)c5F)c5ccc2[nH]5)C=C4)C=C3)cc1
REMARK SMILES IDX 10 1 9 2 8 3 7 4 6 5 5 6 4 7 3 8 2 9 1 10 36 11 37 12 98 13
REMARK SMILES IDX 38 14 97 15 39 16 40 17 41 18 91 19 42 20 96 21 90 22 92 23
REMARK SMILES IDX 43 24 95 25 89 26 88 27 44 29 76 30 56 31 75 32 57 33 60 34
REMARK SMILES IDX 74 35 93 36 58 37 59 38 73 40 94 41 61 42 45 43 46 44 54 45
REMARK SMILES IDX 47 46 48 47 52 48 55 49 49 50 50 51 53 52 51 53 77 54 78 55
REMARK SMILES IDX 86 56 79 57 80 58 84 59 87 60 81 61 82 62 85 63 83 64 62 65
REMARK SMILES IDX 63 66 71 67 64 68 65 69 69 70 72 71 66 72 67 73 70 74 68 75
REMARK SMILES IDX 11 76 12 77 13 78 14 79 15 80 16 81 17 82 18 83 19 84 34 85
REMARK SMILES IDX 31 86 33 87 35 88 32 89 20 90 21 91 22 92 23 94 24 95 25 96
REMARK SMILES IDX 26 97 27 98 30 99 28 100 29 101
REMARK H PARENT 92 28 60 39 22 93
REMARK Flexibility Score: inf
ROOT
ATOM      1  C   UNL     1       4.114  -1.530  -2.748  1.00  0.00     0.188 C 
ENDROOT
BRANCH   1   2
ATOM      2  O   UNL     1       2.754  -1.185  -2.829  1.00  0.00    -0.377 OA
BRANCH   2   3
ATOM      3  C   UNL     1       2.253  -0.402  -1.770  1.00  0.00     0.188 C 
BRANCH   3   4
ATOM      4  C   UNL     1       3.078   0.821  -1.337  1.00  0.00     0.188 C 
BRANCH   4   5
ATOM      5  O   UNL     1       4.466   0.723  -1.079  1.00  0.00    -0.376 OA
BRANCH   5   6
ATOM      6  C   UNL     1       5.173  -0.017  -0.106  1.00  0.00     0.202 C 
BRANCH   6   7
ATOM      7  C   UNL     1       4.622  -1.056   0.885  1.00  0.00     0.261 C 
BRANCH   7   8
ATOM      8  O   UNL     1       3.250  -1.400   0.811  1.00  0.00    -0.460 OA
BRANCH   8   9
ATOM      9  C   UNL     1       2.175  -0.812   1.385  1.00  0.00     0.338 C 
ATOM     10  O   UNL     1       1.106  -1.385   1.362  1.00  0.00    -0.246 OA
BRANCH   9  11
ATOM     11  C   UNL     1       2.215   0.572   1.923  1.00  0.00     0.060 A 
ATOM     12  C   UNL     1       3.353   1.248   2.357  1.00  0.00     0.016 A 
ATOM     13  C   UNL     1       0.956   1.195   2.036  1.00  0.00     0.016 A 
ATOM     14  C   UNL     1       3.232   2.427   3.052  1.00  0.00     0.010 A 
ATOM     15  C   UNL     1       0.825   2.386   2.721  1.00  0.00     0.010 A 
ATOM     16  C   UNL     1       1.962   2.936   3.295  1.00  0.00    -0.014 A 
BRANCH  16  17
ATOM     17  C   UNL     1       1.893   4.073   4.183  1.00  0.00     0.031 A 
ATOM     18  C   UNL     1       2.493   5.306   3.626  1.00  0.00     0.074 A 
ATOM     19  C   UNL     1       1.321   3.947   5.393  1.00  0.00     0.049 A 
ATOM     20  N   UNL     1       3.484   5.988   4.098  1.00  0.00    -0.248 NA
ATOM     21  C   UNL     1       2.033   5.749   2.300  1.00  0.00     0.031 C 
ATOM     22  C   UNL     1       0.540   2.813   5.895  1.00  0.00     0.029 A 
ATOM     23  N   UNL     1       1.223   4.853   6.400  1.00  0.00    -0.354 N 
ATOM     24  C   UNL     1       3.632   7.071   3.236  1.00  0.00     0.074 A 
ATOM     25  C   UNL     1       2.845   6.781   2.069  1.00  0.00     0.031 C 
ATOM     26  C   UNL     1      -0.154   3.202   6.986  1.00  0.00     0.029 A 
ATOM     27  C   UNL     1       0.226   4.563   7.320  1.00  0.00     0.049 A 
ATOM     28  H   UNL     1       1.806   5.644   6.470  1.00  0.00     0.167 HD
ATOM     29  C   UNL     1       4.138   8.245   3.701  1.00  0.00     0.037 A 
ATOM     30  C   UNL     1      -0.312   5.426   8.215  1.00  0.00     0.037 A 
ATOM     31  C   UNL     1       4.986   8.021   4.848  1.00  0.00     0.049 A 
ATOM     32  C   UNL     1       0.637   6.561   8.366  1.00  0.00     0.074 A 
ATOM     33  C   UNL     1       6.122   7.269   5.082  1.00  0.00     0.029 A 
ATOM     34  N   UNL     1       4.500   8.346   6.090  1.00  0.00    -0.354 N 
ATOM     35  N   UNL     1       1.802   6.462   8.942  1.00  0.00    -0.248 NA
ATOM     36  C   UNL     1       0.479   7.701   7.474  1.00  0.00     0.031 C 
ATOM     37  C   UNL     1       5.987   6.789   6.418  1.00  0.00     0.029 A 
ATOM     38  C   UNL     1       4.810   7.321   6.944  1.00  0.00     0.049 A 
ATOM     39  H   UNL     1       4.015   9.169   6.326  1.00  0.00     0.167 HD
ATOM     40  C   UNL     1       2.646   7.240   8.164  1.00  0.00     0.074 A 
ATOM     41  C   UNL     1       1.760   8.057   7.340  1.00  0.00     0.031 C 
ATOM     42  C   UNL     1       3.972   6.935   8.053  1.00  0.00     0.037 A 
BRANCH  29  43
ATOM     43  C   UNL     1       3.477   9.581   3.422  1.00  0.00     0.064 A 
ATOM     44  C   UNL     1       4.053  10.742   3.975  1.00  0.00     0.173 A 
ATOM     45  C   UNL     1       2.153   9.733   2.948  1.00  0.00     0.173 A 
ATOM     46  F   UNL     1       5.307  10.721   4.452  1.00  0.00    -0.203 F 
ATOM     47  C   UNL     1       3.316  11.914   4.163  1.00  0.00     0.198 A 
ATOM     48  C   UNL     1       1.438  10.919   3.094  1.00  0.00     0.198 A 
ATOM     49  F   UNL     1       1.449   8.725   2.425  1.00  0.00    -0.203 F 
ATOM     50  F   UNL     1       3.859  12.936   4.838  1.00  0.00    -0.200 F 
ATOM     51  C   UNL     1       2.004  11.995   3.739  1.00  0.00     0.200 A 
ATOM     52  F   UNL     1       0.163  10.971   2.684  1.00  0.00    -0.200 F 
ATOM     53  F   UNL     1       1.270  13.085   3.993  1.00  0.00    -0.200 F 
ENDBRANCH  29  43
BRANCH  30  54
ATOM     54  C   UNL     1      -1.718   5.492   8.680  1.00  0.00     0.064 A 
ATOM     55  C   UNL     1      -2.071   6.269   9.795  1.00  0.00     0.173 A 
ATOM     56  C   UNL     1      -2.786   5.011   7.894  1.00  0.00     0.173 A 
ATOM     57  F   UNL     1      -1.117   6.806  10.570  1.00  0.00    -0.203 F 
ATOM     58  C   UNL     1      -3.405   6.566  10.091  1.00  0.00     0.198 A 
ATOM     59  C   UNL     1      -4.117   5.295   8.198  1.00  0.00     0.198 A 
ATOM     60  F   UNL     1      -2.561   4.335   6.759  1.00  0.00    -0.203 F 
ATOM     61  F   UNL     1      -3.697   7.367  11.125  1.00  0.00    -0.200 F 
ATOM     62  C   UNL     1      -4.426   6.086   9.288  1.00  0.00     0.200 A 
ATOM     63  F   UNL     1      -5.091   4.851   7.392  1.00  0.00    -0.200 F 
ATOM     64  F   UNL     1      -5.700   6.418   9.537  1.00  0.00    -0.200 F 
ENDBRANCH  30  54
BRANCH  42  65
ATOM     65  C   UNL     1       4.542   5.945   9.028  1.00  0.00     0.064 A 
ATOM     66  C   UNL     1       4.121   4.607   9.133  1.00  0.00     0.173 A 
ATOM     67  C   UNL     1       5.636   6.340   9.808  1.00  0.00     0.173 A 
ATOM     68  F   UNL     1       3.156   4.122   8.341  1.00  0.00    -0.203 F 
ATOM     69  C   UNL     1       4.731   3.728  10.026  1.00  0.00     0.198 A 
ATOM     70  C   UNL     1       6.270   5.449  10.668  1.00  0.00     0.198 A 
ATOM     71  F   UNL     1       6.120   7.588   9.704  1.00  0.00    -0.203 F 
ATOM     72  F   UNL     1       4.296   2.463  10.126  1.00  0.00    -0.200 F 
ATOM     73  C   UNL     1       5.808   4.149  10.789  1.00  0.00     0.200 A 
ATOM     74  F   UNL     1       7.345   5.845  11.363  1.00  0.00    -0.200 F 
ATOM     75  F   UNL     1       6.418   3.293  11.621  1.00  0.00    -0.200 F 
ENDBRANCH  42  65
ENDBRANCH  16  17
ENDBRANCH   9  11
ENDBRANCH   8   9
ENDBRANCH   7   8
ENDBRANCH   6   7
ENDBRANCH   5   6
ENDBRANCH   4   5
ENDBRANCH   3   4
ENDBRANCH   2   3
ENDBRANCH   1   2
BRANCH   1  76
ATOM     76  C   UNL     1       5.044  -0.743  -3.685  1.00  0.00     0.188 C 
BRANCH  76  77
ATOM     77  O   UNL     1       4.523   0.299  -4.498  1.00  0.00    -0.376 OA
BRANCH  77  78
ATOM     78  C   UNL     1       3.233   0.163  -5.085  1.00  0.00     0.202 C 
BRANCH  78  79
ATOM     79  C   UNL     1       2.873  -1.125  -5.853  1.00  0.00     0.261 C 
BRANCH  79  80
ATOM     80  O   UNL     1       3.215  -2.354  -5.174  1.00  0.00    -0.463 OA
BRANCH  80  81
ATOM     81  C   UNL     1       3.946  -3.242  -5.881  1.00  0.00     0.310 C 
ATOM     82  O   UNL     1       4.147  -3.132  -7.087  1.00  0.00    -0.252 OA
BRANCH  81  83
ATOM     83  C   UNL     1       4.746  -4.220  -5.018  1.00  0.00     0.119 C 
ATOM     84  C   UNL     1       5.128  -5.421  -5.918  1.00  0.00     0.100 C 
ATOM     85  C   UNL     1       4.242  -4.952  -3.738  1.00  0.00     0.027 C 
ATOM     86  C   UNL     1       4.776  -6.663  -5.070  1.00  0.00     0.025 C 
ATOM     87  C   UNL     1       2.957  -5.660  -4.036  1.00  0.00    -0.027 C 
ATOM     88  C   UNL     1       5.149  -6.205  -3.673  1.00  0.00     0.017 C 
ATOM     89  C   UNL     1       3.267  -6.684  -4.847  1.00  0.00    -0.027 C 
BRANCH  84  90
ATOM     90  C   UNL     1       6.532  -5.347  -6.497  1.00  0.00     0.224 C 
ATOM     91  O   UNL     1       6.737  -5.809  -7.626  1.00  0.00    -0.275 OA
ATOM     92  N   UNL     1       7.621  -4.813  -5.893  1.00  0.00    -0.356 N 
ATOM     93  H   UNL     1       8.390  -4.763  -6.506  1.00  0.00     0.163 HD
BRANCH  92  94
ATOM     94  C   UNL     1       7.951  -4.293  -4.571  1.00  0.00     0.117 C 
BRANCH  94  95
ATOM     95  C   UNL     1       9.163  -5.013  -3.985  1.00  0.00     0.043 C 
BRANCH  95  96
ATOM     96  C   UNL     1      10.484  -4.619  -4.647  1.00  0.00     0.125 C 
BRANCH  96  97
ATOM     97  N   UNL     1      10.913  -3.289  -4.263  1.00  0.00    -0.337 N 
ATOM     98  C   UNL     1      10.499  -2.107  -4.808  1.00  0.00     0.107 A 
ATOM     99  C   UNL     1      11.768  -2.997  -3.240  1.00  0.00     0.199 A 
ATOM    100  C   UNL     1      11.064  -1.136  -4.014  1.00  0.00     0.130 A 
ATOM    101  N   UNL     1      11.855  -1.700  -3.047  1.00  0.00    -0.245 NA
ENDBRANCH  96  97
ENDBRANCH  95  96
ENDBRANCH  94  95
ENDBRANCH  92  94
ENDBRANCH  84  90
ENDBRANCH  81  83
ENDBRANCH  80  81
ENDBRANCH  79  80
ENDBRANCH  78  79
ENDBRANCH  77  78
ENDBRANCH  76  77
ENDBRANCH   1  76
TORSDOF 25
