REMARK SMILES Nc1ccc(-c2cc3ccccc3s2)c(C(=O)OCCOCCOCCOCCOC(=O)c2ccc(-c3c4nc(c(-c5c(F)c(F)c(F)c(F)c5F)c5ccc([nH]5)c(-c5c(F)c(F)c(F)c(F)c5F)c5nc(c(-c6c(F)c(F)c(F)c(F)c6F)c6ccc3[nH]6)C=C5)C=C4)cc2)n1
REMARK SMILES IDX 25 1 24 2 23 3 22 4 21 5 20 6 19 7 18 8 16 9 17 10 15 11
REMARK SMILES IDX 2 12 3 13 96 14 4 15 5 16 1 17 6 20 7 21 14 22 8 23 13 24
REMARK SMILES IDX 9 25 12 26 10 27 11 28 26 29 27 30 28 31 29 32 30 33 31 34
REMARK SMILES IDX 32 35 33 36 34 37 95 38 35 39 94 40 36 41 37 42 38 43 88 44
REMARK SMILES IDX 39 45 93 46 87 47 89 48 40 49 92 50 86 51 85 52 41 54 73 55
REMARK SMILES IDX 53 56 72 57 54 58 57 59 71 60 90 61 55 62 56 63 70 65 91 66
REMARK SMILES IDX 58 67 42 68 43 69 51 70 44 71 45 72 49 73 52 74 46 75 47 76
REMARK SMILES IDX 50 77 48 78 74 79 75 80 83 81 76 82 77 83 81 84 84 85 78 86
REMARK SMILES IDX 79 87 82 88 80 89 59 90 60 91 68 92 61 93 62 94 66 95 69 96
REMARK SMILES IDX 63 97 64 98 67 99 65 100
REMARK H PARENT 1 18 1 19 89 53 57 64
REMARK Flexibility Score: inf
ROOT
ATOM      1  C   UNL     1      -3.607   3.527   2.987  1.00  0.00     0.188 C 
ENDROOT
BRANCH   1   2
ATOM      2  O   UNL     1      -2.861   2.418   2.494  1.00  0.00    -0.377 OA
BRANCH   2   3
ATOM      3  C   UNL     1      -1.472   2.553   2.218  1.00  0.00     0.188 C 
BRANCH   3   4
ATOM      4  C   UNL     1      -0.950   3.782   1.436  1.00  0.00     0.188 C 
BRANCH   4   5
ATOM      5  O   UNL     1      -1.883   4.844   1.342  1.00  0.00    -0.376 OA
BRANCH   5   6
ATOM      6  C   UNL     1      -2.506   5.135   0.107  1.00  0.00     0.202 C 
BRANCH   6   7
ATOM      7  C   UNL     1      -3.167   4.017  -0.709  1.00  0.00     0.261 C 
BRANCH   7   8
ATOM      8  O   UNL     1      -2.587   2.726  -0.532  1.00  0.00    -0.458 OA
BRANCH   8   9
ATOM      9  C   UNL     1      -1.660   2.312  -1.426  1.00  0.00     0.357 C 
ATOM     10  O   UNL     1      -1.252   2.946  -2.384  1.00  0.00    -0.244 OA
BRANCH   9  11
ATOM     11  C   UNL     1      -1.129   0.992  -0.961  1.00  0.00     0.159 A 
ATOM     12  C   UNL     1       0.799  -0.113  -0.301  1.00  0.00     0.124 A 
ATOM     13  C   UNL     1       0.065  -1.233   0.047  1.00  0.00     0.047 A 
ATOM     14  N   UNL     1       0.231   0.987  -0.809  1.00  0.00    -0.224 NA
ATOM     15  C   UNL     1      -1.322  -1.221  -0.119  1.00  0.00     0.016 A 
ATOM     16  C   UNL     1      -1.966  -0.080  -0.613  1.00  0.00     0.025 A 
BRANCH  12  17
ATOM     17  N   UNL     1       2.152  -0.045  -0.046  1.00  0.00    -0.384 N 
ATOM     18  H   UNL     1       2.622  -0.826   0.328  1.00  0.00     0.158 HD
ATOM     19  H   UNL     1       2.648   0.783  -0.237  1.00  0.00     0.158 HD
ENDBRANCH  12  17
BRANCH  16  20
ATOM     20  C   UNL     1      -3.434  -0.018  -0.698  1.00  0.00     0.038 A 
ATOM     21  C   UNL     1      -4.228   0.527  -1.689  1.00  0.00     0.029 A 
ATOM     22  S   UNL     1      -4.398  -0.577   0.605  1.00  0.00    -0.135 S 
ATOM     23  C   UNL     1      -5.613   0.610  -1.331  1.00  0.00    -0.007 A 
ATOM     24  C   UNL     1      -5.854   0.002  -0.100  1.00  0.00     0.035 A 
ATOM     25  C   UNL     1      -6.703   1.195  -2.018  1.00  0.00     0.009 A 
ATOM     26  C   UNL     1      -7.151  -0.083   0.437  1.00  0.00     0.019 A 
ATOM     27  C   UNL     1      -7.992   1.123  -1.486  1.00  0.00     0.001 A 
ATOM     28  C   UNL     1      -8.213   0.471  -0.280  1.00  0.00     0.001 A 
ENDBRANCH  16  20
ENDBRANCH   9  11
ENDBRANCH   8   9
ENDBRANCH   7   8
ENDBRANCH   6   7
ENDBRANCH   5   6
ENDBRANCH   4   5
ENDBRANCH   3   4
ENDBRANCH   2   3
ENDBRANCH   1   2
BRANCH   1  29
ATOM     29  C   UNL     1      -2.942   4.634   3.839  1.00  0.00     0.188 C 
BRANCH  29  30
ATOM     30  O   UNL     1      -1.583   4.398   4.155  1.00  0.00    -0.376 OA
BRANCH  30  31
ATOM     31  C   UNL     1      -1.261   4.006   5.476  1.00  0.00     0.202 C 
BRANCH  31  32
ATOM     32  C   UNL     1      -1.894   2.717   6.018  1.00  0.00     0.261 C 
BRANCH  32  33
ATOM     33  O   UNL     1      -3.320   2.604   5.898  1.00  0.00    -0.460 OA
BRANCH  33  34
ATOM     34  C   UNL     1      -4.075   3.444   6.634  1.00  0.00     0.338 C 
ATOM     35  O   UNL     1      -3.688   4.308   7.406  1.00  0.00    -0.246 OA
BRANCH  34  36
ATOM     36  C   UNL     1      -5.478   3.258   6.217  1.00  0.00     0.060 A 
ATOM     37  C   UNL     1      -6.170   4.328   5.633  1.00  0.00     0.016 A 
ATOM     38  C   UNL     1      -6.105   2.024   6.399  1.00  0.00     0.016 A 
ATOM     39  C   UNL     1      -7.505   4.174   5.258  1.00  0.00     0.010 A 
ATOM     40  C   UNL     1      -7.447   1.877   6.043  1.00  0.00     0.010 A 
ATOM     41  C   UNL     1      -8.163   2.961   5.502  1.00  0.00    -0.014 A 
BRANCH  41  42
ATOM     42  C   UNL     1      -9.639   2.882   5.382  1.00  0.00     0.031 A 
ATOM     43  C   UNL     1     -10.463   3.007   6.634  1.00  0.00     0.074 A 
ATOM     44  C   UNL     1     -10.241   2.727   4.191  1.00  0.00     0.049 A 
ATOM     45  N   UNL     1     -11.758   2.909   6.794  1.00  0.00    -0.248 NA
ATOM     46  C   UNL     1      -9.721   3.280   7.875  1.00  0.00     0.031 C 
ATOM     47  C   UNL     1      -9.561   2.661   2.901  1.00  0.00     0.029 A 
ATOM     48  N   UNL     1     -11.572   2.593   3.880  1.00  0.00    -0.354 N 
ATOM     49  C   UNL     1     -11.983   3.099   8.151  1.00  0.00     0.074 A 
ATOM     50  C   UNL     1     -10.691   3.283   8.775  1.00  0.00     0.031 C 
ATOM     51  C   UNL     1     -10.482   2.496   1.935  1.00  0.00     0.029 A 
ATOM     52  C   UNL     1     -11.806   2.385   2.544  1.00  0.00     0.049 A 
ATOM     53  H   UNL     1     -12.291   2.641   4.552  1.00  0.00     0.167 HD
ATOM     54  C   UNL     1     -13.162   3.124   8.816  1.00  0.00     0.037 A 
ATOM     55  C   UNL     1     -12.953   2.108   1.894  1.00  0.00     0.037 A 
ATOM     56  C   UNL     1     -14.445   2.938   8.190  1.00  0.00     0.049 A 
ATOM     57  C   UNL     1     -14.243   2.038   2.670  1.00  0.00     0.074 A 
ATOM     58  C   UNL     1     -15.700   2.967   8.771  1.00  0.00     0.029 A 
ATOM     59  N   UNL     1     -14.635   2.673   6.842  1.00  0.00    -0.354 N 
ATOM     60  N   UNL     1     -14.454   2.239   3.948  1.00  0.00    -0.248 NA
ATOM     61  C   UNL     1     -15.457   1.711   1.908  1.00  0.00     0.031 C 
ATOM     62  C   UNL     1     -16.644   2.652   7.789  1.00  0.00     0.029 A 
ATOM     63  C   UNL     1     -15.985   2.500   6.579  1.00  0.00     0.049 A 
ATOM     64  H   UNL     1     -13.917   2.617   6.170  1.00  0.00     0.167 HD
ATOM     65  C   UNL     1     -15.824   2.102   4.137  1.00  0.00     0.074 A 
ATOM     66  C   UNL     1     -16.396   1.809   2.839  1.00  0.00     0.031 C 
ATOM     67  C   UNL     1     -16.544   2.216   5.281  1.00  0.00     0.037 A 
BRANCH  54  68
ATOM     68  C   UNL     1     -13.115   3.321  10.304  1.00  0.00     0.064 A 
ATOM     69  C   UNL     1     -12.727   4.540  10.882  1.00  0.00     0.173 A 
ATOM     70  C   UNL     1     -13.484   2.277  11.166  1.00  0.00     0.173 A 
ATOM     71  F   UNL     1     -12.350   5.566  10.104  1.00  0.00    -0.203 F 
ATOM     72  C   UNL     1     -12.678   4.694  12.265  1.00  0.00     0.198 A 
ATOM     73  C   UNL     1     -13.469   2.446  12.548  1.00  0.00     0.198 A 
ATOM     74  F   UNL     1     -13.866   1.091  10.668  1.00  0.00    -0.203 F 
ATOM     75  F   UNL     1     -12.250   5.849  12.794  1.00  0.00    -0.200 F 
ATOM     76  C   UNL     1     -13.057   3.651  13.096  1.00  0.00     0.200 A 
ATOM     77  F   UNL     1     -13.849   1.441  13.348  1.00  0.00    -0.200 F 
ATOM     78  F   UNL     1     -13.016   3.803  14.427  1.00  0.00    -0.200 F 
ENDBRANCH  54  68
BRANCH  55  79
ATOM     79  C   UNL     1     -12.936   1.855   0.428  1.00  0.00     0.064 A 
ATOM     80  C   UNL     1     -13.550   2.740  -0.469  1.00  0.00     0.173 A 
ATOM     81  C   UNL     1     -12.327   0.709  -0.104  1.00  0.00     0.173 A 
ATOM     82  F   UNL     1     -14.171   3.835  -0.008  1.00  0.00    -0.203 F 
ATOM     83  C   UNL     1     -13.567   2.481  -1.838  1.00  0.00     0.198 A 
ATOM     84  C   UNL     1     -12.316   0.467  -1.476  1.00  0.00     0.198 A 
ATOM     85  F   UNL     1     -11.727  -0.173   0.710  1.00  0.00    -0.203 F 
ATOM     86  F   UNL     1     -14.202   3.320  -2.668  1.00  0.00    -0.200 F 
ATOM     87  C   UNL     1     -12.944   1.349  -2.341  1.00  0.00     0.200 A 
ATOM     88  F   UNL     1     -11.697  -0.619  -1.958  1.00  0.00    -0.200 F 
ATOM     89  F   UNL     1     -12.953   1.105  -3.659  1.00  0.00    -0.200 F 
ENDBRANCH  55  79
BRANCH  67  90
ATOM     90  C   UNL     1     -18.037   2.074   5.179  1.00  0.00     0.064 A 
ATOM     91  C   UNL     1     -18.649   0.844   4.899  1.00  0.00     0.173 A 
ATOM     92  C   UNL     1     -18.869   3.182   5.407  1.00  0.00     0.173 A 
ATOM     93  F   UNL     1     -17.901  -0.244   4.659  1.00  0.00    -0.203 F 
ATOM     94  C   UNL     1     -20.036   0.734   4.821  1.00  0.00     0.198 A 
ATOM     95  C   UNL     1     -20.255   3.061   5.365  1.00  0.00     0.198 A 
ATOM     96  F   UNL     1     -18.338   4.381   5.688  1.00  0.00    -0.203 F 
ATOM     97  F   UNL     1     -20.596  -0.439   4.497  1.00  0.00    -0.200 F 
ATOM     98  C   UNL     1     -20.837   1.840   5.063  1.00  0.00     0.200 A 
ATOM     99  F   UNL     1     -21.027   4.127   5.618  1.00  0.00    -0.200 F 
ATOM    100  F   UNL     1     -22.171   1.730   4.997  1.00  0.00    -0.200 F 
ENDBRANCH  67  90
ENDBRANCH  41  42
ENDBRANCH  34  36
ENDBRANCH  33  34
ENDBRANCH  32  33
ENDBRANCH  31  32
ENDBRANCH  30  31
ENDBRANCH  29  30
ENDBRANCH   1  29
TORSDOF 22
