REMARK SMILES O=C(OCCOCCOCCOCCOC(=O)c1ccc(-c2c3nc(c(-c4c(F)c(F)c(F)c(F)c4F)c4ccc([nH]4)c(-c4c(F)c(F)c(F)c(F)c4F)c4nc(c(-c5c(F)c(F)c(F)c(F)c5F)c5ccc2[nH]5)C=C4)C=C3)cc1)C1=C[C@H]2C(=N1)C=CC(Cl)=C2Cl
REMARK SMILES IDX 10 1 9 2 8 3 7 4 6 5 5 6 4 7 3 8 2 9 1 10 81 11 82 12 85 13
REMARK SMILES IDX 83 14 84 15 90 16 86 17 88 18 91 19 87 20 89 21 11 22 12 23
REMARK SMILES IDX 13 24 14 25 15 26 16 27 17 28 18 29 19 30 80 31 20 32 79 33
REMARK SMILES IDX 21 34 22 35 23 36 73 37 24 38 78 39 72 40 74 41 25 42 77 43
REMARK SMILES IDX 71 44 70 45 26 47 58 48 38 49 57 50 39 51 42 52 56 53 75 54
REMARK SMILES IDX 40 55 41 56 55 58 76 59 43 60 27 61 28 62 36 63 29 64 30 65
REMARK SMILES IDX 34 66 37 67 31 68 32 69 35 70 33 71 59 72 60 73 68 74 61 75
REMARK SMILES IDX 62 76 66 77 69 78 63 79 64 80 67 81 65 82 44 83 45 84 53 85
REMARK SMILES IDX 46 86 47 87 51 88 54 89 48 90 49 91 52 92 50 93
REMARK H PARENT 74 46 42 57
REMARK Flexibility Score: inf
ROOT
ATOM      1  C   UNL     1       4.216  -2.764  -2.176  1.00  0.00     0.188 C 
ENDROOT
BRANCH   1   2
ATOM      2  O   UNL     1       2.796  -2.758  -2.167  1.00  0.00    -0.377 OA
BRANCH   2   3
ATOM      3  C   UNL     1       2.159  -1.494  -1.961  1.00  0.00     0.188 C 
BRANCH   3   4
ATOM      4  C   UNL     1       2.683  -0.675  -0.778  1.00  0.00     0.188 C 
BRANCH   4   5
ATOM      5  O   UNL     1       3.841   0.087  -1.116  1.00  0.00    -0.376 OA
BRANCH   5   6
ATOM      6  C   UNL     1       4.992   0.001  -0.270  1.00  0.00     0.202 C 
BRANCH   6   7
ATOM      7  C   UNL     1       4.777   0.040   1.248  1.00  0.00     0.261 C 
BRANCH   7   8
ATOM      8  O   UNL     1       4.462   1.365   1.669  1.00  0.00    -0.459 OA
BRANCH   8   9
ATOM      9  C   UNL     1       3.180   1.719   1.413  1.00  0.00     0.356 C 
ATOM     10  O   UNL     1       2.182   1.134   1.802  1.00  0.00    -0.244 OA
BRANCH   9  11
ATOM     11  C   UNL     1       3.204   2.910   0.528  1.00  0.00     0.145 C 
ATOM     12  C   UNL     1       2.185   3.769   0.425  1.00  0.00     0.024 C 
ATOM     13  N   UNL     1       4.271   3.185  -0.309  1.00  0.00    -0.245 NA
ATOM     14  C   UNL     1       2.619   4.876  -0.461  1.00  0.00     0.107 C 
ATOM     15  C   UNL     1       3.890   4.229  -0.967  1.00  0.00     0.054 C 
ATOM     16  C   UNL     1       1.830   5.333  -1.635  1.00  0.00     0.050 C 
ATOM     17  C   UNL     1       4.585   4.809  -2.132  1.00  0.00     0.026 C 
ATOM     18  C   UNL     1       2.500   6.022  -2.576  1.00  0.00     0.056 C 
ATOM     19  Cl  UNL     1       0.143   5.025  -1.704  1.00  0.00    -0.086 Cl
ATOM     20  C   UNL     1       3.898   5.717  -2.846  1.00  0.00     0.023 C 
ATOM     21  Cl  UNL     1       1.817   7.407  -3.345  1.00  0.00    -0.083 Cl
ENDBRANCH   9  11
ENDBRANCH   8   9
ENDBRANCH   7   8
ENDBRANCH   6   7
ENDBRANCH   5   6
ENDBRANCH   4   5
ENDBRANCH   3   4
ENDBRANCH   2   3
ENDBRANCH   1   2
BRANCH   1  22
ATOM     22  C   UNL     1       4.942  -1.950  -3.266  1.00  0.00     0.188 C 
BRANCH  22  23
ATOM     23  O   UNL     1       4.102  -1.137  -4.072  1.00  0.00    -0.376 OA
BRANCH  23  24
ATOM     24  C   UNL     1       3.887  -1.608  -5.400  1.00  0.00     0.202 C 
BRANCH  24  25
ATOM     25  C   UNL     1       2.948  -2.819  -5.502  1.00  0.00     0.261 C 
BRANCH  25  26
ATOM     26  O   UNL     1       3.445  -4.013  -4.871  1.00  0.00    -0.460 OA
BRANCH  26  27
ATOM     27  C   UNL     1       4.572  -4.548  -5.367  1.00  0.00     0.338 C 
ATOM     28  O   UNL     1       5.194  -4.179  -6.365  1.00  0.00    -0.246 OA
BRANCH  27  29
ATOM     29  C   UNL     1       5.083  -5.531  -4.398  1.00  0.00     0.060 A 
ATOM     30  C   UNL     1       6.414  -5.421  -3.976  1.00  0.00     0.016 A 
ATOM     31  C   UNL     1       4.255  -6.532  -3.877  1.00  0.00     0.016 A 
ATOM     32  C   UNL     1       6.930  -6.332  -3.056  1.00  0.00     0.010 A 
ATOM     33  C   UNL     1       4.779  -7.458  -2.971  1.00  0.00     0.010 A 
ATOM     34  C   UNL     1       6.126  -7.379  -2.581  1.00  0.00    -0.014 A 
BRANCH  34  35
ATOM     35  C   UNL     1       6.762  -8.497  -1.845  1.00  0.00     0.031 A 
ATOM     36  C   UNL     1       7.280  -9.663  -2.641  1.00  0.00     0.074 A 
ATOM     37  C   UNL     1       6.917  -8.463  -0.511  1.00  0.00     0.049 A 
ATOM     38  N   UNL     1       7.915 -10.732  -2.234  1.00  0.00    -0.248 NA
ATOM     39  C   UNL     1       7.054  -9.612  -4.095  1.00  0.00     0.031 C 
ATOM     40  C   UNL     1       6.472  -7.384   0.367  1.00  0.00     0.029 A 
ATOM     41  N   UNL     1       7.496  -9.373   0.339  1.00  0.00    -0.354 N 
ATOM     42  C   UNL     1       8.186 -11.465  -3.382  1.00  0.00     0.074 A 
ATOM     43  C   UNL     1       7.610 -10.745  -4.496  1.00  0.00     0.031 C 
ATOM     44  C   UNL     1       6.786  -7.699   1.637  1.00  0.00     0.029 A 
ATOM     45  C   UNL     1       7.442  -9.006   1.660  1.00  0.00     0.049 A 
ATOM     46  H   UNL     1       7.912 -10.210   0.029  1.00  0.00     0.167 HD
ATOM     47  C   UNL     1       8.868 -12.628  -3.499  1.00  0.00     0.037 A 
ATOM     48  C   UNL     1       7.868  -9.660   2.759  1.00  0.00     0.037 A 
ATOM     49  C   UNL     1       9.413 -13.364  -2.392  1.00  0.00     0.049 A 
ATOM     50  C   UNL     1       8.563 -10.990   2.606  1.00  0.00     0.074 A 
ATOM     51  C   UNL     1      10.107 -14.561  -2.407  1.00  0.00     0.029 A 
ATOM     52  N   UNL     1       9.316 -12.973  -1.065  1.00  0.00    -0.354 N 
ATOM     53  N   UNL     1       8.851 -11.656   1.513  1.00  0.00    -0.248 NA
ATOM     54  C   UNL     1       9.001 -11.655   3.842  1.00  0.00     0.031 C 
ATOM     55  C   UNL     1      10.396 -14.914  -1.085  1.00  0.00     0.029 A 
ATOM     56  C   UNL     1       9.921 -13.915  -0.251  1.00  0.00     0.049 A 
ATOM     57  H   UNL     1       8.880 -12.149  -0.749  1.00  0.00     0.167 HD
ATOM     58  C   UNL     1       9.521 -12.801   1.928  1.00  0.00     0.074 A 
ATOM     59  C   UNL     1       9.617 -12.729   3.370  1.00  0.00     0.031 C 
ATOM     60  C   UNL     1      10.010 -13.823   1.183  1.00  0.00     0.037 A 
BRANCH  47  61
ATOM     61  C   UNL     1       9.051 -13.178  -4.880  1.00  0.00     0.064 A 
ATOM     62  C   UNL     1       9.955 -12.595  -5.781  1.00  0.00     0.173 A 
ATOM     63  C   UNL     1       8.342 -14.313  -5.298  1.00  0.00     0.173 A 
ATOM     64  F   UNL     1      10.642 -11.497  -5.433  1.00  0.00    -0.203 F 
ATOM     65  C   UNL     1      10.132 -13.122  -7.058  1.00  0.00     0.198 A 
ATOM     66  C   UNL     1       8.537 -14.850  -6.568  1.00  0.00     0.198 A 
ATOM     67  F   UNL     1       7.464 -14.903  -4.474  1.00  0.00    -0.203 F 
ATOM     68  F   UNL     1      10.974 -12.528  -7.915  1.00  0.00    -0.200 F 
ATOM     69  C   UNL     1       9.428 -14.252  -7.447  1.00  0.00     0.200 A 
ATOM     70  F   UNL     1       7.862 -15.945  -6.941  1.00  0.00    -0.200 F 
ATOM     71  F   UNL     1       9.605 -14.762  -8.674  1.00  0.00    -0.200 F 
ENDBRANCH  47  61
BRANCH  48  72
ATOM     72  C   UNL     1       7.647  -9.081   4.110  1.00  0.00     0.064 A 
ATOM     73  C   UNL     1       8.720  -8.637   4.895  1.00  0.00     0.173 A 
ATOM     74  C   UNL     1       6.360  -9.010   4.664  1.00  0.00     0.173 A 
ATOM     75  F   UNL     1       9.972  -8.712   4.421  1.00  0.00    -0.203 F 
ATOM     76  C   UNL     1       8.518  -8.170   6.193  1.00  0.00     0.198 A 
ATOM     77  C   UNL     1       6.156  -8.517   5.951  1.00  0.00     0.198 A 
ATOM     78  F   UNL     1       5.300  -9.427   3.956  1.00  0.00    -0.203 F 
ATOM     79  F   UNL     1       9.567  -7.807   6.943  1.00  0.00    -0.200 F 
ATOM     80  C   UNL     1       7.236  -8.107   6.719  1.00  0.00     0.200 A 
ATOM     81  F   UNL     1       4.915  -8.452   6.453  1.00  0.00    -0.200 F 
ATOM     82  F   UNL     1       7.043  -7.666   7.969  1.00  0.00    -0.200 F 
ENDBRANCH  48  72
BRANCH  60  83
ATOM     83  C   UNL     1      10.712 -14.930   1.913  1.00  0.00     0.064 A 
ATOM     84  C   UNL     1      10.007 -15.857   2.695  1.00  0.00     0.173 A 
ATOM     85  C   UNL     1      12.102 -15.084   1.805  1.00  0.00     0.173 A 
ATOM     86  F   UNL     1       8.678 -15.744   2.840  1.00  0.00    -0.203 F 
ATOM     87  C   UNL     1      10.672 -16.879   3.367  1.00  0.00     0.198 A 
ATOM     88  C   UNL     1      12.761 -16.124   2.455  1.00  0.00     0.198 A 
ATOM     89  F   UNL     1      12.822 -14.230   1.062  1.00  0.00    -0.203 F 
ATOM     90  F   UNL     1       9.984 -17.722   4.149  1.00  0.00    -0.200 F 
ATOM     91  C   UNL     1      12.047 -17.015   3.243  1.00  0.00     0.200 A 
ATOM     92  F   UNL     1      14.087 -16.262   2.324  1.00  0.00    -0.200 F 
ATOM     93  F   UNL     1      12.685 -18.000   3.889  1.00  0.00    -0.200 F 
ENDBRANCH  60  83
ENDBRANCH  34  35
ENDBRANCH  27  29
ENDBRANCH  26  27
ENDBRANCH  25  26
ENDBRANCH  24  25
ENDBRANCH  23  24
ENDBRANCH  22  23
ENDBRANCH   1  22
TORSDOF 20
