REMARK SMILES COc1ccc(/C=C2/C(=O)N(c3ccccc3)C(=O)N=C2OCCOCCOCCOCCOC(=O)c2ccc(-c3c4nc(c(-c5c(F)c(F)c(F)c(F)c5F)c5ccc([nH]5)c(-c5c(F)c(F)c(F)c(F)c5F)c5nc(c(-c6c(F)c(F)c(F)c(F)c6F)c6ccc3[nH]6)C=C5)C=C4)cc2)cc1C(=O)[O-]
REMARK SMILES IDX 29 1 28 2 27 3 26 4 25 5 24 6 23 7 22 8 21 9 7 10 8 11 9 12
REMARK SMILES IDX 10 13 11 14 20 15 18 16 19 17 6 18 3 19 4 20 101 21 5 22
REMARK SMILES IDX 100 23 2 24 1 25 102 26 103 27 104 28 12 29 13 30 17 31
REMARK SMILES IDX 14 32 16 33 15 34 30 35 31 36 32 37 33 38 34 39 35 40 36 41
REMARK SMILES IDX 37 42 38 43 99 44 39 45 98 46 40 47 41 48 42 49 92 50 43 51
REMARK SMILES IDX 97 52 91 53 93 54 44 55 96 56 90 57 89 58 45 60 77 61 57 62
REMARK SMILES IDX 76 63 58 64 61 65 75 66 94 67 59 68 60 69 74 71 95 72 62 73
REMARK SMILES IDX 46 74 47 75 55 76 48 77 49 78 53 79 56 80 50 81 51 82 54 83
REMARK SMILES IDX 52 84 78 85 79 86 87 87 80 88 81 89 85 90 88 91 82 92 83 93
REMARK SMILES IDX 86 94 84 95 63 96 64 97 72 98 65 99 66 100 70 101 73 102
REMARK SMILES IDX 67 103 68 104 71 105 69 106
REMARK H PARENT 93 59 61 70
REMARK Flexibility Score: inf
ROOT
ATOM      1  C   UNL     1      -2.508   2.425  -4.766  1.00  0.00     0.188 C 
ENDROOT
BRANCH   1   2
ATOM      2  O   UNL     1      -1.331   2.905  -5.389  1.00  0.00    -0.377 OA
BRANCH   2   3
ATOM      3  C   UNL     1      -0.835   2.081  -6.429  1.00  0.00     0.188 C 
BRANCH   3   4
ATOM      4  C   UNL     1      -1.681   1.841  -7.694  1.00  0.00     0.188 C 
BRANCH   4   5
ATOM      5  O   UNL     1      -2.816   0.984  -7.737  1.00  0.00    -0.376 OA
BRANCH   5   6
ATOM      6  C   UNL     1      -3.026  -0.174  -6.953  1.00  0.00     0.201 C 
BRANCH   6   7
ATOM      7  C   UNL     1      -2.103  -1.391  -7.031  1.00  0.00     0.260 C 
BRANCH   7   8
ATOM      8  O   UNL     1      -0.721  -1.081  -6.802  1.00  0.00    -0.475 OA
BRANCH   8   9
ATOM      9  C   UNL     1       0.037  -0.800  -7.869  1.00  0.00     0.231 C 
ATOM     10  C   UNL     1       2.001  -0.071  -6.357  1.00  0.00     0.027 C 
ATOM     11  C   UNL     1       1.352  -0.216  -7.548  1.00  0.00     0.103 C 
ATOM     12  C   UNL     1       2.005   0.421  -8.765  1.00  0.00     0.272 C 
ATOM     13  O   UNL     1       3.122   0.931  -8.686  1.00  0.00    -0.268 OA
ATOM     14  N   UNL     1       1.218   0.432  -9.918  1.00  0.00    -0.226 N 
ATOM     15  N   UNL     1      -0.478  -0.944  -9.029  1.00  0.00    -0.156 NA
ATOM     16  C   UNL     1       0.110  -0.392 -10.117  1.00  0.00     0.358 C 
ATOM     17  O   UNL     1      -0.375  -0.606 -11.225  1.00  0.00    -0.245 OA
BRANCH  10  18
ATOM     18  C   UNL     1       1.764  -0.350  -4.894  1.00  0.00    -0.024 A 
ATOM     19  C   UNL     1       1.403  -0.599  -2.050  1.00  0.00     0.127 A 
ATOM     20  C   UNL     1       0.466  -1.101  -2.942  1.00  0.00     0.048 A 
ATOM     21  C   UNL     1       2.584  -0.065  -2.564  1.00  0.00     0.040 A 
ATOM     22  C   UNL     1       0.670  -1.012  -4.330  1.00  0.00     0.012 A 
ATOM     23  C   UNL     1       2.731   0.103  -3.966  1.00  0.00     0.022 A 
BRANCH  19  24
ATOM     24  O   UNL     1       1.109  -0.774  -0.725  1.00  0.00    -0.496 OA
ATOM     25  C   UNL     1       0.899   0.462  -0.041  1.00  0.00     0.278 C 
ENDBRANCH  19  24
BRANCH  21  26
ATOM     26  C   UNL     1       3.745   0.280  -1.716  1.00  0.00     0.075 C 
ATOM     27  O   UNL     1       4.571   1.142  -1.961  1.00  0.00    -0.545 OA
ATOM     28  O   UNL     1       3.880  -0.544  -0.664  1.00  0.00    -0.545 OA
ENDBRANCH  21  26
ENDBRANCH  10  18
BRANCH  14  29
ATOM     29  C   UNL     1       1.598   1.221 -11.041  1.00  0.00     0.054 A 
ATOM     30  C   UNL     1       0.741   2.247 -11.478  1.00  0.00     0.027 A 
ATOM     31  C   UNL     1       2.709   0.872 -11.810  1.00  0.00     0.027 A 
ATOM     32  C   UNL     1       0.996   2.917 -12.675  1.00  0.00     0.002 A 
ATOM     33  C   UNL     1       2.941   1.524 -13.024  1.00  0.00     0.002 A 
ATOM     34  C   UNL     1       2.089   2.543 -13.454  1.00  0.00     0.000 A 
ENDBRANCH  14  29
ENDBRANCH   8   9
ENDBRANCH   7   8
ENDBRANCH   6   7
ENDBRANCH   5   6
ENDBRANCH   4   5
ENDBRANCH   3   4
ENDBRANCH   2   3
ENDBRANCH   1   2
BRANCH   1  35
ATOM     35  C   UNL     1      -3.773   2.982  -5.432  1.00  0.00     0.188 C 
BRANCH  35  36
ATOM     36  O   UNL     1      -3.485   3.775  -6.575  1.00  0.00    -0.376 OA
BRANCH  36  37
ATOM     37  C   UNL     1      -3.359   5.181  -6.399  1.00  0.00     0.202 C 
BRANCH  37  38
ATOM     38  C   UNL     1      -2.288   5.727  -5.435  1.00  0.00     0.261 C 
BRANCH  38  39
ATOM     39  O   UNL     1      -2.365   5.281  -4.070  1.00  0.00    -0.460 OA
BRANCH  39  40
ATOM     40  C   UNL     1      -3.500   5.527  -3.386  1.00  0.00     0.338 C 
ATOM     41  O   UNL     1      -4.475   6.150  -3.760  1.00  0.00    -0.246 OA
BRANCH  40  42
ATOM     42  C   UNL     1      -3.450   4.714  -2.152  1.00  0.00     0.060 A 
ATOM     43  C   UNL     1      -4.488   3.805  -1.908  1.00  0.00     0.016 A 
ATOM     44  C   UNL     1      -2.377   4.822  -1.263  1.00  0.00     0.016 A 
ATOM     45  C   UNL     1      -4.477   3.031  -0.750  1.00  0.00     0.010 A 
ATOM     46  C   UNL     1      -2.380   4.066  -0.088  1.00  0.00     0.010 A 
ATOM     47  C   UNL     1      -3.450   3.199   0.189  1.00  0.00    -0.014 A 
BRANCH  47  48
ATOM     48  C   UNL     1      -3.641   2.661   1.555  1.00  0.00     0.031 A 
ATOM     49  C   UNL     1      -4.267   3.566   2.581  1.00  0.00     0.074 A 
ATOM     50  C   UNL     1      -3.324   1.393   1.864  1.00  0.00     0.049 A 
ATOM     51  N   UNL     1      -4.569   3.327   3.831  1.00  0.00    -0.248 NA
ATOM     52  C   UNL     1      -4.603   4.926   2.129  1.00  0.00     0.031 C 
ATOM     53  C   UNL     1      -2.757   0.412   0.943  1.00  0.00     0.029 A 
ATOM     54  N   UNL     1      -3.441   0.716   3.052  1.00  0.00    -0.354 N 
ATOM     55  C   UNL     1      -5.140   4.500   4.307  1.00  0.00     0.074 A 
ATOM     56  C   UNL     1      -5.102   5.464   3.230  1.00  0.00     0.031 C 
ATOM     57  C   UNL     1      -2.565  -0.744   1.604  1.00  0.00     0.029 A 
ATOM     58  C   UNL     1      -2.982  -0.576   2.996  1.00  0.00     0.049 A 
ATOM     59  H   UNL     1      -3.817   1.119   3.867  1.00  0.00     0.167 HD
ATOM     60  C   UNL     1      -5.664   4.749   5.530  1.00  0.00     0.037 A 
ATOM     61  C   UNL     1      -2.905  -1.508   3.966  1.00  0.00     0.037 A 
ATOM     62  C   UNL     1      -5.683   3.796   6.606  1.00  0.00     0.049 A 
ATOM     63  C   UNL     1      -3.415  -1.178   5.346  1.00  0.00     0.074 A 
ATOM     64  C   UNL     1      -6.181   3.947   7.888  1.00  0.00     0.029 A 
ATOM     65  N   UNL     1      -5.167   2.510   6.526  1.00  0.00    -0.354 N 
ATOM     66  N   UNL     1      -3.978  -0.077   5.784  1.00  0.00    -0.248 NA
ATOM     67  C   UNL     1      -3.288  -2.229   6.366  1.00  0.00     0.031 C 
ATOM     68  C   UNL     1      -5.922   2.770   8.598  1.00  0.00     0.029 A 
ATOM     69  C   UNL     1      -5.315   1.864   7.742  1.00  0.00     0.049 A 
ATOM     70  H   UNL     1      -4.756   2.116   5.723  1.00  0.00     0.167 HD
ATOM     71  C   UNL     1      -4.305  -0.315   7.114  1.00  0.00     0.074 A 
ATOM     72  C   UNL     1      -3.887  -1.670   7.407  1.00  0.00     0.031 C 
ATOM     73  C   UNL     1      -4.900   0.511   8.011  1.00  0.00     0.037 A 
BRANCH  60  74
ATOM     74  C   UNL     1      -6.231   6.118   5.767  1.00  0.00     0.064 A 
ATOM     75  C   UNL     1      -7.420   6.539   5.152  1.00  0.00     0.173 A 
ATOM     76  C   UNL     1      -5.578   7.020   6.620  1.00  0.00     0.173 A 
ATOM     77  F   UNL     1      -8.070   5.722   4.310  1.00  0.00    -0.203 F 
ATOM     78  C   UNL     1      -7.918   7.823   5.359  1.00  0.00     0.198 A 
ATOM     79  C   UNL     1      -6.095   8.292   6.849  1.00  0.00     0.198 A 
ATOM     80  F   UNL     1      -4.436   6.668   7.231  1.00  0.00    -0.203 F 
ATOM     81  F   UNL     1      -9.024   8.222   4.717  1.00  0.00    -0.200 F 
ATOM     82  C   UNL     1      -7.259   8.695   6.212  1.00  0.00     0.200 A 
ATOM     83  F   UNL     1      -5.461   9.131   7.680  1.00  0.00    -0.200 F 
ATOM     84  F   UNL     1      -7.740   9.930   6.412  1.00  0.00    -0.200 F 
ENDBRANCH  60  74
BRANCH  61  85
ATOM     85  C   UNL     1      -2.329  -2.846   3.671  1.00  0.00     0.064 A 
ATOM     86  C   UNL     1      -3.130  -3.997   3.683  1.00  0.00     0.173 A 
ATOM     87  C   UNL     1      -0.962  -3.006   3.404  1.00  0.00     0.173 A 
ATOM     88  F   UNL     1      -4.439  -3.899   3.959  1.00  0.00    -0.203 F 
ATOM     89  C   UNL     1      -2.581  -5.258   3.460  1.00  0.00     0.198 A 
ATOM     90  C   UNL     1      -0.419  -4.265   3.155  1.00  0.00     0.198 A 
ATOM     91  F   UNL     1      -0.152  -1.936   3.386  1.00  0.00    -0.203 F 
ATOM     92  F   UNL     1      -3.360  -6.346   3.527  1.00  0.00    -0.200 F 
ATOM     93  C   UNL     1      -1.227  -5.391   3.192  1.00  0.00     0.200 A 
ATOM     94  F   UNL     1       0.889  -4.388   2.891  1.00  0.00    -0.200 F 
ATOM     95  F   UNL     1      -0.700  -6.604   2.980  1.00  0.00    -0.200 F 
ENDBRANCH  61  85
BRANCH  73  96
ATOM     96  C   UNL     1      -5.176  -0.045   9.380  1.00  0.00     0.064 A 
ATOM     97  C   UNL     1      -4.145  -0.308  10.294  1.00  0.00     0.173 A 
ATOM     98  C   UNL     1      -6.495  -0.291   9.790  1.00  0.00     0.173 A 
ATOM     99  F   UNL     1      -2.866  -0.101   9.947  1.00  0.00    -0.203 F 
ATOM    100  C   UNL     1      -4.423  -0.831  11.554  1.00  0.00     0.198 A 
ATOM    101  C   UNL     1      -6.771  -0.782  11.063  1.00  0.00     0.198 A 
ATOM    102  F   UNL     1      -7.519  -0.046   8.959  1.00  0.00    -0.203 F 
ATOM    103  F   UNL     1      -3.417  -1.130  12.389  1.00  0.00    -0.200 F 
ATOM    104  C   UNL     1      -5.735  -1.062  11.940  1.00  0.00     0.200 A 
ATOM    105  F   UNL     1      -8.041  -0.989  11.439  1.00  0.00    -0.200 F 
ATOM    106  F   UNL     1      -5.999  -1.564  13.154  1.00  0.00    -0.200 F 
ENDBRANCH  73  96
ENDBRANCH  47  48
ENDBRANCH  40  42
ENDBRANCH  39  40
ENDBRANCH  38  39
ENDBRANCH  37  38
ENDBRANCH  36  37
ENDBRANCH  35  36
ENDBRANCH   1  35
TORSDOF 23
