REMARK SMILES C[C@@]1(CN2C[C@H](C(=O)OCCOCCOCCOCCOC(=O)c3ccc(-c4c5nc(c(-c6c(F)c(F)c(F)c(F)c6F)c6ccc([nH]6)c(-c6c(F)c(F)c(F)c(F)c6F)c6nc(c(-c7c(F)c(F)c(F)c(F)c7F)c7ccc4[nH]7)C=C6)C=C5)cc3)CCC2=O)CCCO1
REMARK SMILES IDX 15 1 14 2 13 3 12 4 11 5 10 6 9 7 7 8 8 9 6 10 4 11 5 12
REMARK SMILES IDX 89 13 88 14 90 15 87 16 3 17 2 18 1 19 91 20 94 21 92 22
REMARK SMILES IDX 93 23 16 24 17 25 18 26 19 27 20 28 21 29 22 30 23 31 24 32
REMARK SMILES IDX 25 33 86 34 26 35 85 36 27 37 28 38 29 39 79 40 30 41 84 42
REMARK SMILES IDX 78 43 80 44 31 45 83 46 77 47 76 48 32 50 64 51 44 52 63 53
REMARK SMILES IDX 45 54 48 55 62 56 81 57 46 58 47 59 61 61 82 62 49 63 33 64
REMARK SMILES IDX 34 65 42 66 35 67 36 68 40 69 43 70 37 71 38 72 41 73 39 74
REMARK SMILES IDX 65 75 66 76 74 77 67 78 68 79 72 80 75 81 69 82 70 83 73 84
REMARK SMILES IDX 71 85 50 86 51 87 59 88 52 89 53 90 57 91 60 92 54 93 55 94
REMARK SMILES IDX 58 95 56 96
REMARK H PARENT 80 49 48 60
REMARK Flexibility Score: inf
ROOT
ATOM      1  O   UNL     1      -7.714  -1.378  -0.582  1.00  0.00    -0.377 OA
ENDROOT
BRANCH   1   2
ATOM      2  C   UNL     1      -6.332  -1.326  -0.908  1.00  0.00     0.188 C 
BRANCH   2   3
ATOM      3  C   UNL     1      -5.338  -2.483  -0.603  1.00  0.00     0.188 C 
BRANCH   3   4
ATOM      4  O   UNL     1      -5.614  -3.242   0.566  1.00  0.00    -0.376 OA
BRANCH   4   5
ATOM      5  C   UNL     1      -4.852  -2.982   1.732  1.00  0.00     0.202 C 
BRANCH   5   6
ATOM      6  C   UNL     1      -5.130  -1.625   2.403  1.00  0.00     0.261 C 
BRANCH   6   7
ATOM      7  O   UNL     1      -4.938  -0.484   1.544  1.00  0.00    -0.463 OA
BRANCH   7   8
ATOM      8  C   UNL     1      -3.663  -0.326   1.110  1.00  0.00     0.310 C 
ATOM      9  O   UNL     1      -2.752  -1.038   1.509  1.00  0.00    -0.252 OA
BRANCH   8  10
ATOM     10  C   UNL     1      -3.533   0.801   0.074  1.00  0.00     0.119 C 
ATOM     11  N   UNL     1      -1.107   0.661   0.254  1.00  0.00    -0.339 N 
ATOM     12  C   UNL     1      -2.252   1.558   0.375  1.00  0.00     0.134 C 
ATOM     13  C   UNL     1      -1.056  -0.371  -0.673  1.00  0.00     0.222 C 
ATOM     14  C   UNL     1      -2.165  -0.434  -1.701  1.00  0.00     0.101 C 
ATOM     15  O   UNL     1      -0.181  -1.237  -0.682  1.00  0.00    -0.275 OA
ATOM     16  C   UNL     1      -3.406   0.392  -1.396  1.00  0.00     0.027 C 
BRANCH  11  17
ATOM     17  C   UNL     1      -0.101   0.716   1.307  1.00  0.00     0.154 C 
BRANCH  17  18
ATOM     18  C   UNL     1       1.207   1.413   0.876  1.00  0.00     0.083 C 
ATOM     19  C   UNL     1       2.037   0.531  -0.052  1.00  0.00     0.044 C 
ATOM     20  C   UNL     1       2.002   1.829   2.113  1.00  0.00     0.039 C 
ATOM     21  O   UNL     1       0.888   2.646   0.190  1.00  0.00    -0.373 OA
ATOM     22  C   UNL     1       1.429   3.189   2.435  1.00  0.00     0.031 C 
ATOM     23  C   UNL     1       1.111   3.751   1.068  1.00  0.00     0.161 C 
ENDBRANCH  17  18
ENDBRANCH  11  17
ENDBRANCH   8  10
ENDBRANCH   7   8
ENDBRANCH   6   7
ENDBRANCH   5   6
ENDBRANCH   4   5
ENDBRANCH   3   4
ENDBRANCH   2   3
ENDBRANCH   1   2
BRANCH   1  24
ATOM     24  C   UNL     1      -8.140  -2.391   0.308  1.00  0.00     0.188 C 
BRANCH  24  25
ATOM     25  C   UNL     1      -8.209  -3.786  -0.339  1.00  0.00     0.188 C 
BRANCH  25  26
ATOM     26  O   UNL     1      -7.548  -3.846  -1.591  1.00  0.00    -0.376 OA
BRANCH  26  27
ATOM     27  C   UNL     1      -8.254  -3.582  -2.789  1.00  0.00     0.202 C 
BRANCH  27  28
ATOM     28  C   UNL     1      -9.311  -2.471  -2.942  1.00  0.00     0.261 C 
BRANCH  28  29
ATOM     29  O   UNL     1     -10.130  -2.137  -1.819  1.00  0.00    -0.460 OA
BRANCH  29  30
ATOM     30  C   UNL     1     -11.075  -3.008  -1.422  1.00  0.00     0.338 C 
ATOM     31  O   UNL     1     -11.339  -4.095  -1.905  1.00  0.00    -0.246 OA
BRANCH  30  32
ATOM     32  C   UNL     1     -11.616  -2.480  -0.150  1.00  0.00     0.060 A 
ATOM     33  C   UNL     1     -11.466  -3.221   1.033  1.00  0.00     0.016 A 
ATOM     34  C   UNL     1     -12.210  -1.216  -0.124  1.00  0.00     0.016 A 
ATOM     35  C   UNL     1     -11.931  -2.709   2.244  1.00  0.00     0.010 A 
ATOM     36  C   UNL     1     -12.716  -0.724   1.077  1.00  0.00     0.010 A 
ATOM     37  C   UNL     1     -12.610  -1.485   2.256  1.00  0.00    -0.014 A 
BRANCH  37  38
ATOM     38  C   UNL     1     -13.473  -1.124   3.402  1.00  0.00     0.031 A 
ATOM     39  C   UNL     1     -14.922  -1.514   3.307  1.00  0.00     0.074 A 
ATOM     40  C   UNL     1     -13.013  -0.435   4.459  1.00  0.00     0.049 A 
ATOM     41  N   UNL     1     -15.932  -1.160   4.054  1.00  0.00    -0.248 NA
ATOM     42  C   UNL     1     -15.279  -2.418   2.199  1.00  0.00     0.031 C 
ATOM     43  C   UNL     1     -11.621  -0.055   4.685  1.00  0.00     0.029 A 
ATOM     44  N   UNL     1     -13.688   0.095   5.531  1.00  0.00    -0.354 N 
ATOM     45  C   UNL     1     -17.043  -1.773   3.490  1.00  0.00     0.074 A 
ATOM     46  C   UNL     1     -16.591  -2.510   2.334  1.00  0.00     0.031 C 
ATOM     47  C   UNL     1     -11.550   0.681   5.809  1.00  0.00     0.029 A 
ATOM     48  C   UNL     1     -12.897   0.862   6.351  1.00  0.00     0.049 A 
ATOM     49  H   UNL     1     -14.646  -0.059   5.695  1.00  0.00     0.167 HD
ATOM     50  C   UNL     1     -18.329  -1.720   3.903  1.00  0.00     0.037 A 
ATOM     51  C   UNL     1     -13.239   1.652   7.389  1.00  0.00     0.037 A 
ATOM     52  C   UNL     1     -18.767  -0.984   5.056  1.00  0.00     0.049 A 
ATOM     53  C   UNL     1     -14.694   1.754   7.787  1.00  0.00     0.074 A 
ATOM     54  C   UNL     1     -20.044  -0.873   5.573  1.00  0.00     0.029 A 
ATOM     55  N   UNL     1     -17.934  -0.226   5.866  1.00  0.00    -0.354 N 
ATOM     56  N   UNL     1     -15.741   1.163   7.263  1.00  0.00    -0.248 NA
ATOM     57  C   UNL     1     -15.015   2.636   8.919  1.00  0.00     0.031 C 
ATOM     58  C   UNL     1     -19.995   0.000   6.662  1.00  0.00     0.029 A 
ATOM     59  C   UNL     1     -18.675   0.374   6.867  1.00  0.00     0.049 A 
ATOM     60  H   UNL     1     -16.962  -0.129   5.745  1.00  0.00     0.167 HD
ATOM     61  C   UNL     1     -16.831   1.561   8.028  1.00  0.00     0.074 A 
ATOM     62  C   UNL     1     -16.321   2.448   9.051  1.00  0.00     0.031 C 
ATOM     63  C   UNL     1     -18.136   1.219   7.901  1.00  0.00     0.037 A 
BRANCH  50  64
ATOM     64  C   UNL     1     -19.357  -2.442   3.086  1.00  0.00     0.064 A 
ATOM     65  C   UNL     1     -19.427  -3.842   3.054  1.00  0.00     0.173 A 
ATOM     66  C   UNL     1     -20.314  -1.718   2.358  1.00  0.00     0.173 A 
ATOM     67  F   UNL     1     -18.523  -4.580   3.715  1.00  0.00    -0.203 F 
ATOM     68  C   UNL     1     -20.410  -4.491   2.311  1.00  0.00     0.198 A 
ATOM     69  C   UNL     1     -21.314  -2.370   1.643  1.00  0.00     0.198 A 
ATOM     70  F   UNL     1     -20.287  -0.377   2.353  1.00  0.00    -0.203 F 
ATOM     71  F   UNL     1     -20.434  -5.830   2.261  1.00  0.00    -0.200 F 
ATOM     72  C   UNL     1     -21.359  -3.755   1.616  1.00  0.00     0.200 A 
ATOM     73  F   UNL     1     -22.237  -1.656   0.984  1.00  0.00    -0.200 F 
ATOM     74  F   UNL     1     -22.314  -4.381   0.916  1.00  0.00    -0.200 F 
ENDBRANCH  50  64
BRANCH  51  75
ATOM     75  C   UNL     1     -12.203   2.441   8.109  1.00  0.00     0.064 A 
ATOM     76  C   UNL     1     -11.903   2.184   9.455  1.00  0.00     0.173 A 
ATOM     77  C   UNL     1     -11.525   3.499   7.485  1.00  0.00     0.173 A 
ATOM     78  F   UNL     1     -12.541   1.200  10.107  1.00  0.00    -0.203 F 
ATOM     79  C   UNL     1     -10.992   2.973  10.155  1.00  0.00     0.198 A 
ATOM     80  C   UNL     1     -10.589   4.265   8.176  1.00  0.00     0.198 A 
ATOM     81  F   UNL     1     -11.773   3.791   6.199  1.00  0.00    -0.203 F 
ATOM     82  F   UNL     1     -10.774   2.745  11.458  1.00  0.00    -0.200 F 
ATOM     83  C   UNL     1     -10.332   4.011   9.514  1.00  0.00     0.200 A 
ATOM     84  F   UNL     1      -9.944   5.258   7.548  1.00  0.00    -0.200 F 
ATOM     85  F   UNL     1      -9.460   4.772  10.189  1.00  0.00    -0.200 F 
ENDBRANCH  51  75
BRANCH  63  86
ATOM     86  C   UNL     1     -19.102   1.723   8.934  1.00  0.00     0.064 A 
ATOM     87  C   UNL     1     -19.518   3.060   8.974  1.00  0.00     0.173 A 
ATOM     88  C   UNL     1     -19.695   0.821   9.833  1.00  0.00     0.173 A 
ATOM     89  F   UNL     1     -18.974   3.962   8.144  1.00  0.00    -0.203 F 
ATOM     90  C   UNL     1     -20.487   3.479   9.884  1.00  0.00     0.198 A 
ATOM     91  C   UNL     1     -20.686   1.236  10.717  1.00  0.00     0.198 A 
ATOM     92  F   UNL     1     -19.339  -0.473   9.826  1.00  0.00    -0.203 F 
ATOM     93  F   UNL     1     -20.849   4.768   9.927  1.00  0.00    -0.200 F 
ATOM     94  C   UNL     1     -21.078   2.565  10.744  1.00  0.00     0.200 A 
ATOM     95  F   UNL     1     -21.269   0.346  11.532  1.00  0.00    -0.200 F 
ATOM     96  F   UNL     1     -22.028   2.966  11.601  1.00  0.00    -0.200 F 
ENDBRANCH  63  86
ENDBRANCH  37  38
ENDBRANCH  30  32
ENDBRANCH  29  30
ENDBRANCH  28  29
ENDBRANCH  27  28
ENDBRANCH  26  27
ENDBRANCH  25  26
ENDBRANCH  24  25
ENDBRANCH   1  24
TORSDOF 22
