REMARK SMILES C[C@H]1[C@H](C(=O)OCCOCCOCCOCCOC(=O)c2ccc(-c3c4nc(c(-c5c(F)c(F)c(F)c(F)c5F)c5ccc([nH]5)c(-c5c(F)c(F)c(F)c(F)c5F)c5nc(c(-c6c(F)c(F)c(F)c(F)c6F)c6ccc3[nH]6)C=C5)C=C4)cc2)CC[N@@H+]1Cc1cnn(-c2ccccc2)c1
REMARK SMILES IDX 11 1 10 2 9 3 8 4 7 5 6 6 4 7 5 8 3 9 1 10 2 11 86 12 84 13
REMARK SMILES IDX 85 14 87 16 88 17 89 18 98 19 90 20 91 21 92 22 93 23 97 24
REMARK SMILES IDX 94 25 96 26 95 27 12 28 13 29 14 30 15 31 16 32 17 33 18 34
REMARK SMILES IDX 19 35 20 36 21 37 22 38 83 39 23 40 82 41 24 42 25 43 26 44
REMARK SMILES IDX 76 45 27 46 81 47 75 48 77 49 28 50 80 51 74 52 73 53 29 55
REMARK SMILES IDX 61 56 41 57 60 58 42 59 45 60 59 61 78 62 43 63 44 64 58 66
REMARK SMILES IDX 79 67 46 68 30 69 31 70 39 71 32 72 33 73 37 74 40 75 34 76
REMARK SMILES IDX 35 77 38 78 36 79 62 80 63 81 71 82 64 83 65 84 69 85 72 86
REMARK SMILES IDX 66 87 67 88 70 89 68 90 47 91 48 92 56 93 49 94 50 95 54 96
REMARK SMILES IDX 57 97 51 98 52 99 55 100 53 101
REMARK H PARENT 86 15 77 54 45 65
REMARK Flexibility Score: inf
ROOT
ATOM      1  C   UNL     1       1.936   2.221   1.886  1.00  0.00     0.188 C 
ENDROOT
BRANCH   1   2
ATOM      2  C   UNL     1       1.761   3.698   1.538  1.00  0.00     0.188 C 
BRANCH   2   3
ATOM      3  O   UNL     1       1.165   4.559   2.490  1.00  0.00    -0.376 OA
BRANCH   3   4
ATOM      4  C   UNL     1      -0.032   4.251   3.185  1.00  0.00     0.202 C 
BRANCH   4   5
ATOM      5  C   UNL     1      -1.224   3.477   2.589  1.00  0.00     0.261 C 
BRANCH   5   6
ATOM      6  O   UNL     1      -0.929   2.291   1.827  1.00  0.00    -0.463 OA
BRANCH   6   7
ATOM      7  C   UNL     1      -1.073   2.394   0.485  1.00  0.00     0.315 C 
ATOM      8  O   UNL     1      -1.444   3.421  -0.078  1.00  0.00    -0.252 OA
BRANCH   7   9
ATOM      9  C   UNL     1      -0.786   1.127  -0.310  1.00  0.00     0.162 C 
ATOM     10  C   UNL     1       1.345  -0.172  -0.771  1.00  0.00     0.076 C 
ATOM     11  C   UNL     1       0.170   0.037   0.204  1.00  0.00     0.195 C 
ATOM     12  N   UNL     1      -0.575  -1.222   0.221  1.00  0.00    -0.328 N 
ATOM     13  C   UNL     1      -2.103   0.413  -0.577  1.00  0.00     0.083 C 
ATOM     14  C   UNL     1      -1.769  -1.065  -0.590  1.00  0.00     0.263 C 
ATOM     15  H   UNL     1      -0.010  -1.945  -0.224  1.00  0.00     0.348 HD
BRANCH  12  16
ATOM     16  C   UNL     1      -0.705  -1.887   1.514  1.00  0.00     0.302 C 
BRANCH  16  17
ATOM     17  C   UNL     1      -1.362  -1.083   2.587  1.00  0.00     0.045 A 
ATOM     18  C   UNL     1      -2.738  -0.837   2.755  1.00  0.00     0.145 A 
ATOM     19  C   UNL     1      -0.793  -0.499   3.708  1.00  0.00     0.124 A 
ATOM     20  N   UNL     1      -3.022  -0.207   3.893  1.00  0.00    -0.176 NA
ATOM     21  N   UNL     1      -1.818   0.017   4.475  1.00  0.00    -0.240 N 
BRANCH  21  22
ATOM     22  C   UNL     1      -1.739   0.720   5.709  1.00  0.00     0.065 A 
ATOM     23  C   UNL     1      -2.895   0.853   6.495  1.00  0.00     0.028 A 
ATOM     24  C   UNL     1      -0.545   1.311   6.138  1.00  0.00     0.028 A 
ATOM     25  C   UNL     1      -2.860   1.574   7.690  1.00  0.00     0.002 A 
ATOM     26  C   UNL     1      -0.528   2.073   7.312  1.00  0.00     0.002 A 
ATOM     27  C   UNL     1      -1.681   2.198   8.089  1.00  0.00     0.000 A 
ENDBRANCH  21  22
ENDBRANCH  16  17
ENDBRANCH  12  16
ENDBRANCH   7   9
ENDBRANCH   6   7
ENDBRANCH   5   6
ENDBRANCH   4   5
ENDBRANCH   3   4
ENDBRANCH   2   3
ENDBRANCH   1   2
BRANCH   1  28
ATOM     28  O   UNL     1       2.913   1.815   2.810  1.00  0.00    -0.377 OA
BRANCH  28  29
ATOM     29  C   UNL     1       2.763   2.360   4.095  1.00  0.00     0.188 C 
BRANCH  29  30
ATOM     30  C   UNL     1       3.704   3.535   4.350  1.00  0.00     0.188 C 
BRANCH  30  31
ATOM     31  O   UNL     1       4.868   3.759   3.562  1.00  0.00    -0.376 OA
BRANCH  31  32
ATOM     32  C   UNL     1       5.344   2.805   2.627  1.00  0.00     0.202 C 
BRANCH  32  33
ATOM     33  C   UNL     1       5.857   1.437   3.123  1.00  0.00     0.261 C 
BRANCH  33  34
ATOM     34  O   UNL     1       5.175   0.836   4.234  1.00  0.00    -0.460 OA
BRANCH  34  35
ATOM     35  C   UNL     1       5.623   1.191   5.456  1.00  0.00     0.338 C 
ATOM     36  O   UNL     1       6.547   1.951   5.716  1.00  0.00    -0.246 OA
BRANCH  35  37
ATOM     37  C   UNL     1       4.737   0.626   6.495  1.00  0.00     0.060 A 
ATOM     38  C   UNL     1       4.153   1.506   7.416  1.00  0.00     0.016 A 
ATOM     39  C   UNL     1       4.530  -0.751   6.609  1.00  0.00     0.016 A 
ATOM     40  C   UNL     1       3.413   1.012   8.487  1.00  0.00     0.010 A 
ATOM     41  C   UNL     1       3.813  -1.250   7.704  1.00  0.00     0.010 A 
ATOM     42  C   UNL     1       3.301  -0.371   8.675  1.00  0.00    -0.014 A 
BRANCH  42  43
ATOM     43  C   UNL     1       2.891  -0.860  10.015  1.00  0.00     0.031 A 
ATOM     44  C   UNL     1       3.970  -1.212  11.002  1.00  0.00     0.074 A 
ATOM     45  C   UNL     1       1.601  -0.898  10.388  1.00  0.00     0.049 A 
ATOM     46  N   UNL     1       3.866  -1.605  12.246  1.00  0.00    -0.248 NA
ATOM     47  C   UNL     1       5.357  -1.109  10.518  1.00  0.00     0.031 C 
ATOM     48  C   UNL     1       0.473  -0.555   9.532  1.00  0.00     0.029 A 
ATOM     49  N   UNL     1       1.026  -1.233  11.588  1.00  0.00    -0.354 N 
ATOM     50  C   UNL     1       5.168  -1.803  12.687  1.00  0.00     0.074 A 
ATOM     51  C   UNL     1       6.043  -1.524  11.570  1.00  0.00     0.031 C 
ATOM     52  C   UNL     1      -0.664  -0.678  10.236  1.00  0.00     0.029 A 
ATOM     53  C   UNL     1      -0.345  -1.146  11.583  1.00  0.00     0.049 A 
ATOM     54  H   UNL     1       1.546  -1.509  12.377  1.00  0.00     0.167 HD
ATOM     55  C   UNL     1       5.596  -2.173  13.917  1.00  0.00     0.037 A 
ATOM     56  C   UNL     1      -1.237  -1.430  12.552  1.00  0.00     0.037 A 
ATOM     57  C   UNL     1       4.722  -2.454  15.025  1.00  0.00     0.049 A 
ATOM     58  C   UNL     1      -0.737  -1.899  13.895  1.00  0.00     0.074 A 
ATOM     59  C   UNL     1       5.057  -2.830  16.313  1.00  0.00     0.029 A 
ATOM     60  N   UNL     1       3.337  -2.396  14.972  1.00  0.00    -0.354 N 
ATOM     61  N   UNL     1       0.496  -2.061  14.312  1.00  0.00    -0.248 NA
ATOM     62  C   UNL     1      -1.756  -2.221  14.904  1.00  0.00     0.031 C 
ATOM     63  C   UNL     1       3.873  -3.062  17.022  1.00  0.00     0.029 A 
ATOM     64  C   UNL     1       2.801  -2.757  16.199  1.00  0.00     0.049 A 
ATOM     65  H   UNL     1       2.812  -2.138  14.180  1.00  0.00     0.167 HD
ATOM     66  C   UNL     1       0.402  -2.471  15.637  1.00  0.00     0.074 A 
ATOM     67  C   UNL     1      -1.009  -2.512  15.959  1.00  0.00     0.031 C 
ATOM     68  C   UNL     1       1.393  -2.787  16.508  1.00  0.00     0.037 A 
BRANCH  55  69
ATOM     69  C   UNL     1       7.077  -2.332  14.113  1.00  0.00     0.064 A 
ATOM     70  C   UNL     1       7.949  -1.232  14.104  1.00  0.00     0.173 A 
ATOM     71  C   UNL     1       7.629  -3.604  14.328  1.00  0.00     0.173 A 
ATOM     72  F   UNL     1       7.476   0.004  13.883  1.00  0.00    -0.203 F 
ATOM     73  C   UNL     1       9.321  -1.404  14.273  1.00  0.00     0.198 A 
ATOM     74  C   UNL     1       8.996  -3.768  14.533  1.00  0.00     0.198 A 
ATOM     75  F   UNL     1       6.841  -4.689  14.346  1.00  0.00    -0.203 F 
ATOM     76  F   UNL     1      10.141  -0.346  14.203  1.00  0.00    -0.200 F 
ATOM     77  C   UNL     1       9.842  -2.670  14.496  1.00  0.00     0.200 A 
ATOM     78  F   UNL     1       9.495  -4.990  14.761  1.00  0.00    -0.200 F 
ATOM     79  F   UNL     1      11.161  -2.833  14.666  1.00  0.00    -0.200 F 
ENDBRANCH  55  69
BRANCH  56  80
ATOM     80  C   UNL     1      -2.696  -1.289  12.292  1.00  0.00     0.064 A 
ATOM     81  C   UNL     1      -3.469  -0.341  12.977  1.00  0.00     0.173 A 
ATOM     82  C   UNL     1      -3.355  -2.124  11.377  1.00  0.00     0.173 A 
ATOM     83  F   UNL     1      -2.893   0.466  13.881  1.00  0.00    -0.203 F 
ATOM     84  C   UNL     1      -4.845  -0.251  12.777  1.00  0.00     0.198 A 
ATOM     85  C   UNL     1      -4.724  -2.009  11.150  1.00  0.00     0.198 A 
ATOM     86  F   UNL     1      -2.665  -3.052  10.697  1.00  0.00    -0.203 F 
ATOM     87  F   UNL     1      -5.568   0.625  13.489  1.00  0.00    -0.200 F 
ATOM     88  C   UNL     1      -5.471  -1.081  11.859  1.00  0.00     0.200 A 
ATOM     89  F   UNL     1      -5.322  -2.804  10.253  1.00  0.00    -0.200 F 
ATOM     90  F   UNL     1      -6.794  -0.993  11.665  1.00  0.00    -0.200 F 
ENDBRANCH  56  80
BRANCH  68  91
ATOM     91  C   UNL     1       0.989  -3.156  17.909  1.00  0.00     0.064 A 
ATOM     92  C   UNL     1       0.299  -4.343  18.197  1.00  0.00     0.173 A 
ATOM     93  C   UNL     1       1.314  -2.312  18.983  1.00  0.00     0.173 A 
ATOM     94  F   UNL     1      -0.046  -5.181  17.207  1.00  0.00    -0.203 F 
ATOM     95  C   UNL     1      -0.089  -4.649  19.499  1.00  0.00     0.198 A 
ATOM     96  C   UNL     1       0.960  -2.641  20.289  1.00  0.00     0.198 A 
ATOM     97  F   UNL     1       1.984  -1.170  18.769  1.00  0.00    -0.203 F 
ATOM     98  F   UNL     1      -0.809  -5.754  19.739  1.00  0.00    -0.200 F 
ATOM     99  C   UNL     1       0.246  -3.802  20.544  1.00  0.00     0.200 A 
ATOM    100  F   UNL     1       1.303  -1.830  21.299  1.00  0.00    -0.200 F 
ATOM    101  F   UNL     1      -0.127  -4.098  21.796  1.00  0.00    -0.200 F 
ENDBRANCH  68  91
ENDBRANCH  42  43
ENDBRANCH  35  37
ENDBRANCH  34  35
ENDBRANCH  33  34
ENDBRANCH  32  33
ENDBRANCH  31  32
ENDBRANCH  30  31
ENDBRANCH  29  30
ENDBRANCH  28  29
ENDBRANCH   1  28
TORSDOF 23
