REMARK SMILES COc1cccc(C(=O)N[C@H]2C=C[C@@H](C(=O)OCCOCCOCCOCCOC(=O)c3ccc(-c4c5nc(c(-c6c(F)c(F)c(F)c(F)c6F)c6ccc([nH]6)c(-c6c(F)c(F)c(F)c(F)c6F)c6nc(c(-c7c(F)c(F)c(F)c(F)c7F)c7ccc4[nH]7)C=C6)C=C5)cc3)C2)c1
REMARK SMILES IDX 22 1 21 2 20 3 19 4 18 5 17 6 15 7 16 8 14 9 11 10 12 11
REMARK SMILES IDX 95 12 13 13 10 14 8 15 9 16 7 18 3 19 4 20 96 21 5 22 6 23
REMARK SMILES IDX 2 24 1 25 23 26 24 27 25 28 26 29 27 30 28 31 29 32 30 33
REMARK SMILES IDX 31 34 32 35 33 36 94 37 34 38 93 39 35 40 36 41 37 42 87 43
REMARK SMILES IDX 38 44 92 45 86 46 88 47 39 48 91 49 85 50 84 51 40 53 72 54
REMARK SMILES IDX 52 55 71 56 53 57 56 58 70 59 89 60 54 61 55 62 69 64 90 65
REMARK SMILES IDX 57 66 41 67 42 68 50 69 43 70 44 71 48 72 51 73 45 74 46 75
REMARK SMILES IDX 49 76 47 77 73 78 74 79 82 80 75 81 76 82 80 83 83 84 77 85
REMARK SMILES IDX 78 86 81 87 79 88 58 89 59 90 67 91 60 92 61 93 65 94 68 95
REMARK SMILES IDX 62 96 63 97 66 98 64 99
REMARK H PARENT 10 17 88 52 56 63
REMARK Flexibility Score: inf
ROOT
ATOM      1  C   UNL     1       6.544   2.303  -0.173  1.00  0.00     0.188 C 
ENDROOT
BRANCH   1   2
ATOM      2  C   UNL     1       5.944   3.535   0.523  1.00  0.00     0.188 C 
BRANCH   2   3
ATOM      3  O   UNL     1       6.717   4.331   1.400  1.00  0.00    -0.376 OA
BRANCH   3   4
ATOM      4  C   UNL     1       7.333   3.836   2.580  1.00  0.00     0.202 C 
BRANCH   4   5
ATOM      5  C   UNL     1       6.803   2.685   3.445  1.00  0.00     0.261 C 
BRANCH   5   6
ATOM      6  O   UNL     1       6.311   1.546   2.741  1.00  0.00    -0.463 OA
BRANCH   6   7
ATOM      7  C   UNL     1       4.968   1.435   2.746  1.00  0.00     0.312 C 
ATOM      8  O   UNL     1       4.207   2.206   3.326  1.00  0.00    -0.252 OA
BRANCH   7   9
ATOM      9  C   UNL     1       4.442   0.323   1.874  1.00  0.00     0.124 C 
ATOM     10  C   UNL     1       4.295  -1.842   0.979  1.00  0.00     0.106 C 
ATOM     11  C   UNL     1       3.550  -1.790   2.272  1.00  0.00    -0.006 C 
ATOM     12  C   UNL     1       5.338  -0.749   1.214  1.00  0.00     0.048 C 
ATOM     13  C   UNL     1       3.566  -0.540   2.740  1.00  0.00    -0.014 C 
BRANCH  10  14
ATOM     14  N   UNL     1       4.676  -3.174   0.622  1.00  0.00    -0.346 N 
ATOM     15  C   UNL     1       3.808  -4.199   0.262  1.00  0.00     0.251 C 
ATOM     16  O   UNL     1       4.249  -5.291  -0.084  1.00  0.00    -0.269 OA
ATOM     17  H   UNL     1       5.638  -3.384   0.631  1.00  0.00     0.164 HD
BRANCH  15  18
ATOM     18  C   UNL     1       2.331  -4.014   0.426  1.00  0.00     0.043 A 
ATOM     19  C   UNL     1       0.405  -2.545   0.460  1.00  0.00     0.119 A 
ATOM     20  C   UNL     1      -0.251  -3.442   1.304  1.00  0.00     0.046 A 
ATOM     21  C   UNL     1       1.653  -2.886  -0.060  1.00  0.00     0.060 A 
ATOM     22  C   UNL     1       0.354  -4.648   1.664  1.00  0.00     0.005 A 
ATOM     23  C   UNL     1       1.656  -4.926   1.245  1.00  0.00     0.014 A 
BRANCH  19  24
ATOM     24  O   UNL     1      -0.248  -1.363   0.235  1.00  0.00    -0.497 OA
ATOM     25  C   UNL     1       0.561  -0.254  -0.152  1.00  0.00     0.278 C 
ENDBRANCH  19  24
ENDBRANCH  15  18
ENDBRANCH  10  14
ENDBRANCH   7   9
ENDBRANCH   6   7
ENDBRANCH   5   6
ENDBRANCH   4   5
ENDBRANCH   3   4
ENDBRANCH   2   3
ENDBRANCH   1   2
BRANCH   1  26
ATOM     26  O   UNL     1       7.605   1.678   0.515  1.00  0.00    -0.377 OA
BRANCH  26  27
ATOM     27  C   UNL     1       8.934   2.126   0.268  1.00  0.00     0.188 C 
BRANCH  27  28
ATOM     28  C   UNL     1       9.192   3.514  -0.359  1.00  0.00     0.188 C 
BRANCH  28  29
ATOM     29  O   UNL     1       8.329   3.844  -1.435  1.00  0.00    -0.376 OA
BRANCH  29  30
ATOM     30  C   UNL     1       8.794   3.643  -2.761  1.00  0.00     0.202 C 
BRANCH  30  31
ATOM     31  C   UNL     1       9.084   2.196  -3.194  1.00  0.00     0.261 C 
BRANCH  31  32
ATOM     32  O   UNL     1      10.085   1.493  -2.439  1.00  0.00    -0.460 OA
BRANCH  32  33
ATOM     33  C   UNL     1      11.325   2.018  -2.393  1.00  0.00     0.338 C 
ATOM     34  O   UNL     1      11.727   3.011  -2.980  1.00  0.00    -0.246 OA
BRANCH  33  35
ATOM     35  C   UNL     1      12.086   1.310  -1.343  1.00  0.00     0.060 A 
ATOM     36  C   UNL     1      12.587   2.045  -0.261  1.00  0.00     0.016 A 
ATOM     37  C   UNL     1      12.316  -0.065  -1.430  1.00  0.00     0.016 A 
ATOM     38  C   UNL     1      13.358   1.414   0.715  1.00  0.00     0.010 A 
ATOM     39  C   UNL     1      13.108  -0.692  -0.461  1.00  0.00     0.010 A 
ATOM     40  C   UNL     1      13.664   0.052   0.595  1.00  0.00    -0.014 A 
BRANCH  40  41
ATOM     41  C   UNL     1      14.716  -0.536   1.461  1.00  0.00     0.031 A 
ATOM     42  C   UNL     1      16.107  -0.680   0.906  1.00  0.00     0.074 A 
ATOM     43  C   UNL     1      14.457  -0.895   2.731  1.00  0.00     0.049 A 
ATOM     44  N   UNL     1      17.182  -1.174   1.465  1.00  0.00    -0.248 NA
ATOM     45  C   UNL     1      16.312  -0.198  -0.470  1.00  0.00     0.031 C 
ATOM     46  C   UNL     1      13.165  -0.766   3.399  1.00  0.00     0.029 A 
ATOM     47  N   UNL     1      15.278  -1.446   3.685  1.00  0.00    -0.354 N 
ATOM     48  C   UNL     1      18.186  -1.067   0.511  1.00  0.00     0.074 A 
ATOM     49  C   UNL     1      17.587  -0.494  -0.674  1.00  0.00     0.031 C 
ATOM     50  C   UNL     1      13.276  -1.234   4.655  1.00  0.00     0.029 A 
ATOM     51  C   UNL     1      14.637  -1.725   4.867  1.00  0.00     0.049 A 
ATOM     52  H   UNL     1      16.234  -1.624   3.535  1.00  0.00     0.167 HD
ATOM     53  C   UNL     1      19.493  -1.406   0.616  1.00  0.00     0.037 A 
ATOM     54  C   UNL     1      15.095  -2.329   5.982  1.00  0.00     0.037 A 
ATOM     55  C   UNL     1      20.088  -1.980   1.795  1.00  0.00     0.049 A 
ATOM     56  C   UNL     1      16.536  -2.772   6.045  1.00  0.00     0.074 A 
ATOM     57  C   UNL     1      21.407  -2.342   2.007  1.00  0.00     0.029 A 
ATOM     58  N   UNL     1      19.398  -2.287   2.959  1.00  0.00    -0.354 N 
ATOM     59  N   UNL     1      17.486  -2.640   5.151  1.00  0.00    -0.248 NA
ATOM     60  C   UNL     1      16.968  -3.445   7.279  1.00  0.00     0.031 C 
ATOM     61  C   UNL     1      21.501  -2.929   3.273  1.00  0.00     0.029 A 
ATOM     62  C   UNL     1      20.257  -2.865   3.880  1.00  0.00     0.049 A 
ATOM     63  H   UNL     1      18.439  -2.119   3.108  1.00  0.00     0.167 HD
ATOM     64  C   UNL     1      18.631  -3.181   5.725  1.00  0.00     0.074 A 
ATOM     65  C   UNL     1      18.261  -3.625   7.052  1.00  0.00     0.031 C 
ATOM     66  C   UNL     1      19.877  -3.300   5.201  1.00  0.00     0.037 A 
BRANCH  53  67
ATOM     67  C   UNL     1      20.366  -1.196  -0.588  1.00  0.00     0.064 A 
ATOM     68  C   UNL     1      20.713   0.087  -1.038  1.00  0.00     0.173 A 
ATOM     69  C   UNL     1      20.891  -2.297  -1.283  1.00  0.00     0.173 A 
ATOM     70  F   UNL     1      20.227   1.174  -0.420  1.00  0.00    -0.203 F 
ATOM     71  C   UNL     1      21.531   0.260  -2.152  1.00  0.00     0.198 A 
ATOM     72  C   UNL     1      21.735  -2.121  -2.376  1.00  0.00     0.198 A 
ATOM     73  F   UNL     1      20.593  -3.546  -0.895  1.00  0.00    -0.203 F 
ATOM     74  F   UNL     1      21.807   1.494  -2.594  1.00  0.00    -0.200 F 
ATOM     75  C   UNL     1      22.048  -0.844  -2.814  1.00  0.00     0.200 A 
ATOM     76  F   UNL     1      22.245  -3.189  -3.004  1.00  0.00    -0.200 F 
ATOM     77  F   UNL     1      22.843  -0.676  -3.881  1.00  0.00    -0.200 F 
ENDBRANCH  53  67
BRANCH  54  78
ATOM     78  C   UNL     1      14.180  -2.570   7.130  1.00  0.00     0.064 A 
ATOM     79  C   UNL     1      14.375  -1.930   8.363  1.00  0.00     0.173 A 
ATOM     80  C   UNL     1      13.111  -3.474   7.030  1.00  0.00     0.173 A 
ATOM     81  F   UNL     1      15.399  -1.078   8.519  1.00  0.00    -0.203 F 
ATOM     82  C   UNL     1      13.555  -2.204   9.456  1.00  0.00     0.198 A 
ATOM     83  C   UNL     1      12.270  -3.721   8.114  1.00  0.00     0.198 A 
ATOM     84  F   UNL     1      12.881  -4.117   5.876  1.00  0.00    -0.203 F 
ATOM     85  F   UNL     1      13.801  -1.622  10.637  1.00  0.00    -0.200 F 
ATOM     86  C   UNL     1      12.499  -3.094   9.329  1.00  0.00     0.200 A 
ATOM     87  F   UNL     1      11.244  -4.572   7.982  1.00  0.00    -0.200 F 
ATOM     88  F   UNL     1      11.709  -3.355  10.379  1.00  0.00    -0.200 F 
ENDBRANCH  54  78
BRANCH  66  89
ATOM     89  C   UNL     1      20.944  -3.897   6.079  1.00  0.00     0.064 A 
ATOM     90  C   UNL     1      20.932  -5.251   6.445  1.00  0.00     0.173 A 
ATOM     91  C   UNL     1      22.009  -3.106   6.537  1.00  0.00     0.173 A 
ATOM     92  F   UNL     1      19.931  -6.050   6.044  1.00  0.00    -0.203 F 
ATOM     93  C   UNL     1      21.923  -5.780   7.268  1.00  0.00     0.198 A 
ATOM     94  C   UNL     1      23.020  -3.647   7.327  1.00  0.00     0.198 A 
ATOM     95  F   UNL     1      22.079  -1.807   6.209  1.00  0.00    -0.203 F 
ATOM     96  F   UNL     1      21.855  -7.061   7.656  1.00  0.00    -0.200 F 
ATOM     97  C   UNL     1      22.969  -4.981   7.702  1.00  0.00     0.200 A 
ATOM     98  F   UNL     1      24.040  -2.877   7.729  1.00  0.00    -0.200 F 
ATOM     99  F   UNL     1      23.925  -5.493   8.490  1.00  0.00    -0.200 F 
ENDBRANCH  66  89
ENDBRANCH  40  41
ENDBRANCH  33  35
ENDBRANCH  32  33
ENDBRANCH  31  32
ENDBRANCH  30  31
ENDBRANCH  29  30
ENDBRANCH  28  29
ENDBRANCH  27  28
ENDBRANCH  26  27
ENDBRANCH   1  26
TORSDOF 23
