REMARK SMILES O=C1OC(c2ccc(Cl)cc2)=N/C1=C/Nc1ccc(O)c(C(=O)OCCOCCOCCOCCOC(=O)c2ccc(-c3c4nc(c(-c5c(F)c(F)c(F)c(F)c5F)c5ccc([nH]5)c(-c5c(F)c(F)c(F)c(F)c5F)c5nc(c(-c6c(F)c(F)c(F)c(F)c6F)c6ccc3[nH]6)C=C5)C=C4)cc2)c1
REMARK SMILES IDX 29 1 28 2 27 3 26 4 25 5 24 6 22 7 23 8 21 9 16 10 17 11
REMARK SMILES IDX 102 12 18 13 19 14 15 15 14 17 1 18 2 19 3 20 13 21 4 22
REMARK SMILES IDX 12 23 5 24 6 25 11 26 7 27 10 28 8 29 9 30 20 31 30 33 31 34
REMARK SMILES IDX 32 35 33 36 34 37 35 38 36 39 37 40 38 41 39 42 40 43 101 44
REMARK SMILES IDX 41 45 100 46 42 47 43 48 44 49 94 50 45 51 99 52 93 53 95 54
REMARK SMILES IDX 46 55 98 56 92 57 91 58 47 60 79 61 59 62 78 63 60 64 63 65
REMARK SMILES IDX 77 66 96 67 61 68 62 69 76 71 97 72 64 73 48 74 49 75 57 76
REMARK SMILES IDX 50 77 51 78 55 79 58 80 52 81 53 82 56 83 54 84 80 85 81 86
REMARK SMILES IDX 89 87 82 88 83 89 87 90 90 91 84 92 85 93 88 94 86 95 65 96
REMARK SMILES IDX 66 97 74 98 67 99 68 100 72 101 75 102 69 103 70 104 73 105
REMARK SMILES IDX 71 106
REMARK H PARENT 15 16 20 32 95 59 63 70
REMARK Flexibility Score: inf
ROOT
ATOM      1  C   UNL     1      -4.375  -6.973  -0.230  1.00  0.00     0.188 C 
ENDROOT
BRANCH   1   2
ATOM      2  C   UNL     1      -4.629  -6.589  -1.712  1.00  0.00     0.188 C 
BRANCH   2   3
ATOM      3  O   UNL     1      -5.139  -7.631  -2.523  1.00  0.00    -0.376 OA
BRANCH   3   4
ATOM      4  C   UNL     1      -4.332  -8.183  -3.542  1.00  0.00     0.202 C 
BRANCH   4   5
ATOM      5  C   UNL     1      -3.027  -8.871  -3.128  1.00  0.00     0.261 C 
BRANCH   5   6
ATOM      6  O   UNL     1      -2.291  -8.201  -2.102  1.00  0.00    -0.460 OA
BRANCH   6   7
ATOM      7  C   UNL     1      -1.499  -7.176  -2.486  1.00  0.00     0.342 C 
ATOM      8  O   UNL     1      -1.385  -6.739  -3.619  1.00  0.00    -0.246 OA
BRANCH   7   9
ATOM      9  C   UNL     1      -0.974  -6.497  -1.278  1.00  0.00     0.103 A 
ATOM     10  C   UNL     1      -0.653  -4.385  -0.111  1.00  0.00     0.039 A 
ATOM     11  C   UNL     1      -0.068  -5.087   0.950  1.00  0.00     0.030 A 
ATOM     12  C   UNL     1      -1.097  -5.098  -1.227  1.00  0.00     0.045 A 
ATOM     13  C   UNL     1       0.019  -6.481   0.928  1.00  0.00     0.049 A 
ATOM     14  C   UNL     1      -0.439  -7.185  -0.184  1.00  0.00     0.130 A 
BRANCH  10  15
ATOM     15  N   UNL     1      -0.721  -2.987  -0.102  1.00  0.00    -0.360 N 
ATOM     16  H   UNL     1      -1.609  -2.567  -0.165  1.00  0.00     0.166 HD
BRANCH  15  17
ATOM     17  C   UNL     1       0.376  -2.166  -0.009  1.00  0.00     0.119 C 
ATOM     18  O   UNL     1      -1.899  -0.170  -0.012  1.00  0.00    -0.244 OA
ATOM     19  C   UNL     1      -0.716   0.088   0.016  1.00  0.00     0.365 C 
ATOM     20  O   UNL     1      -0.128   1.320   0.071  1.00  0.00    -0.402 OA
ATOM     21  C   UNL     1       0.454  -0.832   0.001  1.00  0.00     0.168 C 
ATOM     22  C   UNL     1       1.205   1.098   0.038  1.00  0.00     0.231 C 
ATOM     23  N   UNL     1       1.625  -0.123  -0.004  1.00  0.00    -0.204 NA
BRANCH  22  24
ATOM     24  C   UNL     1       2.034   2.296  -0.004  1.00  0.00     0.037 A 
ATOM     25  C   UNL     1       1.933   3.262   1.000  1.00  0.00     0.015 A 
ATOM     26  C   UNL     1       2.964   2.433  -1.040  1.00  0.00     0.015 A 
ATOM     27  C   UNL     1       2.778   4.374   0.967  1.00  0.00     0.021 A 
ATOM     28  C   UNL     1       3.792   3.556  -1.079  1.00  0.00     0.021 A 
ATOM     29  C   UNL     1       3.700   4.518  -0.073  1.00  0.00     0.041 A 
ATOM     30  Cl  UNL     1       4.738   5.889  -0.109  1.00  0.00    -0.084 Cl
ENDBRANCH  22  24
ENDBRANCH  15  17
ENDBRANCH  10  15
BRANCH  14  31
ATOM     31  O   UNL     1      -0.349  -8.547  -0.188  1.00  0.00    -0.507 OA
ATOM     32  H   UNL     1       0.012  -8.995   0.552  1.00  0.00     0.293 HD
ENDBRANCH  14  31
ENDBRANCH   7   9
ENDBRANCH   6   7
ENDBRANCH   5   6
ENDBRANCH   4   5
ENDBRANCH   3   4
ENDBRANCH   2   3
ENDBRANCH   1   2
BRANCH   1  33
ATOM     33  O   UNL     1      -4.731  -8.238   0.324  1.00  0.00    -0.377 OA
BRANCH  33  34
ATOM     34  C   UNL     1      -5.651  -9.077  -0.358  1.00  0.00     0.188 C 
BRANCH  34  35
ATOM     35  C   UNL     1      -7.021  -8.477  -0.740  1.00  0.00     0.188 C 
BRANCH  35  36
ATOM     36  O   UNL     1      -7.108  -7.082  -0.503  1.00  0.00    -0.376 OA
BRANCH  36  37
ATOM     37  C   UNL     1      -7.797  -6.637   0.650  1.00  0.00     0.202 C 
BRANCH  37  38
ATOM     38  C   UNL     1      -7.420  -7.192   2.034  1.00  0.00     0.261 C 
BRANCH  38  39
ATOM     39  O   UNL     1      -7.242  -8.611   2.149  1.00  0.00    -0.460 OA
BRANCH  39  40
ATOM     40  C   UNL     1      -8.336  -9.394   2.048  1.00  0.00     0.338 C 
ATOM     41  O   UNL     1      -9.485  -9.042   1.862  1.00  0.00    -0.246 OA
BRANCH  40  42
ATOM     42  C   UNL     1      -7.864 -10.795   2.023  1.00  0.00     0.060 A 
ATOM     43  C   UNL     1      -8.092 -11.578   0.882  1.00  0.00     0.016 A 
ATOM     44  C   UNL     1      -7.186 -11.326   3.122  1.00  0.00     0.016 A 
ATOM     45  C   UNL     1      -7.670 -12.907   0.852  1.00  0.00     0.010 A 
ATOM     46  C   UNL     1      -6.788 -12.664   3.101  1.00  0.00     0.010 A 
ATOM     47  C   UNL     1      -7.060 -13.470   1.980  1.00  0.00    -0.014 A 
BRANCH  47  48
ATOM     48  C   UNL     1      -6.910 -14.941   2.083  1.00  0.00     0.031 A 
ATOM     49  C   UNL     1      -7.954 -15.703   2.850  1.00  0.00     0.074 A 
ATOM     50  C   UNL     1      -5.882 -15.588   1.508  1.00  0.00     0.049 A 
ATOM     51  N   UNL     1      -8.004 -16.973   3.160  1.00  0.00    -0.248 NA
ATOM     52  C   UNL     1      -9.100 -14.918   3.340  1.00  0.00     0.031 C 
ATOM     53  C   UNL     1      -4.838 -14.969   0.698  1.00  0.00     0.029 A 
ATOM     54  N   UNL     1      -5.545 -16.919   1.536  1.00  0.00    -0.354 N 
ATOM     55  C   UNL     1      -9.174 -17.135   3.889  1.00  0.00     0.074 A 
ATOM     56  C   UNL     1      -9.790 -15.831   4.005  1.00  0.00     0.031 C 
ATOM     57  C   UNL     1      -3.963 -15.917   0.318  1.00  0.00     0.029 A 
ATOM     58  C   UNL     1      -4.366 -17.201   0.892  1.00  0.00     0.049 A 
ATOM     59  H   UNL     1      -6.097 -17.606   1.975  1.00  0.00     0.167 HD
ATOM     60  C   UNL     1      -9.692 -18.271   4.411  1.00  0.00     0.037 A 
ATOM     61  C   UNL     1      -3.679 -18.357   0.807  1.00  0.00     0.037 A 
ATOM     62  C   UNL     1      -9.072 -19.564   4.296  1.00  0.00     0.049 A 
ATOM     63  C   UNL     1      -4.233 -19.595   1.472  1.00  0.00     0.074 A 
ATOM     64  C   UNL     1      -9.520 -20.781   4.779  1.00  0.00     0.029 A 
ATOM     65  N   UNL     1      -7.862 -19.805   3.662  1.00  0.00    -0.354 N 
ATOM     66  N   UNL     1      -5.348 -19.749   2.145  1.00  0.00    -0.248 NA
ATOM     67  C   UNL     1      -3.430 -20.822   1.361  1.00  0.00     0.031 C 
ATOM     68  C   UNL     1      -8.550 -21.747   4.493  1.00  0.00     0.029 A 
ATOM     69  C   UNL     1      -7.533 -21.147   3.766  1.00  0.00     0.049 A 
ATOM     70  H   UNL     1      -7.318 -19.124   3.205  1.00  0.00     0.167 HD
ATOM     71  C   UNL     1      -5.399 -21.091   2.502  1.00  0.00     0.074 A 
ATOM     72  C   UNL     1      -4.208 -21.711   1.963  1.00  0.00     0.031 C 
ATOM     73  C   UNL     1      -6.350 -21.753   3.209  1.00  0.00     0.037 A 
BRANCH  60  74
ATOM     74  C   UNL     1     -10.973 -18.158   5.186  1.00  0.00     0.064 A 
ATOM     75  C   UNL     1     -12.193 -17.855   4.562  1.00  0.00     0.173 A 
ATOM     76  C   UNL     1     -10.984 -18.382   6.571  1.00  0.00     0.173 A 
ATOM     77  F   UNL     1     -12.237 -17.615   3.243  1.00  0.00    -0.203 F 
ATOM     78  C   UNL     1     -13.369 -17.751   5.301  1.00  0.00     0.198 A 
ATOM     79  C   UNL     1     -12.167 -18.313   7.301  1.00  0.00     0.198 A 
ATOM     80  F   UNL     1      -9.846 -18.677   7.218  1.00  0.00    -0.203 F 
ATOM     81  F   UNL     1     -14.513 -17.406   4.693  1.00  0.00    -0.200 F 
ATOM     82  C   UNL     1     -13.357 -17.988   6.667  1.00  0.00     0.200 A 
ATOM     83  F   UNL     1     -12.155 -18.557   8.618  1.00  0.00    -0.200 F 
ATOM     84  F   UNL     1     -14.491 -17.897   7.375  1.00  0.00    -0.200 F 
ENDBRANCH  60  74
BRANCH  61  85
ATOM     85  C   UNL     1      -2.381 -18.404   0.082  1.00  0.00     0.064 A 
ATOM     86  C   UNL     1      -2.234 -19.155  -1.093  1.00  0.00     0.173 A 
ATOM     87  C   UNL     1      -1.251 -17.728   0.567  1.00  0.00     0.173 A 
ATOM     88  F   UNL     1      -3.276 -19.843  -1.583  1.00  0.00    -0.203 F 
ATOM     89  C   UNL     1      -1.003 -19.246  -1.742  1.00  0.00     0.198 A 
ATOM     90  C   UNL     1      -0.030 -17.792  -0.101  1.00  0.00     0.198 A 
ATOM     91  F   UNL     1      -1.334 -16.999   1.690  1.00  0.00    -0.203 F 
ATOM     92  F   UNL     1      -0.878 -20.017  -2.831  1.00  0.00    -0.200 F 
ATOM     93  C   UNL     1       0.096 -18.559  -1.249  1.00  0.00     0.200 A 
ATOM     94  F   UNL     1       1.027 -17.117   0.373  1.00  0.00    -0.200 F 
ATOM     95  F   UNL     1       1.279 -18.647  -1.873  1.00  0.00    -0.200 F 
ENDBRANCH  61  85
BRANCH  73  96
ATOM     96  C   UNL     1      -6.176 -23.235   3.394  1.00  0.00     0.064 A 
ATOM     97  C   UNL     1      -5.179 -23.770   4.222  1.00  0.00     0.173 A 
ATOM     98  C   UNL     1      -7.060 -24.131   2.770  1.00  0.00     0.173 A 
ATOM     99  F   UNL     1      -4.302 -22.960   4.833  1.00  0.00    -0.203 F 
ATOM    100  C   UNL     1      -5.054 -25.147   4.395  1.00  0.00     0.198 A 
ATOM    101  C   UNL     1      -6.955 -25.504   2.974  1.00  0.00     0.198 A 
ATOM    102  F   UNL     1      -8.039 -23.673   1.975  1.00  0.00    -0.203 F 
ATOM    103  F   UNL     1      -4.061 -25.638   5.149  1.00  0.00    -0.200 F 
ATOM    104  C   UNL     1      -5.947 -26.011   3.779  1.00  0.00     0.200 A 
ATOM    105  F   UNL     1      -7.832 -26.335   2.394  1.00  0.00    -0.200 F 
ATOM    106  F   UNL     1      -5.833 -27.335   3.956  1.00  0.00    -0.200 F 
ENDBRANCH  73  96
ENDBRANCH  47  48
ENDBRANCH  40  42
ENDBRANCH  39  40
ENDBRANCH  38  39
ENDBRANCH  37  38
ENDBRANCH  36  37
ENDBRANCH  35  36
ENDBRANCH  34  35
ENDBRANCH  33  34
ENDBRANCH   1  33
TORSDOF 24
