REMARK SMILES C[C@H]1SCCC[C@]1(Nc1ccc(Cl)cc1)C(=O)OCCOCCOCCOCCOC(=O)c1ccc(-c2c3nc(c(-c4c(F)c(F)c(F)c(F)c4F)c4ccc([nH]4)c(-c4c(F)c(F)c(F)c(F)c4F)c4nc(c(-c5c(F)c(F)c(F)c(F)c5F)c5ccc2[nH]5)C=C4)C=C3)cc1
REMARK SMILES IDX 24 1 23 2 22 3 21 4 20 5 19 6 18 7 16 8 17 9 7 10 1 11 2 12
REMARK SMILES IDX 3 13 4 14 6 15 5 16 8 17 9 19 10 20 15 21 11 22 14 23 12 24
REMARK SMILES IDX 13 25 25 26 26 27 27 28 28 29 29 30 30 31 31 32 32 33 33 34
REMARK SMILES IDX 34 35 95 36 35 37 94 38 36 39 37 40 38 41 88 42 39 43 93 44
REMARK SMILES IDX 87 45 89 46 40 47 92 48 86 49 85 50 41 52 73 53 53 54 72 55
REMARK SMILES IDX 54 56 57 57 71 58 90 59 55 60 56 61 70 63 91 64 58 65 42 66
REMARK SMILES IDX 43 67 51 68 44 69 45 70 49 71 52 72 46 73 47 74 50 75 48 76
REMARK SMILES IDX 74 77 75 78 83 79 76 80 77 81 81 82 84 83 78 84 79 85 82 86
REMARK SMILES IDX 80 87 59 88 60 89 68 90 61 91 62 92 66 93 69 94 63 95 64 96
REMARK SMILES IDX 67 97 65 98
REMARK H PARENT 8 18 89 51 57 62
REMARK Flexibility Score: inf
ROOT
ATOM      1  O   UNL     1       1.843   0.449   2.783  1.00  0.00    -0.377 OA
ENDROOT
BRANCH   1   2
ATOM      2  C   UNL     1       2.028   0.729   1.411  1.00  0.00     0.188 C 
BRANCH   2   3
ATOM      3  C   UNL     1       1.707   2.164   0.959  1.00  0.00     0.188 C 
BRANCH   3   4
ATOM      4  O   UNL     1       0.984   3.075   1.778  1.00  0.00    -0.376 OA
BRANCH   4   5
ATOM      5  C   UNL     1       0.345   2.667   2.974  1.00  0.00     0.202 C 
BRANCH   5   6
ATOM      6  C   UNL     1      -0.858   1.709   2.907  1.00  0.00     0.261 C 
BRANCH   6   7
ATOM      7  O   UNL     1      -0.780   0.588   2.009  1.00  0.00    -0.461 OA
BRANCH   7   8
ATOM      8  C   UNL     1      -1.119   0.870   0.725  1.00  0.00     0.333 C 
ATOM      9  O   UNL     1      -1.343   2.018   0.341  1.00  0.00    -0.249 OA
BRANCH   8  10
ATOM     10  C   UNL     1      -1.308  -0.394  -0.205  1.00  0.00     0.147 C 
ATOM     11  C   UNL     1      -0.212  -2.284   1.336  1.00  0.00     0.022 C 
ATOM     12  C   UNL     1      -0.293  -1.582  -0.025  1.00  0.00     0.080 C 
ATOM     13  S   UNL     1      -0.539  -2.903  -1.304  1.00  0.00    -0.156 SA
ATOM     14  C   UNL     1      -0.169  -1.892  -2.758  1.00  0.00     0.070 C 
ATOM     15  C   UNL     1      -1.064   0.219  -1.627  1.00  0.00     0.042 C 
ATOM     16  C   UNL     1      -1.116  -0.710  -2.834  1.00  0.00     0.014 C 
BRANCH  10  17
ATOM     17  N   UNL     1      -2.714  -0.922  -0.136  1.00  0.00    -0.369 N 
ATOM     18  H   UNL     1      -3.042  -1.568  -0.803  1.00  0.00     0.161 HD
BRANCH  17  19
ATOM     19  C   UNL     1      -3.543  -0.475   0.893  1.00  0.00     0.035 A 
ATOM     20  C   UNL     1      -4.038   0.836   0.882  1.00  0.00     0.027 A 
ATOM     21  C   UNL     1      -3.706  -1.239   2.053  1.00  0.00     0.027 A 
ATOM     22  C   UNL     1      -4.604   1.405   2.025  1.00  0.00     0.022 A 
ATOM     23  C   UNL     1      -4.285  -0.681   3.198  1.00  0.00     0.022 A 
ATOM     24  C   UNL     1      -4.708   0.646   3.186  1.00  0.00     0.041 A 
ATOM     25  Cl  UNL     1      -5.314   1.367   4.625  1.00  0.00    -0.084 Cl
ENDBRANCH  17  19
ENDBRANCH  10  17
ENDBRANCH   8  10
ENDBRANCH   7   8
ENDBRANCH   6   7
ENDBRANCH   5   6
ENDBRANCH   4   5
ENDBRANCH   3   4
ENDBRANCH   2   3
ENDBRANCH   1   2
BRANCH   1  26
ATOM     26  C   UNL     1       2.986   0.556   3.612  1.00  0.00     0.188 C 
BRANCH  26  27
ATOM     27  C   UNL     1       3.945   1.723   3.326  1.00  0.00     0.188 C 
BRANCH  27  28
ATOM     28  O   UNL     1       4.364   1.788   1.970  1.00  0.00    -0.376 OA
BRANCH  28  29
ATOM     29  C   UNL     1       5.608   1.226   1.588  1.00  0.00     0.202 C 
BRANCH  29  30
ATOM     30  C   UNL     1       5.752  -0.305   1.638  1.00  0.00     0.261 C 
BRANCH  30  31
ATOM     31  O   UNL     1       5.492  -0.938   2.900  1.00  0.00    -0.460 OA
BRANCH  31  32
ATOM     32  C   UNL     1       6.222  -0.533   3.962  1.00  0.00     0.338 C 
ATOM     33  O   UNL     1       7.142   0.257   3.961  1.00  0.00    -0.246 OA
BRANCH  32  34
ATOM     34  C   UNL     1       5.569  -1.050   5.188  1.00  0.00     0.060 A 
ATOM     35  C   UNL     1       5.197  -0.132   6.179  1.00  0.00     0.016 A 
ATOM     36  C   UNL     1       5.327  -2.415   5.364  1.00  0.00     0.016 A 
ATOM     37  C   UNL     1       4.637  -0.579   7.373  1.00  0.00     0.010 A 
ATOM     38  C   UNL     1       4.793  -2.867   6.575  1.00  0.00     0.010 A 
ATOM     39  C   UNL     1       4.493  -1.952   7.601  1.00  0.00    -0.014 A 
BRANCH  39  40
ATOM     40  C   UNL     1       4.282  -2.420   8.993  1.00  0.00     0.031 A 
ATOM     41  C   UNL     1       5.493  -2.822   9.791  1.00  0.00     0.074 A 
ATOM     42  C   UNL     1       3.065  -2.416   9.563  1.00  0.00     0.049 A 
ATOM     43  N   UNL     1       5.578  -3.247  11.026  1.00  0.00    -0.248 NA
ATOM     44  C   UNL     1       6.790  -2.728   9.099  1.00  0.00     0.031 C 
ATOM     45  C   UNL     1       1.828  -1.996   8.911  1.00  0.00     0.029 A 
ATOM     46  N   UNL     1       2.677  -2.776  10.829  1.00  0.00    -0.354 N 
ATOM     47  C   UNL     1       6.930  -3.472  11.254  1.00  0.00     0.074 A 
ATOM     48  C   UNL     1       7.626  -3.174  10.023  1.00  0.00     0.031 C 
ATOM     49  C   UNL     1       0.812  -2.129   9.783  1.00  0.00     0.029 A 
ATOM     50  C   UNL     1       1.325  -2.671  11.040  1.00  0.00     0.049 A 
ATOM     51  H   UNL     1       3.308  -3.081  11.520  1.00  0.00     0.167 HD
ATOM     52  C   UNL     1       7.538  -3.878  12.393  1.00  0.00     0.037 A 
ATOM     53  C   UNL     1       0.589  -2.995  12.122  1.00  0.00     0.037 A 
ATOM     54  C   UNL     1       6.842  -4.177  13.616  1.00  0.00     0.049 A 
ATOM     55  C   UNL     1       1.283  -3.528  13.352  1.00  0.00     0.074 A 
ATOM     56  C   UNL     1       7.366  -4.587  14.829  1.00  0.00     0.029 A 
ATOM     57  N   UNL     1       5.466  -4.108  13.776  1.00  0.00    -0.354 N 
ATOM     58  N   UNL     1       2.562  -3.715  13.570  1.00  0.00    -0.248 NA
ATOM     59  C   UNL     1       0.425  -3.887  14.491  1.00  0.00     0.031 C 
ATOM     60  C   UNL     1       6.302  -4.827  15.704  1.00  0.00     0.029 A 
ATOM     61  C   UNL     1       5.119  -4.499  15.059  1.00  0.00     0.049 A 
ATOM     62  H   UNL     1       4.829  -3.823  13.081  1.00  0.00     0.167 HD
ATOM     63  C   UNL     1       2.666  -4.182  14.876  1.00  0.00     0.074 A 
ATOM     64  C   UNL     1       1.320  -4.231  15.406  1.00  0.00     0.031 C 
ATOM     65  C   UNL     1       3.773  -4.539  15.573  1.00  0.00     0.037 A 
BRANCH  52  66
ATOM     66  C   UNL     1       9.029  -4.058  12.355  1.00  0.00     0.064 A 
ATOM     67  C   UNL     1       9.906  -2.968  12.248  1.00  0.00     0.173 A 
ATOM     68  C   UNL     1       9.588  -5.341  12.449  1.00  0.00     0.173 A 
ATOM     69  F   UNL     1       9.424  -1.721  12.135  1.00  0.00    -0.203 F 
ATOM     70  C   UNL     1      11.285  -3.159  12.207  1.00  0.00     0.198 A 
ATOM     71  C   UNL     1      10.968  -5.526  12.443  1.00  0.00     0.198 A 
ATOM     72  F   UNL     1       8.796  -6.419  12.553  1.00  0.00    -0.203 F 
ATOM     73  F   UNL     1      12.101  -2.107  12.049  1.00  0.00    -0.200 F 
ATOM     74  C   UNL     1      11.815  -4.436  12.313  1.00  0.00     0.200 A 
ATOM     75  F   UNL     1      11.478  -6.760  12.558  1.00  0.00    -0.200 F 
ATOM     76  F   UNL     1      13.142  -4.617  12.282  1.00  0.00    -0.200 F 
ENDBRANCH  52  66
BRANCH  53  77
ATOM     77  C   UNL     1      -0.891  -2.844  12.092  1.00  0.00     0.064 A 
ATOM     78  C   UNL     1      -1.544  -1.919  12.918  1.00  0.00     0.173 A 
ATOM     79  C   UNL     1      -1.685  -3.647  11.260  1.00  0.00     0.173 A 
ATOM     80  F   UNL     1      -0.833  -1.146  13.753  1.00  0.00    -0.203 F 
ATOM     81  C   UNL     1      -2.935  -1.820  12.931  1.00  0.00     0.198 A 
ATOM     82  C   UNL     1      -3.073  -3.524  11.249  1.00  0.00     0.198 A 
ATOM     83  F   UNL     1      -1.112  -4.552  10.453  1.00  0.00    -0.203 F 
ATOM     84  F   UNL     1      -3.536  -0.968  13.773  1.00  0.00    -0.200 F 
ATOM     85  C   UNL     1      -3.697  -2.619  12.092  1.00  0.00     0.200 A 
ATOM     86  F   UNL     1      -3.804  -4.290  10.428  1.00  0.00    -0.200 F 
ATOM     87  F   UNL     1      -5.034  -2.523  12.105  1.00  0.00    -0.200 F 
ENDBRANCH  53  77
BRANCH  65  88
ATOM     88  C   UNL     1       3.582  -4.975  17.000  1.00  0.00     0.064 A 
ATOM     89  C   UNL     1       2.949  -6.184  17.327  1.00  0.00     0.173 A 
ATOM     90  C   UNL     1       4.066  -4.185  18.055  1.00  0.00     0.173 A 
ATOM     91  F   UNL     1       2.458  -6.973  16.358  1.00  0.00    -0.203 F 
ATOM     92  C   UNL     1       2.773  -6.566  18.655  1.00  0.00     0.198 A 
ATOM     93  C   UNL     1       3.923  -4.588  19.379  1.00  0.00     0.198 A 
ATOM     94  F   UNL     1       4.690  -3.025  17.800  1.00  0.00    -0.203 F 
ATOM     95  F   UNL     1       2.110  -7.694  18.943  1.00  0.00    -0.200 F 
ATOM     96  C   UNL     1       3.267  -5.772  19.679  1.00  0.00     0.200 A 
ATOM     97  F   UNL     1       4.418  -3.829  20.366  1.00  0.00    -0.200 F 
ATOM     98  F   UNL     1       3.102  -6.143  20.956  1.00  0.00    -0.200 F 
ENDBRANCH  65  88
ENDBRANCH  39  40
ENDBRANCH  32  34
ENDBRANCH  31  32
ENDBRANCH  30  31
ENDBRANCH  29  30
ENDBRANCH  28  29
ENDBRANCH  27  28
ENDBRANCH  26  27
ENDBRANCH   1  26
TORSDOF 22
