REMARK SMILES CC(C)c1cc2c(cc1Cl)C=C(C(=O)OCCOCCOCCOCCOC(=O)c1ccc(-c3c4nc(c(-c5c(F)c(F)c(F)c(F)c5F)c5ccc([nH]5)c(-c5c(F)c(F)c(F)c(F)c5F)c5nc(c(-c6c(F)c(F)c(F)c(F)c6F)c6ccc3[nH]6)C=C5)C=C4)cc1)[C@@H](C(F)(F)F)O2
REMARK SMILES IDX 22 1 21 2 20 3 19 4 18 5 17 6 16 7 15 8 13 9 14 10 12 11
REMARK SMILES IDX 4 12 5 13 9 14 6 15 8 16 10 17 7 18 98 19 11 20 93 21 2 22
REMARK SMILES IDX 1 23 3 24 94 25 95 26 96 27 97 28 23 29 24 30 25 31 26 32
REMARK SMILES IDX 27 33 28 34 29 35 30 36 31 37 92 38 32 39 91 40 33 41 34 42
REMARK SMILES IDX 35 43 85 44 36 45 90 46 84 47 86 48 37 49 89 50 83 51 82 52
REMARK SMILES IDX 38 54 70 55 50 56 69 57 51 58 54 59 68 60 87 61 52 62 53 63
REMARK SMILES IDX 67 65 88 66 55 67 39 68 40 69 48 70 41 71 42 72 46 73 49 74
REMARK SMILES IDX 43 75 44 76 47 77 45 78 71 79 72 80 80 81 73 82 74 83 78 84
REMARK SMILES IDX 81 85 75 86 76 87 79 88 77 89 56 90 57 91 65 92 58 93 59 94
REMARK SMILES IDX 63 95 66 96 60 97 61 98 64 99 62 100
REMARK H PARENT 86 53 54 64
REMARK Flexibility Score: inf
ROOT
ATOM      1  C   UNL     1      -9.201  -3.876   2.489  1.00  0.00     0.188 C 
ENDROOT
BRANCH   1   2
ATOM      2  O   UNL     1      -8.143  -3.660   1.555  1.00  0.00    -0.377 OA
BRANCH   2   3
ATOM      3  C   UNL     1      -7.512  -2.389   1.551  1.00  0.00     0.188 C 
BRANCH   3   4
ATOM      4  C   UNL     1      -8.318  -1.312   0.802  1.00  0.00     0.188 C 
BRANCH   4   5
ATOM      5  O   UNL     1      -9.646  -1.728   0.486  1.00  0.00    -0.376 OA
BRANCH   5   6
ATOM      6  C   UNL     1      -9.901  -2.106  -0.861  1.00  0.00     0.202 C 
BRANCH   6   7
ATOM      7  C   UNL     1      -9.241  -3.405  -1.348  1.00  0.00     0.261 C 
BRANCH   7   8
ATOM      8  O   UNL     1      -7.808  -3.428  -1.252  1.00  0.00    -0.460 OA
BRANCH   8   9
ATOM      9  C   UNL     1      -7.123  -2.569  -2.032  1.00  0.00     0.338 C 
ATOM     10  O   UNL     1      -7.586  -1.817  -2.870  1.00  0.00    -0.246 OA
BRANCH   9  11
ATOM     11  C   UNL     1      -5.715  -2.567  -1.581  1.00  0.00     0.087 C 
ATOM     12  C   UNL     1      -0.967  -1.281  -0.367  1.00  0.00    -0.023 A 
ATOM     13  C   UNL     1      -1.688  -2.492  -0.539  1.00  0.00     0.052 A 
ATOM     14  C   UNL     1      -1.731  -0.097  -0.419  1.00  0.00     0.045 A 
ATOM     15  C   UNL     1      -3.062  -2.527  -0.800  1.00  0.00     0.128 A 
ATOM     16  C   UNL     1      -3.109  -0.137  -0.705  1.00  0.00     0.032 A 
ATOM     17  Cl  UNL     1      -1.116   1.499  -0.176  1.00  0.00    -0.084 Cl
ATOM     18  C   UNL     1      -3.767  -1.343  -0.938  1.00  0.00     0.019 A 
ATOM     19  O   UNL     1      -3.615  -3.764  -0.949  1.00  0.00    -0.475 OA
ATOM     20  C   UNL     1      -5.146  -1.369  -1.391  1.00  0.00     0.027 C 
ATOM     21  C   UNL     1      -5.029  -3.875  -1.281  1.00  0.00     0.316 C 
BRANCH  12  22
ATOM     22  C   UNL     1       0.563  -1.409  -0.278  1.00  0.00     0.014 C 
ATOM     23  C   UNL     1       1.411  -0.156  -0.035  1.00  0.00     0.012 C 
ATOM     24  C   UNL     1       1.020  -2.467   0.746  1.00  0.00     0.012 C 
ENDBRANCH  12  22
BRANCH  21  25
ATOM     25  C   UNL     1      -5.151  -4.886  -2.431  1.00  0.00     0.430 C 
ATOM     26  F   UNL     1      -4.493  -6.036  -2.144  1.00  0.00    -0.167 F 
ATOM     27  F   UNL     1      -6.436  -5.230  -2.680  1.00  0.00    -0.167 F 
ATOM     28  F   UNL     1      -4.634  -4.399  -3.583  1.00  0.00    -0.167 F 
ENDBRANCH  21  25
ENDBRANCH   9  11
ENDBRANCH   8   9
ENDBRANCH   7   8
ENDBRANCH   6   7
ENDBRANCH   5   6
ENDBRANCH   4   5
ENDBRANCH   3   4
ENDBRANCH   2   3
ENDBRANCH   1   2
BRANCH   1  29
ATOM     29  C   UNL     1      -9.951  -2.708   3.171  1.00  0.00     0.188 C 
BRANCH  29  30
ATOM     30  O   UNL     1      -9.099  -1.673   3.654  1.00  0.00    -0.376 OA
BRANCH  30  31
ATOM     31  C   UNL     1      -8.964  -1.560   5.064  1.00  0.00     0.202 C 
BRANCH  31  32
ATOM     32  C   UNL     1      -8.010  -2.592   5.674  1.00  0.00     0.261 C 
BRANCH  32  33
ATOM     33  O   UNL     1      -8.423  -3.960   5.527  1.00  0.00    -0.460 OA
BRANCH  33  34
ATOM     34  C   UNL     1      -9.608  -4.321   6.067  1.00  0.00     0.338 C 
ATOM     35  O   UNL     1     -10.363  -3.629   6.726  1.00  0.00    -0.246 OA
BRANCH  34  36
ATOM     36  C   UNL     1      -9.934  -5.665   5.547  1.00  0.00     0.060 A 
ATOM     37  C   UNL     1      -8.998  -6.699   5.630  1.00  0.00     0.016 A 
ATOM     38  C   UNL     1     -11.172  -5.875   4.928  1.00  0.00     0.016 A 
ATOM     39  C   UNL     1      -9.315  -7.957   5.116  1.00  0.00     0.010 A 
ATOM     40  C   UNL     1     -11.484  -7.133   4.406  1.00  0.00     0.010 A 
ATOM     41  C   UNL     1     -10.565  -8.187   4.517  1.00  0.00    -0.014 A 
BRANCH  41  42
ATOM     42  C   UNL     1     -10.965  -9.570   4.170  1.00  0.00     0.031 A 
ATOM     43  C   UNL     1     -10.905 -10.089   2.768  1.00  0.00     0.074 A 
ATOM     44  C   UNL     1     -11.390 -10.366   5.169  1.00  0.00     0.049 A 
ATOM     45  N   UNL     1     -11.150 -11.300   2.330  1.00  0.00    -0.248 NA
ATOM     46  C   UNL     1     -10.529  -9.132   1.719  1.00  0.00     0.031 C 
ATOM     47  C   UNL     1     -11.510  -9.956   6.568  1.00  0.00     0.029 A 
ATOM     48  N   UNL     1     -11.790 -11.677   5.166  1.00  0.00    -0.354 N 
ATOM     49  C   UNL     1     -10.934 -11.261   0.961  1.00  0.00     0.074 A 
ATOM     50  C   UNL     1     -10.585  -9.892   0.632  1.00  0.00     0.031 C 
ATOM     51  C   UNL     1     -11.932 -11.001   7.295  1.00  0.00     0.029 A 
ATOM     52  C   UNL     1     -12.131 -12.145   6.410  1.00  0.00     0.049 A 
ATOM     53  H   UNL     1     -11.828 -12.229   4.352  1.00  0.00     0.167 HD
ATOM     54  C   UNL     1     -11.002 -12.280   0.070  1.00  0.00     0.037 A 
ATOM     55  C   UNL     1     -12.552 -13.363   6.798  1.00  0.00     0.037 A 
ATOM     56  C   UNL     1     -11.372 -13.635   0.405  1.00  0.00     0.049 A 
ATOM     57  C   UNL     1     -12.673 -14.459   5.779  1.00  0.00     0.074 A 
ATOM     58  C   UNL     1     -11.430 -14.743  -0.424  1.00  0.00     0.029 A 
ATOM     59  N   UNL     1     -11.762 -14.064   1.666  1.00  0.00    -0.354 N 
ATOM     60  N   UNL     1     -12.394 -14.431   4.499  1.00  0.00    -0.248 NA
ATOM     61  C   UNL     1     -13.161 -15.758   6.261  1.00  0.00     0.031 C 
ATOM     62  C   UNL     1     -11.905 -15.827   0.321  1.00  0.00     0.029 A 
ATOM     63  C   UNL     1     -12.095 -15.411   1.628  1.00  0.00     0.049 A 
ATOM     64  H   UNL     1     -11.798 -13.496   2.469  1.00  0.00     0.167 HD
ATOM     65  C   UNL     1     -12.659 -15.707   4.024  1.00  0.00     0.074 A 
ATOM     66  C   UNL     1     -13.098 -16.493   5.159  1.00  0.00     0.031 C 
ATOM     67  C   UNL     1     -12.550 -16.181   2.759  1.00  0.00     0.037 A 
BRANCH  54  68
ATOM     68  C   UNL     1     -10.661 -11.983  -1.361  1.00  0.00     0.064 A 
ATOM     69  C   UNL     1      -9.339 -11.735  -1.758  1.00  0.00     0.173 A 
ATOM     70  C   UNL     1     -11.647 -12.030  -2.359  1.00  0.00     0.173 A 
ATOM     71  F   UNL     1      -8.359 -11.678  -0.843  1.00  0.00    -0.203 F 
ATOM     72  C   UNL     1      -9.018 -11.529  -3.098  1.00  0.00     0.198 A 
ATOM     73  C   UNL     1     -11.319 -11.849  -3.701  1.00  0.00     0.198 A 
ATOM     74  F   UNL     1     -12.926 -12.275  -2.036  1.00  0.00    -0.203 F 
ATOM     75  F   UNL     1      -7.751 -11.266  -3.449  1.00  0.00    -0.200 F 
ATOM     76  C   UNL     1     -10.006 -11.595  -4.068  1.00  0.00     0.200 A 
ATOM     77  F   UNL     1     -12.272 -11.929  -4.639  1.00  0.00    -0.200 F 
ATOM     78  F   UNL     1      -9.693 -11.413  -5.359  1.00  0.00    -0.200 F 
ENDBRANCH  54  68
BRANCH  55  79
ATOM     79  C   UNL     1     -12.847 -13.607   8.231  1.00  0.00     0.064 A 
ATOM     80  C   UNL     1     -11.996 -14.400   9.011  1.00  0.00     0.173 A 
ATOM     81  C   UNL     1     -13.956 -13.020   8.858  1.00  0.00     0.173 A 
ATOM     82  F   UNL     1     -10.933 -14.994   8.450  1.00  0.00    -0.203 F 
ATOM     83  C   UNL     1     -12.246 -14.602  10.366  1.00  0.00     0.198 A 
ATOM     84  C   UNL     1     -14.190 -13.202  10.219  1.00  0.00     0.198 A 
ATOM     85  F   UNL     1     -14.794 -12.246   8.153  1.00  0.00    -0.203 F 
ATOM     86  F   UNL     1     -11.432 -15.386  11.085  1.00  0.00    -0.200 F 
ATOM     87  C   UNL     1     -13.337 -13.996  10.971  1.00  0.00     0.200 A 
ATOM     88  F   UNL     1     -15.236 -12.601  10.802  1.00  0.00    -0.200 F 
ATOM     89  F   UNL     1     -13.568 -14.178  12.278  1.00  0.00    -0.200 F 
ENDBRANCH  55  79
BRANCH  67  90
ATOM     90  C   UNL     1     -12.921 -17.619   2.529  1.00  0.00     0.064 A 
ATOM     91  C   UNL     1     -14.257 -18.045   2.578  1.00  0.00     0.173 A 
ATOM     92  C   UNL     1     -11.940 -18.572   2.216  1.00  0.00     0.173 A 
ATOM     93  F   UNL     1     -15.232 -17.177   2.890  1.00  0.00    -0.203 F 
ATOM     94  C   UNL     1     -14.594 -19.376   2.343  1.00  0.00     0.198 A 
ATOM     95  C   UNL     1     -12.283 -19.895   1.952  1.00  0.00     0.198 A 
ATOM     96  F   UNL     1     -10.648 -18.216   2.152  1.00  0.00    -0.203 F 
ATOM     97  F   UNL     1     -15.871 -19.769   2.439  1.00  0.00    -0.200 F 
ATOM     98  C   UNL     1     -13.608 -20.297   2.022  1.00  0.00     0.200 A 
ATOM     99  F   UNL     1     -11.331 -20.782   1.630  1.00  0.00    -0.200 F 
ATOM    100  F   UNL     1     -13.935 -21.575   1.786  1.00  0.00    -0.200 F 
ENDBRANCH  67  90
ENDBRANCH  41  42
ENDBRANCH  34  36
ENDBRANCH  33  34
ENDBRANCH  32  33
ENDBRANCH  31  32
ENDBRANCH  30  31
ENDBRANCH  29  30
ENDBRANCH   1  29
TORSDOF 22
