REMARK SMILES Cc1cc(=O)c(Oc2ccc(C(=O)OCCOCCOCCOCCOC(=O)c3ccc(-c4c5nc(c(-c6c(F)c(F)c(F)c(F)c6F)c6ccc([nH]6)c(-c6c(F)c(F)c(F)c(F)c6F)c6nc(c(-c7c(F)c(F)c(F)c(F)c7F)c7ccc4[nH]7)C=C6)C=C5)cc3)cc2)c(-c2ccc(S(C)(=O)=O)cc2)o1
REMARK SMILES IDX 19 1 18 2 17 3 16 4 15 5 14 6 12 7 13 8 11 9 8 10 9 11 93 12
REMARK SMILES IDX 10 13 92 14 7 15 6 16 1 17 2 18 3 19 105 20 4 21 94 22 5 23
REMARK SMILES IDX 95 24 96 25 104 26 97 27 103 28 98 29 99 30 100 31 101 32
REMARK SMILES IDX 102 33 20 34 21 35 22 36 23 37 24 38 25 39 26 40 27 41 28 42
REMARK SMILES IDX 29 43 30 44 91 45 31 46 90 47 32 48 33 49 34 50 84 51 35 52
REMARK SMILES IDX 89 53 83 54 85 55 36 56 88 57 82 58 81 59 37 61 69 62 49 63
REMARK SMILES IDX 68 64 50 65 53 66 67 67 86 68 51 69 52 70 66 72 87 73 54 74
REMARK SMILES IDX 38 75 39 76 47 77 40 78 41 79 45 80 48 81 42 82 43 83 46 84
REMARK SMILES IDX 44 85 70 86 71 87 79 88 72 89 73 90 77 91 80 92 74 93 75 94
REMARK SMILES IDX 78 95 76 96 55 97 56 98 64 99 57 100 58 101 62 102 65 103
REMARK SMILES IDX 59 104 60 105 63 106 61 107
REMARK H PARENT 85 60 53 71
REMARK Flexibility Score: inf
ROOT
ATOM      1  C   UNL     1      -1.604   8.228  -3.638  1.00  0.00     0.188 C 
ENDROOT
BRANCH   1   2
ATOM      2  C   UNL     1      -1.254   8.561  -5.062  1.00  0.00     0.188 C 
BRANCH   2   3
ATOM      3  O   UNL     1      -1.091   9.949  -5.319  1.00  0.00    -0.376 OA
BRANCH   3   4
ATOM      4  C   UNL     1      -0.382  10.206  -6.540  1.00  0.00     0.202 C 
BRANCH   4   5
ATOM      5  C   UNL     1      -0.984   9.526  -7.787  1.00  0.00     0.261 C 
BRANCH   5   6
ATOM      6  O   UNL     1      -0.994   8.077  -7.736  1.00  0.00    -0.460 OA
BRANCH   6   7
ATOM      7  C   UNL     1       0.196   7.426  -7.660  1.00  0.00     0.338 C 
ATOM      8  O   UNL     1       1.284   7.917  -7.906  1.00  0.00    -0.246 OA
BRANCH   7   9
ATOM      9  C   UNL     1      -0.000   6.075  -7.027  1.00  0.00     0.060 A 
ATOM     10  C   UNL     1      -0.284   3.643  -5.604  1.00  0.00     0.127 A 
ATOM     11  C   UNL     1       0.983   4.135  -5.897  1.00  0.00     0.048 A 
ATOM     12  C   UNL     1      -1.408   4.341  -6.065  1.00  0.00     0.048 A 
ATOM     13  C   UNL     1       1.124   5.360  -6.580  1.00  0.00     0.019 A 
ATOM     14  C   UNL     1      -1.272   5.544  -6.772  1.00  0.00     0.019 A 
BRANCH  10  15
ATOM     15  O   UNL     1      -0.543   2.413  -5.069  1.00  0.00    -0.449 OA
BRANCH  15  16
ATOM     16  C   UNL     1      -0.025   1.847  -3.918  1.00  0.00     0.217 A 
ATOM     17  C   UNL     1       0.888  -0.231  -0.232  1.00  0.00     0.088 C 
ATOM     18  C   UNL     1       0.567   0.349  -1.572  1.00  0.00     0.105 A 
ATOM     19  C   UNL     1      -0.123  -0.295  -2.514  1.00  0.00     0.098 A 
ATOM     20  O   UNL     1       1.042   1.626  -1.756  1.00  0.00    -0.457 OA
ATOM     21  C   UNL     1      -0.414   0.400  -3.778  1.00  0.00     0.228 A 
ATOM     22  C   UNL     1       0.683   2.361  -2.882  1.00  0.00     0.180 A 
ATOM     23  O   UNL     1      -0.996  -0.210  -4.671  1.00  0.00    -0.285 OA
BRANCH  22  24
ATOM     24  C   UNL     1       1.168   3.735  -2.719  1.00  0.00     0.021 A 
ATOM     25  C   UNL     1       2.551   3.976  -2.609  1.00  0.00     0.013 A 
ATOM     26  C   UNL     1       0.276   4.791  -2.550  1.00  0.00     0.013 A 
ATOM     27  C   UNL     1       3.043   5.272  -2.434  1.00  0.00     0.021 A 
ATOM     28  C   UNL     1       0.770   6.076  -2.346  1.00  0.00     0.021 A 
ATOM     29  C   UNL     1       2.142   6.324  -2.326  1.00  0.00     0.067 A 
BRANCH  29  30
ATOM     30  S   UNL     1       2.716   8.008  -2.323  1.00  0.00     0.175 S 
ATOM     31  C   UNL     1       2.704   8.476  -0.614  1.00  0.00     0.163 C 
ATOM     32  O   UNL     1       4.094   7.993  -2.777  1.00  0.00    -0.224 OA
ATOM     33  O   UNL     1       1.721   8.791  -3.030  1.00  0.00    -0.224 OA
ENDBRANCH  29  30
ENDBRANCH  22  24
ENDBRANCH  15  16
ENDBRANCH  10  15
ENDBRANCH   7   9
ENDBRANCH   6   7
ENDBRANCH   5   6
ENDBRANCH   4   5
ENDBRANCH   3   4
ENDBRANCH   2   3
ENDBRANCH   1   2
BRANCH   1  34
ATOM     34  O   UNL     1      -2.799   8.816  -3.167  1.00  0.00    -0.377 OA
BRANCH  34  35
ATOM     35  C   UNL     1      -2.613  10.156  -2.745  1.00  0.00     0.188 C 
BRANCH  35  36
ATOM     36  C   UNL     1      -1.595  10.445  -1.615  1.00  0.00     0.188 C 
BRANCH  36  37
ATOM     37  O   UNL     1      -0.945   9.413  -0.870  1.00  0.00    -0.376 OA
BRANCH  37  38
ATOM     38  C   UNL     1      -1.645   8.274  -0.390  1.00  0.00     0.202 C 
BRANCH  38  39
ATOM     39  C   UNL     1      -2.390   8.442   0.927  1.00  0.00     0.261 C 
BRANCH  39  40
ATOM     40  O   UNL     1      -3.734   8.832   0.633  1.00  0.00    -0.460 OA
BRANCH  40  41
ATOM     41  C   UNL     1      -3.978  10.155   0.682  1.00  0.00     0.338 C 
ATOM     42  O   UNL     1      -3.304  11.008   1.241  1.00  0.00    -0.246 OA
BRANCH  41  43
ATOM     43  C   UNL     1      -5.078  10.453  -0.259  1.00  0.00     0.060 A 
ATOM     44  C   UNL     1      -6.004   9.475  -0.646  1.00  0.00     0.016 A 
ATOM     45  C   UNL     1      -5.101  11.724  -0.852  1.00  0.00     0.016 A 
ATOM     46  C   UNL     1      -6.970   9.779  -1.600  1.00  0.00     0.010 A 
ATOM     47  C   UNL     1      -6.053  12.023  -1.822  1.00  0.00     0.010 A 
ATOM     48  C   UNL     1      -7.015  11.063  -2.166  1.00  0.00    -0.014 A 
BRANCH  48  49
ATOM     49  C   UNL     1      -8.239  11.490  -2.868  1.00  0.00     0.031 A 
ATOM     50  C   UNL     1      -8.363  11.483  -4.352  1.00  0.00     0.074 A 
ATOM     51  C   UNL     1      -9.251  11.893  -2.078  1.00  0.00     0.049 A 
ATOM     52  N   UNL     1      -9.417  11.754  -5.079  1.00  0.00    -0.248 NA
ATOM     53  C   UNL     1      -7.163  11.138  -5.125  1.00  0.00     0.031 C 
ATOM     54  C   UNL     1      -9.190  11.947  -0.613  1.00  0.00     0.029 A 
ATOM     55  N   UNL     1     -10.514  12.319  -2.376  1.00  0.00    -0.354 N 
ATOM     56  C   UNL     1      -9.019  11.589  -6.397  1.00  0.00     0.074 A 
ATOM     57  C   UNL     1      -7.613  11.238  -6.371  1.00  0.00     0.031 C 
ATOM     58  C   UNL     1     -10.372  12.358  -0.140  1.00  0.00     0.029 A 
ATOM     59  C   UNL     1     -11.261  12.616  -1.265  1.00  0.00     0.049 A 
ATOM     60  H   UNL     1     -10.854  12.405  -3.296  1.00  0.00     0.167 HD
ATOM     61  C   UNL     1      -9.779  11.709  -7.513  1.00  0.00     0.037 A 
ATOM     62  C   UNL     1     -12.531  13.042  -1.163  1.00  0.00     0.037 A 
ATOM     63  C   UNL     1     -11.172  12.087  -7.502  1.00  0.00     0.049 A 
ATOM     64  C   UNL     1     -13.331  13.204  -2.419  1.00  0.00     0.074 A 
ATOM     65  C   UNL     1     -12.042  12.207  -8.571  1.00  0.00     0.029 A 
ATOM     66  N   UNL     1     -11.894  12.423  -6.363  1.00  0.00    -0.354 N 
ATOM     67  N   UNL     1     -12.972  12.972  -3.659  1.00  0.00    -0.248 NA
ATOM     68  C   UNL     1     -14.711  13.676  -2.266  1.00  0.00     0.031 C 
ATOM     69  C   UNL     1     -13.271  12.670  -8.088  1.00  0.00     0.029 A 
ATOM     70  C   UNL     1     -13.188  12.783  -6.709  1.00  0.00     0.049 A 
ATOM     71  H   UNL     1     -11.539  12.408  -5.445  1.00  0.00     0.167 HD
ATOM     72  C   UNL     1     -14.084  13.255  -4.436  1.00  0.00     0.074 A 
ATOM     73  C   UNL     1     -15.137  13.654  -3.522  1.00  0.00     0.031 C 
ATOM     74  C   UNL     1     -14.218  13.192  -5.783  1.00  0.00     0.037 A 
BRANCH  61  75
ATOM     75  C   UNL     1      -9.132  11.428  -8.839  1.00  0.00     0.064 A 
ATOM     76  C   UNL     1      -8.771  10.126  -9.216  1.00  0.00     0.173 A 
ATOM     77  C   UNL     1      -8.947  12.454  -9.779  1.00  0.00     0.173 A 
ATOM     78  F   UNL     1      -8.924   9.107  -8.355  1.00  0.00    -0.203 F 
ATOM     79  C   UNL     1      -8.236   9.864 -10.475  1.00  0.00     0.198 A 
ATOM     80  C   UNL     1      -8.437  12.185 -11.047  1.00  0.00     0.198 A 
ATOM     81  F   UNL     1      -9.284  13.717  -9.476  1.00  0.00    -0.203 F 
ATOM     82  F   UNL     1      -7.872   8.615 -10.800  1.00  0.00    -0.200 F 
ATOM     83  C   UNL     1      -8.078  10.891 -11.392  1.00  0.00     0.200 A 
ATOM     84  F   UNL     1      -8.301  13.177 -11.938  1.00  0.00    -0.200 F 
ATOM     85  F   UNL     1      -7.580  10.634 -12.610  1.00  0.00    -0.200 F 
ENDBRANCH  61  75
BRANCH  62  86
ATOM     86  C   UNL     1     -13.108  13.279   0.182  1.00  0.00     0.064 A 
ATOM     87  C   UNL     1     -14.068  12.410   0.713  1.00  0.00     0.173 A 
ATOM     88  C   UNL     1     -12.653  14.330   0.994  1.00  0.00     0.173 A 
ATOM     89  F   UNL     1     -14.534  11.394  -0.029  1.00  0.00    -0.203 F 
ATOM     90  C   UNL     1     -14.557  12.584   2.005  1.00  0.00     0.198 A 
ATOM     91  C   UNL     1     -13.123  14.486   2.295  1.00  0.00     0.198 A 
ATOM     92  F   UNL     1     -11.719  15.177   0.537  1.00  0.00    -0.203 F 
ATOM     93  F   UNL     1     -15.491  11.750   2.482  1.00  0.00    -0.200 F 
ATOM     94  C   UNL     1     -14.077  13.616   2.798  1.00  0.00     0.200 A 
ATOM     95  F   UNL     1     -12.637  15.468   3.067  1.00  0.00    -0.200 F 
ATOM     96  F   UNL     1     -14.533  13.769   4.049  1.00  0.00    -0.200 F 
ENDBRANCH  62  86
BRANCH  74  97
ATOM     97  C   UNL     1     -15.555  13.568  -6.352  1.00  0.00     0.064 A 
ATOM     98  C   UNL     1     -15.993  14.900  -6.366  1.00  0.00     0.173 A 
ATOM     99  C   UNL     1     -16.381  12.596  -6.935  1.00  0.00     0.173 A 
ATOM    100  F   UNL     1     -15.248  15.863  -5.804  1.00  0.00    -0.203 F 
ATOM    101  C   UNL     1     -17.219  15.243  -6.930  1.00  0.00     0.198 A 
ATOM    102  C   UNL     1     -17.591  12.947  -7.526  1.00  0.00     0.198 A 
ATOM    103  F   UNL     1     -16.005  11.308  -6.950  1.00  0.00    -0.203 F 
ATOM    104  F   UNL     1     -17.638  16.515  -6.895  1.00  0.00    -0.200 F 
ATOM    105  C   UNL     1     -18.011  14.268  -7.518  1.00  0.00     0.200 A 
ATOM    106  F   UNL     1     -18.348  12.007  -8.108  1.00  0.00    -0.200 F 
ATOM    107  F   UNL     1     -19.184  14.603  -8.074  1.00  0.00    -0.200 F 
ENDBRANCH  74  97
ENDBRANCH  48  49
ENDBRANCH  41  43
ENDBRANCH  40  41
ENDBRANCH  39  40
ENDBRANCH  38  39
ENDBRANCH  37  38
ENDBRANCH  36  37
ENDBRANCH  35  36
ENDBRANCH  34  35
ENDBRANCH   1  34
TORSDOF 24
