REMARK SMILES COc1cccc(-n2cc(C(=O)OCCOCCOCCOCCOC(=O)c3ccc(-c4c5nc(c(-c6c(F)c(F)c(F)c(F)c6F)c6ccc([nH]6)c(-c6c(F)c(F)c(F)c(F)c6F)c6nc(c(-c7c(F)c(F)c(F)c(F)c7F)c7ccc4[nH]7)C=C6)C=C5)cc3)c3c2[C@H](c2cc(OC)c(OC)c(OC)c2)CC(=O)N3)c1
REMARK SMILES IDX 19 1 18 2 17 3 16 4 15 5 14 6 13 7 11 8 12 9 10 10 8 11 9 12
REMARK SMILES IDX 92 13 91 14 93 15 109 16 106 17 107 18 108 20 7 21 3 22 4 23
REMARK SMILES IDX 110 24 5 25 6 26 2 27 1 28 94 29 95 30 105 31 96 32 102 33
REMARK SMILES IDX 99 34 97 35 98 36 103 37 104 38 100 39 101 40 20 41 21 42
REMARK SMILES IDX 22 43 23 44 24 45 25 46 26 47 27 48 28 49 29 50 90 51 30 52
REMARK SMILES IDX 89 53 31 54 32 55 33 56 83 57 34 58 88 59 82 60 84 61 35 62
REMARK SMILES IDX 87 63 81 64 80 65 36 67 68 68 48 69 67 70 49 71 52 72 66 73
REMARK SMILES IDX 85 74 50 75 51 76 65 78 86 79 53 80 37 81 38 82 46 83 39 84
REMARK SMILES IDX 40 85 44 86 47 87 41 88 42 89 45 90 43 91 69 92 70 93 78 94
REMARK SMILES IDX 71 95 72 96 76 97 79 98 73 99 74 100 77 101 75 102 54 103
REMARK SMILES IDX 55 104 63 105 56 106 57 107 61 108 64 109 58 110 59 111
REMARK SMILES IDX 62 112 60 113
REMARK H PARENT 109 19 84 66 52 77
REMARK Flexibility Score: inf
ROOT
ATOM      1  O   UNL     1       8.945   2.289  -0.990  1.00  0.00    -0.377 OA
ENDROOT
BRANCH   1   2
ATOM      2  C   UNL     1       7.837   1.490  -1.371  1.00  0.00     0.188 C 
BRANCH   2   3
ATOM      3  C   UNL     1       8.012   0.632  -2.641  1.00  0.00     0.188 C 
BRANCH   3   4
ATOM      4  O   UNL     1       9.362   0.524  -3.047  1.00  0.00    -0.376 OA
BRANCH   4   5
ATOM      5  C   UNL     1       9.873   1.276  -4.122  1.00  0.00     0.202 C 
BRANCH   5   6
ATOM      6  C   UNL     1       9.622   2.787  -4.255  1.00  0.00     0.261 C 
BRANCH   6   7
ATOM      7  O   UNL     1       8.358   3.293  -3.819  1.00  0.00    -0.460 OA
BRANCH   7   8
ATOM      8  C   UNL     1       7.272   2.970  -4.562  1.00  0.00     0.341 C 
ATOM      9  O   UNL     1       7.316   2.346  -5.625  1.00  0.00    -0.246 OA
BRANCH   8  10
ATOM     10  C   UNL     1       6.040   3.290  -3.863  1.00  0.00     0.102 A 
ATOM     11  N   UNL     1       3.924   3.086  -3.087  1.00  0.00    -0.317 N 
ATOM     12  C   UNL     1       4.885   2.524  -3.904  1.00  0.00     0.109 A 
ATOM     13  C   UNL     1       4.426   4.284  -2.617  1.00  0.00     0.055 A 
ATOM     14  C   UNL     1       5.760   4.340  -2.958  1.00  0.00     0.078 A 
ATOM     15  C   UNL     1       3.715   5.422  -1.927  1.00  0.00     0.078 C 
ATOM     16  N   UNL     1       6.561   5.355  -2.492  1.00  0.00    -0.324 N 
ATOM     17  C   UNL     1       4.738   6.049  -0.952  1.00  0.00     0.115 C 
ATOM     18  C   UNL     1       6.120   6.272  -1.570  1.00  0.00     0.225 C 
ATOM     19  H   UNL     1       7.482   5.426  -2.830  1.00  0.00     0.170 HD
ATOM     20  O   UNL     1       6.838   7.208  -1.218  1.00  0.00    -0.275 OA
BRANCH  11  21
ATOM     21  C   UNL     1       2.609   2.587  -2.999  1.00  0.00     0.049 A 
ATOM     22  C   UNL     1       0.900   1.275  -1.918  1.00  0.00     0.120 A 
ATOM     23  C   UNL     1       0.020   1.618  -2.954  1.00  0.00     0.046 A 
ATOM     24  C   UNL     1       2.205   1.783  -1.921  1.00  0.00     0.073 A 
ATOM     25  C   UNL     1       0.442   2.399  -4.027  1.00  0.00     0.006 A 
ATOM     26  C   UNL     1       1.757   2.838  -4.077  1.00  0.00     0.027 A 
BRANCH  22  27
ATOM     27  O   UNL     1       0.347   0.411  -1.015  1.00  0.00    -0.497 OA
ATOM     28  C   UNL     1       1.048   0.148   0.189  1.00  0.00     0.278 C 
ENDBRANCH  22  27
ENDBRANCH  11  21
BRANCH  15  29
ATOM     29  C   UNL     1       3.154   6.409  -2.966  1.00  0.00    -0.031 A 
ATOM     30  C   UNL     1       2.006   6.053  -3.675  1.00  0.00     0.055 A 
ATOM     31  C   UNL     1       3.784   7.602  -3.350  1.00  0.00     0.055 A 
ATOM     32  C   UNL     1       1.631   6.712  -4.849  1.00  0.00     0.164 A 
ATOM     33  C   UNL     1       3.341   8.368  -4.450  1.00  0.00     0.164 A 
ATOM     34  C   UNL     1       2.275   7.898  -5.240  1.00  0.00     0.203 A 
BRANCH  32  35
ATOM     35  O   UNL     1       0.596   6.103  -5.521  1.00  0.00    -0.493 OA
ATOM     36  C   UNL     1       0.783   5.996  -6.933  1.00  0.00     0.278 C 
ENDBRANCH  32  35
BRANCH  33  37
ATOM     37  O   UNL     1       3.966   9.532  -4.821  1.00  0.00    -0.493 OA
ATOM     38  C   UNL     1       4.806  10.172  -3.866  1.00  0.00     0.278 C 
ENDBRANCH  33  37
BRANCH  34  39
ATOM     39  O   UNL     1       1.780   8.471  -6.382  1.00  0.00    -0.490 OA
ATOM     40  C   UNL     1       2.081   9.822  -6.679  1.00  0.00     0.278 C 
ENDBRANCH  34  39
ENDBRANCH  15  29
ENDBRANCH   8  10
ENDBRANCH   7   8
ENDBRANCH   6   7
ENDBRANCH   5   6
ENDBRANCH   4   5
ENDBRANCH   3   4
ENDBRANCH   2   3
ENDBRANCH   1   2
BRANCH   1  41
ATOM     41  C   UNL     1      10.169   1.665  -0.596  1.00  0.00     0.188 C 
BRANCH  41  42
ATOM     42  C   UNL     1      10.396   0.124  -0.556  1.00  0.00     0.188 C 
BRANCH  42  43
ATOM     43  O   UNL     1       9.235  -0.680  -0.684  1.00  0.00    -0.376 OA
BRANCH  43  44
ATOM     44  C   UNL     1       8.728  -1.464   0.373  1.00  0.00     0.202 C 
BRANCH  44  45
ATOM     45  C   UNL     1       8.170  -0.705   1.567  1.00  0.00     0.261 C 
BRANCH  45  46
ATOM     46  O   UNL     1       8.985   0.383   1.953  1.00  0.00    -0.460 OA
BRANCH  46  47
ATOM     47  C   UNL     1      10.167   0.031   2.482  1.00  0.00     0.338 C 
ATOM     48  O   UNL     1      10.680  -1.083   2.496  1.00  0.00    -0.246 OA
BRANCH  47  49
ATOM     49  C   UNL     1      10.689   1.180   3.208  1.00  0.00     0.060 A 
ATOM     50  C   UNL     1      11.944   1.006   3.790  1.00  0.00     0.016 A 
ATOM     51  C   UNL     1       9.757   2.125   3.662  1.00  0.00     0.016 A 
ATOM     52  C   UNL     1      12.145   1.566   5.023  1.00  0.00     0.010 A 
ATOM     53  C   UNL     1       9.936   2.639   4.912  1.00  0.00     0.010 A 
ATOM     54  C   UNL     1      11.087   2.273   5.604  1.00  0.00    -0.014 A 
BRANCH  54  55
ATOM     55  C   UNL     1      11.256   2.744   6.953  1.00  0.00     0.031 A 
ATOM     56  C   UNL     1      12.098   3.951   6.991  1.00  0.00     0.074 A 
ATOM     57  C   UNL     1      10.608   2.174   7.983  1.00  0.00     0.049 A 
ATOM     58  N   UNL     1      13.286   4.063   7.479  1.00  0.00    -0.248 NA
ATOM     59  C   UNL     1      11.661   5.108   6.189  1.00  0.00     0.031 C 
ATOM     60  C   UNL     1       9.550   1.161   7.926  1.00  0.00     0.029 A 
ATOM     61  N   UNL     1      10.681   2.470   9.306  1.00  0.00    -0.354 N 
ATOM     62  C   UNL     1      13.644   5.386   7.244  1.00  0.00     0.074 A 
ATOM     63  C   UNL     1      12.744   5.880   6.243  1.00  0.00     0.031 C 
ATOM     64  C   UNL     1       8.931   1.102   9.127  1.00  0.00     0.029 A 
ATOM     65  C   UNL     1       9.618   1.984  10.054  1.00  0.00     0.049 A 
ATOM     66  H   UNL     1      11.424   2.983   9.700  1.00  0.00     0.167 HD
ATOM     67  C   UNL     1      14.387   6.049   8.168  1.00  0.00     0.037 A 
ATOM     68  C   UNL     1       9.293   2.375  11.311  1.00  0.00     0.037 A 
ATOM     69  C   UNL     1      15.104   5.105   8.999  1.00  0.00     0.049 A 
ATOM     70  C   UNL     1      10.492   3.035  11.889  1.00  0.00     0.074 A 
ATOM     71  C   UNL     1      16.053   4.126   8.785  1.00  0.00     0.029 A 
ATOM     72  N   UNL     1      14.560   4.849  10.232  1.00  0.00    -0.354 N 
ATOM     73  N   UNL     1      11.593   2.408  12.200  1.00  0.00    -0.248 NA
ATOM     74  C   UNL     1      10.621   4.479  11.752  1.00  0.00     0.031 C 
ATOM     75  C   UNL     1      15.786   3.111   9.754  1.00  0.00     0.029 A 
ATOM     76  C   UNL     1      14.716   3.529  10.546  1.00  0.00     0.049 A 
ATOM     77  H   UNL     1      14.122   5.518  10.806  1.00  0.00     0.167 HD
ATOM     78  C   UNL     1      12.608   3.291  11.864  1.00  0.00     0.074 A 
ATOM     79  C   UNL     1      11.952   4.588  11.742  1.00  0.00     0.031 C 
ATOM     80  C   UNL     1      13.812   2.818  11.424  1.00  0.00     0.037 A 
BRANCH  67  81
ATOM     81  C   UNL     1      14.028   7.447   8.662  1.00  0.00     0.064 A 
ATOM     82  C   UNL     1      14.805   7.987   9.707  1.00  0.00     0.173 A 
ATOM     83  C   UNL     1      12.803   8.115   8.425  1.00  0.00     0.173 A 
ATOM     84  F   UNL     1      16.001   7.460  10.011  1.00  0.00    -0.203 F 
ATOM     85  C   UNL     1      14.323   8.997  10.543  1.00  0.00     0.198 A 
ATOM     86  C   UNL     1      12.344   9.150   9.237  1.00  0.00     0.198 A 
ATOM     87  F   UNL     1      11.943   7.760   7.468  1.00  0.00    -0.203 F 
ATOM     88  F   UNL     1      15.034   9.361  11.618  1.00  0.00    -0.200 F 
ATOM     89  C   UNL     1      13.082   9.561  10.322  1.00  0.00     0.200 A 
ATOM     90  F   UNL     1      11.135   9.681   9.002  1.00  0.00    -0.200 F 
ATOM     91  F   UNL     1      12.581  10.467  11.170  1.00  0.00    -0.200 F 
ENDBRANCH  67  81
BRANCH  68  92
ATOM     92  C   UNL     1       7.949   2.499  11.926  1.00  0.00     0.064 A 
ATOM     93  C   UNL     1       7.808   2.680  13.313  1.00  0.00     0.173 A 
ATOM     94  C   UNL     1       6.794   2.720  11.150  1.00  0.00     0.173 A 
ATOM     95  F   UNL     1       8.867   2.534  14.123  1.00  0.00    -0.203 F 
ATOM     96  C   UNL     1       6.597   3.087  13.882  1.00  0.00     0.198 A 
ATOM     97  C   UNL     1       5.583   3.114  11.720  1.00  0.00     0.198 A 
ATOM     98  F   UNL     1       6.837   2.654   9.812  1.00  0.00    -0.203 F 
ATOM     99  F   UNL     1       6.523   3.317  15.201  1.00  0.00    -0.200 F 
ATOM    100  C   UNL     1       5.489   3.313  13.084  1.00  0.00     0.200 A 
ATOM    101  F   UNL     1       4.528   3.362  10.932  1.00  0.00    -0.200 F 
ATOM    102  F   UNL     1       4.346   3.763  13.621  1.00  0.00    -0.200 F 
ENDBRANCH  68  92
BRANCH  80 103
ATOM    103  C   UNL     1      14.129   1.379  11.716  1.00  0.00     0.064 A 
ATOM    104  C   UNL     1      13.406   0.285  11.210  1.00  0.00     0.173 A 
ATOM    105  C   UNL     1      15.275   1.101  12.473  1.00  0.00     0.173 A 
ATOM    106  F   UNL     1      12.358   0.467  10.396  1.00  0.00    -0.203 F 
ATOM    107  C   UNL     1      13.783  -1.024  11.503  1.00  0.00     0.198 A 
ATOM    108  C   UNL     1      15.674  -0.207  12.728  1.00  0.00     0.198 A 
ATOM    109  F   UNL     1      16.034   2.107  12.938  1.00  0.00    -0.203 F 
ATOM    110  F   UNL     1      13.059  -2.053  11.036  1.00  0.00    -0.200 F 
ATOM    111  C   UNL     1      14.919  -1.269  12.257  1.00  0.00     0.200 A 
ATOM    112  F   UNL     1      16.800  -0.437  13.415  1.00  0.00    -0.200 F 
ATOM    113  F   UNL     1      15.301  -2.528  12.510  1.00  0.00    -0.200 F 
ENDBRANCH  80 103
ENDBRANCH  54  55
ENDBRANCH  47  49
ENDBRANCH  46  47
ENDBRANCH  45  46
ENDBRANCH  44  45
ENDBRANCH  43  44
ENDBRANCH  42  43
ENDBRANCH  41  42
ENDBRANCH   1  41
TORSDOF 26
