REMARK SMILES [NH3+][C@@H](C[NH+](CCO)CCO)C(=O)OCCOCCOCCOCCOC(=O)c1ccc(-c2c3nc(c(-c4c(F)c(F)c(F)c(F)c4F)c4ccc([nH]4)c(-c4c(F)c(F)c(F)c(F)c4F)c4nc(c(-c5c(F)c(F)c(F)c(F)c5F)c5ccc2[nH]5)C=C4)C=C3)cc1
REMARK SMILES IDX 17 1 16 2 15 3 14 4 13 5 11 6 12 7 2 8 1 9 3 13 4 14 5 16
REMARK SMILES IDX 6 17 7 18 8 20 9 21 10 22 18 24 19 25 20 26 21 27 22 28
REMARK SMILES IDX 23 29 24 30 25 31 26 32 27 33 28 34 29 35 90 36 30 37 89 38
REMARK SMILES IDX 31 39 32 40 33 41 83 42 34 43 88 44 82 45 84 46 35 47 87 48
REMARK SMILES IDX 81 49 80 50 36 52 68 53 48 54 67 55 49 56 52 57 66 58 85 59
REMARK SMILES IDX 50 60 51 61 65 63 86 64 53 65 37 66 38 67 46 68 39 69 40 70
REMARK SMILES IDX 44 71 47 72 41 73 42 74 45 75 43 76 69 77 70 78 78 79 71 80
REMARK SMILES IDX 72 81 76 82 79 83 73 84 74 85 77 86 75 87 54 88 55 89 63 90
REMARK SMILES IDX 56 91 57 92 61 93 64 94 58 95 59 96 62 97 60 98
REMARK H PARENT 1 10 1 11 1 12 4 15 7 19 10 23 84 51 52 62
REMARK Flexibility Score: inf
ROOT
ATOM      1  C   UNL     1      -1.932  -0.302   2.118  1.00  0.00     0.188 C 
ENDROOT
BRANCH   1   2
ATOM      2  O   UNL     1      -3.247   0.241   2.108  1.00  0.00    -0.376 OA
BRANCH   2   3
ATOM      3  C   UNL     1      -3.750   0.987   1.009  1.00  0.00     0.202 C 
BRANCH   3   4
ATOM      4  C   UNL     1      -2.904   1.948   0.156  1.00  0.00     0.261 C 
BRANCH   4   5
ATOM      5  O   UNL     1      -1.495   1.734   0.164  1.00  0.00    -0.459 OA
BRANCH   5   6
ATOM      6  C   UNL     1      -0.771   2.569   0.958  1.00  0.00     0.370 C 
ATOM      7  O   UNL     1      -1.238   3.497   1.608  1.00  0.00    -0.245 OA
BRANCH   6   8
ATOM      8  C   UNL     1       0.726   2.235   0.922  1.00  0.00     0.347 C 
BRANCH   8   9
ATOM      9  N   UNL     1       1.003   0.795   0.796  1.00  0.00    -0.341 N 
ATOM     10  H   UNL     1       2.012   0.643   0.778  1.00  0.00     0.345 HD
ATOM     11  H   UNL     1       0.591   0.444  -0.069  1.00  0.00     0.345 HD
ATOM     12  H   UNL     1       0.599   0.300   1.591  1.00  0.00     0.345 HD
ENDBRANCH   8   9
BRANCH   8  13
ATOM     13  C   UNL     1       1.423   3.085  -0.153  1.00  0.00     0.340 C 
BRANCH  13  14
ATOM     14  N   UNL     1       1.098   2.893  -1.570  1.00  0.00    -0.326 N 
ATOM     15  H   UNL     1       0.105   2.735  -1.399  1.00  0.00     0.348 HD
BRANCH  14  16
ATOM     16  C   UNL     1       1.275   4.086  -2.401  1.00  0.00     0.291 C 
BRANCH  16  17
ATOM     17  C   UNL     1       2.668   4.729  -2.346  1.00  0.00     0.217 C 
BRANCH  17  18
ATOM     18  O   UNL     1       3.634   3.916  -2.997  1.00  0.00    -0.391 OA
ATOM     19  H   UNL     1       3.684   3.055  -2.553  1.00  0.00     0.210 HD
ENDBRANCH  17  18
ENDBRANCH  16  17
ENDBRANCH  14  16
BRANCH  14  20
ATOM     20  C   UNL     1       1.141   1.597  -2.247  1.00  0.00     0.291 C 
BRANCH  20  21
ATOM     21  C   UNL     1       2.434   0.756  -2.272  1.00  0.00     0.217 C 
BRANCH  21  22
ATOM     22  O   UNL     1       3.092   0.679  -1.014  1.00  0.00    -0.391 OA
ATOM     23  H   UNL     1       3.365   1.568  -0.736  1.00  0.00     0.210 HD
ENDBRANCH  21  22
ENDBRANCH  20  21
ENDBRANCH  14  20
ENDBRANCH  13  14
ENDBRANCH   8  13
ENDBRANCH   6   8
ENDBRANCH   5   6
ENDBRANCH   4   5
ENDBRANCH   3   4
ENDBRANCH   2   3
ENDBRANCH   1   2
BRANCH   1  24
ATOM     24  C   UNL     1      -1.444  -1.177   0.953  1.00  0.00     0.188 C 
BRANCH  24  25
ATOM     25  O   UNL     1      -2.118  -0.926  -0.265  1.00  0.00    -0.377 OA
BRANCH  25  26
ATOM     26  C   UNL     1      -3.092  -1.899  -0.627  1.00  0.00     0.188 C 
BRANCH  26  27
ATOM     27  C   UNL     1      -3.976  -2.517   0.487  1.00  0.00     0.188 C 
BRANCH  27  28
ATOM     28  O   UNL     1      -3.288  -2.952   1.650  1.00  0.00    -0.376 OA
BRANCH  28  29
ATOM     29  C   UNL     1      -2.882  -4.308   1.776  1.00  0.00     0.202 C 
BRANCH  29  30
ATOM     30  C   UNL     1      -1.905  -4.900   0.742  1.00  0.00     0.261 C 
BRANCH  30  31
ATOM     31  O   UNL     1      -2.291  -4.795  -0.635  1.00  0.00    -0.460 OA
BRANCH  31  32
ATOM     32  C   UNL     1      -3.446  -5.381  -1.005  1.00  0.00     0.338 C 
ATOM     33  O   UNL     1      -4.186  -6.059  -0.311  1.00  0.00    -0.246 OA
BRANCH  32  34
ATOM     34  C   UNL     1      -3.789  -4.889  -2.356  1.00  0.00     0.060 A 
ATOM     35  C   UNL     1      -5.001  -4.211  -2.538  1.00  0.00     0.016 A 
ATOM     36  C   UNL     1      -2.921  -5.088  -3.432  1.00  0.00     0.016 A 
ATOM     37  C   UNL     1      -5.370  -3.766  -3.806  1.00  0.00     0.010 A 
ATOM     38  C   UNL     1      -3.305  -4.669  -4.708  1.00  0.00     0.010 A 
ATOM     39  C   UNL     1      -4.548  -4.042  -4.906  1.00  0.00    -0.014 A 
BRANCH  39  40
ATOM     40  C   UNL     1      -5.091  -3.882  -6.276  1.00  0.00     0.031 A 
ATOM     41  C   UNL     1      -5.649  -5.099  -6.962  1.00  0.00     0.074 A 
ATOM     42  C   UNL     1      -5.125  -2.685  -6.885  1.00  0.00     0.049 A 
ATOM     43  N   UNL     1      -6.128  -5.229  -8.172  1.00  0.00    -0.248 NA
ATOM     44  C   UNL     1      -5.667  -6.340  -6.170  1.00  0.00     0.031 C 
ATOM     45  C   UNL     1      -4.672  -1.425  -6.302  1.00  0.00     0.029 A 
ATOM     46  N   UNL     1      -5.559  -2.340  -8.141  1.00  0.00    -0.354 N 
ATOM     47  C   UNL     1      -6.496  -6.563  -8.287  1.00  0.00     0.074 A 
ATOM     48  C   UNL     1      -6.154  -7.210  -7.040  1.00  0.00     0.031 C 
ATOM     49  C   UNL     1      -4.842  -0.443  -7.205  1.00  0.00     0.029 A 
ATOM     50  C   UNL     1      -5.378  -1.013  -8.440  1.00  0.00     0.049 A 
ATOM     51  H   UNL     1      -5.962  -2.984  -8.768  1.00  0.00     0.167 HD
ATOM     52  C   UNL     1      -7.076  -7.191  -9.337  1.00  0.00     0.037 A 
ATOM     53  C   UNL     1      -5.599  -0.346  -9.590  1.00  0.00     0.037 A 
ATOM     54  C   UNL     1      -7.410  -6.544 -10.579  1.00  0.00     0.049 A 
ATOM     55  C   UNL     1      -6.155  -1.089 -10.780  1.00  0.00     0.074 A 
ATOM     56  C   UNL     1      -8.004  -7.089 -11.703  1.00  0.00     0.029 A 
ATOM     57  N   UNL     1      -7.169  -5.207 -10.861  1.00  0.00    -0.354 N 
ATOM     58  N   UNL     1      -6.513  -2.347 -10.882  1.00  0.00    -0.248 NA
ATOM     59  C   UNL     1      -6.339  -0.316 -12.017  1.00  0.00     0.031 C 
ATOM     60  C   UNL     1      -8.064  -6.099 -12.688  1.00  0.00     0.029 A 
ATOM     61  C   UNL     1      -7.575  -4.917 -12.154  1.00  0.00     0.049 A 
ATOM     62  H   UNL     1      -6.769  -4.561 -10.236  1.00  0.00     0.167 HD
ATOM     63  C   UNL     1      -6.998  -2.506 -12.175  1.00  0.00     0.074 A 
ATOM     64  C   UNL     1      -6.899  -1.212 -12.817  1.00  0.00     0.031 C 
ATOM     65  C   UNL     1      -7.483  -3.621 -12.776  1.00  0.00     0.037 A 
BRANCH  52  66
ATOM     66  C   UNL     1      -7.356  -8.659  -9.200  1.00  0.00     0.064 A 
ATOM     67  C   UNL     1      -8.344  -9.147  -8.331  1.00  0.00     0.173 A 
ATOM     68  C   UNL     1      -6.644  -9.591  -9.970  1.00  0.00     0.173 A 
ATOM     69  F   UNL     1      -9.042  -8.301  -7.558  1.00  0.00    -0.203 F 
ATOM     70  C   UNL     1      -8.589 -10.514  -8.219  1.00  0.00     0.198 A 
ATOM     71  C   UNL     1      -6.915 -10.954  -9.881  1.00  0.00     0.198 A 
ATOM     72  F   UNL     1      -5.689  -9.179 -10.818  1.00  0.00    -0.203 F 
ATOM     73  F   UNL     1      -9.501 -10.960  -7.344  1.00  0.00    -0.200 F 
ATOM     74  C   UNL     1      -7.881 -11.415  -9.000  1.00  0.00     0.200 A 
ATOM     75  F   UNL     1      -6.239 -11.821 -10.648  1.00  0.00    -0.200 F 
ATOM     76  F   UNL     1      -8.125 -12.728  -8.899  1.00  0.00    -0.200 F 
ENDBRANCH  52  66
BRANCH  53  77
ATOM     77  C   UNL     1      -5.282   1.105  -9.686  1.00  0.00     0.064 A 
ATOM     78  C   UNL     1      -6.295   2.056  -9.870  1.00  0.00     0.173 A 
ATOM     79  C   UNL     1      -3.959   1.567  -9.629  1.00  0.00     0.173 A 
ATOM     80  F   UNL     1      -7.574   1.663  -9.960  1.00  0.00    -0.203 F 
ATOM     81  C   UNL     1      -5.996   3.410 -10.017  1.00  0.00     0.198 A 
ATOM     82  C   UNL     1      -3.663   2.924  -9.742  1.00  0.00     0.198 A 
ATOM     83  F   UNL     1      -2.950   0.700  -9.458  1.00  0.00    -0.203 F 
ATOM     84  F   UNL     1      -6.979   4.290 -10.248  1.00  0.00    -0.200 F 
ATOM     85  C   UNL     1      -4.681   3.843  -9.946  1.00  0.00     0.200 A 
ATOM     86  F   UNL     1      -2.392   3.339  -9.659  1.00  0.00    -0.200 F 
ATOM     87  F   UNL     1      -4.393   5.144 -10.085  1.00  0.00    -0.200 F 
ENDBRANCH  53  77
BRANCH  65  88
ATOM     88  C   UNL     1      -7.996  -3.486 -14.183  1.00  0.00     0.064 A 
ATOM     89  C   UNL     1      -7.137  -3.259 -15.269  1.00  0.00     0.173 A 
ATOM     90  C   UNL     1      -9.366  -3.632 -14.453  1.00  0.00     0.173 A 
ATOM     91  F   UNL     1      -5.820  -3.100 -15.066  1.00  0.00    -0.203 F 
ATOM     92  C   UNL     1      -7.634  -3.153 -16.566  1.00  0.00     0.198 A 
ATOM     93  C   UNL     1      -9.855  -3.563 -15.755  1.00  0.00     0.198 A 
ATOM     94  F   UNL     1     -10.232  -3.861 -13.454  1.00  0.00    -0.203 F 
ATOM     95  F   UNL     1      -6.801  -2.882 -17.580  1.00  0.00    -0.200 F 
ATOM     96  C   UNL     1      -8.990  -3.314 -16.808  1.00  0.00     0.200 A 
ATOM     97  F   UNL     1     -11.163  -3.738 -15.988  1.00  0.00    -0.200 F 
ATOM     98  F   UNL     1      -9.464  -3.222 -18.058  1.00  0.00    -0.200 F 
ENDBRANCH  65  88
ENDBRANCH  39  40
ENDBRANCH  32  34
ENDBRANCH  31  32
ENDBRANCH  30  31
ENDBRANCH  29  30
ENDBRANCH  28  29
ENDBRANCH  27  28
ENDBRANCH  26  27
ENDBRANCH  25  26
ENDBRANCH  24  25
ENDBRANCH   1  24
TORSDOF 29
