REMARK SMILES O=C(OCCOCCOCCOCCOC(=O)C(Cl)(c1ccccc1)c1ccccc1)c1ccc(-c2c3nc(c(-c4c(F)c(F)c(F)c(F)c4F)c4ccc([nH]4)c(-c4c(F)c(F)c(F)c(F)c4F)c4nc(c(-c5c(F)c(F)c(F)c(F)c5F)c5ccc2[nH]5)C=C4)C=C3)cc1
REMARK SMILES IDX 8 1 7 2 6 3 5 4 4 5 3 6 2 7 1 8 32 9 33 10 94 11 34 12 93 13
REMARK SMILES IDX 35 14 36 15 37 16 87 17 38 18 92 19 86 20 88 21 39 22 91 23
REMARK SMILES IDX 85 24 84 25 40 27 72 28 52 29 71 30 53 31 56 32 70 33 89 34
REMARK SMILES IDX 54 35 55 36 69 38 90 39 57 40 41 41 42 42 50 43 43 44 44 45
REMARK SMILES IDX 48 46 51 47 45 48 46 49 49 50 47 51 73 52 74 53 82 54 75 55
REMARK SMILES IDX 76 56 80 57 83 58 77 59 78 60 81 61 79 62 58 63 59 64 67 65
REMARK SMILES IDX 60 66 61 67 65 68 68 69 62 70 63 71 66 72 64 73 9 74 10 75
REMARK SMILES IDX 11 76 12 77 13 78 14 79 15 80 16 81 17 82 18 83 19 84 20 85
REMARK SMILES IDX 21 86 25 87 22 88 24 89 23 90 26 91 27 92 31 93 28 94 30 95
REMARK SMILES IDX 29 96
REMARK H PARENT 88 26 56 37
REMARK Flexibility Score: inf
ROOT
ATOM      1  C   UNL     1       2.088  -0.658   2.511  1.00  0.00     0.188 C 
ENDROOT
BRANCH   1   2
ATOM      2  C   UNL     1       2.389   0.499   1.572  1.00  0.00     0.188 C 
BRANCH   2   3
ATOM      3  O   UNL     1       3.614   0.215   0.901  1.00  0.00    -0.376 OA
BRANCH   3   4
ATOM      4  C   UNL     1       4.418   1.347   0.602  1.00  0.00     0.202 C 
BRANCH   4   5
ATOM      5  C   UNL     1       4.067   1.988  -0.738  1.00  0.00     0.261 C 
BRANCH   5   6
ATOM      6  O   UNL     1       2.693   1.788  -1.103  1.00  0.00    -0.460 OA
BRANCH   6   7
ATOM      7  C   UNL     1       2.169   0.796  -1.866  1.00  0.00     0.338 C 
ATOM      8  O   UNL     1       0.981   0.862  -2.171  1.00  0.00    -0.246 OA
BRANCH   7   9
ATOM      9  C   UNL     1       2.946  -0.374  -2.389  1.00  0.00     0.060 A 
ATOM     10  C   UNL     1       4.018  -0.992  -1.743  1.00  0.00     0.016 A 
ATOM     11  C   UNL     1       2.468  -0.970  -3.569  1.00  0.00     0.016 A 
ATOM     12  C   UNL     1       4.606  -2.150  -2.235  1.00  0.00     0.010 A 
ATOM     13  C   UNL     1       3.049  -2.138  -4.074  1.00  0.00     0.010 A 
ATOM     14  C   UNL     1       4.125  -2.728  -3.403  1.00  0.00    -0.014 A 
BRANCH  14  15
ATOM     15  C   UNL     1       4.867  -3.865  -3.972  1.00  0.00     0.031 A 
ATOM     16  C   UNL     1       5.790  -3.588  -5.115  1.00  0.00     0.074 A 
ATOM     17  C   UNL     1       4.793  -5.079  -3.399  1.00  0.00     0.049 A 
ATOM     18  N   UNL     1       6.451  -4.422  -5.869  1.00  0.00    -0.248 NA
ATOM     19  C   UNL     1       6.010  -2.168  -5.446  1.00  0.00     0.031 C 
ATOM     20  C   UNL     1       4.033  -5.396  -2.188  1.00  0.00     0.029 A 
ATOM     21  N   UNL     1       5.373  -6.269  -3.750  1.00  0.00    -0.354 N 
ATOM     22  C   UNL     1       7.123  -3.633  -6.792  1.00  0.00     0.074 A 
ATOM     23  C   UNL     1       6.817  -2.254  -6.493  1.00  0.00     0.031 C 
ATOM     24  C   UNL     1       4.189  -6.699  -1.901  1.00  0.00     0.029 A 
ATOM     25  C   UNL     1       4.993  -7.319  -2.949  1.00  0.00     0.049 A 
ATOM     26  H   UNL     1       6.001  -6.363  -4.502  1.00  0.00     0.167 HD
ATOM     27  C   UNL     1       7.907  -4.044  -7.813  1.00  0.00     0.037 A 
ATOM     28  C   UNL     1       5.226  -8.638  -3.097  1.00  0.00     0.037 A 
ATOM     29  C   UNL     1       8.201  -5.426  -8.067  1.00  0.00     0.049 A 
ATOM     30  C   UNL     1       6.021  -9.076  -4.301  1.00  0.00     0.074 A 
ATOM     31  C   UNL     1       8.952  -5.981  -9.084  1.00  0.00     0.029 A 
ATOM     32  N   UNL     1       7.744  -6.474  -7.278  1.00  0.00    -0.354 N 
ATOM     33  N   UNL     1       6.608  -8.341  -5.217  1.00  0.00    -0.248 NA
ATOM     34  C   UNL     1       6.159 -10.522  -4.515  1.00  0.00     0.031 C 
ATOM     35  C   UNL     1       8.911  -7.372  -8.936  1.00  0.00     0.029 A 
ATOM     36  C   UNL     1       8.169  -7.679  -7.805  1.00  0.00     0.049 A 
ATOM     37  H   UNL     1       7.199  -6.374  -6.465  1.00  0.00     0.167 HD
ATOM     38  C   UNL     1       7.179  -9.229  -6.115  1.00  0.00     0.074 A 
ATOM     39  C   UNL     1       6.899 -10.560  -5.615  1.00  0.00     0.031 C 
ATOM     40  C   UNL     1       7.861  -8.977  -7.260  1.00  0.00     0.037 A 
BRANCH  27  41
ATOM     41  C   UNL     1       8.408  -2.998  -8.760  1.00  0.00     0.064 A 
ATOM     42  C   UNL     1       9.445  -2.118  -8.422  1.00  0.00     0.173 A 
ATOM     43  C   UNL     1       7.820  -2.868 -10.027  1.00  0.00     0.173 A 
ATOM     44  F   UNL     1      10.017  -2.180  -7.210  1.00  0.00    -0.203 F 
ATOM     45  C   UNL     1       9.864  -1.133  -9.314  1.00  0.00     0.198 A 
ATOM     46  C   UNL     1       8.255  -1.896 -10.923  1.00  0.00     0.198 A 
ATOM     47  F   UNL     1       6.814  -3.677 -10.391  1.00  0.00    -0.203 F 
ATOM     48  F   UNL     1      10.826  -0.271  -8.955  1.00  0.00    -0.200 F 
ATOM     49  C   UNL     1       9.273  -1.026 -10.565  1.00  0.00     0.200 A 
ATOM     50  F   UNL     1       7.680  -1.795 -12.130  1.00  0.00    -0.200 F 
ATOM     51  F   UNL     1       9.675  -0.076 -11.420  1.00  0.00    -0.200 F 
ENDBRANCH  27  41
BRANCH  28  52
ATOM     52  C   UNL     1       4.622  -9.628  -2.162  1.00  0.00     0.064 A 
ATOM     53  C   UNL     1       5.417 -10.471  -1.373  1.00  0.00     0.173 A 
ATOM     54  C   UNL     1       3.229  -9.782  -2.068  1.00  0.00     0.173 A 
ATOM     55  F   UNL     1       6.754 -10.389  -1.442  1.00  0.00    -0.203 F 
ATOM     56  C   UNL     1       4.845 -11.438  -0.545  1.00  0.00     0.198 A 
ATOM     57  C   UNL     1       2.657 -10.725  -1.216  1.00  0.00     0.198 A 
ATOM     58  F   UNL     1       2.416  -9.013  -2.807  1.00  0.00    -0.203 F 
ATOM     59  F   UNL     1       5.631 -12.268   0.155  1.00  0.00    -0.200 F 
ATOM     60  C   UNL     1       3.466 -11.560  -0.463  1.00  0.00     0.200 A 
ATOM     61  F   UNL     1       1.324 -10.829  -1.133  1.00  0.00    -0.200 F 
ATOM     62  F   UNL     1       2.918 -12.491   0.330  1.00  0.00    -0.200 F 
ENDBRANCH  28  52
BRANCH  40  63
ATOM     63  C   UNL     1       8.338 -10.165  -8.036  1.00  0.00     0.064 A 
ATOM     64  C   UNL     1       7.451 -10.932  -8.804  1.00  0.00     0.173 A 
ATOM     65  C   UNL     1       9.701 -10.491  -8.068  1.00  0.00     0.173 A 
ATOM     66  F   UNL     1       6.137 -10.662  -8.788  1.00  0.00    -0.203 F 
ATOM     67  C   UNL     1       7.914 -11.995  -9.572  1.00  0.00     0.198 A 
ATOM     68  C   UNL     1      10.163 -11.538  -8.858  1.00  0.00     0.198 A 
ATOM     69  F   UNL     1      10.584  -9.778  -7.353  1.00  0.00    -0.203 F 
ATOM     70  F   UNL     1       7.048 -12.737 -10.275  1.00  0.00    -0.200 F 
ATOM     71  C   UNL     1       9.269 -12.290  -9.606  1.00  0.00     0.200 A 
ATOM     72  F   UNL     1      11.473 -11.813  -8.902  1.00  0.00    -0.200 F 
ATOM     73  F   UNL     1       9.715 -13.305 -10.359  1.00  0.00    -0.200 F 
ENDBRANCH  40  63
ENDBRANCH  14  15
ENDBRANCH   7   9
ENDBRANCH   6   7
ENDBRANCH   5   6
ENDBRANCH   4   5
ENDBRANCH   3   4
ENDBRANCH   2   3
ENDBRANCH   1   2
BRANCH   1  74
ATOM     74  O   UNL     1       3.034  -0.782   3.568  1.00  0.00    -0.377 OA
BRANCH  74  75
ATOM     75  C   UNL     1       4.395  -1.017   3.233  1.00  0.00     0.188 C 
BRANCH  75  76
ATOM     76  C   UNL     1       4.775  -2.323   2.523  1.00  0.00     0.188 C 
BRANCH  76  77
ATOM     77  O   UNL     1       3.692  -3.155   2.127  1.00  0.00    -0.376 OA
BRANCH  77  78
ATOM     78  C   UNL     1       3.469  -4.282   2.974  1.00  0.00     0.202 C 
BRANCH  78  79
ATOM     79  C   UNL     1       2.568  -3.992   4.182  1.00  0.00     0.261 C 
BRANCH  79  80
ATOM     80  O   UNL     1       3.079  -3.027   5.118  1.00  0.00    -0.461 OA
BRANCH  80  81
ATOM     81  C   UNL     1       4.189  -3.335   5.838  1.00  0.00     0.336 C 
ATOM     82  O   UNL     1       4.744  -4.427   5.716  1.00  0.00    -0.249 OA
BRANCH  81  83
ATOM     83  C   UNL     1       4.671  -2.179   6.819  1.00  0.00     0.191 C 
ATOM     84  Cl  UNL     1       3.537  -0.730   6.547  1.00  0.00    -0.096 Cl
BRANCH  83  85
ATOM     85  C   UNL     1       4.470  -2.538   8.309  1.00  0.00    -0.011 A 
ATOM     86  C   UNL     1       4.420  -1.518   9.286  1.00  0.00     0.006 A 
ATOM     87  C   UNL     1       4.279  -3.859   8.745  1.00  0.00     0.006 A 
ATOM     88  C   UNL     1       4.071  -1.791  10.607  1.00  0.00     0.000 A 
ATOM     89  C   UNL     1       3.955  -4.135  10.075  1.00  0.00     0.000 A 
ATOM     90  C   UNL     1       3.825  -3.100  10.997  1.00  0.00     0.000 A 
ENDBRANCH  83  85
BRANCH  83  91
ATOM     91  C   UNL     1       6.150  -1.798   6.511  1.00  0.00    -0.011 A 
ATOM     92  C   UNL     1       7.133  -2.809   6.434  1.00  0.00     0.006 A 
ATOM     93  C   UNL     1       6.591  -0.476   6.293  1.00  0.00     0.006 A 
ATOM     94  C   UNL     1       8.460  -2.527   6.095  1.00  0.00     0.000 A 
ATOM     95  C   UNL     1       7.923  -0.192   5.958  1.00  0.00     0.000 A 
ATOM     96  C   UNL     1       8.854  -1.218   5.849  1.00  0.00     0.000 A 
ENDBRANCH  83  91
ENDBRANCH  81  83
ENDBRANCH  80  81
ENDBRANCH  79  80
ENDBRANCH  78  79
ENDBRANCH  77  78
ENDBRANCH  76  77
ENDBRANCH  75  76
ENDBRANCH  74  75
ENDBRANCH   1  74
TORSDOF 22
