REMARK SMILES C[C@H](NC(=O)N1CCN(/C=C/c2ccccc2)CC1)C(=O)OCCOCCOCCOCCOC(=O)c1ccc(-c2c3nc(c(-c4c(F)c(F)c(F)c(F)c4F)c4ccc([nH]4)c(-c4c(F)c(F)c(F)c(F)c4F)c4nc(c(-c5c(F)c(F)c(F)c(F)c5F)c5ccc2[nH]5)C=C4)C=C3)cc1
REMARK SMILES IDX 27 1 26 2 25 3 24 4 23 5 22 6 20 7 21 8 2 9 1 10 3 11 4 12
REMARK SMILES IDX 5 14 6 15 7 16 19 17 8 18 18 19 9 20 10 21 11 22 12 23 13 24
REMARK SMILES IDX 17 25 14 26 16 27 15 28 28 29 29 30 30 31 31 32 32 33 33 34
REMARK SMILES IDX 34 35 35 36 36 37 37 38 38 39 99 40 39 41 98 42 40 43 41 44
REMARK SMILES IDX 42 45 92 46 43 47 97 48 91 49 93 50 44 51 96 52 90 53 89 54
REMARK SMILES IDX 45 56 77 57 57 58 76 59 58 60 61 61 75 62 94 63 59 64 60 65
REMARK SMILES IDX 74 67 95 68 62 69 46 70 47 71 55 72 48 73 49 74 53 75 56 76
REMARK SMILES IDX 50 77 51 78 54 79 52 80 78 81 79 82 87 83 80 84 81 85 85 86
REMARK SMILES IDX 88 87 82 88 83 89 86 90 84 91 63 92 64 93 72 94 65 95 66 96
REMARK SMILES IDX 70 97 73 98 67 99 68 100 71 101 69 102
REMARK H PARENT 3 13 93 55 61 66
REMARK Flexibility Score: inf
ROOT
ATOM      1  C   UNL     1      -1.327   1.184  -1.033  1.00  0.00     0.188 C 
ENDROOT
BRANCH   1   2
ATOM      2  C   UNL     1      -2.116   0.602  -2.219  1.00  0.00     0.188 C 
BRANCH   2   3
ATOM      3  O   UNL     1      -3.463   0.174  -2.107  1.00  0.00    -0.376 OA
BRANCH   3   4
ATOM      4  C   UNL     1      -3.988  -0.698  -1.119  1.00  0.00     0.202 C 
BRANCH   4   5
ATOM      5  C   UNL     1      -3.252  -1.862  -0.447  1.00  0.00     0.261 C 
BRANCH   5   6
ATOM      6  O   UNL     1      -1.864  -1.683  -0.214  1.00  0.00    -0.462 OA
BRANCH   6   7
ATOM      7  C   UNL     1      -1.081  -2.096  -1.237  1.00  0.00     0.328 C 
ATOM      8  O   UNL     1      -1.496  -2.607  -2.273  1.00  0.00    -0.250 OA
BRANCH   7   9
ATOM      9  C   UNL     1       0.405  -1.981  -0.909  1.00  0.00     0.190 C 
ATOM     10  C   UNL     1       0.815  -3.432  -0.759  1.00  0.00     0.043 C 
BRANCH   9  11
ATOM     11  N   UNL     1       0.721  -1.111   0.228  1.00  0.00    -0.325 N 
ATOM     12  C   UNL     1       1.828  -0.828   0.940  1.00  0.00     0.318 C 
ATOM     13  H   UNL     1      -0.067  -0.614   0.548  1.00  0.00     0.166 HD
ATOM     14  O   UNL     1       1.734   0.053   1.798  1.00  0.00    -0.249 OA
ATOM     15  N   UNL     1       2.938  -1.601   0.845  1.00  0.00    -0.321 N 
ATOM     16  C   UNL     1       3.537  -2.047   2.092  1.00  0.00     0.143 C 
ATOM     17  C   UNL     1       3.639  -2.091  -0.333  1.00  0.00     0.143 C 
ATOM     18  C   UNL     1       3.367  -3.564   2.174  1.00  0.00     0.137 C 
ATOM     19  C   UNL     1       3.970  -3.603  -0.299  1.00  0.00     0.137 C 
ATOM     20  N   UNL     1       4.028  -4.246   1.040  1.00  0.00    -0.374 N 
BRANCH  20  21
ATOM     21  C   UNL     1       4.508  -5.542   1.135  1.00  0.00     0.081 C 
ATOM     22  C   UNL     1       4.630  -6.338   2.204  1.00  0.00     0.025 C 
BRANCH  22  23
ATOM     23  C   UNL     1       5.344  -7.619   2.151  1.00  0.00    -0.024 A 
ATOM     24  C   UNL     1       4.967  -8.666   2.997  1.00  0.00     0.008 A 
ATOM     25  C   UNL     1       6.483  -7.773   1.345  1.00  0.00     0.008 A 
ATOM     26  C   UNL     1       5.710  -9.850   3.024  1.00  0.00     0.001 A 
ATOM     27  C   UNL     1       7.220  -8.955   1.368  1.00  0.00     0.001 A 
ATOM     28  C   UNL     1       6.834  -9.992   2.211  1.00  0.00     0.000 A 
ENDBRANCH  22  23
ENDBRANCH  20  21
ENDBRANCH   9  11
ENDBRANCH   7   9
ENDBRANCH   6   7
ENDBRANCH   5   6
ENDBRANCH   4   5
ENDBRANCH   3   4
ENDBRANCH   2   3
ENDBRANCH   1   2
BRANCH   1  29
ATOM     29  O   UNL     1      -1.842   0.839   0.235  1.00  0.00    -0.377 OA
BRANCH  29  30
ATOM     30  C   UNL     1      -2.807   1.718   0.809  1.00  0.00     0.188 C 
BRANCH  30  31
ATOM     31  C   UNL     1      -3.703   2.580  -0.112  1.00  0.00     0.188 C 
BRANCH  31  32
ATOM     32  O   UNL     1      -3.008   3.233  -1.163  1.00  0.00    -0.376 OA
BRANCH  32  33
ATOM     33  C   UNL     1      -2.641   4.593  -0.996  1.00  0.00     0.202 C 
BRANCH  33  34
ATOM     34  C   UNL     1      -1.674   4.931   0.150  1.00  0.00     0.261 C 
BRANCH  34  35
ATOM     35  O   UNL     1      -2.108   4.579   1.474  1.00  0.00    -0.460 OA
BRANCH  35  36
ATOM     36  C   UNL     1      -3.272   5.090   1.917  1.00  0.00     0.338 C 
ATOM     37  O   UNL     1      -3.994   5.892   1.342  1.00  0.00    -0.246 OA
BRANCH  36  38
ATOM     38  C   UNL     1      -3.656   4.361   3.143  1.00  0.00     0.060 A 
ATOM     39  C   UNL     1      -4.886   3.691   3.177  1.00  0.00     0.016 A 
ATOM     40  C   UNL     1      -2.819   4.359   4.261  1.00  0.00     0.016 A 
ATOM     41  C   UNL     1      -5.309   3.065   4.348  1.00  0.00     0.010 A 
ATOM     42  C   UNL     1      -3.253   3.751   5.442  1.00  0.00     0.010 A 
ATOM     43  C   UNL     1      -4.520   3.142   5.503  1.00  0.00    -0.014 A 
BRANCH  43  44
ATOM     44  C   UNL     1      -5.117   2.792   6.816  1.00  0.00     0.031 A 
ATOM     45  C   UNL     1      -5.645   3.909   7.676  1.00  0.00     0.074 A 
ATOM     46  C   UNL     1      -5.228   1.516   7.222  1.00  0.00     0.049 A 
ATOM     47  N   UNL     1      -6.176   3.863   8.871  1.00  0.00    -0.248 NA
ATOM     48  C   UNL     1      -5.560   5.264   7.108  1.00  0.00     0.031 C 
ATOM     49  C   UNL     1      -4.802   0.346   6.460  1.00  0.00     0.029 A 
ATOM     50  N   UNL     1      -5.732   0.996   8.389  1.00  0.00    -0.354 N 
ATOM     51  C   UNL     1      -6.478   5.179   9.199  1.00  0.00     0.074 A 
ATOM     52  C   UNL     1      -6.040   6.004   8.094  1.00  0.00     0.031 C 
ATOM     53  C   UNL     1      -5.053  -0.759   7.184  1.00  0.00     0.029 A 
ATOM     54  C   UNL     1      -5.624  -0.370   8.473  1.00  0.00     0.049 A 
ATOM     55  H   UNL     1      -6.133   1.550   9.097  1.00  0.00     0.167 HD
ATOM     56  C   UNL     1      -7.075   5.657  10.316  1.00  0.00     0.037 A 
ATOM     57  C   UNL     1      -5.928  -1.203   9.488  1.00  0.00     0.037 A 
ATOM     58  C   UNL     1      -7.507   4.833  11.415  1.00  0.00     0.049 A 
ATOM     59  C   UNL     1      -6.515  -0.637  10.758  1.00  0.00     0.074 A 
ATOM     60  C   UNL     1      -8.135   5.218  12.586  1.00  0.00     0.029 A 
ATOM     61  N   UNL     1      -7.344   3.457  11.481  1.00  0.00    -0.354 N 
ATOM     62  N   UNL     1      -6.820   0.604  11.054  1.00  0.00    -0.248 NA
ATOM     63  C   UNL     1      -6.805  -1.594  11.837  1.00  0.00     0.031 C 
ATOM     64  C   UNL     1      -8.292   4.084  13.390  1.00  0.00     0.029 A 
ATOM     65  C   UNL     1      -7.832   2.982  12.688  1.00  0.00     0.049 A 
ATOM     66  H   UNL     1      -6.942   2.901  10.776  1.00  0.00     0.167 HD
ATOM     67  C   UNL     1      -7.369   0.572  12.330  1.00  0.00     0.074 A 
ATOM     68  C   UNL     1      -7.368  -0.814  12.748  1.00  0.00     0.031 C 
ATOM     69  C   UNL     1      -7.835   1.597  13.088  1.00  0.00     0.037 A 
BRANCH  56  70
ATOM     70  C   UNL     1      -7.264   7.143  10.421  1.00  0.00     0.064 A 
ATOM     71  C   UNL     1      -8.172   7.836   9.604  1.00  0.00     0.173 A 
ATOM     72  C   UNL     1      -6.544   7.883  11.372  1.00  0.00     0.173 A 
ATOM     73  F   UNL     1      -8.875   7.181   8.668  1.00  0.00    -0.203 F 
ATOM     74  C   UNL     1      -8.328   9.216   9.716  1.00  0.00     0.198 A 
ATOM     75  C   UNL     1      -6.728   9.256  11.504  1.00  0.00     0.198 A 
ATOM     76  F   UNL     1      -5.665   7.271  12.180  1.00  0.00    -0.203 F 
ATOM     77  F   UNL     1      -9.160   9.863   8.888  1.00  0.00    -0.200 F 
ATOM     78  C   UNL     1      -7.613   9.923  10.671  1.00  0.00     0.200 A 
ATOM     79  F   UNL     1      -6.047   9.935  12.438  1.00  0.00    -0.200 F 
ATOM     80  F   UNL     1      -7.771  11.249  10.782  1.00  0.00    -0.200 F 
ENDBRANCH  56  70
BRANCH  57  81
ATOM     81  C   UNL     1      -5.675  -2.663   9.357  1.00  0.00     0.064 A 
ATOM     82  C   UNL     1      -6.731  -3.584   9.336  1.00  0.00     0.173 A 
ATOM     83  C   UNL     1      -4.369  -3.171   9.284  1.00  0.00     0.173 A 
ATOM     84  F   UNL     1      -7.998  -3.152   9.431  1.00  0.00    -0.203 F 
ATOM     85  C   UNL     1      -6.492  -4.956   9.271  1.00  0.00     0.198 A 
ATOM     86  C   UNL     1      -4.131  -4.540   9.185  1.00  0.00     0.198 A 
ATOM     87  F   UNL     1      -3.320  -2.335   9.306  1.00  0.00    -0.203 F 
ATOM     88  F   UNL     1      -7.519  -5.815   9.311  1.00  0.00    -0.200 F 
ATOM     89  C   UNL     1      -5.192  -5.432   9.190  1.00  0.00     0.200 A 
ATOM     90  F   UNL     1      -2.874  -4.995   9.094  1.00  0.00    -0.200 F 
ATOM     91  F   UNL     1      -4.962  -6.751   9.126  1.00  0.00    -0.200 F 
ENDBRANCH  57  81
BRANCH  69  92
ATOM     92  C   UNL     1      -8.433   1.256  14.426  1.00  0.00     0.064 A 
ATOM     93  C   UNL     1      -7.650   0.792  15.494  1.00  0.00     0.173 A 
ATOM     94  C   UNL     1      -9.807   1.433  14.651  1.00  0.00     0.173 A 
ATOM     95  F   UNL     1      -6.334   0.594  15.331  1.00  0.00    -0.203 F 
ATOM     96  C   UNL     1      -8.227   0.485  16.724  1.00  0.00     0.198 A 
ATOM     97  C   UNL     1     -10.374   1.162  15.893  1.00  0.00     0.198 A 
ATOM     98  F   UNL     1     -10.602   1.885  13.669  1.00  0.00    -0.203 F 
ATOM     99  F   UNL     1      -7.469  -0.014  17.711  1.00  0.00    -0.200 F 
ATOM    100  C   UNL     1      -9.586   0.677  16.925  1.00  0.00     0.200 A 
ATOM    101  F   UNL     1     -11.683   1.368  16.091  1.00  0.00    -0.200 F 
ATOM    102  F   UNL     1     -10.137   0.388  18.112  1.00  0.00    -0.200 F 
ENDBRANCH  69  92
ENDBRANCH  43  44
ENDBRANCH  36  38
ENDBRANCH  35  36
ENDBRANCH  34  35
ENDBRANCH  33  34
ENDBRANCH  32  33
ENDBRANCH  31  32
ENDBRANCH  30  31
ENDBRANCH  29  30
ENDBRANCH   1  29
TORSDOF 23
