REMARK SMILES CN1C=C/C(=C\C=C/C=N\c2ccc(C(=O)OCCOCCOCCOCCOC(=O)c3ccc(-c4c5nc(c(-c6c(F)c(F)c(F)c(F)c6F)c6ccc([nH]6)c(-c6c(F)c(F)c(F)c(F)c6F)c6nc(c(-c7c(F)c(F)c(F)c(F)c7F)c7ccc4[nH]7)C=C6)C=C5)cc3)cc2)c2ccccc21
REMARK SMILES IDX 22 1 21 2 20 3 19 4 18 5 17 6 15 7 16 8 14 9 11 10 12 11
REMARK SMILES IDX 96 12 13 13 95 14 10 15 9 16 8 17 7 18 6 19 1 20 2 21 3 22
REMARK SMILES IDX 102 23 4 24 97 25 101 26 5 27 98 28 100 29 99 30 23 31 24 32
REMARK SMILES IDX 25 33 26 34 27 35 28 36 29 37 30 38 31 39 32 40 33 41 94 42
REMARK SMILES IDX 34 43 93 44 35 45 36 46 37 47 87 48 38 49 92 50 86 51 88 52
REMARK SMILES IDX 39 53 91 54 85 55 84 56 40 58 72 59 52 60 71 61 53 62 56 63
REMARK SMILES IDX 70 64 89 65 54 66 55 67 69 69 90 70 57 71 41 72 42 73 50 74
REMARK SMILES IDX 43 75 44 76 48 77 51 78 45 79 46 80 49 81 47 82 73 83 74 84
REMARK SMILES IDX 82 85 75 86 76 87 80 88 83 89 77 90 78 91 81 92 79 93 58 94
REMARK SMILES IDX 59 95 67 96 60 97 61 98 65 99 68 100 62 101 63 102 66 103
REMARK SMILES IDX 64 104
REMARK H PARENT 88 57 56 68
REMARK Flexibility Score: inf
ROOT
ATOM      1  C   UNL     1      -0.880  11.511  -4.090  1.00  0.00     0.188 C 
ENDROOT
BRANCH   1   2
ATOM      2  C   UNL     1       0.491  12.210  -4.077  1.00  0.00     0.188 C 
BRANCH   2   3
ATOM      3  O   UNL     1       0.418  13.631  -4.111  1.00  0.00    -0.376 OA
BRANCH   3   4
ATOM      4  C   UNL     1       0.917  14.261  -5.283  1.00  0.00     0.202 C 
BRANCH   4   5
ATOM      5  C   UNL     1       0.017  14.141  -6.521  1.00  0.00     0.261 C 
BRANCH   5   6
ATOM      6  O   UNL     1      -0.306  12.794  -6.898  1.00  0.00    -0.460 OA
BRANCH   6   7
ATOM      7  C   UNL     1       0.700  12.036  -7.390  1.00  0.00     0.338 C 
ATOM      8  O   UNL     1       1.840  12.404  -7.612  1.00  0.00    -0.246 OA
BRANCH   7   9
ATOM      9  C   UNL     1       0.253  10.618  -7.406  1.00  0.00     0.060 A 
ATOM     10  C   UNL     1      -0.554   7.926  -7.208  1.00  0.00     0.063 A 
ATOM     11  C   UNL     1       0.781   8.286  -6.994  1.00  0.00     0.029 A 
ATOM     12  C   UNL     1      -1.472   8.924  -7.554  1.00  0.00     0.029 A 
ATOM     13  C   UNL     1       1.184   9.624  -7.081  1.00  0.00     0.018 A 
ATOM     14  C   UNL     1      -1.079  10.264  -7.649  1.00  0.00     0.018 A 
BRANCH  10  15
ATOM     15  N   UNL     1      -0.978   6.592  -7.214  1.00  0.00    -0.257 NA
ATOM     16  C   UNL     1      -0.878   5.812  -6.186  1.00  0.00     0.111 C 
BRANCH  16  17
ATOM     17  C   UNL     1      -0.376   6.096  -4.816  1.00  0.00     0.020 C 
ATOM     18  C   UNL     1      -0.143   5.184  -3.856  1.00  0.00     0.002 C 
BRANCH  18  19
ATOM     19  C   UNL     1      -0.326   3.739  -3.916  1.00  0.00     0.009 C 
ATOM     20  C   UNL     1       1.003  -0.022   0.139  1.00  0.00     0.149 C 
ATOM     21  N   UNL     1       0.576   0.913  -0.902  1.00  0.00    -0.351 N 
ATOM     22  C   UNL     1       0.843   2.264  -0.776  1.00  0.00     0.086 C 
ATOM     23  C   UNL     1       0.003   0.424  -2.112  1.00  0.00     0.048 A 
ATOM     24  C   UNL     1       0.579   3.199  -1.695  1.00  0.00     0.026 C 
ATOM     25  C   UNL     1      -0.330   1.338  -3.167  1.00  0.00     0.005 A 
ATOM     26  C   UNL     1      -0.272  -0.946  -2.308  1.00  0.00     0.027 A 
ATOM     27  C   UNL     1      -0.037   2.817  -2.964  1.00  0.00    -0.015 C 
ATOM     28  C   UNL     1      -0.923   0.829  -4.341  1.00  0.00     0.011 A 
ATOM     29  C   UNL     1      -0.871  -1.417  -3.478  1.00  0.00     0.002 A 
ATOM     30  C   UNL     1      -1.195  -0.532  -4.492  1.00  0.00     0.001 A 
ENDBRANCH  18  19
ENDBRANCH  16  17
ENDBRANCH  10  15
ENDBRANCH   7   9
ENDBRANCH   6   7
ENDBRANCH   5   6
ENDBRANCH   4   5
ENDBRANCH   3   4
ENDBRANCH   2   3
ENDBRANCH   1   2
BRANCH   1  31
ATOM     31  O   UNL     1      -2.022  12.305  -4.364  1.00  0.00    -0.377 OA
BRANCH  31  32
ATOM     32  C   UNL     1      -2.280  13.457  -3.567  1.00  0.00     0.188 C 
BRANCH  32  33
ATOM     33  C   UNL     1      -1.646  13.655  -2.169  1.00  0.00     0.188 C 
BRANCH  33  34
ATOM     34  O   UNL     1      -1.135  12.474  -1.569  1.00  0.00    -0.376 OA
BRANCH  34  35
ATOM     35  C   UNL     1      -1.825  11.997  -0.425  1.00  0.00     0.202 C 
BRANCH  35  36
ATOM     36  C   UNL     1      -3.154  11.303  -0.742  1.00  0.00     0.261 C 
BRANCH  36  37
ATOM     37  O   UNL     1      -4.127  12.122  -1.408  1.00  0.00    -0.460 OA
BRANCH  37  38
ATOM     38  C   UNL     1      -4.589  13.209  -0.745  1.00  0.00     0.338 C 
ATOM     39  O   UNL     1      -4.294  13.576   0.370  1.00  0.00    -0.246 OA
BRANCH  38  40
ATOM     40  C   UNL     1      -5.389  13.991  -1.715  1.00  0.00     0.060 A 
ATOM     41  C   UNL     1      -6.423  13.379  -2.428  1.00  0.00     0.016 A 
ATOM     42  C   UNL     1      -5.061  15.332  -1.948  1.00  0.00     0.016 A 
ATOM     43  C   UNL     1      -7.151  14.120  -3.358  1.00  0.00     0.010 A 
ATOM     44  C   UNL     1      -5.782  16.070  -2.890  1.00  0.00     0.010 A 
ATOM     45  C   UNL     1      -6.848  15.475  -3.582  1.00  0.00    -0.014 A 
BRANCH  45  46
ATOM     46  C   UNL     1      -7.780  16.310  -4.377  1.00  0.00     0.031 A 
ATOM     47  C   UNL     1      -7.519  16.671  -5.806  1.00  0.00     0.074 A 
ATOM     48  C   UNL     1      -8.893  16.748  -3.759  1.00  0.00     0.049 A 
ATOM     49  N   UNL     1      -8.283  17.341  -6.633  1.00  0.00    -0.248 NA
ATOM     50  C   UNL     1      -6.242  16.232  -6.383  1.00  0.00     0.031 C 
ATOM     51  C   UNL     1      -9.234  16.472  -2.363  1.00  0.00     0.029 A 
ATOM     52  N   UNL     1      -9.938  17.507  -4.217  1.00  0.00    -0.354 N 
ATOM     53  C   UNL     1      -7.595  17.386  -7.837  1.00  0.00     0.074 A 
ATOM     54  C   UNL     1      -6.329  16.714  -7.619  1.00  0.00     0.031 C 
ATOM     55  C   UNL     1     -10.418  17.036  -2.083  1.00  0.00     0.029 A 
ATOM     56  C   UNL     1     -10.905  17.731  -3.269  1.00  0.00     0.049 A 
ATOM     57  H   UNL     1      -9.991  17.857  -5.136  1.00  0.00     0.167 HD
ATOM     58  C   UNL     1      -7.997  17.927  -9.013  1.00  0.00     0.037 A 
ATOM     59  C   UNL     1     -12.061  18.416  -3.346  1.00  0.00     0.037 A 
ATOM     60  C   UNL     1      -9.251  18.613  -9.212  1.00  0.00     0.049 A 
ATOM     61  C   UNL     1     -12.457  19.045  -4.651  1.00  0.00     0.074 A 
ATOM     62  C   UNL     1      -9.755  19.168 -10.378  1.00  0.00     0.029 A 
ATOM     63  N   UNL     1     -10.194  18.852  -8.222  1.00  0.00    -0.354 N 
ATOM     64  N   UNL     1     -11.829  19.024  -5.801  1.00  0.00    -0.248 NA
ATOM     65  C   UNL     1     -13.726  19.783  -4.671  1.00  0.00     0.031 C 
ATOM     66  C   UNL     1     -10.973  19.787 -10.081  1.00  0.00     0.029 A 
ATOM     67  C   UNL     1     -11.262  19.569  -8.745  1.00  0.00     0.049 A 
ATOM     68  H   UNL     1     -10.117  18.557  -7.286  1.00  0.00     0.167 HD
ATOM     69  C   UNL     1     -12.637  19.720  -6.688  1.00  0.00     0.074 A 
ATOM     70  C   UNL     1     -13.809  20.139  -5.946  1.00  0.00     0.031 C 
ATOM     71  C   UNL     1     -12.425  19.984  -8.000  1.00  0.00     0.037 A 
BRANCH  58  72
ATOM     72  C   UNL     1      -7.084  17.795 -10.199  1.00  0.00     0.064 A 
ATOM     73  C   UNL     1      -6.902  16.563 -10.844  1.00  0.00     0.173 A 
ATOM     74  C   UNL     1      -6.470  18.925 -10.761  1.00  0.00     0.173 A 
ATOM     75  F   UNL     1      -7.465  15.451 -10.348  1.00  0.00    -0.203 F 
ATOM     76  C   UNL     1      -6.132  16.465 -12.001  1.00  0.00     0.198 A 
ATOM     77  C   UNL     1      -5.723  18.829 -11.933  1.00  0.00     0.198 A 
ATOM     78  F   UNL     1      -6.622  20.131 -10.192  1.00  0.00    -0.203 F 
ATOM     79  F   UNL     1      -5.955  15.273 -12.588  1.00  0.00    -0.200 F 
ATOM     80  C   UNL     1      -5.553  17.599 -12.550  1.00  0.00     0.200 A 
ATOM     81  F   UNL     1      -5.180  19.929 -12.473  1.00  0.00    -0.200 F 
ATOM     82  F   UNL     1      -4.832  17.507 -13.677  1.00  0.00    -0.200 F 
ENDBRANCH  58  72
BRANCH  59  83
ATOM     83  C   UNL     1     -12.939  18.494  -2.153  1.00  0.00     0.064 A 
ATOM     84  C   UNL     1     -14.154  17.798  -2.112  1.00  0.00     0.173 A 
ATOM     85  C   UNL     1     -12.564  19.226  -1.017  1.00  0.00     0.173 A 
ATOM     86  F   UNL     1     -14.561  17.096  -3.181  1.00  0.00    -0.203 F 
ATOM     87  C   UNL     1     -14.967  17.838  -0.982  1.00  0.00     0.198 A 
ATOM     88  C   UNL     1     -13.364  19.242   0.123  1.00  0.00     0.198 A 
ATOM     89  F   UNL     1     -11.405  19.901  -1.006  1.00  0.00    -0.203 F 
ATOM     90  F   UNL     1     -16.138  17.188  -0.979  1.00  0.00    -0.200 F 
ATOM     91  C   UNL     1     -14.566  18.552   0.138  1.00  0.00     0.200 A 
ATOM     92  F   UNL     1     -12.965  19.918   1.208  1.00  0.00    -0.200 F 
ATOM     93  F   UNL     1     -15.341  18.578   1.231  1.00  0.00    -0.200 F 
ENDBRANCH  59  83
BRANCH  71  94
ATOM     94  C   UNL     1     -13.492  20.746  -8.733  1.00  0.00     0.064 A 
ATOM     95  C   UNL     1     -13.717  22.110  -8.497  1.00  0.00     0.173 A 
ATOM     96  C   UNL     1     -14.266  20.115  -9.720  1.00  0.00     0.173 A 
ATOM     97  F   UNL     1     -13.015  22.757  -7.554  1.00  0.00    -0.203 F 
ATOM     98  C   UNL     1     -14.692  22.809  -9.205  1.00  0.00     0.198 A 
ATOM     99  C   UNL     1     -15.218  20.824 -10.447  1.00  0.00     0.198 A 
ATOM    100  F   UNL     1     -14.088  18.813  -9.990  1.00  0.00    -0.203 F 
ATOM    101  F   UNL     1     -14.919  24.101  -8.931  1.00  0.00    -0.200 F 
ATOM    102  C   UNL     1     -15.435  22.168 -10.185  1.00  0.00     0.200 A 
ATOM    103  F   UNL     1     -15.925  20.207 -11.404  1.00  0.00    -0.200 F 
ATOM    104  F   UNL     1     -16.364  22.845 -10.874  1.00  0.00    -0.200 F 
ENDBRANCH  71  94
ENDBRANCH  45  46
ENDBRANCH  38  40
ENDBRANCH  37  38
ENDBRANCH  36  37
ENDBRANCH  35  36
ENDBRANCH  34  35
ENDBRANCH  33  34
ENDBRANCH  32  33
ENDBRANCH  31  32
ENDBRANCH   1  31
TORSDOF 23
