REMARK SMILES O=C(OCCOCCOCCOCCOC(=O)c1ccc(-n2cc(CSc3nc4ccccc4c(=O)n3-c3ccccc3)nn2)cc1)c1ccc(-c2c3nc(c(-c4c(F)c(F)c(F)c(F)c4F)c4ccc([nH]4)c(-c4c(F)c(F)c(F)c(F)c4F)c4nc(c(-c5c(F)c(F)c(F)c(F)c5F)c5ccc2[nH]5)C=C4)C=C3)cc1
REMARK SMILES IDX 10 1 9 2 8 3 7 4 6 5 5 6 4 7 3 8 2 9 1 10 48 11 49 12 110 13
REMARK SMILES IDX 50 14 109 15 51 16 52 17 53 18 103 19 54 20 108 21 102 22
REMARK SMILES IDX 104 23 55 24 107 25 101 26 100 27 56 29 88 30 68 31 87 32
REMARK SMILES IDX 69 33 72 34 86 35 105 36 70 37 71 38 85 40 106 41 73 42
REMARK SMILES IDX 57 43 58 44 66 45 59 46 60 47 64 48 67 49 61 50 62 51 65 52
REMARK SMILES IDX 63 53 89 54 90 55 98 56 91 57 92 58 96 59 99 60 93 61 94 62
REMARK SMILES IDX 97 63 95 64 74 65 75 66 83 67 76 68 77 69 81 70 84 71 78 72
REMARK SMILES IDX 79 73 82 74 80 75 11 76 12 77 13 78 14 79 15 80 16 81 17 82
REMARK SMILES IDX 18 83 19 84 47 85 20 86 46 87 21 88 22 89 23 90 45 91 24 92
REMARK SMILES IDX 44 93 25 94 26 95 27 96 28 97 37 98 29 99 35 100 30 101
REMARK SMILES IDX 34 102 36 103 31 104 33 105 32 106 38 107 39 108 43 109
REMARK SMILES IDX 40 110 42 111 41 112
REMARK H PARENT 104 28 72 39
REMARK Flexibility Score: inf
ROOT
ATOM      1  C   UNL     1       4.147   2.890   1.788  1.00  0.00     0.188 C 
ENDROOT
BRANCH   1   2
ATOM      2  O   UNL     1       2.833   2.518   2.129  1.00  0.00    -0.377 OA
BRANCH   2   3
ATOM      3  C   UNL     1       2.340   1.404   1.408  1.00  0.00     0.188 C 
BRANCH   3   4
ATOM      4  C   UNL     1       3.068   0.061   1.601  1.00  0.00     0.188 C 
BRANCH   4   5
ATOM      5  O   UNL     1       4.304  -0.354   1.031  1.00  0.00    -0.376 OA
BRANCH   5   6
ATOM      6  C   UNL     1       5.102   0.270   0.053  1.00  0.00     0.202 C 
BRANCH   6   7
ATOM      7  C   UNL     1       4.592   0.576  -1.354  1.00  0.00     0.261 C 
BRANCH   7   8
ATOM      8  O   UNL     1       3.216   0.914  -1.473  1.00  0.00    -0.460 OA
BRANCH   8   9
ATOM      9  C   UNL     1       2.148   0.096  -1.527  1.00  0.00     0.338 C 
ATOM     10  O   UNL     1       1.040   0.592  -1.730  1.00  0.00    -0.246 OA
BRANCH   9  11
ATOM     11  C   UNL     1       2.202  -1.363  -1.253  1.00  0.00     0.060 A 
ATOM     12  C   UNL     1       3.317  -2.186  -1.413  1.00  0.00     0.016 A 
ATOM     13  C   UNL     1       0.974  -1.941  -0.868  1.00  0.00     0.016 A 
ATOM     14  C   UNL     1       3.173  -3.556  -1.382  1.00  0.00     0.010 A 
ATOM     15  C   UNL     1       0.827  -3.312  -0.810  1.00  0.00     0.010 A 
ATOM     16  C   UNL     1       1.909  -4.098  -1.179  1.00  0.00    -0.014 A 
BRANCH  16  17
ATOM     17  C   UNL     1       1.764  -5.504  -1.493  1.00  0.00     0.031 A 
ATOM     18  C   UNL     1       2.542  -6.430  -0.636  1.00  0.00     0.074 A 
ATOM     19  C   UNL     1       1.000  -5.876  -2.537  1.00  0.00     0.049 A 
ATOM     20  N   UNL     1       3.474  -7.255  -0.989  1.00  0.00    -0.248 NA
ATOM     21  C   UNL     1       2.342  -6.331   0.817  1.00  0.00     0.031 C 
ATOM     22  C   UNL     1       0.051  -5.064  -3.308  1.00  0.00     0.029 A 
ATOM     23  N   UNL     1       0.853  -7.109  -3.082  1.00  0.00    -0.354 N 
ATOM     24  C   UNL     1       3.863  -7.909   0.178  1.00  0.00     0.074 A 
ATOM     25  C   UNL     1       3.236  -7.209   1.269  1.00  0.00     0.031 C 
ATOM     26  C   UNL     1      -0.742  -5.878  -4.037  1.00  0.00     0.029 A 
ATOM     27  C   UNL     1      -0.264  -7.239  -3.891  1.00  0.00     0.049 A 
ATOM     28  H   UNL     1       1.484  -7.847  -2.916  1.00  0.00     0.167 HD
ATOM     29  C   UNL     1       4.487  -9.117   0.134  1.00  0.00     0.037 A 
ATOM     30  C   UNL     1      -0.803  -8.408  -4.310  1.00  0.00     0.037 A 
ATOM     31  C   UNL     1       5.160  -9.311  -1.124  1.00  0.00     0.049 A 
ATOM     32  C   UNL     1       0.251  -9.450  -4.189  1.00  0.00     0.074 A 
ATOM     33  C   UNL     1       6.189  -8.661  -1.778  1.00  0.00     0.029 A 
ATOM     34  N   UNL     1       4.568 -10.106  -2.073  1.00  0.00    -0.354 N 
ATOM     35  N   UNL     1       1.325  -9.481  -4.929  1.00  0.00    -0.248 NA
ATOM     36  C   UNL     1       0.341 -10.177  -2.929  1.00  0.00     0.031 C 
ATOM     37  C   UNL     1       5.845  -8.718  -3.160  1.00  0.00     0.029 A 
ATOM     38  C   UNL     1       4.658  -9.441  -3.268  1.00  0.00     0.049 A 
ATOM     39  H   UNL     1       4.157 -10.988  -1.924  1.00  0.00     0.167 HD
ATOM     40  C   UNL     1       2.342  -9.867  -4.067  1.00  0.00     0.074 A 
ATOM     41  C   UNL     1       1.664 -10.354  -2.869  1.00  0.00     0.031 C 
ATOM     42  C   UNL     1       3.636  -9.491  -4.286  1.00  0.00     0.037 A 
BRANCH  29  43
ATOM     43  C   UNL     1       4.153 -10.260   1.066  1.00  0.00     0.064 A 
ATOM     44  C   UNL     1       4.866 -11.470   0.945  1.00  0.00     0.173 A 
ATOM     45  C   UNL     1       2.969 -10.330   1.834  1.00  0.00     0.173 A 
ATOM     46  F   UNL     1       6.008 -11.525   0.244  1.00  0.00    -0.203 F 
ATOM     47  C   UNL     1       4.369 -12.674   1.452  1.00  0.00     0.198 A 
ATOM     48  C   UNL     1       2.501 -11.525   2.378  1.00  0.00     0.198 A 
ATOM     49  F   UNL     1       2.156  -9.282   2.003  1.00  0.00    -0.203 F 
ATOM     50  F   UNL     1       5.010 -13.820   1.188  1.00  0.00    -0.200 F 
ATOM     51  C   UNL     1       3.179 -12.703   2.154  1.00  0.00     0.200 A 
ATOM     52  F   UNL     1       1.340 -11.531   3.048  1.00  0.00    -0.200 F 
ATOM     53  F   UNL     1       2.660 -13.864   2.571  1.00  0.00    -0.200 F 
ENDBRANCH  29  43
BRANCH  30  54
ATOM     54  C   UNL     1      -2.248  -8.716  -4.411  1.00  0.00     0.064 A 
ATOM     55  C   UNL     1      -2.705  -9.821  -5.142  1.00  0.00     0.173 A 
ATOM     56  C   UNL     1      -3.196  -8.074  -3.585  1.00  0.00     0.173 A 
ATOM     57  F   UNL     1      -1.855 -10.518  -5.909  1.00  0.00    -0.203 F 
ATOM     58  C   UNL     1      -4.029 -10.264  -5.045  1.00  0.00     0.198 A 
ATOM     59  C   UNL     1      -4.518  -8.510  -3.498  1.00  0.00     0.198 A 
ATOM     60  F   UNL     1      -2.839  -7.068  -2.774  1.00  0.00    -0.203 F 
ATOM     61  F   UNL     1      -4.418 -11.358  -5.716  1.00  0.00    -0.200 F 
ATOM     62  C   UNL     1      -4.932  -9.613  -4.219  1.00  0.00     0.200 A 
ATOM     63  F   UNL     1      -5.368  -7.892  -2.666  1.00  0.00    -0.200 F 
ATOM     64  F   UNL     1      -6.184 -10.069  -4.086  1.00  0.00    -0.200 F 
ENDBRANCH  30  54
BRANCH  42  65
ATOM     65  C   UNL     1       3.965  -8.842  -5.600  1.00  0.00     0.064 A 
ATOM     66  C   UNL     1       3.458  -7.591  -5.994  1.00  0.00     0.173 A 
ATOM     67  C   UNL     1       4.950  -9.422  -6.408  1.00  0.00     0.173 A 
ATOM     68  F   UNL     1       2.595  -6.923  -5.218  1.00  0.00    -0.203 F 
ATOM     69  C   UNL     1       3.889  -6.973  -7.167  1.00  0.00     0.198 A 
ATOM     70  C   UNL     1       5.405  -8.787  -7.560  1.00  0.00     0.198 A 
ATOM     71  F   UNL     1       5.516 -10.585  -6.046  1.00  0.00    -0.203 F 
ATOM     72  F   UNL     1       3.388  -5.780  -7.522  1.00  0.00    -0.200 F 
ATOM     73  C   UNL     1       4.868  -7.568  -7.944  1.00  0.00     0.200 A 
ATOM     74  F   UNL     1       6.391  -9.340  -8.280  1.00  0.00    -0.200 F 
ATOM     75  F   UNL     1       5.319  -6.952  -9.046  1.00  0.00    -0.200 F 
ENDBRANCH  42  65
ENDBRANCH  16  17
ENDBRANCH   9  11
ENDBRANCH   8   9
ENDBRANCH   7   8
ENDBRANCH   6   7
ENDBRANCH   5   6
ENDBRANCH   4   5
ENDBRANCH   3   4
ENDBRANCH   2   3
ENDBRANCH   1   2
BRANCH   1  76
ATOM     76  C   UNL     1       5.204   2.437   2.815  1.00  0.00     0.188 C 
BRANCH  76  77
ATOM     77  O   UNL     1       4.832   1.681   3.958  1.00  0.00    -0.376 OA
BRANCH  77  78
ATOM     78  C   UNL     1       3.655   2.002   4.683  1.00  0.00     0.202 C 
BRANCH  78  79
ATOM     79  C   UNL     1       3.361   3.444   5.135  1.00  0.00     0.261 C 
BRANCH  79  80
ATOM     80  O   UNL     1       3.615   4.480   4.177  1.00  0.00    -0.460 OA
BRANCH  80  81
ATOM     81  C   UNL     1       4.753   5.206   4.367  1.00  0.00     0.338 C 
ATOM     82  O   UNL     1       5.560   5.092   5.250  1.00  0.00    -0.246 OA
BRANCH  81  83
ATOM     83  C   UNL     1       4.955   6.053   3.163  1.00  0.00     0.060 A 
ATOM     84  C   UNL     1       6.158   5.928   2.449  1.00  0.00     0.018 A 
ATOM     85  C   UNL     1       3.951   6.910   2.711  1.00  0.00     0.018 A 
ATOM     86  C   UNL     1       6.365   6.666   1.282  1.00  0.00     0.029 A 
ATOM     87  C   UNL     1       4.147   7.639   1.536  1.00  0.00     0.029 A 
ATOM     88  C   UNL     1       5.359   7.526   0.833  1.00  0.00     0.066 A 
BRANCH  88  89
ATOM     89  N   UNL     1       5.593   8.391  -0.259  1.00  0.00    -0.220 N 
ATOM     90  C   UNL     1       6.742   9.129  -0.491  1.00  0.00     0.141 A 
ATOM     91  N   UNL     1       4.596   8.846  -1.043  1.00  0.00    -0.062 NA
ATOM     92  C   UNL     1       6.295  10.230  -1.190  1.00  0.00     0.093 A 
ATOM     93  N   UNL     1       5.023   9.943  -1.642  1.00  0.00    -0.134 NA
BRANCH  92  94
ATOM     94  C   UNL     1       6.699  11.652  -1.313  1.00  0.00     0.138 C 
BRANCH  94  95
ATOM     95  S   UNL     1       8.301  12.402  -1.233  1.00  0.00    -0.081 SA
BRANCH  95  96
ATOM     96  C   UNL     1       9.546  11.475  -0.467  1.00  0.00     0.176 A 
ATOM     97  N   UNL     1      10.682  11.651  -1.078  1.00  0.00    -0.223 NA
ATOM     98  N   UNL     1       9.430  10.648   0.641  1.00  0.00    -0.255 N 
ATOM     99  C   UNL     1      11.788  10.899  -0.686  1.00  0.00     0.079 A 
ATOM    100  C   UNL     1      10.268   9.521   0.595  1.00  0.00     0.266 A 
ATOM    101  C   UNL     1      13.072  11.239  -1.109  1.00  0.00     0.029 A 
ATOM    102  C   UNL     1      11.604   9.724   0.022  1.00  0.00     0.066 A 
ATOM    103  O   UNL     1       9.963   8.378   0.936  1.00  0.00    -0.268 OA
ATOM    104  C   UNL     1      14.141  10.366  -0.879  1.00  0.00     0.002 A 
ATOM    105  C   UNL     1      12.647   8.814   0.211  1.00  0.00     0.016 A 
ATOM    106  C   UNL     1      13.921   9.137  -0.252  1.00  0.00     0.001 A 
BRANCH  98 107
ATOM    107  C   UNL     1       8.502  10.770   1.756  1.00  0.00     0.051 A 
ATOM    108  C   UNL     1       8.609   9.896   2.860  1.00  0.00     0.027 A 
ATOM    109  C   UNL     1       7.489  11.728   1.849  1.00  0.00     0.027 A 
ATOM    110  C   UNL     1       7.646   9.841   3.872  1.00  0.00     0.002 A 
ATOM    111  C   UNL     1       6.484  11.645   2.826  1.00  0.00     0.002 A 
ATOM    112  C   UNL     1       6.546  10.679   3.820  1.00  0.00     0.000 A 
ENDBRANCH  98 107
ENDBRANCH  95  96
ENDBRANCH  94  95
ENDBRANCH  92  94
ENDBRANCH  88  89
ENDBRANCH  81  83
ENDBRANCH  80  81
ENDBRANCH  79  80
ENDBRANCH  78  79
ENDBRANCH  77  78
ENDBRANCH  76  77
ENDBRANCH   1  76
TORSDOF 25
