REMARK SMILES Cc1cc(N(C)[C@H](C)C(=O)OCCOCCOCCOCCOC(=O)c2ccc(-c3c4nc(c(-c5c(F)c(F)c(F)c(F)c5F)c5ccc([nH]5)c(-c5c(F)c(F)c(F)c(F)c5F)c5nc(c(-c6c(F)c(F)c(F)c(F)c6F)c6ccc3[nH]6)C=C5)C=C4)cc2)ncc1[N+](=O)[O-]
REMARK SMILES IDX 16 1 15 2 14 3 13 4 12 5 11 6 9 7 10 8 7 9 8 10 5 11 6 12
REMARK SMILES IDX 4 13 1 14 2 15 3 16 91 17 90 18 89 19 92 20 93 21 94 22
REMARK SMILES IDX 17 23 18 24 19 25 20 26 21 27 22 28 23 29 24 30 25 31 26 32
REMARK SMILES IDX 27 33 88 34 28 35 87 36 29 37 30 38 31 39 81 40 32 41 86 42
REMARK SMILES IDX 80 43 82 44 33 45 85 46 79 47 78 48 34 50 66 51 46 52 65 53
REMARK SMILES IDX 47 54 50 55 64 56 83 57 48 58 49 59 63 61 84 62 51 63 35 64
REMARK SMILES IDX 36 65 44 66 37 67 38 68 42 69 45 70 39 71 40 72 43 73 41 74
REMARK SMILES IDX 67 75 68 76 76 77 69 78 70 79 74 80 77 81 71 82 72 83 75 84
REMARK SMILES IDX 73 85 52 86 53 87 61 88 54 89 55 90 59 91 62 92 56 93 57 94
REMARK SMILES IDX 60 95 58 96
REMARK H PARENT 82 49 50 60
REMARK Flexibility Score: inf
ROOT
ATOM      1  C   UNL     1       2.329   2.451  -2.789  1.00  0.00     0.188 C 
ENDROOT
BRANCH   1   2
ATOM      2  C   UNL     1       3.760   2.823  -3.202  1.00  0.00     0.188 C 
BRANCH   2   3
ATOM      3  O   UNL     1       4.575   1.922  -3.933  1.00  0.00    -0.376 OA
BRANCH   3   4
ATOM      4  C   UNL     1       4.639   0.538  -3.633  1.00  0.00     0.202 C 
BRANCH   4   5
ATOM      5  C   UNL     1       4.782  -0.013  -2.204  1.00  0.00     0.261 C 
BRANCH   5   6
ATOM      6  O   UNL     1       3.912   0.533  -1.204  1.00  0.00    -0.462 OA
BRANCH   6   7
ATOM      7  C   UNL     1       4.471   1.483  -0.412  1.00  0.00     0.328 C 
ATOM      8  O   UNL     1       5.641   1.844  -0.514  1.00  0.00    -0.250 OA
BRANCH   7   9
ATOM      9  C   UNL     1       3.526   2.007   0.691  1.00  0.00     0.190 C 
ATOM     10  C   UNL     1       2.003   1.989   0.530  1.00  0.00     0.044 C 
BRANCH   9  11
ATOM     11  N   UNL     1       3.842   1.306   1.946  1.00  0.00    -0.346 N 
ATOM     12  C   UNL     1       3.651  -0.135   1.976  1.00  0.00     0.146 C 
BRANCH  11  13
ATOM     13  C   UNL     1       4.470   2.043   2.920  1.00  0.00     0.129 A 
ATOM     14  C   UNL     1       5.893   1.519   6.361  1.00  0.00     0.052 C 
ATOM     15  C   UNL     1       5.496   2.272   5.126  1.00  0.00     0.032 A 
ATOM     16  C   UNL     1       4.933   1.483   4.101  1.00  0.00     0.057 A 
ATOM     17  C   UNL     1       5.587   3.651   4.902  1.00  0.00     0.290 A 
ATOM     18  C   UNL     1       5.141   4.145   3.688  1.00  0.00     0.199 A 
ATOM     19  N   UNL     1       4.588   3.374   2.728  1.00  0.00    -0.232 NA
BRANCH  17  20
ATOM     20  N   UNL     1       6.091   4.630   5.860  1.00  0.00     0.064 N 
ATOM     21  O   UNL     1       6.407   5.747   5.423  1.00  0.00    -0.258 OA
ATOM     22  O   UNL     1       6.146   4.318   7.054  1.00  0.00    -0.258 OA
ENDBRANCH  17  20
ENDBRANCH  11  13
ENDBRANCH   9  11
ENDBRANCH   7   9
ENDBRANCH   6   7
ENDBRANCH   5   6
ENDBRANCH   4   5
ENDBRANCH   3   4
ENDBRANCH   2   3
ENDBRANCH   1   2
BRANCH   1  23
ATOM     23  O   UNL     1       2.006   1.080  -2.893  1.00  0.00    -0.377 OA
BRANCH  23  24
ATOM     24  C   UNL     1       1.322   0.666  -4.067  1.00  0.00     0.188 C 
BRANCH  24  25
ATOM     25  C   UNL     1       1.635   1.396  -5.389  1.00  0.00     0.188 C 
BRANCH  25  26
ATOM     26  O   UNL     1       1.583   2.812  -5.297  1.00  0.00    -0.376 OA
BRANCH  26  27
ATOM     27  C   UNL     1       0.388   3.485  -5.667  1.00  0.00     0.202 C 
BRANCH  27  28
ATOM     28  C   UNL     1      -0.881   3.221  -4.838  1.00  0.00     0.261 C 
BRANCH  28  29
ATOM     29  O   UNL     1      -1.336   1.859  -4.768  1.00  0.00    -0.460 OA
BRANCH  29  30
ATOM     30  C   UNL     1      -1.603   1.218  -5.922  1.00  0.00     0.338 C 
ATOM     31  O   UNL     1      -1.577   1.684  -7.049  1.00  0.00    -0.246 OA
BRANCH  30  32
ATOM     32  C   UNL     1      -1.738  -0.223  -5.618  1.00  0.00     0.060 A 
ATOM     33  C   UNL     1      -0.873  -1.130  -6.244  1.00  0.00     0.016 A 
ATOM     34  C   UNL     1      -2.710  -0.678  -4.724  1.00  0.00     0.016 A 
ATOM     35  C   UNL     1      -1.003  -2.499  -6.010  1.00  0.00     0.010 A 
ATOM     36  C   UNL     1      -2.857  -2.052  -4.510  1.00  0.00     0.010 A 
ATOM     37  C   UNL     1      -2.028  -2.970  -5.180  1.00  0.00    -0.014 A 
BRANCH  37  38
ATOM     38  C   UNL     1      -2.370  -4.413  -5.188  1.00  0.00     0.031 A 
ATOM     39  C   UNL     1      -3.502  -4.870  -6.068  1.00  0.00     0.074 A 
ATOM     40  C   UNL     1      -1.677  -5.306  -4.460  1.00  0.00     0.049 A 
ATOM     41  N   UNL     1      -4.023  -6.062  -6.207  1.00  0.00    -0.248 NA
ATOM     42  C   UNL     1      -4.133  -3.836  -6.905  1.00  0.00     0.031 C 
ATOM     43  C   UNL     1      -0.529  -4.998  -3.612  1.00  0.00     0.029 A 
ATOM     44  N   UNL     1      -1.851  -6.661  -4.315  1.00  0.00    -0.354 N 
ATOM     45  C   UNL     1      -5.043  -5.919  -7.139  1.00  0.00     0.074 A 
ATOM     46  C   UNL     1      -5.092  -4.522  -7.507  1.00  0.00     0.031 C 
ATOM     47  C   UNL     1      -0.107  -6.131  -3.022  1.00  0.00     0.029 A 
ATOM     48  C   UNL     1      -0.980  -7.235  -3.422  1.00  0.00     0.049 A 
ATOM     49  H   UNL     1      -2.535  -7.172  -4.804  1.00  0.00     0.167 HD
ATOM     50  C   UNL     1      -5.861  -6.871  -7.649  1.00  0.00     0.037 A 
ATOM     51  C   UNL     1      -0.916  -8.501  -2.963  1.00  0.00     0.037 A 
ATOM     52  C   UNL     1      -5.812  -8.260  -7.278  1.00  0.00     0.049 A 
ATOM     53  C   UNL     1      -1.899  -9.524  -3.478  1.00  0.00     0.074 A 
ATOM     54  C   UNL     1      -6.589  -9.305  -7.745  1.00  0.00     0.029 A 
ATOM     55  N   UNL     1      -4.942  -8.796  -6.340  1.00  0.00    -0.354 N 
ATOM     56  N   UNL     1      -2.847  -9.389  -4.375  1.00  0.00    -0.248 NA
ATOM     57  C   UNL     1      -1.801 -10.879  -2.916  1.00  0.00     0.031 C 
ATOM     58  C   UNL     1      -6.233 -10.461  -7.044  1.00  0.00     0.029 A 
ATOM     59  C   UNL     1      -5.186 -10.152  -6.191  1.00  0.00     0.049 A 
ATOM     60  H   UNL     1      -4.254  -8.289  -5.852  1.00  0.00     0.167 HD
ATOM     61  C   UNL     1      -3.431 -10.643  -4.509  1.00  0.00     0.074 A 
ATOM     62  C   UNL     1      -2.721 -11.530  -3.613  1.00  0.00     0.031 C 
ATOM     63  C   UNL     1      -4.463 -11.026  -5.302  1.00  0.00     0.037 A 
BRANCH  50  64
ATOM     64  C   UNL     1      -6.901  -6.435  -8.640  1.00  0.00     0.064 A 
ATOM     65  C   UNL     1      -6.559  -6.011  -9.934  1.00  0.00     0.173 A 
ATOM     66  C   UNL     1      -8.262  -6.475  -8.302  1.00  0.00     0.173 A 
ATOM     67  F   UNL     1      -5.272  -5.938 -10.303  1.00  0.00    -0.203 F 
ATOM     68  C   UNL     1      -7.541  -5.620 -10.841  1.00  0.00     0.198 A 
ATOM     69  C   UNL     1      -9.242  -6.116  -9.223  1.00  0.00     0.198 A 
ATOM     70  F   UNL     1      -8.643  -6.874  -7.079  1.00  0.00    -0.203 F 
ATOM     71  F   UNL     1      -7.188  -5.171 -12.054  1.00  0.00    -0.200 F 
ATOM     72  C   UNL     1      -8.880  -5.681 -10.489  1.00  0.00     0.200 A 
ATOM     73  F   UNL     1     -10.536  -6.189  -8.884  1.00  0.00    -0.200 F 
ATOM     74  F   UNL     1      -9.824  -5.314 -11.367  1.00  0.00    -0.200 F 
ENDBRANCH  50  64
BRANCH  51  75
ATOM     75  C   UNL     1       0.099  -8.878  -1.942  1.00  0.00     0.064 A 
ATOM     76  C   UNL     1       1.120  -9.793  -2.236  1.00  0.00     0.173 A 
ATOM     77  C   UNL     1       0.044  -8.365  -0.637  1.00  0.00     0.173 A 
ATOM     78  F   UNL     1       1.201 -10.334  -3.461  1.00  0.00    -0.203 F 
ATOM     79  C   UNL     1       2.029 -10.198  -1.260  1.00  0.00     0.198 A 
ATOM     80  C   UNL     1       0.973  -8.745   0.329  1.00  0.00     0.198 A 
ATOM     81  F   UNL     1      -0.915  -7.490  -0.298  1.00  0.00    -0.203 F 
ATOM     82  F   UNL     1       2.957 -11.119  -1.554  1.00  0.00    -0.200 F 
ATOM     83  C   UNL     1       1.958  -9.670   0.020  1.00  0.00     0.200 A 
ATOM     84  F   UNL     1       0.909  -8.221   1.560  1.00  0.00    -0.200 F 
ATOM     85  F   UNL     1       2.832 -10.060   0.958  1.00  0.00    -0.200 F 
ENDBRANCH  51  75
BRANCH  63  86
ATOM     86  C   UNL     1      -4.860 -12.476  -5.274  1.00  0.00     0.064 A 
ATOM     87  C   UNL     1      -5.485 -13.053  -4.158  1.00  0.00     0.173 A 
ATOM     88  C   UNL     1      -4.652 -13.289  -6.400  1.00  0.00     0.173 A 
ATOM     89  F   UNL     1      -5.697 -12.325  -3.052  1.00  0.00    -0.203 F 
ATOM     90  C   UNL     1      -5.857 -14.395  -4.159  1.00  0.00     0.198 A 
ATOM     91  C   UNL     1      -5.059 -14.620  -6.411  1.00  0.00     0.198 A 
ATOM     92  F   UNL     1      -4.068 -12.787  -7.499  1.00  0.00    -0.203 F 
ATOM     93  F   UNL     1      -6.402 -14.938  -3.062  1.00  0.00    -0.200 F 
ATOM     94  C   UNL     1      -5.652 -15.175  -5.288  1.00  0.00     0.200 A 
ATOM     95  F   UNL     1      -4.877 -15.366  -7.510  1.00  0.00    -0.200 F 
ATOM     96  F   UNL     1      -6.020 -16.463  -5.290  1.00  0.00    -0.200 F 
ENDBRANCH  63  86
ENDBRANCH  37  38
ENDBRANCH  30  32
ENDBRANCH  29  30
ENDBRANCH  28  29
ENDBRANCH  27  28
ENDBRANCH  26  27
ENDBRANCH  25  26
ENDBRANCH  24  25
ENDBRANCH  23  24
ENDBRANCH   1  23
TORSDOF 23
