REMARK SMILES CC(=O)Oc1ccc(Br)cc1C(=O)NCC(=O)OCCOCCOCCOCCOC(=O)c1ccc(-c2c3nc(c(-c4c(F)c(F)c(F)c(F)c4F)c4ccc([nH]4)c(-c4c(F)c(F)c(F)c(F)c4F)c4nc(c(-c5c(F)c(F)c(F)c(F)c5F)c5ccc2[nH]5)C=C4)C=C3)cc1
REMARK SMILES IDX 23 1 22 2 21 3 20 4 19 5 18 6 16 7 17 8 15 9 14 10 12 11
REMARK SMILES IDX 13 12 11 14 5 15 6 16 7 17 10 18 8 19 9 20 4 21 2 22 1 23
REMARK SMILES IDX 3 24 24 25 25 26 26 27 27 28 28 29 29 30 30 31 31 32 32 33
REMARK SMILES IDX 33 34 34 35 95 36 35 37 94 38 36 39 37 40 38 41 88 42 39 43
REMARK SMILES IDX 93 44 87 45 89 46 40 47 92 48 86 49 85 50 41 52 73 53 53 54
REMARK SMILES IDX 72 55 54 56 57 57 71 58 90 59 55 60 56 61 70 63 91 64 58 65
REMARK SMILES IDX 42 66 43 67 51 68 44 69 45 70 49 71 52 72 46 73 47 74 50 75
REMARK SMILES IDX 48 76 74 77 75 78 83 79 76 80 77 81 81 82 84 83 78 84 79 85
REMARK SMILES IDX 82 86 80 87 59 88 60 89 68 90 61 91 62 92 66 93 69 94 63 95
REMARK SMILES IDX 64 96 67 97 65 98
REMARK H PARENT 14 13 89 51 57 62
REMARK Flexibility Score: inf
ROOT
ATOM      1  C   UNL     1       5.451  -1.120  -1.181  1.00  0.00     0.188 C 
ENDROOT
BRANCH   1   2
ATOM      2  C   UNL     1       5.170   0.269  -0.586  1.00  0.00     0.188 C 
BRANCH   2   3
ATOM      3  O   UNL     1       4.927   0.422   0.800  1.00  0.00    -0.376 OA
BRANCH   3   4
ATOM      4  C   UNL     1       4.101  -0.454   1.543  1.00  0.00     0.202 C 
BRANCH   4   5
ATOM      5  C   UNL     1       2.867  -1.195   0.997  1.00  0.00     0.261 C 
BRANCH   5   6
ATOM      6  O   UNL     1       2.754  -1.457  -0.404  1.00  0.00    -0.462 OA
BRANCH   6   7
ATOM      7  C   UNL     1       2.228  -0.504  -1.212  1.00  0.00     0.325 C 
ATOM      8  O   UNL     1       1.863   0.603  -0.836  1.00  0.00    -0.250 OA
BRANCH   7   9
ATOM      9  C   UNL     1       2.166  -0.960  -2.679  1.00  0.00     0.239 C 
BRANCH   9  10
ATOM     10  N   UNL     1       2.640  -2.313  -2.923  1.00  0.00    -0.341 N 
ATOM     11  C   UNL     1       2.076  -3.548  -2.884  1.00  0.00     0.255 C 
ATOM     12  O   UNL     1       2.853  -4.484  -3.100  1.00  0.00    -0.269 OA
ATOM     13  H   UNL     1       3.591  -2.341  -3.175  1.00  0.00     0.164 HD
BRANCH  11  14
ATOM     14  C   UNL     1       0.630  -3.851  -2.704  1.00  0.00     0.083 A 
ATOM     15  C   UNL     1      -0.357  -3.133  -2.017  1.00  0.00     0.143 A 
ATOM     16  C   UNL     1      -1.692  -3.579  -2.017  1.00  0.00     0.049 A 
ATOM     17  C   UNL     1      -2.047  -4.775  -2.633  1.00  0.00     0.019 A 
ATOM     18  C   UNL     1       0.245  -5.070  -3.312  1.00  0.00     0.033 A 
ATOM     19  C   UNL     1      -1.071  -5.524  -3.270  1.00  0.00     0.019 A 
ATOM     20  Br  UNL     1      -1.531  -7.159  -4.097  1.00  0.00    -0.051 Br
BRANCH  15  21
ATOM     21  O   UNL     1      -0.131  -1.899  -1.388  1.00  0.00    -0.426 OA
BRANCH  21  22
ATOM     22  C   UNL     1      -0.547  -1.771  -0.060  1.00  0.00     0.308 C 
ATOM     23  C   UNL     1      -0.715  -0.317   0.291  1.00  0.00     0.139 C 
ATOM     24  O   UNL     1      -0.755  -2.692   0.717  1.00  0.00    -0.252 OA
ENDBRANCH  21  22
ENDBRANCH  15  21
ENDBRANCH  11  14
ENDBRANCH   9  10
ENDBRANCH   7   9
ENDBRANCH   6   7
ENDBRANCH   5   6
ENDBRANCH   4   5
ENDBRANCH   3   4
ENDBRANCH   2   3
ENDBRANCH   1   2
BRANCH   1  25
ATOM     25  O   UNL     1       5.318  -2.187  -0.264  1.00  0.00    -0.377 OA
BRANCH  25  26
ATOM     26  C   UNL     1       6.496  -2.598   0.413  1.00  0.00     0.188 C 
BRANCH  26  27
ATOM     27  C   UNL     1       7.534  -1.520   0.785  1.00  0.00     0.188 C 
BRANCH  27  28
ATOM     28  O   UNL     1       7.856  -0.623  -0.268  1.00  0.00    -0.376 OA
BRANCH  28  29
ATOM     29  C   UNL     1       8.972  -0.861  -1.109  1.00  0.00     0.202 C 
BRANCH  29  30
ATOM     30  C   UNL     1       9.015  -2.148  -1.952  1.00  0.00     0.261 C 
BRANCH  30  31
ATOM     31  O   UNL     1       8.885  -3.385  -1.239  1.00  0.00    -0.460 OA
BRANCH  31  32
ATOM     32  C   UNL     1       9.779  -3.644  -0.265  1.00  0.00     0.338 C 
ATOM     33  O   UNL     1      10.750  -2.973   0.044  1.00  0.00    -0.246 OA
BRANCH  32  34
ATOM     34  C   UNL     1       9.264  -4.783   0.521  1.00  0.00     0.060 A 
ATOM     35  C   UNL     1       9.051  -4.611   1.895  1.00  0.00     0.016 A 
ATOM     36  C   UNL     1       8.984  -6.006  -0.092  1.00  0.00     0.016 A 
ATOM     37  C   UNL     1       8.599  -5.676   2.670  1.00  0.00     0.010 A 
ATOM     38  C   UNL     1       8.560  -7.083   0.690  1.00  0.00     0.010 A 
ATOM     39  C   UNL     1       8.408  -6.930   2.080  1.00  0.00    -0.014 A 
BRANCH  39  40
ATOM     40  C   UNL     1       8.285  -8.123   2.949  1.00  0.00     0.031 A 
ATOM     41  C   UNL     1       9.529  -8.919   3.231  1.00  0.00     0.074 A 
ATOM     42  C   UNL     1       7.114  -8.469   3.508  1.00  0.00     0.049 A 
ATOM     43  N   UNL     1       9.678 -10.020   3.922  1.00  0.00    -0.248 NA
ATOM     44  C   UNL     1      10.779  -8.400   2.650  1.00  0.00     0.031 C 
ATOM     45  C   UNL     1       5.856  -7.744   3.353  1.00  0.00     0.029 A 
ATOM     46  N   UNL     1       6.797  -9.530   4.319  1.00  0.00    -0.354 N 
ATOM     47  C   UNL     1      11.031 -10.326   3.851  1.00  0.00     0.074 A 
ATOM     48  C   UNL     1      11.655  -9.318   3.025  1.00  0.00     0.031 C 
ATOM     49  C   UNL     1       4.895  -8.391   4.036  1.00  0.00     0.029 A 
ATOM     50  C   UNL     1       5.465  -9.593   4.644  1.00  0.00     0.049 A 
ATOM     51  H   UNL     1       7.461 -10.183   4.636  1.00  0.00     0.167 HD
ATOM     52  C   UNL     1      11.693 -11.354   4.430  1.00  0.00     0.037 A 
ATOM     53  C   UNL     1       4.785 -10.532   5.331  1.00  0.00     0.037 A 
ATOM     54  C   UNL     1      11.064 -12.357   5.247  1.00  0.00     0.049 A 
ATOM     55  C   UNL     1       5.532 -11.718   5.892  1.00  0.00     0.074 A 
ATOM     56  C   UNL     1      11.646 -13.434   5.892  1.00  0.00     0.029 A 
ATOM     57  N   UNL     1       9.705 -12.412   5.521  1.00  0.00    -0.354 N 
ATOM     58  N   UNL     1       6.814 -11.993   5.843  1.00  0.00    -0.248 NA
ATOM     59  C   UNL     1       4.734 -12.723   6.608  1.00  0.00     0.031 C 
ATOM     60  C   UNL     1      10.630 -14.178   6.501  1.00  0.00     0.029 A 
ATOM     61  C   UNL     1       9.425 -13.524   6.299  1.00  0.00     0.049 A 
ATOM     62  H   UNL     1       9.039 -11.758   5.209  1.00  0.00     0.167 HD
ATOM     63  C   UNL     1       6.980 -13.180   6.546  1.00  0.00     0.074 A 
ATOM     64  C   UNL     1       5.669 -13.565   7.026  1.00  0.00     0.031 C 
ATOM     65  C   UNL     1       8.114 -13.888   6.776  1.00  0.00     0.037 A 
BRANCH  52  66
ATOM     66  C   UNL     1      13.167 -11.466   4.168  1.00  0.00     0.064 A 
ATOM     67  C   UNL     1      14.087 -10.544   4.693  1.00  0.00     0.173 A 
ATOM     68  C   UNL     1      13.670 -12.526   3.398  1.00  0.00     0.173 A 
ATOM     69  F   UNL     1      13.658  -9.502   5.420  1.00  0.00    -0.203 F 
ATOM     70  C   UNL     1      15.450 -10.665   4.433  1.00  0.00     0.198 A 
ATOM     71  C   UNL     1      15.036 -12.663   3.170  1.00  0.00     0.198 A 
ATOM     72  F   UNL     1      12.836 -13.435   2.873  1.00  0.00    -0.203 F 
ATOM     73  F   UNL     1      16.303  -9.742   4.899  1.00  0.00    -0.200 F 
ATOM     74  C   UNL     1      15.924 -11.728   3.679  1.00  0.00     0.200 A 
ATOM     75  F   UNL     1      15.493 -13.699   2.453  1.00  0.00    -0.200 F 
ATOM     76  F   UNL     1      17.237 -11.848   3.438  1.00  0.00    -0.200 F 
ENDBRANCH  52  66
BRANCH  53  77
ATOM     77  C   UNL     1       3.314 -10.406   5.512  1.00  0.00     0.064 A 
ATOM     78  C   UNL     1       2.754 -10.211   6.782  1.00  0.00     0.173 A 
ATOM     79  C   UNL     1       2.436 -10.511   4.423  1.00  0.00     0.173 A 
ATOM     80  F   UNL     1       3.549 -10.133   7.860  1.00  0.00    -0.203 F 
ATOM     81  C   UNL     1       1.373 -10.148   6.958  1.00  0.00     0.198 A 
ATOM     82  C   UNL     1       1.057 -10.414   4.596  1.00  0.00     0.198 A 
ATOM     83  F   UNL     1       2.919 -10.705   3.186  1.00  0.00    -0.203 F 
ATOM     84  F   UNL     1       0.863 -10.019   8.191  1.00  0.00    -0.200 F 
ATOM     85  C   UNL     1       0.526 -10.243   5.864  1.00  0.00     0.200 A 
ATOM     86  F   UNL     1       0.243 -10.497   3.534  1.00  0.00    -0.200 F 
ATOM     87  F   UNL     1      -0.802 -10.183   6.035  1.00  0.00    -0.200 F 
ENDBRANCH  53  77
BRANCH  65  88
ATOM     88  C   UNL     1       8.000 -15.127   7.621  1.00  0.00     0.064 A 
ATOM     89  C   UNL     1       7.353 -16.282   7.160  1.00  0.00     0.173 A 
ATOM     90  C   UNL     1       8.588 -15.170   8.895  1.00  0.00     0.173 A 
ATOM     91  F   UNL     1       6.764 -16.292   5.954  1.00  0.00    -0.203 F 
ATOM     92  C   UNL     1       7.271 -17.423   7.955  1.00  0.00     0.198 A 
ATOM     93  C   UNL     1       8.537 -16.324   9.672  1.00  0.00     0.198 A 
ATOM     94  F   UNL     1       9.230 -14.097   9.382  1.00  0.00    -0.203 F 
ATOM     95  F   UNL     1       6.599 -18.497   7.516  1.00  0.00    -0.200 F 
ATOM     96  C   UNL     1       7.870 -17.446   9.206  1.00  0.00     0.200 A 
ATOM     97  F   UNL     1       9.134 -16.350  10.871  1.00  0.00    -0.200 F 
ATOM     98  F   UNL     1       7.799 -18.548   9.965  1.00  0.00    -0.200 F 
ENDBRANCH  65  88
ENDBRANCH  39  40
ENDBRANCH  32  34
ENDBRANCH  31  32
ENDBRANCH  30  31
ENDBRANCH  29  30
ENDBRANCH  28  29
ENDBRANCH  27  28
ENDBRANCH  26  27
ENDBRANCH  25  26
ENDBRANCH   1  25
TORSDOF 24
