REMARK SMILES COc1ccc(CCn2cc(C(=O)OCCOCCOCCOCCOC(=O)c3ccc(-c4c5nc(c(-c6c(F)c(F)c(F)c(F)c6F)c6ccc([nH]6)c(-c6c(F)c(F)c(F)c(F)c6F)c6nc(c(-c7c(F)c(F)c(F)c(F)c7F)c7ccc4[nH]7)C=C6)C=C5)cc3)ccc2=O)cc1OC
REMARK SMILES IDX 19 1 18 2 17 3 16 4 15 5 14 6 12 7 13 8 11 9 9 10 10 11
REMARK SMILES IDX 94 12 93 13 95 14 92 15 8 16 7 17 6 18 3 19 4 20 97 21 5 22
REMARK SMILES IDX 96 23 2 24 1 25 98 26 99 27 20 28 21 29 22 30 23 31 24 32
REMARK SMILES IDX 25 33 26 34 27 35 28 36 29 37 30 38 91 39 31 40 90 41 32 42
REMARK SMILES IDX 33 43 34 44 84 45 35 46 89 47 83 48 85 49 36 50 88 51 82 52
REMARK SMILES IDX 81 53 37 55 69 56 49 57 68 58 50 59 53 60 67 61 86 62 51 63
REMARK SMILES IDX 52 64 66 66 87 67 54 68 38 69 39 70 47 71 40 72 41 73 45 74
REMARK SMILES IDX 48 75 42 76 43 77 46 78 44 79 70 80 71 81 79 82 72 83 73 84
REMARK SMILES IDX 77 85 80 86 74 87 75 88 78 89 76 90 55 91 56 92 64 93 57 94
REMARK SMILES IDX 58 95 62 96 65 97 59 98 60 99 63 100 61 101
REMARK H PARENT 85 54 53 65
REMARK Flexibility Score: inf
ROOT
ATOM      1  C   UNL     1      -3.137  -5.716   8.551  1.00  0.00     0.188 C 
ENDROOT
BRANCH   1   2
ATOM      2  C   UNL     1      -4.419  -5.531   7.712  1.00  0.00     0.188 C 
BRANCH   2   3
ATOM      3  O   UNL     1      -5.078  -6.753   7.423  1.00  0.00    -0.376 OA
BRANCH   3   4
ATOM      4  C   UNL     1      -4.933  -7.380   6.163  1.00  0.00     0.202 C 
BRANCH   4   5
ATOM      5  C   UNL     1      -3.556  -7.617   5.521  1.00  0.00     0.261 C 
BRANCH   5   6
ATOM      6  O   UNL     1      -2.560  -6.625   5.758  1.00  0.00    -0.460 OA
BRANCH   6   7
ATOM      7  C   UNL     1      -2.687  -5.456   5.097  1.00  0.00     0.339 C 
ATOM      8  O   UNL     1      -3.524  -5.186   4.252  1.00  0.00    -0.246 OA
BRANCH   7   9
ATOM      9  C   UNL     1      -1.749  -4.470   5.690  1.00  0.00     0.076 A 
ATOM     10  N   UNL     1       0.483  -3.879   6.234  1.00  0.00    -0.314 N 
ATOM     11  C   UNL     1      -0.469  -4.824   5.878  1.00  0.00     0.104 A 
ATOM     12  C   UNL     1       0.141  -2.587   6.643  1.00  0.00     0.250 A 
ATOM     13  C   UNL     1      -1.304  -2.241   6.530  1.00  0.00     0.072 A 
ATOM     14  O   UNL     1       0.930  -1.734   7.035  1.00  0.00    -0.269 OA
ATOM     15  C   UNL     1      -2.174  -3.127   6.026  1.00  0.00     0.023 A 
BRANCH  10  16
ATOM     16  C   UNL     1       1.886  -4.175   5.930  1.00  0.00     0.130 C 
BRANCH  16  17
ATOM     17  C   UNL     1       2.111  -4.490   4.427  1.00  0.00     0.057 C 
BRANCH  17  18
ATOM     18  C   UNL     1       1.774  -3.365   3.467  1.00  0.00    -0.042 A 
ATOM     19  C   UNL     1       1.206  -1.152   1.808  1.00  0.00     0.160 A 
ATOM     20  C   UNL     1       0.170  -1.843   2.432  1.00  0.00     0.051 A 
ATOM     21  C   UNL     1       2.525  -1.598   1.958  1.00  0.00     0.160 A 
ATOM     22  C   UNL     1       0.455  -2.965   3.212  1.00  0.00     0.008 A 
ATOM     23  C   UNL     1       2.798  -2.683   2.804  1.00  0.00     0.054 A 
BRANCH  19  24
ATOM     24  O   UNL     1       0.937   0.027   1.167  1.00  0.00    -0.493 OA
ATOM     25  C   UNL     1       0.085  -0.128   0.034  1.00  0.00     0.278 C 
ENDBRANCH  19  24
BRANCH  21  26
ATOM     26  O   UNL     1       3.646  -1.065   1.378  1.00  0.00    -0.493 OA
ATOM     27  C   UNL     1       3.453  -0.419   0.126  1.00  0.00     0.278 C 
ENDBRANCH  21  26
ENDBRANCH  17  18
ENDBRANCH  16  17
ENDBRANCH  10  16
ENDBRANCH   7   9
ENDBRANCH   6   7
ENDBRANCH   5   6
ENDBRANCH   4   5
ENDBRANCH   3   4
ENDBRANCH   2   3
ENDBRANCH   1   2
BRANCH   1  28
ATOM     28  O   UNL     1      -2.612  -7.033   8.571  1.00  0.00    -0.377 OA
BRANCH  28  29
ATOM     29  C   UNL     1      -3.346  -8.060   9.238  1.00  0.00     0.188 C 
BRANCH  29  30
ATOM     30  C   UNL     1      -4.719  -7.816   9.918  1.00  0.00     0.188 C 
BRANCH  30  31
ATOM     31  O   UNL     1      -4.968  -6.477  10.311  1.00  0.00    -0.376 OA
BRANCH  31  32
ATOM     32  C   UNL     1      -4.910  -6.148  11.686  1.00  0.00     0.202 C 
BRANCH  32  33
ATOM     33  C   UNL     1      -3.542  -6.276  12.369  1.00  0.00     0.261 C 
BRANCH  33  34
ATOM     34  O   UNL     1      -2.893  -7.548  12.236  1.00  0.00    -0.460 OA
BRANCH  34  35
ATOM     35  C   UNL     1      -3.491  -8.611  12.813  1.00  0.00     0.338 C 
ATOM     36  O   UNL     1      -4.530  -8.619  13.454  1.00  0.00    -0.246 OA
BRANCH  35  37
ATOM     37  C   UNL     1      -2.766  -9.820  12.378  1.00  0.00     0.060 A 
ATOM     38  C   UNL     1      -3.450 -10.806  11.653  1.00  0.00     0.016 A 
ATOM     39  C   UNL     1      -1.409  -9.969  12.673  1.00  0.00     0.016 A 
ATOM     40  C   UNL     1      -2.784 -11.964  11.252  1.00  0.00     0.010 A 
ATOM     41  C   UNL     1      -0.750 -11.138  12.290  1.00  0.00     0.010 A 
ATOM     42  C   UNL     1      -1.443 -12.155  11.609  1.00  0.00    -0.014 A 
BRANCH  42  43
ATOM     43  C   UNL     1      -0.822 -13.492  11.458  1.00  0.00     0.031 A 
ATOM     44  C   UNL     1      -0.761 -14.387  12.664  1.00  0.00     0.074 A 
ATOM     45  C   UNL     1      -0.329 -13.909  10.280  1.00  0.00     0.049 A 
ATOM     46  N   UNL     1      -0.212 -15.566  12.803  1.00  0.00    -0.248 NA
ATOM     47  C   UNL     1      -1.406 -13.875  13.884  1.00  0.00     0.031 C 
ATOM     48  C   UNL     1      -0.367 -13.152   9.032  1.00  0.00     0.029 A 
ATOM     49  N   UNL     1       0.314 -15.076   9.949  1.00  0.00    -0.354 N 
ATOM     50  C   UNL     1      -0.435 -15.930  14.125  1.00  0.00     0.074 A 
ATOM     51  C   UNL     1      -1.137 -14.835  14.755  1.00  0.00     0.031 C 
ATOM     52  C   UNL     1       0.242 -13.868   8.071  1.00  0.00     0.029 A 
ATOM     53  C   UNL     1       0.744 -15.116   8.646  1.00  0.00     0.049 A 
ATOM     54  H   UNL     1       0.453 -15.814  10.586  1.00  0.00     0.167 HD
ATOM     55  C   UNL     1      -0.090 -17.079  14.753  1.00  0.00     0.037 A 
ATOM     56  C   UNL     1       1.482 -16.043   8.004  1.00  0.00     0.037 A 
ATOM     57  C   UNL     1       0.616 -18.162  14.122  1.00  0.00     0.049 A 
ATOM     58  C   UNL     1       1.925 -17.279   8.746  1.00  0.00     0.074 A 
ATOM     59  C   UNL     1       0.997 -19.376  14.664  1.00  0.00     0.029 A 
ATOM     60  N   UNL     1       1.062 -18.153  12.808  1.00  0.00    -0.354 N 
ATOM     61  N   UNL     1       1.689 -17.633   9.987  1.00  0.00    -0.248 NA
ATOM     62  C   UNL     1       2.737 -18.248   7.995  1.00  0.00     0.031 C 
ATOM     63  C   UNL     1       1.731 -20.074  13.700  1.00  0.00     0.029 A 
ATOM     64  C   UNL     1       1.743 -19.328  12.532  1.00  0.00     0.049 A 
ATOM     65  H   UNL     1       0.916 -17.421  12.166  1.00  0.00     0.167 HD
ATOM     66  C   UNL     1       2.289 -18.875  10.155  1.00  0.00     0.074 A 
ATOM     67  C   UNL     1       2.893 -19.219   8.884  1.00  0.00     0.031 C 
ATOM     68  C   UNL     1       2.333 -19.662  11.259  1.00  0.00     0.037 A 
BRANCH  55  69
ATOM     69  C   UNL     1      -0.439 -17.201  16.209  1.00  0.00     0.064 A 
ATOM     70  C   UNL     1      -1.767 -17.308  16.649  1.00  0.00     0.173 A 
ATOM     71  C   UNL     1       0.575 -17.224  17.180  1.00  0.00     0.173 A 
ATOM     72  F   UNL     1      -2.776 -17.276  15.765  1.00  0.00    -0.203 F 
ATOM     73  C   UNL     1      -2.068 -17.398  18.006  1.00  0.00     0.198 A 
ATOM     74  C   UNL     1       0.272 -17.351  18.532  1.00  0.00     0.198 A 
ATOM     75  F   UNL     1       1.863 -17.128  16.816  1.00  0.00    -0.203 F 
ATOM     76  F   UNL     1      -3.347 -17.437  18.405  1.00  0.00    -0.200 F 
ATOM     77  C   UNL     1      -1.049 -17.426  18.946  1.00  0.00     0.200 A 
ATOM     78  F   UNL     1       1.260 -17.393  19.437  1.00  0.00    -0.200 F 
ATOM     79  F   UNL     1      -1.340 -17.517  20.250  1.00  0.00    -0.200 F 
ENDBRANCH  55  69
BRANCH  56  80
ATOM     80  C   UNL     1       1.860 -15.834   6.581  1.00  0.00     0.064 A 
ATOM     81  C   UNL     1       1.350 -16.656   5.567  1.00  0.00     0.173 A 
ATOM     82  C   UNL     1       2.750 -14.816   6.206  1.00  0.00     0.173 A 
ATOM     83  F   UNL     1       0.516 -17.660   5.876  1.00  0.00    -0.203 F 
ATOM     84  C   UNL     1       1.727 -16.480   4.237  1.00  0.00     0.198 A 
ATOM     85  C   UNL     1       3.102 -14.620   4.872  1.00  0.00     0.198 A 
ATOM     86  F   UNL     1       3.271 -14.002   7.137  1.00  0.00    -0.203 F 
ATOM     87  F   UNL     1       1.260 -17.310   3.295  1.00  0.00    -0.200 F 
ATOM     88  C   UNL     1       2.596 -15.457   3.890  1.00  0.00     0.200 A 
ATOM     89  F   UNL     1       3.931 -13.620   4.540  1.00  0.00    -0.200 F 
ATOM     90  F   UNL     1       2.952 -15.282   2.610  1.00  0.00    -0.200 F 
ENDBRANCH  56  80
BRANCH  68  91
ATOM     91  C   UNL     1       3.013 -20.997  11.136  1.00  0.00     0.064 A 
ATOM     92  C   UNL     1       4.403 -21.113  10.987  1.00  0.00     0.173 A 
ATOM     93  C   UNL     1       2.264 -22.182  11.219  1.00  0.00     0.173 A 
ATOM     94  F   UNL     1       5.166 -20.014  10.891  1.00  0.00    -0.203 F 
ATOM     95  C   UNL     1       5.013 -22.363  10.896  1.00  0.00     0.198 A 
ATOM     96  C   UNL     1       2.880 -23.429  11.164  1.00  0.00     0.198 A 
ATOM     97  F   UNL     1       0.932 -22.131  11.371  1.00  0.00    -0.203 F 
ATOM     98  F   UNL     1       6.336 -22.448  10.701  1.00  0.00    -0.200 F 
ATOM     99  C   UNL     1       4.253 -23.518  10.994  1.00  0.00     0.200 A 
ATOM    100  F   UNL     1       2.145 -24.544  11.278  1.00  0.00    -0.200 F 
ATOM    101  F   UNL     1       4.842 -24.719  10.917  1.00  0.00    -0.200 F 
ENDBRANCH  68  91
ENDBRANCH  42  43
ENDBRANCH  35  37
ENDBRANCH  34  35
ENDBRANCH  33  34
ENDBRANCH  32  33
ENDBRANCH  31  32
ENDBRANCH  30  31
ENDBRANCH  29  30
ENDBRANCH  28  29
ENDBRANCH   1  28
TORSDOF 25
