REMARK SMILES COc1cc(OC)cc(-n2nnc(C(=O)OCCOCCOCCOCCOC(=O)c3ccc(-c4c5nc(c(-c6c(F)c(F)c(F)c(F)c6F)c6ccc([nH]6)c(-c6c(F)c(F)c(F)c(F)c6F)c6nc(c(-c7c(F)c(F)c(F)c(F)c7F)c7ccc4[nH]7)C=C6)C=C5)cc3)c2C)c1
REMARK SMILES IDX 22 1 21 2 20 3 19 4 18 5 17 6 16 7 14 8 15 9 13 10 10 11
REMARK SMILES IDX 11 12 94 13 12 14 95 15 9 16 3 17 4 18 96 19 5 20 8 21 2 22
REMARK SMILES IDX 1 23 6 24 7 25 23 26 24 27 25 28 26 29 27 30 28 31 29 32
REMARK SMILES IDX 30 33 31 34 32 35 93 36 33 37 92 38 34 39 35 40 36 41 86 42
REMARK SMILES IDX 37 43 91 44 85 45 87 46 38 47 90 48 84 49 83 50 39 52 71 53
REMARK SMILES IDX 51 54 70 55 52 56 55 57 69 58 88 59 53 60 54 61 68 63 89 64
REMARK SMILES IDX 56 65 40 66 41 67 49 68 42 69 43 70 47 71 50 72 44 73 45 74
REMARK SMILES IDX 48 75 46 76 72 77 73 78 81 79 74 80 75 81 79 82 82 83 76 84
REMARK SMILES IDX 77 85 80 86 78 87 57 88 58 89 66 90 59 91 60 92 64 93 67 94
REMARK SMILES IDX 61 95 62 96 65 97 63 98
REMARK H PARENT 87 51 55 62
REMARK Flexibility Score: inf
ROOT
ATOM      1  O   UNL     1       7.346   3.066  -5.312  1.00  0.00    -0.377 OA
ENDROOT
BRANCH   1   2
ATOM      2  C   UNL     1       7.581   4.081  -4.353  1.00  0.00     0.188 C 
BRANCH   2   3
ATOM      3  C   UNL     1       8.793   3.977  -3.400  1.00  0.00     0.188 C 
BRANCH   3   4
ATOM      4  O   UNL     1       9.867   3.152  -3.790  1.00  0.00    -0.376 OA
BRANCH   4   5
ATOM      5  C   UNL     1      10.004   1.785  -3.485  1.00  0.00     0.202 C 
BRANCH   5   6
ATOM      6  C   UNL     1       8.934   0.883  -2.862  1.00  0.00     0.261 C 
BRANCH   6   7
ATOM      7  O   UNL     1       7.653   1.451  -2.653  1.00  0.00    -0.458 OA
BRANCH   7   8
ATOM      8  C   UNL     1       7.423   2.003  -1.428  1.00  0.00     0.360 C 
ATOM      9  O   UNL     1       8.229   2.007  -0.502  1.00  0.00    -0.244 OA
BRANCH   8  10
ATOM     10  C   UNL     1       6.147   2.694  -1.408  1.00  0.00     0.193 A 
ATOM     11  N   UNL     1       4.096   3.321  -1.739  1.00  0.00    -0.217 N 
ATOM     12  N   UNL     1       4.708   4.309  -1.054  1.00  0.00    -0.061 NA
ATOM     13  C   UNL     1       5.013   2.371  -2.131  1.00  0.00     0.076 A 
ATOM     14  N   UNL     1       5.934   3.886  -0.758  1.00  0.00    -0.122 NA
ATOM     15  C   UNL     1       4.758   1.319  -3.147  1.00  0.00     0.069 C 
BRANCH  11  16
ATOM     16  C   UNL     1       2.700   3.204  -1.785  1.00  0.00     0.074 A 
ATOM     17  C   UNL     1       0.784   1.778  -1.458  1.00  0.00     0.124 A 
ATOM     18  C   UNL     1      -0.004   2.759  -2.060  1.00  0.00     0.093 A 
ATOM     19  C   UNL     1       2.147   1.993  -1.347  1.00  0.00     0.075 A 
ATOM     20  C   UNL     1       0.549   3.976  -2.492  1.00  0.00     0.124 A 
ATOM     21  C   UNL     1       1.909   4.228  -2.307  1.00  0.00     0.075 A 
BRANCH  17  22
ATOM     22  O   UNL     1       0.154   0.627  -1.077  1.00  0.00    -0.497 OA
ATOM     23  C   UNL     1       0.750  -0.062   0.022  1.00  0.00     0.278 C 
ENDBRANCH  17  22
BRANCH  20  24
ATOM     24  O   UNL     1      -0.345   4.823  -3.088  1.00  0.00    -0.497 OA
ATOM     25  C   UNL     1       0.201   5.865  -3.889  1.00  0.00     0.278 C 
ENDBRANCH  20  24
ENDBRANCH  11  16
ENDBRANCH   8  10
ENDBRANCH   7   8
ENDBRANCH   6   7
ENDBRANCH   5   6
ENDBRANCH   4   5
ENDBRANCH   3   4
ENDBRANCH   2   3
ENDBRANCH   1   2
BRANCH   1  26
ATOM     26  C   UNL     1       8.348   2.733  -6.268  1.00  0.00     0.188 C 
BRANCH  26  27
ATOM     27  C   UNL     1       9.594   3.615  -6.562  1.00  0.00     0.188 C 
BRANCH  27  28
ATOM     28  O   UNL     1       9.701   4.799  -5.797  1.00  0.00    -0.376 OA
BRANCH  28  29
ATOM     29  C   UNL     1       9.587   6.100  -6.334  1.00  0.00     0.202 C 
BRANCH  29  30
ATOM     30  C   UNL     1       8.286   6.494  -7.021  1.00  0.00     0.261 C 
BRANCH  30  31
ATOM     31  O   UNL     1       7.684   5.424  -7.717  1.00  0.00    -0.460 OA
BRANCH  31  32
ATOM     32  C   UNL     1       8.318   5.074  -8.851  1.00  0.00     0.338 C 
ATOM     33  O   UNL     1       9.373   5.510  -9.275  1.00  0.00    -0.246 OA
BRANCH  32  34
ATOM     34  C   UNL     1       7.451   4.133  -9.569  1.00  0.00     0.060 A 
ATOM     35  C   UNL     1       7.957   3.690 -10.790  1.00  0.00     0.016 A 
ATOM     36  C   UNL     1       6.079   4.214  -9.294  1.00  0.00     0.016 A 
ATOM     37  C   UNL     1       7.101   3.717 -11.860  1.00  0.00     0.010 A 
ATOM     38  C   UNL     1       5.242   4.303 -10.366  1.00  0.00     0.010 A 
ATOM     39  C   UNL     1       5.797   4.165 -11.635  1.00  0.00    -0.014 A 
BRANCH  39  40
ATOM     40  C   UNL     1       4.992   4.500 -12.778  1.00  0.00     0.031 A 
ATOM     41  C   UNL     1       4.276   3.332 -13.316  1.00  0.00     0.074 A 
ATOM     42  C   UNL     1       4.847   5.772 -13.185  1.00  0.00     0.049 A 
ATOM     43  N   UNL     1       4.513   2.696 -14.412  1.00  0.00    -0.248 NA
ATOM     44  C   UNL     1       3.327   2.660 -12.413  1.00  0.00     0.031 C 
ATOM     45  C   UNL     1       5.260   7.006 -12.511  1.00  0.00     0.029 A 
ATOM     46  N   UNL     1       4.187   6.226 -14.279  1.00  0.00    -0.354 N 
ATOM     47  C   UNL     1       3.597   1.652 -14.420  1.00  0.00     0.074 A 
ATOM     48  C   UNL     1       3.099   1.531 -13.079  1.00  0.00     0.031 C 
ATOM     49  C   UNL     1       4.646   8.060 -13.101  1.00  0.00     0.029 A 
ATOM     50  C   UNL     1       3.906   7.584 -14.257  1.00  0.00     0.049 A 
ATOM     51  H   UNL     1       3.928   5.640 -15.027  1.00  0.00     0.167 HD
ATOM     52  C   UNL     1       3.090   1.172 -15.585  1.00  0.00     0.037 A 
ATOM     53  C   UNL     1       3.027   8.201 -15.085  1.00  0.00     0.037 A 
ATOM     54  C   UNL     1       3.913   1.553 -16.704  1.00  0.00     0.049 A 
ATOM     55  C   UNL     1       2.792   7.286 -16.239  1.00  0.00     0.074 A 
ATOM     56  C   UNL     1       5.224   1.309 -17.064  1.00  0.00     0.029 A 
ATOM     57  N   UNL     1       3.511   2.628 -17.460  1.00  0.00    -0.354 N 
ATOM     58  N   UNL     1       3.699   6.990 -17.130  1.00  0.00    -0.248 NA
ATOM     59  C   UNL     1       1.698   6.329 -16.127  1.00  0.00     0.031 C 
ATOM     60  C   UNL     1       5.679   2.520 -17.665  1.00  0.00     0.029 A 
ATOM     61  C   UNL     1       4.611   3.417 -17.686  1.00  0.00     0.049 A 
ATOM     62  H   UNL     1       2.597   2.801 -17.782  1.00  0.00     0.167 HD
ATOM     63  C   UNL     1       3.517   5.638 -17.395  1.00  0.00     0.074 A 
ATOM     64  C   UNL     1       2.226   5.304 -16.802  1.00  0.00     0.031 C 
ATOM     65  C   UNL     1       4.556   4.856 -17.812  1.00  0.00     0.037 A 
BRANCH  52  66
ATOM     66  C   UNL     1       1.668   0.695 -15.733  1.00  0.00     0.064 A 
ATOM     67  C   UNL     1       1.286   0.072 -16.935  1.00  0.00     0.173 A 
ATOM     68  C   UNL     1       0.604   1.052 -14.872  1.00  0.00     0.173 A 
ATOM     69  F   UNL     1       2.209  -0.289 -17.839  1.00  0.00    -0.203 F 
ATOM     70  C   UNL     1      -0.056  -0.115 -17.274  1.00  0.00     0.198 A 
ATOM     71  C   UNL     1      -0.730   0.806 -15.184  1.00  0.00     0.198 A 
ATOM     72  F   UNL     1       0.786   1.754 -13.748  1.00  0.00    -0.203 F 
ATOM     73  F   UNL     1      -0.373  -0.596 -18.482  1.00  0.00    -0.200 F 
ATOM     74  C   UNL     1      -1.063   0.254 -16.400  1.00  0.00     0.200 A 
ATOM     75  F   UNL     1      -1.687   1.188 -14.327  1.00  0.00    -0.200 F 
ATOM     76  F   UNL     1      -2.349   0.127 -16.746  1.00  0.00    -0.200 F 
ENDBRANCH  52  66
BRANCH  53  77
ATOM     77  C   UNL     1       2.101   9.310 -14.752  1.00  0.00     0.064 A 
ATOM     78  C   UNL     1       1.476  10.057 -15.762  1.00  0.00     0.173 A 
ATOM     79  C   UNL     1       1.601   9.481 -13.446  1.00  0.00     0.173 A 
ATOM     80  F   UNL     1       1.858   9.913 -17.040  1.00  0.00    -0.203 F 
ATOM     81  C   UNL     1       0.402  10.911 -15.485  1.00  0.00     0.198 A 
ATOM     82  C   UNL     1       0.535  10.338 -13.169  1.00  0.00     0.198 A 
ATOM     83  F   UNL     1       2.069   8.747 -12.426  1.00  0.00    -0.203 F 
ATOM     84  F   UNL     1      -0.209  11.563 -16.484  1.00  0.00    -0.200 F 
ATOM     85  C   UNL     1      -0.072  11.044 -14.190  1.00  0.00     0.200 A 
ATOM     86  F   UNL     1       0.061  10.426 -11.918  1.00  0.00    -0.200 F 
ATOM     87  F   UNL     1      -1.137  11.815 -13.933  1.00  0.00    -0.200 F 
ENDBRANCH  53  77
BRANCH  65  88
ATOM     88  C   UNL     1       5.831   5.547 -18.214  1.00  0.00     0.064 A 
ATOM     89  C   UNL     1       6.631   6.289 -17.327  1.00  0.00     0.173 A 
ATOM     90  C   UNL     1       6.337   5.319 -19.500  1.00  0.00     0.173 A 
ATOM     91  F   UNL     1       6.265   6.463 -16.051  1.00  0.00    -0.203 F 
ATOM     92  C   UNL     1       7.860   6.813 -17.727  1.00  0.00     0.198 A 
ATOM     93  C   UNL     1       7.581   5.810 -19.884  1.00  0.00     0.198 A 
ATOM     94  F   UNL     1       5.643   4.569 -20.370  1.00  0.00    -0.203 F 
ATOM     95  F   UNL     1       8.600   7.526 -16.864  1.00  0.00    -0.200 F 
ATOM     96  C   UNL     1       8.338   6.565 -19.003  1.00  0.00     0.200 A 
ATOM     97  F   UNL     1       8.062   5.524 -21.102  1.00  0.00    -0.200 F 
ATOM     98  F   UNL     1       9.540   7.028 -19.373  1.00  0.00    -0.200 F 
ENDBRANCH  65  88
ENDBRANCH  39  40
ENDBRANCH  32  34
ENDBRANCH  31  32
ENDBRANCH  30  31
ENDBRANCH  29  30
ENDBRANCH  28  29
ENDBRANCH  27  28
ENDBRANCH  26  27
ENDBRANCH   1  26
TORSDOF 23
