REMARK SMILES Cc1[nH]c2ccccc2c1[C@H](C(=O)OCCOCCOCCOCCOC(=O)c1ccc(-c2c3nc(c(-c4c(F)c(F)c(F)c(F)c4F)c4ccc([nH]4)c(-c4c(F)c(F)c(F)c(F)c4F)c4nc(c(-c5c(F)c(F)c(F)c(F)c5F)c5ccc2[nH]5)C=C4)C=C3)cc1)[NH+]1CCN(C(=O)c2ccco2)CC1
REMARK SMILES IDX 20 1 19 2 18 3 17 4 16 5 15 6 14 7 12 8 13 9 11 10 10 11
REMARK SMILES IDX 1 12 2 13 3 14 4 15 9 17 5 18 8 19 6 20 7 21 92 22 93 23
REMARK SMILES IDX 104 24 94 26 103 27 95 28 96 29 97 30 98 31 99 32 102 33
REMARK SMILES IDX 100 34 101 35 21 36 22 37 23 38 24 39 25 40 26 41 27 42
REMARK SMILES IDX 28 43 29 44 30 45 91 46 31 47 90 48 32 49 33 50 34 51 84 52
REMARK SMILES IDX 35 53 89 54 83 55 85 56 36 57 88 58 82 59 81 60 37 62 69 63
REMARK SMILES IDX 49 64 68 65 50 66 53 67 67 68 86 69 51 70 52 71 66 73 87 74
REMARK SMILES IDX 54 75 38 76 39 77 47 78 40 79 41 80 45 81 48 82 42 83 43 84
REMARK SMILES IDX 46 85 44 86 70 87 71 88 79 89 72 90 73 91 77 92 80 93 74 94
REMARK SMILES IDX 75 95 78 96 76 97 55 98 56 99 64 100 57 101 58 102 62 103
REMARK SMILES IDX 65 104 59 105 60 106 63 107 61 108
REMARK H PARENT 3 16 92 25 85 61 53 72
REMARK Flexibility Score: inf
ROOT
ATOM      1  O   UNL     1      -0.867   0.478  -3.157  1.00  0.00    -0.377 OA
ENDROOT
BRANCH   1   2
ATOM      2  C   UNL     1      -1.560   0.461  -1.922  1.00  0.00     0.188 C 
BRANCH   2   3
ATOM      3  C   UNL     1      -1.234   1.454  -0.805  1.00  0.00     0.188 C 
BRANCH   3   4
ATOM      4  O   UNL     1       0.079   1.614  -0.272  1.00  0.00    -0.376 OA
BRANCH   4   5
ATOM      5  C   UNL     1       1.137   0.724  -0.579  1.00  0.00     0.202 C 
BRANCH   5   6
ATOM      6  C   UNL     1       1.467  -0.313   0.477  1.00  0.00     0.261 C 
BRANCH   6   7
ATOM      7  O   UNL     1       0.852  -1.579   0.156  1.00  0.00    -0.459 OA
BRANCH   7   8
ATOM      8  C   UNL     1      -0.460  -1.677   0.474  1.00  0.00     0.370 C 
ATOM      9  O   UNL     1      -1.110  -0.766   0.982  1.00  0.00    -0.245 OA
BRANCH   8  10
ATOM     10  C   UNL     1      -1.052  -3.067   0.320  1.00  0.00     0.328 C 
BRANCH  10  11
ATOM     11  C   UNL     1      -0.727  -3.922  -0.928  1.00  0.00     0.049 A 
ATOM     12  C   UNL     1       0.654  -2.437  -2.662  1.00  0.00     0.065 C 
ATOM     13  C   UNL     1      -0.063  -3.616  -2.124  1.00  0.00     0.022 A 
ATOM     14  N   UNL     1      -0.168  -4.689  -2.973  1.00  0.00    -0.358 N 
ATOM     15  C   UNL     1      -0.898  -5.693  -2.413  1.00  0.00     0.046 A 
ATOM     16  H   UNL     1       0.232  -4.728  -3.872  1.00  0.00     0.166 HD
ATOM     17  C   UNL     1      -1.276  -5.258  -1.146  1.00  0.00     0.009 A 
ATOM     18  C   UNL     1      -1.254  -6.933  -2.956  1.00  0.00     0.027 A 
ATOM     19  C   UNL     1      -2.090  -6.129  -0.387  1.00  0.00     0.011 A 
ATOM     20  C   UNL     1      -2.035  -7.778  -2.171  1.00  0.00     0.002 A 
ATOM     21  C   UNL     1      -2.452  -7.382  -0.904  1.00  0.00     0.001 A 
ENDBRANCH  10  11
BRANCH  10  22
ATOM     22  N   UNL     1      -0.942  -3.826   1.600  1.00  0.00    -0.316 N 
ATOM     23  C   UNL     1       0.416  -4.091   2.082  1.00  0.00     0.285 C 
ATOM     24  C   UNL     1      -1.747  -3.265   2.700  1.00  0.00     0.285 C 
ATOM     25  H   UNL     1      -1.332  -4.728   1.325  1.00  0.00     0.349 HD
ATOM     26  C   UNL     1       1.135  -2.974   2.861  1.00  0.00     0.181 C 
ATOM     27  C   UNL     1      -1.147  -2.145   3.587  1.00  0.00     0.181 C 
ATOM     28  N   UNL     1       0.314  -2.058   3.657  1.00  0.00    -0.325 N 
ATOM     29  C   UNL     1       0.993  -0.956   4.228  1.00  0.00     0.289 C 
ATOM     30  O   UNL     1       2.174  -0.753   3.926  1.00  0.00    -0.265 OA
BRANCH  29  31
ATOM     31  C   UNL     1       0.311  -0.091   5.181  1.00  0.00     0.191 A 
ATOM     32  C   UNL     1      -0.587  -0.321   6.211  1.00  0.00     0.056 A 
ATOM     33  O   UNL     1       0.668   1.238   5.206  1.00  0.00    -0.459 OA
ATOM     34  C   UNL     1      -0.787   0.914   6.879  1.00  0.00     0.043 A 
ATOM     35  C   UNL     1      -0.003   1.831   6.225  1.00  0.00     0.196 A 
ENDBRANCH  29  31
ENDBRANCH  10  22
ENDBRANCH   8  10
ENDBRANCH   7   8
ENDBRANCH   6   7
ENDBRANCH   5   6
ENDBRANCH   4   5
ENDBRANCH   3   4
ENDBRANCH   2   3
ENDBRANCH   1   2
BRANCH   1  36
ATOM     36  C   UNL     1       0.063   1.489  -3.466  1.00  0.00     0.188 C 
BRANCH  36  37
ATOM     37  C   UNL     1      -0.410   2.913  -3.711  1.00  0.00     0.188 C 
BRANCH  37  38
ATOM     38  O   UNL     1      -1.771   3.212  -3.541  1.00  0.00    -0.376 OA
BRANCH  38  39
ATOM     39  C   UNL     1      -2.765   2.572  -4.319  1.00  0.00     0.202 C 
BRANCH  39  40
ATOM     40  C   UNL     1      -2.543   1.947  -5.711  1.00  0.00     0.261 C 
BRANCH  40  41
ATOM     41  O   UNL     1      -1.408   1.090  -5.915  1.00  0.00    -0.460 OA
BRANCH  41  42
ATOM     42  C   UNL     1      -0.454   1.550  -6.759  1.00  0.00     0.338 C 
ATOM     43  O   UNL     1      -0.404   2.661  -7.279  1.00  0.00    -0.246 OA
BRANCH  42  44
ATOM     44  C   UNL     1       0.639   0.564  -6.898  1.00  0.00     0.060 A 
ATOM     45  C   UNL     1       1.920   0.891  -6.425  1.00  0.00     0.016 A 
ATOM     46  C   UNL     1       0.423  -0.657  -7.537  1.00  0.00     0.016 A 
ATOM     47  C   UNL     1       2.979  -0.010  -6.561  1.00  0.00     0.010 A 
ATOM     48  C   UNL     1       1.497  -1.538  -7.719  1.00  0.00     0.010 A 
ATOM     49  C   UNL     1       2.783  -1.217  -7.243  1.00  0.00    -0.014 A 
BRANCH  49  50
ATOM     50  C   UNL     1       3.945  -2.056  -7.634  1.00  0.00     0.031 A 
ATOM     51  C   UNL     1       4.559  -1.836  -8.989  1.00  0.00     0.074 A 
ATOM     52  C   UNL     1       4.440  -3.007  -6.822  1.00  0.00     0.049 A 
ATOM     53  N   UNL     1       5.488  -2.522  -9.606  1.00  0.00    -0.248 NA
ATOM     54  C   UNL     1       4.051  -0.686  -9.753  1.00  0.00     0.031 C 
ATOM     55  C   UNL     1       3.985  -3.280  -5.461  1.00  0.00     0.029 A 
ATOM     56  N   UNL     1       5.429  -3.937  -7.040  1.00  0.00    -0.354 N 
ATOM     57  C   UNL     1       5.665  -1.894 -10.832  1.00  0.00     0.074 A 
ATOM     58  C   UNL     1       4.738  -0.785 -10.880  1.00  0.00     0.031 C 
ATOM     59  C   UNL     1       4.672  -4.330  -4.976  1.00  0.00     0.029 A 
ATOM     60  C   UNL     1       5.585  -4.828  -6.006  1.00  0.00     0.049 A 
ATOM     61  H   UNL     1       5.975  -3.961  -7.859  1.00  0.00     0.167 HD
ATOM     62  C   UNL     1       6.523  -2.216 -11.829  1.00  0.00     0.037 A 
ATOM     63  C   UNL     1       6.347  -5.939  -5.920  1.00  0.00     0.037 A 
ATOM     64  C   UNL     1       7.440  -3.324 -11.786  1.00  0.00     0.049 A 
ATOM     65  C   UNL     1       7.219  -6.338  -7.088  1.00  0.00     0.074 A 
ATOM     66  C   UNL     1       8.365  -3.714 -12.739  1.00  0.00     0.029 A 
ATOM     67  N   UNL     1       7.538  -4.227 -10.739  1.00  0.00    -0.354 N 
ATOM     68  N   UNL     1       7.401  -5.729  -8.235  1.00  0.00    -0.248 NA
ATOM     69  C   UNL     1       7.987  -7.586  -6.951  1.00  0.00     0.031 C 
ATOM     70  C   UNL     1       8.974  -4.893 -12.299  1.00  0.00     0.029 A 
ATOM     71  C   UNL     1       8.477  -5.200 -11.042  1.00  0.00     0.049 A 
ATOM     72  H   UNL     1       7.018  -4.184  -9.905  1.00  0.00     0.167 HD
ATOM     73  C   UNL     1       8.318  -6.501  -8.940  1.00  0.00     0.074 A 
ATOM     74  C   UNL     1       8.668  -7.616  -8.088  1.00  0.00     0.031 C 
ATOM     75  C   UNL     1       8.823  -6.305 -10.184  1.00  0.00     0.037 A 
BRANCH  62  76
ATOM     76  C   UNL     1       6.481  -1.382 -13.077  1.00  0.00     0.064 A 
ATOM     77  C   UNL     1       6.951  -0.061 -13.101  1.00  0.00     0.173 A 
ATOM     78  C   UNL     1       5.999  -1.930 -14.276  1.00  0.00     0.173 A 
ATOM     79  F   UNL     1       7.408   0.514 -11.978  1.00  0.00    -0.203 F 
ATOM     80  C   UNL     1       6.916   0.689 -14.274  1.00  0.00     0.198 A 
ATOM     81  C   UNL     1       5.996  -1.188 -15.453  1.00  0.00     0.198 A 
ATOM     82  F   UNL     1       5.542  -3.191 -14.308  1.00  0.00    -0.203 F 
ATOM     83  F   UNL     1       7.326   1.965 -14.263  1.00  0.00    -0.200 F 
ATOM     84  C   UNL     1       6.447   0.123 -15.450  1.00  0.00     0.200 A 
ATOM     85  F   UNL     1       5.555  -1.742 -16.591  1.00  0.00    -0.200 F 
ATOM     86  F   UNL     1       6.424   0.843 -16.580  1.00  0.00    -0.200 F 
ENDBRANCH  62  76
BRANCH  63  87
ATOM     87  C   UNL     1       6.292  -6.791  -4.700  1.00  0.00     0.064 A 
ATOM     88  C   UNL     1       7.411  -6.940  -3.867  1.00  0.00     0.173 A 
ATOM     89  C   UNL     1       5.134  -7.509  -4.366  1.00  0.00     0.173 A 
ATOM     90  F   UNL     1       8.553  -6.302  -4.162  1.00  0.00    -0.203 F 
ATOM     91  C   UNL     1       7.379  -7.788  -2.761  1.00  0.00     0.198 A 
ATOM     92  C   UNL     1       5.094  -8.332  -3.242  1.00  0.00     0.198 A 
ATOM     93  F   UNL     1       4.038  -7.412  -5.133  1.00  0.00    -0.203 F 
ATOM     94  F   UNL     1       8.481  -7.955  -2.017  1.00  0.00    -0.200 F 
ATOM     95  C   UNL     1       6.219  -8.479  -2.446  1.00  0.00     0.200 A 
ATOM     96  F   UNL     1       3.968  -8.993  -2.939  1.00  0.00    -0.200 F 
ATOM     97  F   UNL     1       6.190  -9.295  -1.384  1.00  0.00    -0.200 F 
ENDBRANCH  63  87
BRANCH  75  98
ATOM     98  C   UNL     1       9.829  -7.296 -10.698  1.00  0.00     0.064 A 
ATOM     99  C   UNL     1       9.457  -8.595 -11.074  1.00  0.00     0.173 A 
ATOM    100  C   UNL     1      11.168  -6.918 -10.886  1.00  0.00     0.173 A 
ATOM    101  F   UNL     1       8.194  -9.011 -10.905  1.00  0.00    -0.203 F 
ATOM    102  C   UNL     1      10.392  -9.483 -11.602  1.00  0.00     0.198 A 
ATOM    103  C   UNL     1      12.092  -7.798 -11.444  1.00  0.00     0.198 A 
ATOM    104  F   UNL     1      11.576  -5.684 -10.552  1.00  0.00    -0.203 F 
ATOM    105  F   UNL     1      10.022 -10.732 -11.919  1.00  0.00    -0.200 F 
ATOM    106  C   UNL     1      11.705  -9.081 -11.796  1.00  0.00     0.200 A 
ATOM    107  F   UNL     1      13.356  -7.401 -11.647  1.00  0.00    -0.200 F 
ATOM    108  F   UNL     1      12.598  -9.932 -12.321  1.00  0.00    -0.200 F 
ENDBRANCH  75  98
ENDBRANCH  49  50
ENDBRANCH  42  44
ENDBRANCH  41  42
ENDBRANCH  40  41
ENDBRANCH  39  40
ENDBRANCH  38  39
ENDBRANCH  37  38
ENDBRANCH  36  37
ENDBRANCH   1  36
TORSDOF 23
