REMARK SMILES CC(C)C[C@H](C(=O)OCCOCCOCCOCCOC(=O)c1ccc(-c2c3nc(c(-c4c(F)c(F)c(F)c(F)c4F)c4ccc([nH]4)c(-c4c(F)c(F)c(F)c(F)c4F)c4nc(c(-c5c(F)c(F)c(F)c(F)c5F)c5ccc2[nH]5)C=C4)C=C3)cc1)[C@@H]1CCO[C@]2(CCOC2)C1
REMARK SMILES IDX 14 1 13 2 12 3 11 4 10 5 9 6 8 7 6 8 7 9 5 10 4 11 2 12 1 13
REMARK SMILES IDX 3 14 86 15 87 16 95 17 88 18 90 19 89 20 91 21 94 22 92 23
REMARK SMILES IDX 93 24 15 25 16 26 17 27 18 28 19 29 20 30 21 31 22 32 23 33
REMARK SMILES IDX 24 34 85 35 25 36 84 37 26 38 27 39 28 40 78 41 29 42 83 43
REMARK SMILES IDX 77 44 79 45 30 46 82 47 76 48 75 49 31 51 63 52 43 53 62 54
REMARK SMILES IDX 44 55 47 56 61 57 80 58 45 59 46 60 60 62 81 63 48 64 32 65
REMARK SMILES IDX 33 66 41 67 34 68 35 69 39 70 42 71 36 72 37 73 40 74 38 75
REMARK SMILES IDX 64 76 65 77 73 78 66 79 67 80 71 81 74 82 68 83 69 84 72 85
REMARK SMILES IDX 70 86 49 87 50 88 58 89 51 90 52 91 56 92 59 93 53 94 54 95
REMARK SMILES IDX 57 96 55 97
REMARK H PARENT 79 50 47 61
REMARK Flexibility Score: inf
ROOT
ATOM      1  O   UNL     1      -3.211  -1.259   3.881  1.00  0.00    -0.377 OA
ENDROOT
BRANCH   1   2
ATOM      2  C   UNL     1      -2.199  -1.879   4.710  1.00  0.00     0.188 C 
BRANCH   2   3
ATOM      3  C   UNL     1      -0.910  -0.969   5.149  1.00  0.00     0.188 C 
BRANCH   3   4
ATOM      4  O   UNL     1       0.220  -0.728   4.204  1.00  0.00    -0.376 OA
BRANCH   4   5
ATOM      5  C   UNL     1       0.639   0.672   3.894  1.00  0.00     0.202 C 
BRANCH   5   6
ATOM      6  C   UNL     1       1.189   1.105   2.294  1.00  0.00     0.261 C 
BRANCH   6   7
ATOM      7  O   UNL     1       0.444   0.731   0.986  1.00  0.00    -0.463 OA
BRANCH   7   8
ATOM      8  C   UNL     1       0.722  -0.156  -0.052  1.00  0.00     0.309 C 
ATOM      9  O   UNL     1       1.895  -0.431  -0.307  1.00  0.00    -0.252 OA
BRANCH   8  10
ATOM     10  C   UNL     1      -0.607  -1.055  -0.928  1.00  0.00     0.103 C 
BRANCH  10  11
ATOM     11  C   UNL     1      -0.212  -2.587  -0.683  1.00  0.00     0.018 C 
BRANCH  11  12
ATOM     12  C   UNL     1      -1.093  -3.631   0.071  1.00  0.00    -0.017 C 
ATOM     13  C   UNL     1      -2.229  -4.231  -0.764  1.00  0.00     0.007 C 
ATOM     14  C   UNL     1      -0.196  -4.805   0.527  1.00  0.00     0.007 C 
ENDBRANCH  11  12
ENDBRANCH  10  11
BRANCH  10  15
ATOM     15  C   UNL     1      -2.411  -0.877  -1.159  1.00  0.00     0.008 C 
ATOM     16  C   UNL     1      -2.783   0.388  -1.954  1.00  0.00     0.033 C 
ATOM     17  C   UNL     1      -3.591  -0.824   0.158  1.00  0.00     0.042 C 
ATOM     18  C   UNL     1      -2.744   1.653  -1.113  1.00  0.00     0.161 C 
ATOM     19  C   UNL     1      -3.201   0.430   0.963  1.00  0.00     0.094 C 
ATOM     20  O   UNL     1      -3.499   1.525   0.080  1.00  0.00    -0.372 OA
ATOM     21  C   UNL     1      -1.841  -0.116   1.015  1.00  0.00     0.066 C 
ATOM     22  C   UNL     1      -3.031   1.165   2.315  1.00  0.00     0.195 C 
ATOM     23  C   UNL     1      -1.348  -0.304   2.333  1.00  0.00     0.163 C 
ATOM     24  O   UNL     1      -1.770   0.872   2.930  1.00  0.00    -0.378 OA
ENDBRANCH  10  15
ENDBRANCH   8  10
ENDBRANCH   7   8
ENDBRANCH   6   7
ENDBRANCH   5   6
ENDBRANCH   4   5
ENDBRANCH   3   4
ENDBRANCH   2   3
ENDBRANCH   1   2
BRANCH   1  25
ATOM     25  C   UNL     1      -4.447  -0.806   4.373  1.00  0.00     0.188 C 
BRANCH  25  26
ATOM     26  C   UNL     1      -4.415  -0.329   5.807  1.00  0.00     0.188 C 
BRANCH  26  27
ATOM     27  O   UNL     1      -4.995  -1.230   6.741  1.00  0.00    -0.376 OA
BRANCH  27  28
ATOM     28  C   UNL     1      -5.777  -2.292   6.203  1.00  0.00     0.202 C 
BRANCH  28  29
ATOM     29  C   UNL     1      -7.117  -1.940   5.497  1.00  0.00     0.261 C 
BRANCH  29  30
ATOM     30  O   UNL     1      -7.247  -0.631   4.901  1.00  0.00    -0.460 OA
BRANCH  30  31
ATOM     31  C   UNL     1      -7.438   0.410   5.754  1.00  0.00     0.338 C 
ATOM     32  O   UNL     1      -7.524   0.358   6.956  1.00  0.00    -0.246 OA
BRANCH  31  33
ATOM     33  C   UNL     1      -7.379   1.688   4.985  1.00  0.00     0.060 A 
ATOM     34  C   UNL     1      -6.588   2.733   5.485  1.00  0.00     0.016 A 
ATOM     35  C   UNL     1      -8.159   1.892   3.843  1.00  0.00     0.016 A 
ATOM     36  C   UNL     1      -6.628   3.998   4.895  1.00  0.00     0.010 A 
ATOM     37  C   UNL     1      -8.225   3.170   3.269  1.00  0.00     0.010 A 
ATOM     38  C   UNL     1      -7.509   4.242   3.835  1.00  0.00    -0.014 A 
BRANCH  38  39
ATOM     39  C   UNL     1      -7.926   5.645   3.567  1.00  0.00     0.031 A 
ATOM     40  C   UNL     1      -9.169   6.142   4.265  1.00  0.00     0.074 A 
ATOM     41  C   UNL     1      -7.207   6.482   2.800  1.00  0.00     0.049 A 
ATOM     42  N   UNL     1      -9.775   7.299   4.183  1.00  0.00    -0.248 NA
ATOM     43  C   UNL     1      -9.815   5.195   5.190  1.00  0.00     0.031 C 
ATOM     44  C   UNL     1      -5.948   6.154   2.138  1.00  0.00     0.029 A 
ATOM     45  N   UNL     1      -7.443   7.791   2.450  1.00  0.00    -0.354 N 
ATOM     46  C   UNL     1     -10.874   7.210   5.030  1.00  0.00     0.074 A 
ATOM     47  C   UNL     1     -10.870   5.880   5.596  1.00  0.00     0.031 C 
ATOM     48  C   UNL     1      -5.526   7.231   1.449  1.00  0.00     0.029 A 
ATOM     49  C   UNL     1      -6.505   8.309   1.591  1.00  0.00     0.049 A 
ATOM     50  H   UNL     1      -8.212   8.307   2.783  1.00  0.00     0.167 HD
ATOM     51  C   UNL     1     -11.801   8.153   5.319  1.00  0.00     0.037 A 
ATOM     52  C   UNL     1      -6.463   9.507   0.971  1.00  0.00     0.037 A 
ATOM     53  C   UNL     1     -11.802   9.475   4.754  1.00  0.00     0.049 A 
ATOM     54  C   UNL     1      -7.563  10.510   1.230  1.00  0.00     0.074 A 
ATOM     55  C   UNL     1     -12.693  10.509   4.978  1.00  0.00     0.029 A 
ATOM     56  N   UNL     1     -10.865   9.942   3.844  1.00  0.00    -0.354 N 
ATOM     57  N   UNL     1      -8.598  10.421   2.030  1.00  0.00    -0.248 NA
ATOM     58  C   UNL     1      -7.486  11.782   0.497  1.00  0.00     0.031 C 
ATOM     59  C   UNL     1     -12.335  11.578   4.150  1.00  0.00     0.029 A 
ATOM     60  C   UNL     1     -11.176  11.238   3.469  1.00  0.00     0.049 A 
ATOM     61  H   UNL     1     -10.093   9.428   3.513  1.00  0.00     0.167 HD
ATOM     62  C   UNL     1      -9.274  11.631   1.924  1.00  0.00     0.074 A 
ATOM     63  C   UNL     1      -8.523  12.444   0.990  1.00  0.00     0.031 C 
ATOM     64  C   UNL     1     -10.411  12.036   2.544  1.00  0.00     0.037 A 
BRANCH  51  65
ATOM     65  C   UNL     1     -12.919   7.766   6.245  1.00  0.00     0.064 A 
ATOM     66  C   UNL     1     -12.706   7.521   7.611  1.00  0.00     0.173 A 
ATOM     67  C   UNL     1     -14.230   7.648   5.757  1.00  0.00     0.173 A 
ATOM     68  F   UNL     1     -11.471   7.601   8.127  1.00  0.00    -0.203 F 
ATOM     69  C   UNL     1     -13.756   7.139   8.444  1.00  0.00     0.198 A 
ATOM     70  C   UNL     1     -15.283   7.301   6.600  1.00  0.00     0.198 A 
ATOM     71  F   UNL     1     -14.492   7.871   4.461  1.00  0.00    -0.203 F 
ATOM     72  F   UNL     1     -13.518   6.850   9.730  1.00  0.00    -0.200 F 
ATOM     73  C   UNL     1     -15.044   7.037   7.939  1.00  0.00     0.200 A 
ATOM     74  F   UNL     1     -16.529   7.217   6.112  1.00  0.00    -0.200 F 
ATOM     75  F   UNL     1     -16.054   6.674   8.742  1.00  0.00    -0.200 F 
ENDBRANCH  51  65
BRANCH  52  76
ATOM     76  C   UNL     1      -5.357   9.821   0.024  1.00  0.00     0.064 A 
ATOM     77  C   UNL     1      -4.430  10.836   0.296  1.00  0.00     0.173 A 
ATOM     78  C   UNL     1      -5.224   9.131  -1.191  1.00  0.00     0.173 A 
ATOM     79  F   UNL     1      -4.531  11.550   1.428  1.00  0.00    -0.203 F 
ATOM     80  C   UNL     1      -3.424  11.160  -0.614  1.00  0.00     0.198 A 
ATOM     81  C   UNL     1      -4.199   9.432  -2.085  1.00  0.00     0.198 A 
ATOM     82  F   UNL     1      -6.090   8.158  -1.510  1.00  0.00    -0.203 F 
ATOM     83  F   UNL     1      -2.585  12.171  -0.351  1.00  0.00    -0.200 F 
ATOM     84  C   UNL     1      -3.304  10.452  -1.800  1.00  0.00     0.200 A 
ATOM     85  F   UNL     1      -4.082   8.739  -3.226  1.00  0.00    -0.200 F 
ATOM     86  F   UNL     1      -2.336  10.761  -2.674  1.00  0.00    -0.200 F 
ENDBRANCH  52  76
BRANCH  64  87
ATOM     87  C   UNL     1     -10.891  13.435   2.274  1.00  0.00     0.064 A 
ATOM     88  C   UNL     1     -11.424  13.810   1.032  1.00  0.00     0.173 A 
ATOM     89  C   UNL     1     -10.863  14.400   3.294  1.00  0.00     0.173 A 
ATOM     90  F   UNL     1     -11.465  12.930   0.021  1.00  0.00    -0.203 F 
ATOM     91  C   UNL     1     -11.882  15.107   0.812  1.00  0.00     0.198 A 
ATOM     92  C   UNL     1     -11.356  15.684   3.082  1.00  0.00     0.198 A 
ATOM     93  F   UNL     1     -10.375  14.092   4.505  1.00  0.00    -0.203 F 
ATOM     94  F   UNL     1     -12.337  15.458  -0.399  1.00  0.00    -0.200 F 
ATOM     95  C   UNL     1     -11.856  16.040   1.839  1.00  0.00     0.200 A 
ATOM     96  F   UNL     1     -11.349  16.577   4.081  1.00  0.00    -0.200 F 
ATOM     97  F   UNL     1     -12.307  17.284   1.627  1.00  0.00    -0.200 F 
ENDBRANCH  64  87
ENDBRANCH  38  39
ENDBRANCH  31  33
ENDBRANCH  30  31
ENDBRANCH  29  30
ENDBRANCH  28  29
ENDBRANCH  27  28
ENDBRANCH  26  27
ENDBRANCH  25  26
ENDBRANCH   1  25
TORSDOF 23
