REMARK SMILES CCC1(C(=O)OCCOCCOCCOCCOC(=O)c2ccc(-c3c4nc(c(-c5c(F)c(F)c(F)c(F)c5F)c5ccc([nH]5)c(-c5c(F)c(F)c(F)c(F)c5F)c5nc(c(-c6c(F)c(F)c(F)c(F)c6F)c6ccc3[nH]6)C=C5)C=C4)cc2)CCN(c2ncnc3c2CCCC3)CC1
REMARK SMILES IDX 13 1 12 2 11 3 10 4 9 5 8 6 7 7 6 8 4 9 5 10 3 11 84 12
REMARK SMILES IDX 98 13 85 14 97 15 86 16 2 17 1 18 87 19 88 20 92 21 89 22
REMARK SMILES IDX 91 23 93 24 90 25 96 26 94 27 95 28 14 29 15 30 16 31 17 32
REMARK SMILES IDX 18 33 19 34 20 35 21 36 22 37 83 38 23 39 82 40 24 41 25 42
REMARK SMILES IDX 26 43 76 44 27 45 81 46 75 47 77 48 28 49 80 50 74 51 73 52
REMARK SMILES IDX 29 54 61 55 41 56 60 57 42 58 45 59 59 60 78 61 43 62 44 63
REMARK SMILES IDX 58 65 79 66 46 67 30 68 31 69 39 70 32 71 33 72 37 73 40 74
REMARK SMILES IDX 34 75 35 76 38 77 36 78 62 79 63 80 71 81 64 82 65 83 69 84
REMARK SMILES IDX 72 85 66 86 67 87 70 88 68 89 47 90 48 91 56 92 49 93 50 94
REMARK SMILES IDX 54 95 57 96 51 97 52 98 55 99 53 100
REMARK H PARENT 77 53 45 64
REMARK Flexibility Score: inf
ROOT
ATOM      1  C   UNL     1      -1.601   1.484   5.483  1.00  0.00     0.188 C 
ENDROOT
BRANCH   1   2
ATOM      2  O   UNL     1      -0.908   0.680   4.539  1.00  0.00    -0.377 OA
BRANCH   2   3
ATOM      3  C   UNL     1      -1.442   0.580   3.235  1.00  0.00     0.188 C 
BRANCH   3   4
ATOM      4  C   UNL     1      -2.454  -0.542   2.992  1.00  0.00     0.188 C 
BRANCH   4   5
ATOM      5  O   UNL     1      -3.056  -1.196   4.088  1.00  0.00    -0.376 OA
BRANCH   5   6
ATOM      6  C   UNL     1      -2.275  -1.759   5.129  1.00  0.00     0.202 C 
BRANCH   6   7
ATOM      7  C   UNL     1      -0.868  -2.369   4.946  1.00  0.00     0.261 C 
BRANCH   7   8
ATOM      8  O   UNL     1       0.059  -1.695   4.077  1.00  0.00    -0.463 OA
BRANCH   8   9
ATOM      9  C   UNL     1       0.343  -2.321   2.913  1.00  0.00     0.312 C 
ATOM     10  O   UNL     1      -0.156  -3.398   2.591  1.00  0.00    -0.252 OA
BRANCH   9  11
ATOM     11  C   UNL     1       1.365  -1.595   1.996  1.00  0.00     0.071 C 
ATOM     12  C   UNL     1       1.782  -0.155   2.428  1.00  0.00     0.040 C 
ATOM     13  C   UNL     1       2.590  -2.562   2.092  1.00  0.00     0.040 C 
ATOM     14  C   UNL     1       3.145   0.293   1.908  1.00  0.00     0.119 C 
ATOM     15  C   UNL     1       3.910  -1.993   1.584  1.00  0.00     0.119 C 
ATOM     16  N   UNL     1       4.095  -0.729   2.268  1.00  0.00    -0.356 N 
BRANCH  11  17
ATOM     17  C   UNL     1       0.676  -1.625   0.587  1.00  0.00     0.015 C 
ATOM     18  C   UNL     1       0.910  -0.490  -0.398  1.00  0.00     0.005 C 
ENDBRANCH  11  17
BRANCH  16  19
ATOM     19  C   UNL     1       5.302  -0.379   2.826  1.00  0.00     0.135 A 
ATOM     20  N   UNL     1       6.414  -0.738   2.164  1.00  0.00    -0.219 NA
ATOM     21  C   UNL     1       5.363   0.310   4.044  1.00  0.00     0.016 A 
ATOM     22  C   UNL     1       7.581  -0.349   2.689  1.00  0.00     0.224 A 
ATOM     23  C   UNL     1       6.628   0.680   4.484  1.00  0.00     0.049 A 
ATOM     24  C   UNL     1       4.134   0.632   4.857  1.00  0.00     0.041 C 
ATOM     25  N   UNL     1       7.752   0.355   3.814  1.00  0.00    -0.241 NA
ATOM     26  C   UNL     1       6.825   1.409   5.788  1.00  0.00     0.057 C 
ATOM     27  C   UNL     1       4.409   1.085   6.287  1.00  0.00     0.005 C 
ATOM     28  C   UNL     1       5.555   2.082   6.303  1.00  0.00     0.007 C 
ENDBRANCH  16  19
ENDBRANCH   9  11
ENDBRANCH   8   9
ENDBRANCH   7   8
ENDBRANCH   6   7
ENDBRANCH   5   6
ENDBRANCH   4   5
ENDBRANCH   3   4
ENDBRANCH   2   3
ENDBRANCH   1   2
BRANCH   1  29
ATOM     29  C   UNL     1      -3.082   1.825   5.237  1.00  0.00     0.188 C 
BRANCH  29  30
ATOM     30  O   UNL     1      -3.382   2.223   3.909  1.00  0.00    -0.376 OA
BRANCH  30  31
ATOM     31  C   UNL     1      -3.371   3.602   3.571  1.00  0.00     0.202 C 
BRANCH  31  32
ATOM     32  C   UNL     1      -2.058   4.389   3.725  1.00  0.00     0.261 C 
BRANCH  32  33
ATOM     33  O   UNL     1      -1.489   4.446   5.043  1.00  0.00    -0.460 OA
BRANCH  33  34
ATOM     34  C   UNL     1      -2.255   4.909   6.049  1.00  0.00     0.338 C 
ATOM     35  O   UNL     1      -3.381   5.374   5.970  1.00  0.00    -0.246 OA
BRANCH  34  36
ATOM     36  C   UNL     1      -1.581   4.574   7.320  1.00  0.00     0.060 A 
ATOM     37  C   UNL     1      -2.245   3.755   8.242  1.00  0.00     0.016 A 
ATOM     38  C   UNL     1      -0.305   5.068   7.602  1.00  0.00     0.016 A 
ATOM     39  C   UNL     1      -1.653   3.462   9.470  1.00  0.00     0.010 A 
ATOM     40  C   UNL     1       0.276   4.795   8.843  1.00  0.00     0.010 A 
ATOM     41  C   UNL     1      -0.413   4.024   9.797  1.00  0.00    -0.014 A 
BRANCH  41  42
ATOM     42  C   UNL     1       0.054   3.989  11.203  1.00  0.00     0.031 A 
ATOM     43  C   UNL     1      -0.196   5.197  12.065  1.00  0.00     0.074 A 
ATOM     44  C   UNL     1       0.655   2.903  11.718  1.00  0.00     0.049 A 
ATOM     45  N   UNL     1       0.157   5.427  13.303  1.00  0.00    -0.248 NA
ATOM     46  C   UNL     1      -0.948   6.297  11.439  1.00  0.00     0.031 C 
ATOM     47  C   UNL     1       0.905   1.655  11.001  1.00  0.00     0.029 A 
ATOM     48  N   UNL     1       1.172   2.683  12.971  1.00  0.00    -0.354 N 
ATOM     49  C   UNL     1      -0.320   6.698  13.599  1.00  0.00     0.074 A 
ATOM     50  C   UNL     1      -0.958   7.203  12.404  1.00  0.00     0.031 C 
ATOM     51  C   UNL     1       1.542   0.802  11.823  1.00  0.00     0.029 A 
ATOM     52  C   UNL     1       1.775   1.458  13.110  1.00  0.00     0.049 A 
ATOM     53  H   UNL     1       1.115   3.342  13.701  1.00  0.00     0.167 HD
ATOM     54  C   UNL     1      -0.239   7.379  14.767  1.00  0.00     0.037 A 
ATOM     55  C   UNL     1       2.460   0.941  14.149  1.00  0.00     0.037 A 
ATOM     56  C   UNL     1       0.399   6.872  15.953  1.00  0.00     0.049 A 
ATOM     57  C   UNL     1       2.610   1.754  15.412  1.00  0.00     0.074 A 
ATOM     58  C   UNL     1       0.523   7.477  17.191  1.00  0.00     0.029 A 
ATOM     59  N   UNL     1       1.033   5.642  16.043  1.00  0.00    -0.354 N 
ATOM     60  N   UNL     1       2.139   2.945  15.694  1.00  0.00    -0.248 NA
ATOM     61  C   UNL     1       3.385   1.146  16.503  1.00  0.00     0.031 C 
ATOM     62  C   UNL     1       1.288   6.642  18.010  1.00  0.00     0.029 A 
ATOM     63  C   UNL     1       1.578   5.483  17.307  1.00  0.00     0.049 A 
ATOM     64  H   UNL     1       1.087   4.979  15.317  1.00  0.00     0.167 HD
ATOM     65  C   UNL     1       2.530   3.213  17.002  1.00  0.00     0.074 A 
ATOM     66  C   UNL     1       3.265   2.054  17.461  1.00  0.00     0.031 C 
ATOM     67  C   UNL     1       2.299   4.318  17.755  1.00  0.00     0.037 A 
BRANCH  54  68
ATOM     68  C   UNL     1      -0.825   8.761  14.806  1.00  0.00     0.064 A 
ATOM     69  C   UNL     1      -2.208   8.984  14.742  1.00  0.00     0.173 A 
ATOM     70  C   UNL     1       0.013   9.880  14.937  1.00  0.00     0.173 A 
ATOM     71  F   UNL     1      -3.054   7.952  14.600  1.00  0.00    -0.203 F 
ATOM     72  C   UNL     1      -2.729  10.276  14.780  1.00  0.00     0.198 A 
ATOM     73  C   UNL     1      -0.512  11.167  15.009  1.00  0.00     0.198 A 
ATOM     74  F   UNL     1       1.344   9.724  15.003  1.00  0.00    -0.203 F 
ATOM     75  F   UNL     1      -4.050  10.468  14.662  1.00  0.00    -0.200 F 
ATOM     76  C   UNL     1      -1.882  11.365  14.921  1.00  0.00     0.200 A 
ATOM     77  F   UNL     1       0.308  12.216  15.160  1.00  0.00    -0.200 F 
ATOM     78  F   UNL     1      -2.385  12.606  14.965  1.00  0.00    -0.200 F 
ENDBRANCH  54  68
BRANCH  55  79
ATOM     79  C   UNL     1       3.077  -0.409  14.039  1.00  0.00     0.064 A 
ATOM     80  C   UNL     1       2.632  -1.477  14.831  1.00  0.00     0.173 A 
ATOM     81  C   UNL     1       4.144  -0.651  13.162  1.00  0.00     0.173 A 
ATOM     82  F   UNL     1       1.633  -1.291  15.706  1.00  0.00    -0.203 F 
ATOM     83  C   UNL     1       3.246  -2.727  14.767  1.00  0.00     0.198 A 
ATOM     84  C   UNL     1       4.735  -1.909  13.073  1.00  0.00     0.198 A 
ATOM     85  F   UNL     1       4.611   0.336  12.383  1.00  0.00    -0.203 F 
ATOM     86  F   UNL     1       2.837  -3.713  15.576  1.00  0.00    -0.200 F 
ATOM     87  C   UNL     1       4.293  -2.944  13.883  1.00  0.00     0.200 A 
ATOM     88  F   UNL     1       5.737  -2.117  12.208  1.00  0.00    -0.200 F 
ATOM     89  F   UNL     1       4.881  -4.146  13.820  1.00  0.00    -0.200 F 
ENDBRANCH  55  79
BRANCH  67  90
ATOM     90  C   UNL     1       2.802   4.311  19.172  1.00  0.00     0.064 A 
ATOM     91  C   UNL     1       4.170   4.371  19.475  1.00  0.00     0.173 A 
ATOM     92  C   UNL     1       1.895   4.288  20.244  1.00  0.00     0.173 A 
ATOM     93  F   UNL     1       5.080   4.383  18.490  1.00  0.00    -0.203 F 
ATOM     94  C   UNL     1       4.612   4.377  20.796  1.00  0.00     0.198 A 
ATOM     95  C   UNL     1       2.338   4.332  21.562  1.00  0.00     0.198 A 
ATOM     96  F   UNL     1       0.574   4.242  20.012  1.00  0.00    -0.203 F 
ATOM     97  F   UNL     1       5.926   4.378  21.061  1.00  0.00    -0.200 F 
ATOM     98  C   UNL     1       3.696   4.366  21.838  1.00  0.00     0.200 A 
ATOM     99  F   UNL     1       1.450   4.342  22.566  1.00  0.00    -0.200 F 
ATOM    100  F   UNL     1       4.123   4.381  23.108  1.00  0.00    -0.200 F 
ENDBRANCH  67  90
ENDBRANCH  41  42
ENDBRANCH  34  36
ENDBRANCH  33  34
ENDBRANCH  32  33
ENDBRANCH  31  32
ENDBRANCH  30  31
ENDBRANCH  29  30
ENDBRANCH   1  29
TORSDOF 22
