REMARK SMILES CNC(=O)C[N@@H+](C)CCn1cc(C(=O)OCCOCCOCCOCCOC(=O)c2ccc(-c3c4nc(c(-c5c(F)c(F)c(F)c(F)c5F)c5ccc([nH]5)c(-c5c(F)c(F)c(F)c(F)c5F)c5nc(c(-c6c(F)c(F)c(F)c(F)c6F)c6ccc3[nH]6)C=C5)C=C4)cc2)nn1
REMARK SMILES IDX 19 1 18 2 17 3 16 4 15 5 13 6 14 7 12 8 10 9 11 10 94 11
REMARK SMILES IDX 93 12 9 13 8 14 6 15 7 16 5 18 3 19 1 20 2 21 4 23 20 24
REMARK SMILES IDX 21 25 22 26 23 27 24 28 25 29 26 30 27 31 28 32 29 33 30 34
REMARK SMILES IDX 31 35 92 36 32 37 91 38 33 39 34 40 35 41 85 42 36 43 90 44
REMARK SMILES IDX 84 45 86 46 37 47 89 48 83 49 82 50 38 52 70 53 50 54 69 55
REMARK SMILES IDX 51 56 54 57 68 58 87 59 52 60 53 61 67 63 88 64 55 65 39 66
REMARK SMILES IDX 40 67 48 68 41 69 42 70 46 71 49 72 43 73 44 74 47 75 45 76
REMARK SMILES IDX 71 77 72 78 80 79 73 80 74 81 78 82 81 83 75 84 76 85 79 86
REMARK SMILES IDX 77 87 56 88 57 89 65 90 58 91 59 92 63 93 66 94 60 95 61 96
REMARK SMILES IDX 64 97 62 98
REMARK H PARENT 6 17 2 22 86 51 54 62
REMARK Flexibility Score: inf
ROOT
ATOM      1  C   UNL     1      -4.265  -1.725   5.924  1.00  0.00     0.188 C 
ENDROOT
BRANCH   1   2
ATOM      2  O   UNL     1      -4.692  -3.008   5.505  1.00  0.00    -0.376 OA
BRANCH   2   3
ATOM      3  C   UNL     1      -3.984  -3.835   4.601  1.00  0.00     0.202 C 
BRANCH   3   4
ATOM      4  C   UNL     1      -2.845  -3.399   3.666  1.00  0.00     0.261 C 
BRANCH   4   5
ATOM      5  O   UNL     1      -2.187  -2.185   3.988  1.00  0.00    -0.458 OA
BRANCH   5   6
ATOM      6  C   UNL     1      -2.691  -1.073   3.392  1.00  0.00     0.360 C 
ATOM      7  O   UNL     1      -3.580  -1.081   2.538  1.00  0.00    -0.244 OA
BRANCH   6   8
ATOM      8  C   UNL     1      -2.158   0.143   3.977  1.00  0.00     0.190 A 
ATOM      9  N   UNL     1      -0.812   1.678   4.625  1.00  0.00    -0.246 N 
ATOM     10  C   UNL     1      -0.929   0.325   4.589  1.00  0.00     0.147 A 
ATOM     11  N   UNL     1      -1.999   2.277   4.427  1.00  0.00    -0.066 NA
ATOM     12  N   UNL     1      -2.826   1.346   3.973  1.00  0.00    -0.123 NA
BRANCH   9  13
ATOM     13  C   UNL     1       0.410   2.436   4.520  1.00  0.00     0.207 C 
BRANCH  13  14
ATOM     14  C   UNL     1       1.246   2.088   3.263  1.00  0.00     0.286 C 
BRANCH  14  15
ATOM     15  N   UNL     1       0.745   2.353   1.894  1.00  0.00    -0.328 N 
ATOM     16  C   UNL     1       0.234   3.717   1.754  1.00  0.00     0.333 C 
ATOM     17  H   UNL     1       1.575   2.224   1.316  1.00  0.00     0.348 HD
BRANCH  15  18
ATOM     18  C   UNL     1      -0.260   1.394   1.376  1.00  0.00     0.363 C 
BRANCH  18  19
ATOM     19  C   UNL     1       0.261  -0.050   1.322  1.00  0.00     0.274 C 
ATOM     20  C   UNL     1       1.579   0.321  -0.789  1.00  0.00     0.143 C 
ATOM     21  N   UNL     1       1.063  -0.455   0.304  1.00  0.00    -0.354 N 
ATOM     22  H   UNL     1       1.325  -1.404   0.316  1.00  0.00     0.163 HD
ATOM     23  O   UNL     1      -0.014  -0.894   2.177  1.00  0.00    -0.269 OA
ENDBRANCH  18  19
ENDBRANCH  15  18
ENDBRANCH  14  15
ENDBRANCH  13  14
ENDBRANCH   9  13
ENDBRANCH   6   8
ENDBRANCH   5   6
ENDBRANCH   4   5
ENDBRANCH   3   4
ENDBRANCH   2   3
ENDBRANCH   1   2
BRANCH   1  24
ATOM     24  C   UNL     1      -2.975  -1.576   6.759  1.00  0.00     0.188 C 
BRANCH  24  25
ATOM     25  O   UNL     1      -2.068  -2.657   6.700  1.00  0.00    -0.377 OA
BRANCH  25  26
ATOM     26  C   UNL     1      -2.329  -3.799   7.509  1.00  0.00     0.188 C 
BRANCH  26  27
ATOM     27  C   UNL     1      -3.722  -4.080   8.139  1.00  0.00     0.188 C 
BRANCH  27  28
ATOM     28  O   UNL     1      -4.585  -2.965   8.286  1.00  0.00    -0.376 OA
BRANCH  28  29
ATOM     29  C   UNL     1      -4.876  -2.356   9.531  1.00  0.00     0.202 C 
BRANCH  29  30
ATOM     30  C   UNL     1      -3.736  -1.659  10.268  1.00  0.00     0.261 C 
BRANCH  30  31
ATOM     31  O   UNL     1      -2.526  -2.387  10.223  1.00  0.00    -0.460 OA
BRANCH  31  32
ATOM     32  C   UNL     1      -2.555  -3.544  10.896  1.00  0.00     0.338 C 
ATOM     33  O   UNL     1      -3.530  -4.076  11.430  1.00  0.00    -0.246 OA
BRANCH  32  34
ATOM     34  C   UNL     1      -1.189  -4.033  11.026  1.00  0.00     0.060 A 
ATOM     35  C   UNL     1      -1.057  -5.241  11.707  1.00  0.00     0.016 A 
ATOM     36  C   UNL     1      -0.156  -3.087  10.933  1.00  0.00     0.016 A 
ATOM     37  C   UNL     1      -0.025  -5.337  12.600  1.00  0.00     0.010 A 
ATOM     38  C   UNL     1       0.853  -3.169  11.848  1.00  0.00     0.010 A 
ATOM     39  C   UNL     1       0.828  -4.237  12.737  1.00  0.00    -0.014 A 
BRANCH  39  40
ATOM     40  C   UNL     1       1.770  -4.261  13.823  1.00  0.00     0.031 A 
ATOM     41  C   UNL     1       2.915  -5.134  13.524  1.00  0.00     0.074 A 
ATOM     42  C   UNL     1       1.608  -3.498  14.918  1.00  0.00     0.049 A 
ATOM     43  N   UNL     1       3.203  -6.263  14.075  1.00  0.00    -0.248 NA
ATOM     44  C   UNL     1       3.706  -4.823  12.321  1.00  0.00     0.031 C 
ATOM     45  C   UNL     1       0.639  -2.422  15.147  1.00  0.00     0.029 A 
ATOM     46  N   UNL     1       2.368  -3.469  16.041  1.00  0.00    -0.354 N 
ATOM     47  C   UNL     1       4.347  -6.700  13.421  1.00  0.00     0.074 A 
ATOM     48  C   UNL     1       4.469  -5.910  12.227  1.00  0.00     0.031 C 
ATOM     49  C   UNL     1       1.022  -1.706  16.230  1.00  0.00     0.029 A 
ATOM     50  C   UNL     1       2.180  -2.345  16.831  1.00  0.00     0.049 A 
ATOM     51  H   UNL     1       2.999  -4.187  16.276  1.00  0.00     0.167 HD
ATOM     52  C   UNL     1       5.263  -7.455  14.080  1.00  0.00     0.037 A 
ATOM     53  C   UNL     1       3.001  -1.950  17.837  1.00  0.00     0.037 A 
ATOM     54  C   UNL     1       4.677  -8.085  15.237  1.00  0.00     0.049 A 
ATOM     55  C   UNL     1       3.827  -3.127  18.221  1.00  0.00     0.074 A 
ATOM     56  C   UNL     1       3.641  -8.979  15.430  1.00  0.00     0.029 A 
ATOM     57  N   UNL     1       4.915  -7.515  16.463  1.00  0.00    -0.354 N 
ATOM     58  N   UNL     1       3.350  -4.184  18.818  1.00  0.00    -0.248 NA
ATOM     59  C   UNL     1       5.090  -3.325  17.523  1.00  0.00     0.031 C 
ATOM     60  C   UNL     1       3.017  -8.573  16.646  1.00  0.00     0.029 A 
ATOM     61  C   UNL     1       3.735  -7.493  17.160  1.00  0.00     0.049 A 
ATOM     62  H   UNL     1       5.783  -7.180  16.786  1.00  0.00     0.167 HD
ATOM     63  C   UNL     1       4.002  -5.253  18.220  1.00  0.00     0.074 A 
ATOM     64  C   UNL     1       5.124  -4.661  17.498  1.00  0.00     0.031 C 
ATOM     65  C   UNL     1       3.397  -6.474  18.126  1.00  0.00     0.037 A 
BRANCH  52  66
ATOM     66  C   UNL     1       6.750  -7.262  13.919  1.00  0.00     0.064 A 
ATOM     67  C   UNL     1       7.617  -8.159  14.569  1.00  0.00     0.173 A 
ATOM     68  C   UNL     1       7.356  -6.084  13.421  1.00  0.00     0.173 A 
ATOM     69  F   UNL     1       7.147  -9.300  15.094  1.00  0.00    -0.203 F 
ATOM     70  C   UNL     1       8.963  -7.856  14.782  1.00  0.00     0.198 A 
ATOM     71  C   UNL     1       8.710  -5.813  13.585  1.00  0.00     0.198 A 
ATOM     72  F   UNL     1       6.657  -5.090  12.861  1.00  0.00    -0.203 F 
ATOM     73  F   UNL     1       9.716  -8.677  15.526  1.00  0.00    -0.200 F 
ATOM     74  C   UNL     1       9.507  -6.681  14.297  1.00  0.00     0.200 A 
ATOM     75  F   UNL     1       9.210  -4.659  13.121  1.00  0.00    -0.200 F 
ATOM     76  F   UNL     1      10.780  -6.359  14.557  1.00  0.00    -0.200 F 
ENDBRANCH  52  66
BRANCH  53  77
ATOM     77  C   UNL     1       3.363  -0.570  18.237  1.00  0.00     0.064 A 
ATOM     78  C   UNL     1       3.993  -0.318  19.467  1.00  0.00     0.173 A 
ATOM     79  C   UNL     1       3.360   0.490  17.308  1.00  0.00     0.173 A 
ATOM     80  F   UNL     1       4.082  -1.288  20.389  1.00  0.00    -0.203 F 
ATOM     81  C   UNL     1       4.606   0.909  19.740  1.00  0.00     0.198 A 
ATOM     82  C   UNL     1       3.965   1.716  17.585  1.00  0.00     0.198 A 
ATOM     83  F   UNL     1       2.858   0.325  16.076  1.00  0.00    -0.203 F 
ATOM     84  F   UNL     1       5.255   1.089  20.899  1.00  0.00    -0.200 F 
ATOM     85  C   UNL     1       4.600   1.921  18.795  1.00  0.00     0.200 A 
ATOM     86  F   UNL     1       3.985   2.673  16.646  1.00  0.00    -0.200 F 
ATOM     87  F   UNL     1       5.242   3.074  19.030  1.00  0.00    -0.200 F 
ENDBRANCH  53  77
BRANCH  65  88
ATOM     88  C   UNL     1       2.148  -6.689  18.936  1.00  0.00     0.064 A 
ATOM     89  C   UNL     1       0.954  -5.969  18.753  1.00  0.00     0.173 A 
ATOM     90  C   UNL     1       2.127  -7.751  19.849  1.00  0.00     0.173 A 
ATOM     91  F   UNL     1       0.864  -5.008  17.825  1.00  0.00    -0.203 F 
ATOM     92  C   UNL     1      -0.189  -6.267  19.493  1.00  0.00     0.198 A 
ATOM     93  C   UNL     1       0.973  -8.072  20.557  1.00  0.00     0.198 A 
ATOM     94  F   UNL     1       3.221  -8.509  20.022  1.00  0.00    -0.203 F 
ATOM     95  F   UNL     1      -1.310  -5.552  19.317  1.00  0.00    -0.200 F 
ATOM     96  C   UNL     1      -0.180  -7.323  20.390  1.00  0.00     0.200 A 
ATOM     97  F   UNL     1       0.973  -9.126  21.385  1.00  0.00    -0.200 F 
ATOM     98  F   UNL     1      -1.289  -7.635  21.074  1.00  0.00    -0.200 F 
ENDBRANCH  65  88
ENDBRANCH  39  40
ENDBRANCH  32  34
ENDBRANCH  31  32
ENDBRANCH  30  31
ENDBRANCH  29  30
ENDBRANCH  28  29
ENDBRANCH  27  28
ENDBRANCH  26  27
ENDBRANCH  25  26
ENDBRANCH  24  25
ENDBRANCH   1  24
TORSDOF 25
