REMARK SMILES CCC(CC)(NC(=O)c1ccc(CC[NH3+])cc1)C(=O)OCCOCCOCCOCCOC(=O)c1ccc(-c2c3nc(c(-c4c(F)c(F)c(F)c(F)c4F)c4ccc([nH]4)c(-c4c(F)c(F)c(F)c(F)c4F)c4nc(c(-c5c(F)c(F)c(F)c(F)c5F)c5ccc2[nH]5)C=C4)C=C3)cc1
REMARK SMILES IDX 24 1 23 2 22 3 21 4 20 5 18 6 19 7 3 8 2 9 1 10 4 11 5 12
REMARK SMILES IDX 6 13 7 14 8 16 9 17 10 18 17 19 11 20 16 21 12 22 13 23
REMARK SMILES IDX 14 24 15 25 25 29 26 30 27 31 28 32 29 33 30 34 31 35 32 36
REMARK SMILES IDX 33 37 34 38 35 39 36 40 97 41 37 42 96 43 38 44 39 45 40 46
REMARK SMILES IDX 90 47 41 48 95 49 89 50 91 51 42 52 94 53 88 54 87 55 43 57
REMARK SMILES IDX 75 58 55 59 74 60 56 61 59 62 73 63 92 64 57 65 58 66 72 68
REMARK SMILES IDX 93 69 60 70 44 71 45 72 53 73 46 74 47 75 51 76 54 77 48 78
REMARK SMILES IDX 49 79 52 80 50 81 76 82 77 83 85 84 78 85 79 86 83 87 86 88
REMARK SMILES IDX 80 89 81 90 84 91 82 92 61 93 62 94 70 95 63 96 64 97 68 98
REMARK SMILES IDX 71 99 65 100 66 101 69 102 67 103
REMARK H PARENT 6 15 15 26 15 27 15 28 91 56 59 67
REMARK Flexibility Score: inf
ROOT
ATOM      1  C   UNL     1       3.307   2.528   0.347  1.00  0.00     0.188 C 
ENDROOT
BRANCH   1   2
ATOM      2  O   UNL     1       4.641   2.453  -0.166  1.00  0.00    -0.376 OA
BRANCH   2   3
ATOM      3  C   UNL     1       5.102   1.097  -0.354  1.00  0.00     0.202 C 
BRANCH   3   4
ATOM      4  C   UNL     1       4.645   0.336  -1.623  1.00  0.00     0.261 C 
BRANCH   4   5
ATOM      5  O   UNL     1       3.390   0.809  -2.113  1.00  0.00    -0.461 OA
BRANCH   5   6
ATOM      6  C   UNL     1       2.264   0.092  -1.967  1.00  0.00     0.331 C 
ATOM      7  O   UNL     1       2.244  -1.062  -1.557  1.00  0.00    -0.249 OA
BRANCH   6   8
ATOM      8  C   UNL     1       1.001   0.965  -2.292  1.00  0.00     0.137 C 
BRANCH   8   9
ATOM      9  C   UNL     1       0.227   1.209  -0.932  1.00  0.00     0.037 C 
ATOM     10  C   UNL     1       0.097   0.027   0.028  1.00  0.00     0.007 C 
ENDBRANCH   8   9
BRANCH   8  11
ATOM     11  C   UNL     1       0.125   0.157  -3.293  1.00  0.00     0.037 C 
ATOM     12  C   UNL     1      -1.363   0.505  -3.311  1.00  0.00     0.007 C 
ENDBRANCH   8  11
BRANCH   8  13
ATOM     13  N   UNL     1       1.299   2.352  -2.863  1.00  0.00    -0.336 N 
ATOM     14  C   UNL     1       1.958   2.690  -4.044  1.00  0.00     0.252 C 
ATOM     15  H   UNL     1       0.982   3.111  -2.322  1.00  0.00     0.165 HD
ATOM     16  O   UNL     1       1.313   3.150  -4.984  1.00  0.00    -0.269 OA
BRANCH  14  17
ATOM     17  C   UNL     1       3.458   2.771  -4.109  1.00  0.00     0.039 A 
ATOM     18  C   UNL     1       4.166   3.236  -3.012  1.00  0.00     0.014 A 
ATOM     19  C   UNL     1       4.199   2.497  -5.256  1.00  0.00     0.014 A 
ATOM     20  C   UNL     1       5.557   3.369  -2.980  1.00  0.00     0.005 A 
ATOM     21  C   UNL     1       5.614   2.583  -5.233  1.00  0.00     0.005 A 
ATOM     22  C   UNL     1       6.310   2.989  -4.079  1.00  0.00    -0.042 A 
BRANCH  22  23
ATOM     23  C   UNL     1       7.816   2.908  -3.945  1.00  0.00     0.096 C 
BRANCH  23  24
ATOM     24  C   UNL     1       8.588   4.227  -4.101  1.00  0.00     0.263 C 
BRANCH  24  25
ATOM     25  N   UNL     1       8.522   5.085  -2.918  1.00  0.00    -0.357 N 
ATOM     26  H   UNL     1       7.553   5.350  -2.744  1.00  0.00     0.344 HD
ATOM     27  H   UNL     1       9.081   5.925  -3.076  1.00  0.00     0.344 HD
ATOM     28  H   UNL     1       8.888   4.581  -2.111  1.00  0.00     0.344 HD
ENDBRANCH  24  25
ENDBRANCH  23  24
ENDBRANCH  22  23
ENDBRANCH  14  17
ENDBRANCH   8  13
ENDBRANCH   6   8
ENDBRANCH   5   6
ENDBRANCH   4   5
ENDBRANCH   3   4
ENDBRANCH   2   3
ENDBRANCH   1   2
BRANCH   1  29
ATOM     29  C   UNL     1       2.758   3.954   0.552  1.00  0.00     0.188 C 
BRANCH  29  30
ATOM     30  O   UNL     1       2.347   4.592  -0.661  1.00  0.00    -0.377 OA
BRANCH  30  31
ATOM     31  C   UNL     1       3.118   5.670  -1.202  1.00  0.00     0.188 C 
BRANCH  31  32
ATOM     32  C   UNL     1       4.376   6.116  -0.452  1.00  0.00     0.188 C 
BRANCH  32  33
ATOM     33  O   UNL     1       4.146   6.893   0.725  1.00  0.00    -0.376 OA
BRANCH  33  34
ATOM     34  C   UNL     1       3.017   7.765   0.709  1.00  0.00     0.202 C 
BRANCH  34  35
ATOM     35  C   UNL     1       3.120   9.002  -0.200  1.00  0.00     0.261 C 
BRANCH  35  36
ATOM     36  O   UNL     1       3.381   8.718  -1.593  1.00  0.00    -0.460 OA
BRANCH  36  37
ATOM     37  C   UNL     1       4.643   8.969  -2.011  1.00  0.00     0.338 C 
ATOM     38  O   UNL     1       5.576   9.378  -1.322  1.00  0.00    -0.246 OA
BRANCH  37  39
ATOM     39  C   UNL     1       4.846   8.586  -3.424  1.00  0.00     0.060 A 
ATOM     40  C   UNL     1       5.962   7.799  -3.742  1.00  0.00     0.016 A 
ATOM     41  C   UNL     1       4.066   9.130  -4.446  1.00  0.00     0.016 A 
ATOM     42  C   UNL     1       6.345   7.608  -5.074  1.00  0.00     0.010 A 
ATOM     43  C   UNL     1       4.457   8.947  -5.781  1.00  0.00     0.010 A 
ATOM     44  C   UNL     1       5.628   8.230  -6.102  1.00  0.00    -0.014 A 
BRANCH  44  45
ATOM     45  C   UNL     1       6.209   8.347  -7.470  1.00  0.00     0.031 A 
ATOM     46  C   UNL     1       6.827   9.662  -7.873  1.00  0.00     0.074 A 
ATOM     47  C   UNL     1       6.196   7.330  -8.351  1.00  0.00     0.049 A 
ATOM     48  N   UNL     1       7.231  10.077  -9.048  1.00  0.00    -0.248 NA
ATOM     49  C   UNL     1       7.006  10.647  -6.795  1.00  0.00     0.031 C 
ATOM     50  C   UNL     1       5.704   5.983  -8.085  1.00  0.00     0.029 A 
ATOM     51  N   UNL     1       6.588   7.294  -9.671  1.00  0.00    -0.354 N 
ATOM     52  C   UNL     1       7.672  11.381  -8.857  1.00  0.00     0.074 A 
ATOM     53  C   UNL     1       7.477  11.692  -7.457  1.00  0.00     0.031 C 
ATOM     54  C   UNL     1       5.788   5.259  -9.216  1.00  0.00     0.029 A 
ATOM     55  C   UNL     1       6.291   6.108 -10.297  1.00  0.00     0.049 A 
ATOM     56  H   UNL     1       7.037   8.045 -10.122  1.00  0.00     0.167 HD
ATOM     57  C   UNL     1       8.190  12.245  -9.764  1.00  0.00     0.037 A 
ATOM     58  C   UNL     1       6.368   5.764 -11.600  1.00  0.00     0.037 A 
ATOM     59  C   UNL     1       8.400  11.932 -11.153  1.00  0.00     0.049 A 
ATOM     60  C   UNL     1       6.872   6.765 -12.614  1.00  0.00     0.074 A 
ATOM     61  C   UNL     1       8.941  12.731 -12.145  1.00  0.00     0.029 A 
ATOM     62  N   UNL     1       8.070  10.724 -11.750  1.00  0.00    -0.354 N 
ATOM     63  N   UNL     1       7.286   7.996 -12.432  1.00  0.00    -0.248 NA
ATOM     64  C   UNL     1       6.915   6.327 -14.019  1.00  0.00     0.031 C 
ATOM     65  C   UNL     1       8.878  12.031 -13.354  1.00  0.00     0.029 A 
ATOM     66  C   UNL     1       8.365  10.769 -13.103  1.00  0.00     0.049 A 
ATOM     67  H   UNL     1       7.684   9.949 -11.281  1.00  0.00     0.167 HD
ATOM     68  C   UNL     1       7.662   8.466 -13.686  1.00  0.00     0.074 A 
ATOM     69  C   UNL     1       7.438   7.386 -14.622  1.00  0.00     0.031 C 
ATOM     70  C   UNL     1       8.152   9.684 -14.028  1.00  0.00     0.037 A 
BRANCH  57  71
ATOM     71  C   UNL     1       8.515  13.634  -9.293  1.00  0.00     0.064 A 
ATOM     72  C   UNL     1       9.573  13.894  -8.409  1.00  0.00     0.173 A 
ATOM     73  C   UNL     1       7.760  14.726  -9.748  1.00  0.00     0.173 A 
ATOM     74  F   UNL     1      10.320  12.886  -7.934  1.00  0.00    -0.203 F 
ATOM     75  C   UNL     1       9.836  15.189  -7.968  1.00  0.00     0.198 A 
ATOM     76  C   UNL     1       8.049  16.023  -9.334  1.00  0.00     0.198 A 
ATOM     77  F   UNL     1       6.742  14.537 -10.601  1.00  0.00    -0.203 F 
ATOM     78  F   UNL     1      10.812  15.406  -7.075  1.00  0.00    -0.200 F 
ATOM     79  C   UNL     1       9.078  16.253  -8.435  1.00  0.00     0.200 A 
ATOM     80  F   UNL     1       7.325  17.051  -9.800  1.00  0.00    -0.200 F 
ATOM     81  F   UNL     1       9.335  17.498  -8.011  1.00  0.00    -0.200 F 
ENDBRANCH  57  71
BRANCH  58  82
ATOM     82  C   UNL     1       5.911   4.417 -12.038  1.00  0.00     0.064 A 
ATOM     83  C   UNL     1       6.813   3.469 -12.540  1.00  0.00     0.173 A 
ATOM     84  C   UNL     1       4.555   4.057 -11.981  1.00  0.00     0.173 A 
ATOM     85  F   UNL     1       8.114   3.775 -12.649  1.00  0.00    -0.203 F 
ATOM     86  C   UNL     1       6.377   2.219 -12.979  1.00  0.00     0.198 A 
ATOM     87  C   UNL     1       4.125   2.796 -12.388  1.00  0.00     0.198 A 
ATOM     88  F   UNL     1       3.648   4.930 -11.520  1.00  0.00    -0.203 F 
ATOM     89  F   UNL     1       7.254   1.350 -13.499  1.00  0.00    -0.200 F 
ATOM     90  C   UNL     1       5.035   1.880 -12.893  1.00  0.00     0.200 A 
ATOM     91  F   UNL     1       2.828   2.470 -12.295  1.00  0.00    -0.200 F 
ATOM     92  F   UNL     1       4.618   0.676 -13.307  1.00  0.00    -0.200 F 
ENDBRANCH  58  82
BRANCH  70  93
ATOM     93  C   UNL     1       8.532   9.914 -15.465  1.00  0.00     0.064 A 
ATOM     94  C   UNL     1       7.569  10.049 -16.475  1.00  0.00     0.173 A 
ATOM     95  C   UNL     1       9.881  10.073 -15.822  1.00  0.00     0.173 A 
ATOM     96  F   UNL     1       6.267   9.894 -16.191  1.00  0.00    -0.203 F 
ATOM     97  C   UNL     1       7.942  10.319 -17.790  1.00  0.00     0.198 A 
ATOM     98  C   UNL     1      10.248  10.374 -17.131  1.00  0.00     0.198 A 
ATOM     99  F   UNL     1      10.844   9.962 -14.895  1.00  0.00    -0.203 F 
ATOM    100  F   UNL     1       7.006  10.407 -18.746  1.00  0.00    -0.200 F 
ATOM    101  C   UNL     1       9.279  10.492 -18.115  1.00  0.00     0.200 A 
ATOM    102  F   UNL     1      11.540  10.559 -17.438  1.00  0.00    -0.200 F 
ATOM    103  F   UNL     1       9.634  10.769 -19.378  1.00  0.00    -0.200 F 
ENDBRANCH  70  93
ENDBRANCH  44  45
ENDBRANCH  37  39
ENDBRANCH  36  37
ENDBRANCH  35  36
ENDBRANCH  34  35
ENDBRANCH  33  34
ENDBRANCH  32  33
ENDBRANCH  31  32
ENDBRANCH  30  31
ENDBRANCH  29  30
ENDBRANCH   1  29
TORSDOF 27
