REMARK SMILES O=C(C[C@@H]([NH2+]Cc1cccnc1)C(=O)OCCOCCOCCOCCOC(=O)c1ccc(-c2c3nc(c(-c4c(F)c(F)c(F)c(F)c4F)c4ccc([nH]4)c(-c4c(F)c(F)c(F)c(F)c4F)c4nc(c(-c5c(F)c(F)c(F)c(F)c5F)c5ccc2[nH]5)C=C4)C=C3)cc1)Nc1ccc2ccccc2c1
REMARK SMILES IDX 20 1 19 2 18 3 17 4 16 5 15 6 13 7 14 8 4 9 3 10 2 11 1 12
REMARK SMILES IDX 93 13 94 15 95 16 103 17 96 18 102 19 97 20 101 21 98 22
REMARK SMILES IDX 100 23 99 24 5 25 6 28 7 29 8 30 12 31 9 32 11 33 10 34
REMARK SMILES IDX 21 35 22 36 23 37 24 38 25 39 26 40 27 41 28 42 29 43 30 44
REMARK SMILES IDX 31 45 92 46 32 47 91 48 33 49 34 50 35 51 85 52 36 53 90 54
REMARK SMILES IDX 84 55 86 56 37 57 89 58 83 59 82 60 38 62 70 63 50 64 69 65
REMARK SMILES IDX 51 66 54 67 68 68 87 69 52 70 53 71 67 73 88 74 55 75 39 76
REMARK SMILES IDX 40 77 48 78 41 79 42 80 46 81 49 82 43 83 44 84 47 85 45 86
REMARK SMILES IDX 71 87 72 88 80 89 73 90 74 91 78 92 81 93 75 94 76 95 79 96
REMARK SMILES IDX 77 97 56 98 57 99 65 100 58 101 59 102 63 103 66 104 60 105
REMARK SMILES IDX 61 106 64 107 62 108
REMARK H PARENT 93 14 5 26 5 27 86 61 54 72
REMARK Flexibility Score: inf
ROOT
ATOM      1  C   UNL     1       2.901   1.047   3.924  1.00  0.00     0.188 C 
ENDROOT
BRANCH   1   2
ATOM      2  C   UNL     1       3.599   0.081   4.889  1.00  0.00     0.188 C 
BRANCH   2   3
ATOM      3  O   UNL     1       4.670   0.544   5.682  1.00  0.00    -0.376 OA
BRANCH   3   4
ATOM      4  C   UNL     1       5.921   1.004   5.202  1.00  0.00     0.202 C 
BRANCH   4   5
ATOM      5  C   UNL     1       6.530   0.894   3.786  1.00  0.00     0.261 C 
BRANCH   5   6
ATOM      6  O   UNL     1       5.675   0.825   2.643  1.00  0.00    -0.459 OA
BRANCH   6   7
ATOM      7  C   UNL     1       5.315  -0.440   2.340  1.00  0.00     0.365 C 
ATOM      8  O   UNL     1       5.678  -1.399   3.020  1.00  0.00    -0.245 OA
BRANCH   7   9
ATOM      9  C   UNL     1       4.342  -0.590   1.150  1.00  0.00     0.303 C 
BRANCH   9  10
ATOM     10  C   UNL     1       3.935   0.702   0.400  1.00  0.00     0.177 C 
BRANCH  10  11
ATOM     11  C   UNL     1       2.770   0.431  -0.561  1.00  0.00     0.231 C 
ATOM     12  O   UNL     1       1.616   0.758  -0.310  1.00  0.00    -0.274 OA
ATOM     13  N   UNL     1       3.185  -0.333  -1.638  1.00  0.00    -0.326 N 
ATOM     14  H   UNL     1       4.156  -0.393  -1.790  1.00  0.00     0.169 HD
BRANCH  13  15
ATOM     15  C   UNL     1       2.362  -1.032  -2.535  1.00  0.00     0.041 A 
ATOM     16  C   UNL     1       2.700  -2.370  -2.760  1.00  0.00     0.027 A 
ATOM     17  C   UNL     1       1.325  -0.447  -3.260  1.00  0.00     0.034 A 
ATOM     18  C   UNL     1       1.967  -3.148  -3.648  1.00  0.00     0.011 A 
ATOM     19  C   UNL     1       0.688  -1.184  -4.288  1.00  0.00    -0.016 A 
ATOM     20  C   UNL     1       0.982  -2.562  -4.441  1.00  0.00    -0.018 A 
ATOM     21  C   UNL     1      -0.184  -0.591  -5.218  1.00  0.00     0.009 A 
ATOM     22  C   UNL     1       0.339  -3.321  -5.427  1.00  0.00     0.009 A 
ATOM     23  C   UNL     1      -0.739  -1.339  -6.264  1.00  0.00     0.001 A 
ATOM     24  C   UNL     1      -0.501  -2.707  -6.351  1.00  0.00     0.001 A 
ENDBRANCH  13  15
ENDBRANCH  10  11
ENDBRANCH   9  10
BRANCH   9  25
ATOM     25  N   UNL     1       4.790  -1.635   0.175  1.00  0.00    -0.330 N 
ATOM     26  H   UNL     1       5.367  -1.167  -0.523  1.00  0.00     0.347 HD
ATOM     27  H   UNL     1       3.922  -2.049  -0.164  1.00  0.00     0.347 HD
BRANCH  25  28
ATOM     28  C   UNL     1       5.562  -2.779   0.682  1.00  0.00     0.299 C 
BRANCH  28  29
ATOM     29  C   UNL     1       4.778  -3.886   1.345  1.00  0.00     0.024 A 
ATOM     30  C   UNL     1       5.170  -5.212   1.132  1.00  0.00     0.013 A 
ATOM     31  C   UNL     1       3.717  -3.701   2.227  1.00  0.00     0.120 A 
ATOM     32  C   UNL     1       4.470  -6.259   1.726  1.00  0.00     0.021 A 
ATOM     33  N   UNL     1       3.001  -4.697   2.803  1.00  0.00    -0.264 NA
ATOM     34  C   UNL     1       3.390  -5.955   2.533  1.00  0.00     0.111 A 
ENDBRANCH  28  29
ENDBRANCH  25  28
ENDBRANCH   9  25
ENDBRANCH   7   9
ENDBRANCH   6   7
ENDBRANCH   5   6
ENDBRANCH   4   5
ENDBRANCH   3   4
ENDBRANCH   2   3
ENDBRANCH   1   2
BRANCH   1  35
ATOM     35  O   UNL     1       3.680   2.155   3.531  1.00  0.00    -0.377 OA
BRANCH  35  36
ATOM     36  C   UNL     1       3.744   3.292   4.380  1.00  0.00     0.188 C 
BRANCH  36  37
ATOM     37  C   UNL     1       3.258   3.225   5.843  1.00  0.00     0.188 C 
BRANCH  37  38
ATOM     38  O   UNL     1       2.081   2.462   6.044  1.00  0.00    -0.376 OA
BRANCH  38  39
ATOM     39  C   UNL     1       0.834   3.136   6.093  1.00  0.00     0.202 C 
BRANCH  39  40
ATOM     40  C   UNL     1       0.376   3.875   4.825  1.00  0.00     0.261 C 
BRANCH  40  41
ATOM     41  O   UNL     1       1.231   4.928   4.349  1.00  0.00    -0.460 OA
BRANCH  41  42
ATOM     42  C   UNL     1       1.546   5.931   5.195  1.00  0.00     0.338 C 
ATOM     43  O   UNL     1       1.137   6.105   6.323  1.00  0.00    -0.246 OA
BRANCH  42  44
ATOM     44  C   UNL     1       2.650   6.702   4.578  1.00  0.00     0.060 A 
ATOM     45  C   UNL     1       3.865   6.824   5.268  1.00  0.00     0.016 A 
ATOM     46  C   UNL     1       2.481   7.307   3.332  1.00  0.00     0.016 A 
ATOM     47  C   UNL     1       4.896   7.600   4.736  1.00  0.00     0.010 A 
ATOM     48  C   UNL     1       3.504   8.102   2.811  1.00  0.00     0.010 A 
ATOM     49  C   UNL     1       4.698   8.289   3.533  1.00  0.00    -0.014 A 
BRANCH  49  50
ATOM     50  C   UNL     1       5.610   9.394   3.153  1.00  0.00     0.031 A 
ATOM     51  C   UNL     1       5.191  10.798   3.497  1.00  0.00     0.074 A 
ATOM     52  C   UNL     1       6.779   9.172   2.529  1.00  0.00     0.049 A 
ATOM     53  N   UNL     1       5.752  11.939   3.190  1.00  0.00    -0.248 NA
ATOM     54  C   UNL     1       3.960  10.927   4.295  1.00  0.00     0.031 C 
ATOM     55  C   UNL     1       7.328   7.861   2.200  1.00  0.00     0.029 A 
ATOM     56  N   UNL     1       7.711  10.060   2.051  1.00  0.00    -0.354 N 
ATOM     57  C   UNL     1       4.937  12.918   3.745  1.00  0.00     0.074 A 
ATOM     58  C   UNL     1       3.825  12.241   4.375  1.00  0.00     0.031 C 
ATOM     59  C   UNL     1       8.498   8.029   1.559  1.00  0.00     0.029 A 
ATOM     60  C   UNL     1       8.758   9.459   1.397  1.00  0.00     0.049 A 
ATOM     61  H   UNL     1       7.636  11.035   2.166  1.00  0.00     0.167 HD
ATOM     62  C   UNL     1       5.104  14.261   3.739  1.00  0.00     0.037 A 
ATOM     63  C   UNL     1       9.788  10.008   0.723  1.00  0.00     0.037 A 
ATOM     64  C   UNL     1       6.206  14.931   3.101  1.00  0.00     0.049 A 
ATOM     65  C   UNL     1       9.899  11.511   0.635  1.00  0.00     0.074 A 
ATOM     66  C   UNL     1       6.468  16.287   3.030  1.00  0.00     0.029 A 
ATOM     67  N   UNL     1       7.225  14.288   2.413  1.00  0.00    -0.354 N 
ATOM     68  N   UNL     1       9.131  12.434   1.165  1.00  0.00    -0.248 NA
ATOM     69  C   UNL     1      11.022  12.049  -0.146  1.00  0.00     0.031 C 
ATOM     70  C   UNL     1       7.612  16.469   2.246  1.00  0.00     0.029 A 
ATOM     71  C   UNL     1       8.105  15.223   1.892  1.00  0.00     0.049 A 
ATOM     72  H   UNL     1       7.310  13.313   2.310  1.00  0.00     0.167 HD
ATOM     73  C   UNL     1       9.702  13.654   0.821  1.00  0.00     0.074 A 
ATOM     74  C   UNL     1      10.882  13.354   0.037  1.00  0.00     0.031 C 
ATOM     75  C   UNL     1       9.290  14.908   1.133  1.00  0.00     0.037 A 
BRANCH  62  76
ATOM     76  C   UNL     1       4.046  15.091   4.411  1.00  0.00     0.064 A 
ATOM     77  C   UNL     1       3.859  15.068   5.802  1.00  0.00     0.173 A 
ATOM     78  C   UNL     1       3.207  15.921   3.652  1.00  0.00     0.173 A 
ATOM     79  F   UNL     1       4.623  14.280   6.574  1.00  0.00    -0.203 F 
ATOM     80  C   UNL     1       2.846  15.812   6.402  1.00  0.00     0.198 A 
ATOM     81  C   UNL     1       2.221  16.693   4.259  1.00  0.00     0.198 A 
ATOM     82  F   UNL     1       3.344  15.985   2.319  1.00  0.00    -0.203 F 
ATOM     83  F   UNL     1       2.644  15.722   7.724  1.00  0.00    -0.200 F 
ATOM     84  C   UNL     1       2.033  16.629   5.631  1.00  0.00     0.200 A 
ATOM     85  F   UNL     1       1.445  17.492   3.514  1.00  0.00    -0.200 F 
ATOM     86  F   UNL     1       1.060  17.346   6.210  1.00  0.00    -0.200 F 
ENDBRANCH  62  76
BRANCH  63  87
ATOM     87  C   UNL     1      10.802   9.137   0.070  1.00  0.00     0.064 A 
ATOM     88  C   UNL     1      12.128   9.110   0.523  1.00  0.00     0.173 A 
ATOM     89  C   UNL     1      10.475   8.333  -1.033  1.00  0.00     0.173 A 
ATOM     90  F   UNL     1      12.498   9.881   1.557  1.00  0.00    -0.203 F 
ATOM     91  C   UNL     1      13.092   8.328  -0.111  1.00  0.00     0.198 A 
ATOM     92  C   UNL     1      11.433   7.527  -1.646  1.00  0.00     0.198 A 
ATOM     93  F   UNL     1       9.223   8.324  -1.511  1.00  0.00    -0.203 F 
ATOM     94  F   UNL     1      14.363   8.360   0.314  1.00  0.00    -0.200 F 
ATOM     95  C   UNL     1      12.742   7.532  -1.190  1.00  0.00     0.200 A 
ATOM     96  F   UNL     1      11.087   6.750  -2.682  1.00  0.00    -0.200 F 
ATOM     97  F   UNL     1      13.668   6.776  -1.797  1.00  0.00    -0.200 F 
ENDBRANCH  63  87
BRANCH  75  98
ATOM     98  C   UNL     1      10.153  16.058   0.693  1.00  0.00     0.064 A 
ATOM     99  C   UNL     1      10.260  16.439  -0.652  1.00  0.00     0.173 A 
ATOM    100  C   UNL     1      10.837  16.828   1.648  1.00  0.00     0.173 A 
ATOM    101  F   UNL     1       9.638  15.731  -1.606  1.00  0.00    -0.203 F 
ATOM    102  C   UNL     1      11.037  17.534  -1.027  1.00  0.00     0.198 A 
ATOM    103  C   UNL     1      11.583  17.942   1.274  1.00  0.00     0.198 A 
ATOM    104  F   UNL     1      10.763  16.513   2.950  1.00  0.00    -0.203 F 
ATOM    105  F   UNL     1      11.162  17.851  -2.323  1.00  0.00    -0.200 F 
ATOM    106  C   UNL     1      11.688  18.290  -0.064  1.00  0.00     0.200 A 
ATOM    107  F   UNL     1      12.196  18.681   2.209  1.00  0.00    -0.200 F 
ATOM    108  F   UNL     1      12.423  19.351  -0.425  1.00  0.00    -0.200 F 
ENDBRANCH  75  98
ENDBRANCH  49  50
ENDBRANCH  42  44
ENDBRANCH  41  42
ENDBRANCH  40  41
ENDBRANCH  39  40
ENDBRANCH  38  39
ENDBRANCH  37  38
ENDBRANCH  36  37
ENDBRANCH  35  36
ENDBRANCH   1  35
TORSDOF 26
