REMARK SMILES C[N@@H+](CC(=O)OCCOCCOCCOCCOC(=O)c1ccc(-c2c3nc(c(-c4c(F)c(F)c(F)c(F)c4F)c4ccc([nH]4)c(-c4c(F)c(F)c(F)c(F)c4F)c4nc(c(-c5c(F)c(F)c(F)c(F)c5F)c5ccc2[nH]5)C=C4)C=C3)cc1)Cc1noc(-c2ccccc2Cl)n1
REMARK SMILES IDX 11 1 10 2 9 3 8 4 7 5 6 6 4 7 5 8 3 9 2 10 1 11 84 13 85 14
REMARK SMILES IDX 86 15 96 16 87 17 88 18 89 19 90 20 94 21 91 22 93 23 95 24
REMARK SMILES IDX 92 25 12 26 13 27 14 28 15 29 16 30 17 31 18 32 19 33 20 34
REMARK SMILES IDX 21 35 22 36 83 37 23 38 82 39 24 40 25 41 26 42 76 43 27 44
REMARK SMILES IDX 81 45 75 46 77 47 28 48 80 49 74 50 73 51 29 53 61 54 41 55
REMARK SMILES IDX 60 56 42 57 45 58 59 59 78 60 43 61 44 62 58 64 79 65 46 66
REMARK SMILES IDX 30 67 31 68 39 69 32 70 33 71 37 72 40 73 34 74 35 75 38 76
REMARK SMILES IDX 36 77 62 78 63 79 71 80 64 81 65 82 69 83 72 84 66 85 67 86
REMARK SMILES IDX 70 87 68 88 47 89 48 90 56 91 49 92 50 93 54 94 57 95 51 96
REMARK SMILES IDX 52 97 55 98 53 99
REMARK H PARENT 2 12 77 52 45 63
REMARK Flexibility Score: inf
ROOT
ATOM      1  C   UNL     1      -1.026  -3.471   0.468  1.00  0.00     0.188 C 
ENDROOT
BRANCH   1   2
ATOM      2  C   UNL     1      -2.544  -2.914   0.310  1.00  0.00     0.188 C 
BRANCH   2   3
ATOM      3  O   UNL     1      -3.174  -3.059  -0.939  1.00  0.00    -0.376 OA
BRANCH   3   4
ATOM      4  C   UNL     1      -3.844  -1.910  -1.442  1.00  0.00     0.202 C 
BRANCH   4   5
ATOM      5  C   UNL     1      -3.168  -0.509  -1.587  1.00  0.00     0.261 C 
BRANCH   5   6
ATOM      6  O   UNL     1      -2.088  -0.096  -0.722  1.00  0.00    -0.459 OA
BRANCH   6   7
ATOM      7  C   UNL     1      -2.345   0.336   0.525  1.00  0.00     0.361 C 
ATOM      8  O   UNL     1      -3.494   0.484   0.941  1.00  0.00    -0.245 OA
BRANCH   7   9
ATOM      9  C   UNL     1      -1.132   0.587   1.444  1.00  0.00     0.386 C 
BRANCH   9  10
ATOM     10  N   UNL     1       0.264   0.301   1.061  1.00  0.00    -0.322 N 
ATOM     11  C   UNL     1       0.757   0.909  -0.158  1.00  0.00     0.333 C 
ATOM     12  H   UNL     1       0.683   0.883   1.785  1.00  0.00     0.348 HD
BRANCH  10  13
ATOM     13  C   UNL     1       0.894  -0.974   1.464  1.00  0.00     0.345 C 
BRANCH  13  14
ATOM     14  C   UNL     1       0.534  -2.134   0.609  1.00  0.00     0.226 A 
ATOM     15  N   UNL     1       0.790  -3.817   0.917  1.00  0.00    -0.056 NA
ATOM     16  N   UNL     1      -0.535  -1.897  -0.820  1.00  0.00    -0.186 NA
ATOM     17  O   UNL     1      -0.257  -4.644  -0.597  1.00  0.00    -0.334 OA
ATOM     18  C   UNL     1      -0.891  -3.196  -1.593  1.00  0.00     0.259 A 
BRANCH  18  19
ATOM     19  C   UNL     1      -1.112  -3.366  -3.029  1.00  0.00     0.058 A 
ATOM     20  C   UNL     1      -1.937  -4.390  -3.505  1.00  0.00     0.015 A 
ATOM     21  C   UNL     1      -0.581  -2.442  -3.957  1.00  0.00     0.053 A 
ATOM     22  C   UNL     1      -2.276  -4.449  -4.862  1.00  0.00     0.001 A 
ATOM     23  C   UNL     1      -0.916  -2.514  -5.311  1.00  0.00     0.021 A 
ATOM     24  Cl  UNL     1       0.536  -1.183  -3.543  1.00  0.00    -0.083 Cl
ATOM     25  C   UNL     1      -1.778  -3.506  -5.760  1.00  0.00     0.002 A 
ENDBRANCH  18  19
ENDBRANCH  13  14
ENDBRANCH  10  13
ENDBRANCH   9  10
ENDBRANCH   7   9
ENDBRANCH   6   7
ENDBRANCH   5   6
ENDBRANCH   4   5
ENDBRANCH   3   4
ENDBRANCH   2   3
ENDBRANCH   1   2
BRANCH   1  26
ATOM     26  O   UNL     1       0.676  -3.289  -0.753  1.00  0.00    -0.377 OA
BRANCH  26  27
ATOM     27  C   UNL     1       1.686  -4.204  -1.420  1.00  0.00     0.188 C 
BRANCH  27  28
ATOM     28  C   UNL     1       1.610  -5.762  -1.511  1.00  0.00     0.188 C 
BRANCH  28  29
ATOM     29  O   UNL     1       1.872  -6.590  -0.395  1.00  0.00    -0.376 OA
BRANCH  29  30
ATOM     30  C   UNL     1       2.783  -6.203   0.612  1.00  0.00     0.202 C 
BRANCH  30  31
ATOM     31  C   UNL     1       4.188  -5.628   0.329  1.00  0.00     0.261 C 
BRANCH  31  32
ATOM     32  O   UNL     1       4.429  -4.936  -0.900  1.00  0.00    -0.460 OA
BRANCH  32  33
ATOM     33  C   UNL     1       4.668  -5.669  -2.009  1.00  0.00     0.338 C 
ATOM     34  O   UNL     1       4.772  -6.878  -2.090  1.00  0.00    -0.246 OA
BRANCH  33  35
ATOM     35  C   UNL     1       4.593  -4.747  -3.171  1.00  0.00     0.060 A 
ATOM     36  C   UNL     1       3.663  -4.986  -4.199  1.00  0.00     0.016 A 
ATOM     37  C   UNL     1       5.450  -3.650  -3.245  1.00  0.00     0.016 A 
ATOM     38  C   UNL     1       3.600  -4.146  -5.311  1.00  0.00     0.010 A 
ATOM     39  C   UNL     1       5.433  -2.846  -4.386  1.00  0.00     0.010 A 
ATOM     40  C   UNL     1       4.542  -3.122  -5.440  1.00  0.00    -0.014 A 
BRANCH  40  41
ATOM     41  C   UNL     1       4.851  -2.576  -6.781  1.00  0.00     0.031 A 
ATOM     42  C   UNL     1       5.949  -3.259  -7.548  1.00  0.00     0.074 A 
ATOM     43  C   UNL     1       4.231  -1.496  -7.280  1.00  0.00     0.049 A 
ATOM     44  N   UNL     1       6.580  -2.875  -8.626  1.00  0.00    -0.248 NA
ATOM     45  C   UNL     1       6.412  -4.550  -7.007  1.00  0.00     0.031 C 
ATOM     46  C   UNL     1       3.107  -0.803  -6.660  1.00  0.00     0.029 A 
ATOM     47  N   UNL     1       4.494  -0.773  -8.416  1.00  0.00    -0.354 N 
ATOM     48  C   UNL     1       7.530  -3.858  -8.869  1.00  0.00     0.074 A 
ATOM     49  C   UNL     1       7.408  -4.846  -7.823  1.00  0.00     0.031 C 
ATOM     50  C   UNL     1       2.800   0.275  -7.403  1.00  0.00     0.029 A 
ATOM     51  C   UNL     1       3.744   0.373  -8.517  1.00  0.00     0.049 A 
ATOM     52  H   UNL     1       5.155  -1.048  -9.092  1.00  0.00     0.167 HD
ATOM     53  C   UNL     1       8.432  -3.921  -9.874  1.00  0.00     0.037 A 
ATOM     54  C   UNL     1       3.852   1.401  -9.382  1.00  0.00     0.037 A 
ATOM     55  C   UNL     1       8.550  -2.920 -10.898  1.00  0.00     0.049 A 
ATOM     56  C   UNL     1       4.930   1.359 -10.441  1.00  0.00     0.074 A 
ATOM     57  C   UNL     1       9.421  -2.883 -11.970  1.00  0.00     0.029 A 
ATOM     58  N   UNL     1       7.778  -1.769 -10.962  1.00  0.00    -0.354 N 
ATOM     59  N   UNL     1       5.826   0.431 -10.677  1.00  0.00    -0.248 NA
ATOM     60  C   UNL     1       5.016   2.512 -11.350  1.00  0.00     0.031 C 
ATOM     61  C   UNL     1       9.225  -1.674 -12.642  1.00  0.00     0.029 A 
ATOM     62  C   UNL     1       8.173  -0.999 -12.040  1.00  0.00     0.049 A 
ATOM     63  H   UNL     1       7.056  -1.536 -10.334  1.00  0.00     0.167 HD
ATOM     64  C   UNL     1       6.549   0.863 -11.783  1.00  0.00     0.074 A 
ATOM     65  C   UNL     1       5.987   2.140 -12.172  1.00  0.00     0.031 C 
ATOM     66  C   UNL     1       7.579   0.257 -12.424  1.00  0.00     0.037 A 
BRANCH  53  67
ATOM     67  C   UNL     1       9.387  -5.079  -9.881  1.00  0.00     0.064 A 
ATOM     68  C   UNL     1       8.960  -6.394 -10.121  1.00  0.00     0.173 A 
ATOM     69  C   UNL     1      10.756  -4.866  -9.657  1.00  0.00     0.173 A 
ATOM     70  F   UNL     1       7.660  -6.657 -10.321  1.00  0.00    -0.203 F 
ATOM     71  C   UNL     1       9.864  -7.455 -10.106  1.00  0.00     0.198 A 
ATOM     72  C   UNL     1      11.661  -5.923  -9.682  1.00  0.00     0.198 A 
ATOM     73  F   UNL     1      11.219  -3.629  -9.420  1.00  0.00    -0.203 F 
ATOM     74  F   UNL     1       9.424  -8.709 -10.280  1.00  0.00    -0.200 F 
ATOM     75  C   UNL     1      11.213  -7.217  -9.896  1.00  0.00     0.200 A 
ATOM     76  F   UNL     1      12.967  -5.688  -9.494  1.00  0.00    -0.200 F 
ATOM     77  F   UNL     1      12.083  -8.237  -9.893  1.00  0.00    -0.200 F 
ENDBRANCH  53  67
BRANCH  54  78
ATOM     78  C   UNL     1       2.940   2.572  -9.271  1.00  0.00     0.064 A 
ATOM     79  C   UNL     1       2.014   2.864 -10.283  1.00  0.00     0.173 A 
ATOM     80  C   UNL     1       2.989   3.439  -8.168  1.00  0.00     0.173 A 
ATOM     81  F   UNL     1       1.944   2.082 -11.370  1.00  0.00    -0.203 F 
ATOM     82  C   UNL     1       1.190   3.986 -10.207  1.00  0.00     0.198 A 
ATOM     83  C   UNL     1       2.141   4.541  -8.076  1.00  0.00     0.198 A 
ATOM     84  F   UNL     1       3.859   3.212  -7.173  1.00  0.00    -0.203 F 
ATOM     85  F   UNL     1       0.354   4.269 -11.215  1.00  0.00    -0.200 F 
ATOM     86  C   UNL     1       1.249   4.819  -9.101  1.00  0.00     0.200 A 
ATOM     87  F   UNL     1       2.192   5.336  -6.999  1.00  0.00    -0.200 F 
ATOM     88  F   UNL     1       0.455   5.896  -9.027  1.00  0.00    -0.200 F 
ENDBRANCH  54  78
BRANCH  66  89
ATOM     89  C   UNL     1       8.126   0.916 -13.658  1.00  0.00     0.064 A 
ATOM     90  C   UNL     1       8.896   2.086 -13.600  1.00  0.00     0.173 A 
ATOM     91  C   UNL     1       7.953   0.305 -14.911  1.00  0.00     0.173 A 
ATOM     92  F   UNL     1       9.082   2.715 -12.429  1.00  0.00    -0.203 F 
ATOM     93  C   UNL     1       9.461   2.627 -14.752  1.00  0.00     0.198 A 
ATOM     94  C   UNL     1       8.550   0.828 -16.054  1.00  0.00     0.198 A 
ATOM     95  F   UNL     1       7.234  -0.822 -15.020  1.00  0.00    -0.203 F 
ATOM     96  F   UNL     1      10.164   3.766 -14.679  1.00  0.00    -0.200 F 
ATOM     97  C   UNL     1       9.300   1.991 -15.974  1.00  0.00     0.200 A 
ATOM     98  F   UNL     1       8.411   0.198 -17.228  1.00  0.00    -0.200 F 
ATOM     99  F   UNL     1       9.867   2.500 -17.077  1.00  0.00    -0.200 F 
ENDBRANCH  66  89
ENDBRANCH  40  41
ENDBRANCH  33  35
ENDBRANCH  32  33
ENDBRANCH  31  32
ENDBRANCH  30  31
ENDBRANCH  29  30
ENDBRANCH  28  29
ENDBRANCH  27  28
ENDBRANCH  26  27
ENDBRANCH   1  26
TORSDOF 24
