REMARK SMILES C#CC[N@@H+](CC(=O)OCCOCCOCCOCCOC(=O)c1ccc(-c2c3nc(c(-c4c(F)c(F)c(F)c(F)c4F)c4ccc([nH]4)c(-c4c(F)c(F)c(F)c(F)c4F)c4nc(c(-c5c(F)c(F)c(F)c(F)c5F)c5ccc2[nH]5)C=C4)C=C3)cc1)Cc1cn(CC)c2ccccc12
REMARK SMILES IDX 13 1 12 2 11 3 10 4 9 5 8 6 6 7 7 8 5 9 4 10 3 12 2 13 1 14
REMARK SMILES IDX 86 15 87 16 88 17 97 18 89 19 92 20 96 21 93 22 95 23 94 24
REMARK SMILES IDX 90 25 91 26 14 27 15 28 16 29 17 30 18 31 19 32 20 33 21 34
REMARK SMILES IDX 22 35 23 36 24 37 85 38 25 39 84 40 26 41 27 42 28 43 78 44
REMARK SMILES IDX 29 45 83 46 77 47 79 48 30 49 82 50 76 51 75 52 31 54 63 55
REMARK SMILES IDX 43 56 62 57 44 58 47 59 61 60 80 61 45 62 46 63 60 65 81 66
REMARK SMILES IDX 48 67 32 68 33 69 41 70 34 71 35 72 39 73 42 74 36 75 37 76
REMARK SMILES IDX 40 77 38 78 64 79 65 80 73 81 66 82 67 83 71 84 74 85 68 86
REMARK SMILES IDX 69 87 72 88 70 89 49 90 50 91 58 92 51 93 52 94 56 95 59 96
REMARK SMILES IDX 53 97 54 98 57 99 55 100
REMARK H PARENT 4 11 79 53 47 64
REMARK Flexibility Score: inf
ROOT
ATOM      1  C   UNL     1      -3.762  -3.208   3.260  1.00  0.00     0.188 C 
ENDROOT
BRANCH   1   2
ATOM      2  C   UNL     1      -5.080  -3.420   2.517  1.00  0.00     0.188 C 
BRANCH   2   3
ATOM      3  O   UNL     1      -5.007  -4.423   1.520  1.00  0.00    -0.376 OA
BRANCH   3   4
ATOM      4  C   UNL     1      -4.829  -4.027   0.159  1.00  0.00     0.202 C 
BRANCH   4   5
ATOM      5  C   UNL     1      -5.073  -2.582  -0.335  1.00  0.00     0.261 C 
BRANCH   5   6
ATOM      6  O   UNL     1      -4.222  -1.517   0.179  1.00  0.00    -0.459 OA
BRANCH   6   7
ATOM      7  C   UNL     1      -4.735  -0.266  -0.051  1.00  0.00     0.361 C 
ATOM      8  O   UNL     1      -5.855  -0.121  -0.552  1.00  0.00    -0.245 OA
BRANCH   7   9
ATOM      9  C   UNL     1      -3.894   1.002   0.248  1.00  0.00     0.387 C 
BRANCH   9  10
ATOM     10  N   UNL     1      -2.494   0.985   0.775  1.00  0.00    -0.312 N 
ATOM     11  H   UNL     1      -2.204   1.959   0.685  1.00  0.00     0.349 HD
BRANCH  10  12
ATOM     12  C   UNL     1      -1.745   0.062  -0.006  1.00  0.00     0.354 C 
BRANCH  12  13
ATOM     13  C   UNL     1      -0.225   0.062  -0.006  1.00  0.00    -0.047 C 
ATOM     14  C   UNL     1       1.079   0.062  -0.006  1.00  0.00     0.010 C 
ENDBRANCH  12  13
ENDBRANCH  10  12
BRANCH  10  15
ATOM     15  C   UNL     1      -2.238   0.766   2.203  1.00  0.00     0.302 C 
BRANCH  15  16
ATOM     16  C   UNL     1      -3.458   1.029   2.992  1.00  0.00     0.032 A 
ATOM     17  C   UNL     1      -4.461   0.107   3.147  1.00  0.00     0.096 A 
ATOM     18  C   UNL     1      -3.947   2.253   3.512  1.00  0.00     0.008 A 
ATOM     19  N   UNL     1      -5.592   0.742   3.546  1.00  0.00    -0.347 N 
ATOM     20  C   UNL     1      -5.280   2.037   3.893  1.00  0.00     0.048 A 
ATOM     21  C   UNL     1      -3.410   3.550   3.579  1.00  0.00     0.011 A 
ATOM     22  C   UNL     1      -6.072   3.063   4.415  1.00  0.00     0.027 A 
ATOM     23  C   UNL     1      -4.205   4.587   4.066  1.00  0.00     0.001 A 
ATOM     24  C   UNL     1      -5.508   4.340   4.493  1.00  0.00     0.002 A 
BRANCH  19  25
ATOM     25  C   UNL     1      -6.907   0.196   3.262  1.00  0.00     0.119 C 
ATOM     26  C   UNL     1      -7.578  -0.428   4.463  1.00  0.00     0.027 C 
ENDBRANCH  19  25
ENDBRANCH  15  16
ENDBRANCH  10  15
ENDBRANCH   9  10
ENDBRANCH   7   9
ENDBRANCH   6   7
ENDBRANCH   5   6
ENDBRANCH   4   5
ENDBRANCH   3   4
ENDBRANCH   2   3
ENDBRANCH   1   2
BRANCH   1  27
ATOM     27  O   UNL     1      -2.690  -2.819   2.407  1.00  0.00    -0.377 OA
BRANCH  27  28
ATOM     28  C   UNL     1      -1.899  -3.874   1.861  1.00  0.00     0.188 C 
BRANCH  28  29
ATOM     29  C   UNL     1      -1.700  -5.099   2.759  1.00  0.00     0.188 C 
BRANCH  29  30
ATOM     30  O   UNL     1      -1.160  -4.882   4.063  1.00  0.00    -0.376 OA
BRANCH  30  31
ATOM     31  C   UNL     1      -0.369  -3.719   4.286  1.00  0.00     0.202 C 
BRANCH  31  32
ATOM     32  C   UNL     1       1.087  -3.794   3.819  1.00  0.00     0.261 C 
BRANCH  32  33
ATOM     33  O   UNL     1       1.228  -4.094   2.424  1.00  0.00    -0.460 OA
BRANCH  33  34
ATOM     34  C   UNL     1       1.382  -5.408   2.130  1.00  0.00     0.338 C 
ATOM     35  O   UNL     1       1.423  -6.350   2.893  1.00  0.00    -0.246 OA
BRANCH  34  36
ATOM     36  C   UNL     1       1.373  -5.553   0.664  1.00  0.00     0.060 A 
ATOM     37  C   UNL     1       0.427  -6.393   0.058  1.00  0.00     0.016 A 
ATOM     38  C   UNL     1       2.356  -4.915  -0.091  1.00  0.00     0.016 A 
ATOM     39  C   UNL     1       0.472  -6.612  -1.314  1.00  0.00     0.010 A 
ATOM     40  C   UNL     1       2.421  -5.160  -1.459  1.00  0.00     0.010 A 
ATOM     41  C   UNL     1       1.500  -6.033  -2.064  1.00  0.00    -0.014 A 
BRANCH  41  42
ATOM     42  C   UNL     1       1.750  -6.486  -3.444  1.00  0.00     0.031 A 
ATOM     43  C   UNL     1       2.815  -7.517  -3.663  1.00  0.00     0.074 A 
ATOM     44  C   UNL     1       1.061  -5.960  -4.468  1.00  0.00     0.049 A 
ATOM     45  N   UNL     1       3.331  -7.955  -4.780  1.00  0.00    -0.248 NA
ATOM     46  C   UNL     1       3.385  -8.131  -2.451  1.00  0.00     0.031 C 
ATOM     47  C   UNL     1      -0.033  -5.000  -4.345  1.00  0.00     0.029 A 
ATOM     48  N   UNL     1       1.203  -6.147  -5.817  1.00  0.00    -0.354 N 
ATOM     49  C   UNL     1       4.295  -8.882  -4.407  1.00  0.00     0.074 A 
ATOM     50  C   UNL     1       4.314  -8.923  -2.962  1.00  0.00     0.031 C 
ATOM     51  C   UNL     1      -0.450  -4.660  -5.576  1.00  0.00     0.029 A 
ATOM     52  C   UNL     1       0.382  -5.341  -6.564  1.00  0.00     0.049 A 
ATOM     53  H   UNL     1       1.831  -6.794  -6.211  1.00  0.00     0.167 HD
ATOM     54  C   UNL     1       5.089  -9.630  -5.207  1.00  0.00     0.037 A 
ATOM     55  C   UNL     1       0.347  -5.154  -7.897  1.00  0.00     0.037 A 
ATOM     56  C   UNL     1       5.062  -9.558  -6.644  1.00  0.00     0.049 A 
ATOM     57  C   UNL     1       1.315  -5.919  -8.762  1.00  0.00     0.074 A 
ATOM     58  C   UNL     1       5.815 -10.268  -7.560  1.00  0.00     0.029 A 
ATOM     59  N   UNL     1       4.239  -8.708  -7.371  1.00  0.00    -0.354 N 
ATOM     60  N   UNL     1       2.219  -6.804  -8.414  1.00  0.00    -0.248 NA
ATOM     61  C   UNL     1       1.261  -5.655 -10.206  1.00  0.00     0.031 C 
ATOM     62  C   UNL     1       5.492  -9.803  -8.839  1.00  0.00     0.029 A 
ATOM     63  C   UNL     1       4.488  -8.853  -8.725  1.00  0.00     0.049 A 
ATOM     64  H   UNL     1       3.575  -8.094  -6.982  1.00  0.00     0.167 HD
ATOM     65  C   UNL     1       2.817  -7.227  -9.594  1.00  0.00     0.074 A 
ATOM     66  C   UNL     1       2.164  -6.507 -10.669  1.00  0.00     0.031 C 
ATOM     67  C   UNL     1       3.814  -8.129  -9.775  1.00  0.00     0.037 A 
BRANCH  54  68
ATOM     68  C   UNL     1       6.072 -10.551  -4.542  1.00  0.00     0.064 A 
ATOM     69  C   UNL     1       5.657 -11.679  -3.818  1.00  0.00     0.173 A 
ATOM     70  C   UNL     1       7.450 -10.304  -4.635  1.00  0.00     0.173 A 
ATOM     71  F   UNL     1       4.351 -11.953  -3.683  1.00  0.00    -0.203 F 
ATOM     72  C   UNL     1       6.583 -12.504  -3.183  1.00  0.00     0.198 A 
ATOM     73  C   UNL     1       8.374 -11.151  -4.029  1.00  0.00     0.198 A 
ATOM     74  F   UNL     1       7.903  -9.240  -5.315  1.00  0.00    -0.203 F 
ATOM     75  F   UNL     1       6.159 -13.541  -2.446  1.00  0.00    -0.200 F 
ATOM     76  C   UNL     1       7.940 -12.244  -3.295  1.00  0.00     0.200 A 
ATOM     77  F   UNL     1       9.686 -10.904  -4.149  1.00  0.00    -0.200 F 
ATOM     78  F   UNL     1       8.830 -13.040  -2.687  1.00  0.00    -0.200 F 
ENDBRANCH  54  68
BRANCH  55  79
ATOM     79  C   UNL     1      -0.625  -4.198  -8.488  1.00  0.00     0.064 A 
ATOM     80  C   UNL     1      -1.674  -4.651  -9.299  1.00  0.00     0.173 A 
ATOM     81  C   UNL     1      -0.528  -2.817  -8.260  1.00  0.00     0.173 A 
ATOM     82  F   UNL     1      -1.797  -5.961  -9.562  1.00  0.00    -0.203 F 
ATOM     83  C   UNL     1      -2.577  -3.760  -9.875  1.00  0.00     0.198 A 
ATOM     84  C   UNL     1      -1.450  -1.929  -8.811  1.00  0.00     0.198 A 
ATOM     85  F   UNL     1       0.456  -2.329  -7.490  1.00  0.00    -0.203 F 
ATOM     86  F   UNL     1      -3.543  -4.218 -10.682  1.00  0.00    -0.200 F 
ATOM     87  C   UNL     1      -2.468  -2.400  -9.625  1.00  0.00     0.200 A 
ATOM     88  F   UNL     1      -1.351  -0.618  -8.553  1.00  0.00    -0.200 F 
ATOM     89  F   UNL     1      -3.341  -1.545 -10.174  1.00  0.00    -0.200 F 
ENDBRANCH  55  79
BRANCH  67  90
ATOM     90  C   UNL     1       4.229  -8.423 -11.189  1.00  0.00     0.064 A 
ATOM     91  C   UNL     1       4.938  -7.491 -11.960  1.00  0.00     0.173 A 
ATOM     92  C   UNL     1       3.961  -9.678 -11.757  1.00  0.00     0.173 A 
ATOM     93  F   UNL     1       5.205  -6.271 -11.469  1.00  0.00    -0.203 F 
ATOM     94  C   UNL     1       5.343  -7.797 -13.257  1.00  0.00     0.198 A 
ATOM     95  C   UNL     1       4.399  -9.993 -13.039  1.00  0.00     0.198 A 
ATOM     96  F   UNL     1       3.293 -10.608 -11.058  1.00  0.00    -0.203 F 
ATOM     97  F   UNL     1       5.976  -6.874 -13.993  1.00  0.00    -0.200 F 
ATOM     98  C   UNL     1       5.082  -9.050 -13.791  1.00  0.00     0.200 A 
ATOM     99  F   UNL     1       4.162 -11.211 -13.546  1.00  0.00    -0.200 F 
ATOM    100  F   UNL     1       5.486  -9.347 -15.033  1.00  0.00    -0.200 F 
ENDBRANCH  67  90
ENDBRANCH  41  42
ENDBRANCH  34  36
ENDBRANCH  33  34
ENDBRANCH  32  33
ENDBRANCH  31  32
ENDBRANCH  30  31
ENDBRANCH  29  30
ENDBRANCH  28  29
ENDBRANCH  27  28
ENDBRANCH   1  27
TORSDOF 26
