REMARK SMILES O=C(OCCOCCOCCOCCOC(=O)c1cc2ncc(Cl)cn2n1)c1ccc(-c2c3nc(c(-c4c(F)c(F)c(F)c(F)c4F)c4ccc([nH]4)c(-c4c(F)c(F)c(F)c(F)c4F)c4nc(c(-c5c(F)c(F)c(F)c(F)c5F)c5ccc2[nH]5)C=C4)C=C3)cc1
REMARK SMILES IDX 8 1 7 2 6 3 5 4 4 5 3 6 2 7 1 8 28 9 29 10 90 11 30 12 89 13
REMARK SMILES IDX 31 14 32 15 33 16 83 17 34 18 88 19 82 20 84 21 35 22 87 23
REMARK SMILES IDX 81 24 80 25 36 27 68 28 48 29 67 30 49 31 52 32 66 33 85 34
REMARK SMILES IDX 50 35 51 36 65 38 86 39 53 40 37 41 38 42 46 43 39 44 40 45
REMARK SMILES IDX 44 46 47 47 41 48 42 49 45 50 43 51 69 52 70 53 78 54 71 55
REMARK SMILES IDX 72 56 76 57 79 58 73 59 74 60 77 61 75 62 54 63 55 64 63 65
REMARK SMILES IDX 56 66 57 67 61 68 64 69 58 70 59 71 62 72 60 73 9 74 10 75
REMARK SMILES IDX 11 76 12 77 13 78 14 79 15 80 16 81 17 82 18 83 19 84 27 85
REMARK SMILES IDX 20 86 26 87 21 88 25 89 22 90 23 91 24 92
REMARK H PARENT 84 26 52 37
REMARK Flexibility Score: inf
ROOT
ATOM      1  C   UNL     1       2.357   1.484  -1.480  1.00  0.00     0.188 C 
ENDROOT
BRANCH   1   2
ATOM      2  C   UNL     1       3.040   1.621  -0.110  1.00  0.00     0.188 C 
BRANCH   2   3
ATOM      3  O   UNL     1       4.340   1.150   0.224  1.00  0.00    -0.376 OA
BRANCH   3   4
ATOM      4  C   UNL     1       5.107   0.163  -0.432  1.00  0.00     0.202 C 
BRANCH   4   5
ATOM      5  C   UNL     1       4.598  -1.256  -0.694  1.00  0.00     0.261 C 
BRANCH   5   6
ATOM      6  O   UNL     1       3.211  -1.376  -0.986  1.00  0.00    -0.460 OA
BRANCH   6   7
ATOM      7  C   UNL     1       2.168  -1.480  -0.139  1.00  0.00     0.338 C 
ATOM      8  O   UNL     1       1.052  -1.667  -0.621  1.00  0.00    -0.246 OA
BRANCH   7   9
ATOM      9  C   UNL     1       2.265  -1.304   1.339  1.00  0.00     0.060 A 
ATOM     10  C   UNL     1       3.438  -1.250   2.096  1.00  0.00     0.016 A 
ATOM     11  C   UNL     1       1.032  -1.188   2.010  1.00  0.00     0.016 A 
ATOM     12  C   UNL     1       3.390  -1.257   3.476  1.00  0.00     0.010 A 
ATOM     13  C   UNL     1       0.973  -1.163   3.394  1.00  0.00     0.010 A 
ATOM     14  C   UNL     1       2.156  -1.294   4.111  1.00  0.00    -0.014 A 
BRANCH  14  15
ATOM     15  C   UNL     1       2.178  -1.614   5.525  1.00  0.00     0.031 A 
ATOM     16  C   UNL     1       2.792  -0.617   6.438  1.00  0.00     0.074 A 
ATOM     17  C   UNL     1       1.674  -2.788   5.948  1.00  0.00     0.049 A 
ATOM     18  N   UNL     1       3.777  -0.779   7.264  1.00  0.00    -0.248 NA
ATOM     19  C   UNL     1       2.273   0.757   6.379  1.00  0.00     0.031 C 
ATOM     20  C   UNL     1       0.854  -3.746   5.199  1.00  0.00     0.029 A 
ATOM     21  N   UNL     1       1.714  -3.323   7.195  1.00  0.00    -0.354 N 
ATOM     22  C   UNL     1       3.908   0.430   7.943  1.00  0.00     0.074 A 
ATOM     23  C   UNL     1       3.022   1.367   7.298  1.00  0.00     0.031 C 
ATOM     24  C   UNL     1       0.280  -4.606   6.065  1.00  0.00     0.029 A 
ATOM     25  C   UNL     1       0.799  -4.341   7.394  1.00  0.00     0.049 A 
ATOM     26  H   UNL     1       2.336  -3.015   7.893  1.00  0.00     0.167 HD
ATOM     27  C   UNL     1       4.601   0.541   9.109  1.00  0.00     0.037 A 
ATOM     28  C   UNL     1       0.423  -4.847   8.590  1.00  0.00     0.037 A 
ATOM     29  C   UNL     1       5.554  -0.515   9.286  1.00  0.00     0.049 A 
ATOM     30  C   UNL     1       1.483  -4.511   9.573  1.00  0.00     0.074 A 
ATOM     31  C   UNL     1       6.682  -0.922   8.599  1.00  0.00     0.029 A 
ATOM     32  N   UNL     1       5.253  -1.548  10.136  1.00  0.00    -0.354 N 
ATOM     33  N   UNL     1       2.684  -5.021   9.560  1.00  0.00    -0.248 NA
ATOM     34  C   UNL     1       1.337  -3.278  10.334  1.00  0.00     0.031 C 
ATOM     35  C   UNL     1       6.693  -2.342   8.710  1.00  0.00     0.029 A 
ATOM     36  C   UNL     1       5.588  -2.706   9.481  1.00  0.00     0.049 A 
ATOM     37  H   UNL     1       4.870  -1.474  11.039  1.00  0.00     0.167 HD
ATOM     38  C   UNL     1       3.515  -3.984   9.959  1.00  0.00     0.074 A 
ATOM     39  C   UNL     1       2.623  -2.971  10.514  1.00  0.00     0.031 C 
ATOM     40  C   UNL     1       4.816  -3.922   9.552  1.00  0.00     0.037 A 
BRANCH  27  41
ATOM     41  C   UNL     1       4.195   1.469  10.219  1.00  0.00     0.064 A 
ATOM     42  C   UNL     1       5.092   1.774  11.259  1.00  0.00     0.173 A 
ATOM     43  C   UNL     1       2.853   1.852  10.431  1.00  0.00     0.173 A 
ATOM     44  F   UNL     1       6.380   1.408  11.179  1.00  0.00    -0.203 F 
ATOM     45  C   UNL     1       4.665   2.392  12.438  1.00  0.00     0.198 A 
ATOM     46  C   UNL     1       2.441   2.515  11.584  1.00  0.00     0.198 A 
ATOM     47  F   UNL     1       1.880   1.502   9.578  1.00  0.00    -0.203 F 
ATOM     48  F   UNL     1       5.529   2.574  13.446  1.00  0.00    -0.200 F 
ATOM     49  C   UNL     1       3.341   2.764  12.598  1.00  0.00     0.200 A 
ATOM     50  F   UNL     1       1.149   2.842  11.731  1.00  0.00    -0.200 F 
ATOM     51  F   UNL     1       2.922   3.315  13.745  1.00  0.00    -0.200 F 
ENDBRANCH  27  41
BRANCH  28  52
ATOM     52  C   UNL     1      -0.946  -5.252   8.983  1.00  0.00     0.064 A 
ATOM     53  C   UNL     1      -1.162  -6.016  10.138  1.00  0.00     0.173 A 
ATOM     54  C   UNL     1      -2.088  -4.678   8.386  1.00  0.00     0.173 A 
ATOM     55  F   UNL     1      -0.124  -6.556  10.792  1.00  0.00    -0.203 F 
ATOM     56  C   UNL     1      -2.442  -6.179  10.677  1.00  0.00     0.198 A 
ATOM     57  C   UNL     1      -3.365  -4.853   8.915  1.00  0.00     0.198 A 
ATOM     58  F   UNL     1      -1.982  -3.857   7.331  1.00  0.00    -0.203 F 
ATOM     59  F   UNL     1      -2.603  -6.861  11.819  1.00  0.00    -0.200 F 
ATOM     60  C   UNL     1      -3.540  -5.590  10.070  1.00  0.00     0.200 A 
ATOM     61  F   UNL     1      -4.413  -4.250   8.336  1.00  0.00    -0.200 F 
ATOM     62  F   UNL     1      -4.758  -5.697  10.619  1.00  0.00    -0.200 F 
ENDBRANCH  28  52
BRANCH  40  63
ATOM     63  C   UNL     1       5.394  -5.129   8.869  1.00  0.00     0.064 A 
ATOM     64  C   UNL     1       4.944  -5.600   7.623  1.00  0.00     0.173 A 
ATOM     65  C   UNL     1       6.541  -5.725   9.408  1.00  0.00     0.173 A 
ATOM     66  F   UNL     1       3.922  -5.009   6.992  1.00  0.00    -0.203 F 
ATOM     67  C   UNL     1       5.588  -6.650   6.972  1.00  0.00     0.198 A 
ATOM     68  C   UNL     1       7.204  -6.750   8.739  1.00  0.00     0.198 A 
ATOM     69  F   UNL     1       7.053  -5.272  10.563  1.00  0.00    -0.203 F 
ATOM     70  F   UNL     1       5.137  -7.084   5.785  1.00  0.00    -0.200 F 
ATOM     71  C   UNL     1       6.722  -7.219   7.527  1.00  0.00     0.200 A 
ATOM     72  F   UNL     1       8.332  -7.261   9.252  1.00  0.00    -0.200 F 
ATOM     73  F   UNL     1       7.371  -8.196   6.877  1.00  0.00    -0.200 F 
ENDBRANCH  40  63
ENDBRANCH  14  15
ENDBRANCH   7   9
ENDBRANCH   6   7
ENDBRANCH   5   6
ENDBRANCH   4   5
ENDBRANCH   3   4
ENDBRANCH   2   3
ENDBRANCH   1   2
BRANCH   1  74
ATOM     74  O   UNL     1       2.802   2.369  -2.492  1.00  0.00    -0.377 OA
BRANCH  74  75
ATOM     75  C   UNL     1       4.117   2.131  -2.938  1.00  0.00     0.188 C 
BRANCH  75  76
ATOM     76  C   UNL     1       5.160   3.113  -2.369  1.00  0.00     0.188 C 
BRANCH  76  77
ATOM     77  O   UNL     1       4.787   4.249  -1.602  1.00  0.00    -0.376 OA
BRANCH  77  78
ATOM     78  C   UNL     1       3.551   4.909  -1.816  1.00  0.00     0.202 C 
BRANCH  78  79
ATOM     79  C   UNL     1       3.193   5.457  -3.208  1.00  0.00     0.261 C 
BRANCH  79  80
ATOM     80  O   UNL     1       3.552   4.640  -4.326  1.00  0.00    -0.458 OA
BRANCH  80  81
ATOM     81  C   UNL     1       4.723   4.978  -4.958  1.00  0.00     0.359 C 
ATOM     82  O   UNL     1       5.423   5.927  -4.652  1.00  0.00    -0.244 OA
BRANCH  81  83
ATOM     83  C   UNL     1       5.150   3.958  -5.924  1.00  0.00     0.173 A 
ATOM     84  C   UNL     1       6.330   3.178  -5.811  1.00  0.00     0.087 A 
ATOM     85  N   UNL     1       4.461   3.636  -7.034  1.00  0.00    -0.159 NA
ATOM     86  C   UNL     1       6.346   2.356  -6.906  1.00  0.00     0.155 A 
ATOM     87  N   UNL     1       5.243   2.732  -7.679  1.00  0.00    -0.220 N 
ATOM     88  N   UNL     1       7.237   1.397  -7.302  1.00  0.00    -0.235 NA
ATOM     89  C   UNL     1       5.079   2.219  -8.960  1.00  0.00     0.137 A 
ATOM     90  C   UNL     1       7.054   0.931  -8.504  1.00  0.00     0.135 A 
ATOM     91  C   UNL     1       5.969   1.343  -9.439  1.00  0.00     0.077 A 
ATOM     92  Cl  UNL     1       5.936   0.693 -11.014  1.00  0.00    -0.081 Cl
ENDBRANCH  81  83
ENDBRANCH  80  81
ENDBRANCH  79  80
ENDBRANCH  78  79
ENDBRANCH  77  78
ENDBRANCH  76  77
ENDBRANCH  75  76
ENDBRANCH  74  75
ENDBRANCH   1  74
TORSDOF 20
