REMARK SMILES CS(=O)(=O)c1ccc(N2N=C(C(=O)OCCOCCOCCOCCOC(=O)c3ccc(-c4c5nc(c(-c6c(F)c(F)c(F)c(F)c6F)c6ccc([nH]6)c(-c6c(F)c(F)c(F)c(F)c6F)c6nc(c(-c7c(F)c(F)c(F)c(F)c7F)c7ccc4[nH]7)C=C6)C=C5)cc3)C[C@H]2c2ccco2)cc1
REMARK SMILES IDX 20 1 19 2 18 3 17 4 16 5 15 6 14 7 12 8 13 9 11 10 9 11
REMARK SMILES IDX 10 12 93 13 92 14 8 15 5 16 6 17 100 18 7 19 99 20 2 21 1 22
REMARK SMILES IDX 3 23 4 24 94 25 95 26 98 27 96 28 97 29 21 30 22 31 23 32
REMARK SMILES IDX 24 33 25 34 26 35 27 36 28 37 29 38 30 39 91 40 31 41 90 42
REMARK SMILES IDX 32 43 33 44 34 45 84 46 35 47 89 48 83 49 85 50 36 51 88 52
REMARK SMILES IDX 82 53 81 54 37 56 69 57 49 58 68 59 50 60 53 61 67 62 86 63
REMARK SMILES IDX 51 64 52 65 66 67 87 68 54 69 38 70 39 71 47 72 40 73 41 74
REMARK SMILES IDX 45 75 48 76 42 77 43 78 46 79 44 80 70 81 71 82 79 83 72 84
REMARK SMILES IDX 73 85 77 86 80 87 74 88 75 89 78 90 76 91 55 92 56 93 64 94
REMARK SMILES IDX 57 95 58 96 62 97 65 98 59 99 60 100 63 101 61 102
REMARK H PARENT 85 55 53 66
REMARK Flexibility Score: inf
ROOT
ATOM      1  O   UNL     1       1.568  -9.029   5.953  1.00  0.00    -0.377 OA
ENDROOT
BRANCH   1   2
ATOM      2  C   UNL     1       1.846  -8.133   4.886  1.00  0.00     0.188 C 
BRANCH   2   3
ATOM      3  C   UNL     1       3.319  -8.142   4.443  1.00  0.00     0.188 C 
BRANCH   3   4
ATOM      4  O   UNL     1       4.022  -9.286   4.918  1.00  0.00    -0.376 OA
BRANCH   4   5
ATOM      5  C   UNL     1       4.920  -9.104   6.005  1.00  0.00     0.202 C 
BRANCH   5   6
ATOM      6  C   UNL     1       4.346  -8.635   7.352  1.00  0.00     0.261 C 
BRANCH   6   7
ATOM      7  O   UNL     1       3.490  -7.490   7.277  1.00  0.00    -0.459 OA
BRANCH   7   8
ATOM      8  C   UNL     1       4.058  -6.282   7.132  1.00  0.00     0.354 C 
ATOM      9  O   UNL     1       5.241  -6.004   7.165  1.00  0.00    -0.245 OA
BRANCH   8  10
ATOM     10  C   UNL     1       2.957  -5.319   6.753  1.00  0.00     0.148 C 
ATOM     11  N   UNL     1       1.831  -3.876   5.697  1.00  0.00    -0.254 N 
ATOM     12  N   UNL     1       3.016  -4.550   5.706  1.00  0.00    -0.169 NA
ATOM     13  C   UNL     1       1.069  -4.024   6.950  1.00  0.00     0.180 C 
ATOM     14  C   UNL     1       1.651  -5.338   7.488  1.00  0.00     0.101 C 
BRANCH  11  15
ATOM     15  C   UNL     1       1.572  -2.925   4.723  1.00  0.00     0.060 A 
ATOM     16  C   UNL     1       0.888  -0.984   2.804  1.00  0.00     0.067 A 
ATOM     17  C   UNL     1       0.603  -2.328   2.560  1.00  0.00     0.022 A 
ATOM     18  C   UNL     1       1.546  -0.604   3.973  1.00  0.00     0.022 A 
ATOM     19  C   UNL     1       0.953  -3.290   3.517  1.00  0.00     0.029 A 
ATOM     20  C   UNL     1       1.895  -1.577   4.915  1.00  0.00     0.029 A 
BRANCH  16  21
ATOM     21  S   UNL     1       0.335   0.262   1.662  1.00  0.00     0.175 S 
ATOM     22  C   UNL     1       1.127  -0.127   0.127  1.00  0.00     0.163 C 
ATOM     23  O   UNL     1       0.866   1.537   2.110  1.00  0.00    -0.224 OA
ATOM     24  O   UNL     1      -1.093   0.070   1.498  1.00  0.00    -0.224 OA
ENDBRANCH  16  21
ENDBRANCH  11  15
BRANCH  13  25
ATOM     25  C   UNL     1       1.186  -2.914   7.958  1.00  0.00     0.128 A 
ATOM     26  C   UNL     1       0.634  -1.650   8.040  1.00  0.00     0.048 A 
ATOM     27  O   UNL     1       1.963  -3.139   9.061  1.00  0.00    -0.467 OA
ATOM     28  C   UNL     1       1.116  -1.074   9.240  1.00  0.00     0.042 A 
ATOM     29  C   UNL     1       1.906  -2.027   9.833  1.00  0.00     0.195 A 
ENDBRANCH  13  25
ENDBRANCH   8  10
ENDBRANCH   7   8
ENDBRANCH   6   7
ENDBRANCH   5   6
ENDBRANCH   4   5
ENDBRANCH   3   4
ENDBRANCH   2   3
ENDBRANCH   1   2
BRANCH   1  30
ATOM     30  C   UNL     1       1.403 -10.414   5.643  1.00  0.00     0.188 C 
BRANCH  30  31
ATOM     31  C   UNL     1       1.858 -11.023   4.295  1.00  0.00     0.188 C 
BRANCH  31  32
ATOM     32  O   UNL     1       1.590 -10.213   3.156  1.00  0.00    -0.376 OA
BRANCH  32  33
ATOM     33  C   UNL     1       0.509 -10.602   2.321  1.00  0.00     0.202 C 
BRANCH  33  34
ATOM     34  C   UNL     1      -0.880 -10.330   2.914  1.00  0.00     0.261 C 
BRANCH  34  35
ATOM     35  O   UNL     1      -1.185 -11.081   4.102  1.00  0.00    -0.460 OA
BRANCH  35  36
ATOM     36  C   UNL     1      -1.173 -12.425   3.983  1.00  0.00     0.338 C 
ATOM     37  O   UNL     1      -1.013 -13.075   2.966  1.00  0.00    -0.246 OA
BRANCH  36  38
ATOM     38  C   UNL     1      -1.208 -13.015   5.334  1.00  0.00     0.060 A 
ATOM     39  C   UNL     1      -0.214 -13.937   5.682  1.00  0.00     0.016 A 
ATOM     40  C   UNL     1      -2.239 -12.708   6.225  1.00  0.00     0.016 A 
ATOM     41  C   UNL     1      -0.296 -14.618   6.893  1.00  0.00     0.010 A 
ATOM     42  C   UNL     1      -2.326 -13.400   7.436  1.00  0.00     0.010 A 
ATOM     43  C   UNL     1      -1.387 -14.399   7.746  1.00  0.00    -0.014 A 
BRANCH  43  44
ATOM     44  C   UNL     1      -1.663 -15.389   8.814  1.00  0.00     0.031 A 
ATOM     45  C   UNL     1      -2.643 -16.495   8.519  1.00  0.00     0.074 A 
ATOM     46  C   UNL     1      -1.013 -15.356   9.990  1.00  0.00     0.049 A 
ATOM     47  N   UNL     1      -3.011 -17.505   9.265  1.00  0.00    -0.248 NA
ATOM     48  C   UNL     1      -3.298 -16.454   7.200  1.00  0.00     0.031 C 
ATOM     49  C   UNL     1      -0.027 -14.354  10.384  1.00  0.00     0.029 A 
ATOM     50  N   UNL     1      -1.089 -16.200  11.070  1.00  0.00    -0.354 N 
ATOM     51  C   UNL     1      -3.933 -18.216   8.507  1.00  0.00     0.074 A 
ATOM     52  C   UNL     1      -4.102 -17.504   7.261  1.00  0.00     0.031 C 
ATOM     53  C   UNL     1       0.410 -14.638  11.624  1.00  0.00     0.029 A 
ATOM     54  C   UNL     1      -0.278 -15.832  12.114  1.00  0.00     0.049 A 
ATOM     55  H   UNL     1      -1.671 -16.994  11.093  1.00  0.00     0.167 HD
ATOM     56  C   UNL     1      -4.572 -19.369   8.816  1.00  0.00     0.037 A 
ATOM     57  C   UNL     1      -0.119 -16.395  13.328  1.00  0.00     0.037 A 
ATOM     58  C   UNL     1      -4.402 -20.082  10.053  1.00  0.00     0.049 A 
ATOM     59  C   UNL     1      -0.875 -17.659  13.660  1.00  0.00     0.074 A 
ATOM     60  C   UNL     1      -4.989 -21.270  10.452  1.00  0.00     0.029 A 
ATOM     61  N   UNL     1      -3.584 -19.669  11.093  1.00  0.00    -0.354 N 
ATOM     62  N   UNL     1      -1.710 -18.348  12.921  1.00  0.00    -0.248 NA
ATOM     63  C   UNL     1      -0.648 -18.232  14.995  1.00  0.00     0.031 C 
ATOM     64  C   UNL     1      -4.565 -21.549  11.756  1.00  0.00     0.029 A 
ATOM     65  C   UNL     1      -3.668 -20.567  12.145  1.00  0.00     0.049 A 
ATOM     66  H   UNL     1      -3.027 -18.857  11.086  1.00  0.00     0.167 HD
ATOM     67  C   UNL     1      -2.081 -19.448  13.686  1.00  0.00     0.074 A 
ATOM     68  C   UNL     1      -1.364 -19.345  14.938  1.00  0.00     0.031 C 
ATOM     69  C   UNL     1      -2.939 -20.454  13.381  1.00  0.00     0.037 A 
BRANCH  56  70
ATOM     70  C   UNL     1      -5.534 -19.921   7.805  1.00  0.00     0.064 A 
ATOM     71  C   UNL     1      -5.093 -20.498   6.605  1.00  0.00     0.173 A 
ATOM     72  C   UNL     1      -6.914 -19.904   8.058  1.00  0.00     0.173 A 
ATOM     73  F   UNL     1      -3.785 -20.521   6.307  1.00  0.00    -0.203 F 
ATOM     74  C   UNL     1      -6.000 -21.022   5.687  1.00  0.00     0.198 A 
ATOM     75  C   UNL     1      -7.815 -20.455   7.151  1.00  0.00     0.198 A 
ATOM     76  F   UNL     1      -7.387 -19.362   9.190  1.00  0.00    -0.203 F 
ATOM     77  F   UNL     1      -5.559 -21.530   4.528  1.00  0.00    -0.200 F 
ATOM     78  C   UNL     1      -7.358 -21.008   5.965  1.00  0.00     0.200 A 
ATOM     79  F   UNL     1      -9.127 -20.449   7.426  1.00  0.00    -0.200 F 
ATOM     80  F   UNL     1      -8.229 -21.522   5.085  1.00  0.00    -0.200 F 
ENDBRANCH  56  70
BRANCH  57  81
ATOM     81  C   UNL     1       0.789 -15.776  14.329  1.00  0.00     0.064 A 
ATOM     82  C   UNL     1       1.961 -16.421  14.748  1.00  0.00     0.173 A 
ATOM     83  C   UNL     1       0.475 -14.546  14.926  1.00  0.00     0.173 A 
ATOM     84  F   UNL     1       2.293 -17.612  14.226  1.00  0.00    -0.203 F 
ATOM     85  C   UNL     1       2.766 -15.878  15.748  1.00  0.00     0.198 A 
ATOM     86  C   UNL     1       1.297 -13.988  15.903  1.00  0.00     0.198 A 
ATOM     87  F   UNL     1      -0.635 -13.887  14.563  1.00  0.00    -0.203 F 
ATOM     88  F   UNL     1       3.845 -16.547  16.174  1.00  0.00    -0.200 F 
ATOM     89  C   UNL     1       2.435 -14.660  16.322  1.00  0.00     0.200 A 
ATOM     90  F   UNL     1       0.978 -12.805  16.447  1.00  0.00    -0.200 F 
ATOM     91  F   UNL     1       3.205 -14.140  17.287  1.00  0.00    -0.200 F 
ENDBRANCH  57  81
BRANCH  69  92
ATOM     92  C   UNL     1      -3.112 -21.545  14.400  1.00  0.00     0.064 A 
ATOM     93  C   UNL     1      -3.769 -21.322  15.620  1.00  0.00     0.173 A 
ATOM     94  C   UNL     1      -2.628 -22.838  14.143  1.00  0.00     0.173 A 
ATOM     95  F   UNL     1      -4.241 -20.102  15.919  1.00  0.00    -0.203 F 
ATOM     96  C   UNL     1      -3.898 -22.341  16.561  1.00  0.00     0.198 A 
ATOM     97  C   UNL     1      -2.790 -23.863  15.072  1.00  0.00     0.198 A 
ATOM     98  F   UNL     1      -2.003 -23.110  12.988  1.00  0.00    -0.203 F 
ATOM     99  F   UNL     1      -4.472 -22.087  17.745  1.00  0.00    -0.200 F 
ATOM    100  C   UNL     1      -3.413 -23.610  16.284  1.00  0.00     0.200 A 
ATOM    101  F   UNL     1      -2.337 -25.093  14.795  1.00  0.00    -0.200 F 
ATOM    102  F   UNL     1      -3.538 -24.589  17.191  1.00  0.00    -0.200 F 
ENDBRANCH  69  92
ENDBRANCH  43  44
ENDBRANCH  36  38
ENDBRANCH  35  36
ENDBRANCH  34  35
ENDBRANCH  33  34
ENDBRANCH  32  33
ENDBRANCH  31  32
ENDBRANCH  30  31
ENDBRANCH   1  30
TORSDOF 23
