REMARK SMILES C/C(=N/OCc1ccccc1Nc1c(Cl)cccc1Cl)C(=O)OCCOCCOCCOCCOC(=O)c1ccc(-c2c3nc(c(-c4c(F)c(F)c(F)c(F)c4F)c4ccc([nH]4)c(-c4c(F)c(F)c(F)c(F)c4F)c4nc(c(-c5c(F)c(F)c(F)c(F)c5F)c5ccc2[nH]5)C=C4)C=C3)cc1
REMARK SMILES IDX 27 1 26 2 25 3 24 4 23 5 21 6 22 7 2 8 1 9 3 10 4 11 5 12
REMARK SMILES IDX 6 13 7 14 11 15 8 16 10 17 9 18 12 19 13 21 14 22 19 23
REMARK SMILES IDX 15 24 16 25 18 26 20 27 17 28 28 29 29 30 30 31 31 32 32 33
REMARK SMILES IDX 33 34 34 35 35 36 36 37 37 38 38 39 39 40 100 41 40 42 99 43
REMARK SMILES IDX 41 44 42 45 43 46 93 47 44 48 98 49 92 50 94 51 45 52 97 53
REMARK SMILES IDX 91 54 90 55 46 57 78 58 58 59 77 60 59 61 62 62 76 63 95 64
REMARK SMILES IDX 60 65 61 66 75 68 96 69 63 70 47 71 48 72 56 73 49 74 50 75
REMARK SMILES IDX 54 76 57 77 51 78 52 79 55 80 53 81 79 82 80 83 88 84 81 85
REMARK SMILES IDX 82 86 86 87 89 88 83 89 84 90 87 91 85 92 64 93 65 94 73 95
REMARK SMILES IDX 66 96 67 97 71 98 74 99 68 100 69 101 72 102 70 103
REMARK H PARENT 12 20 94 56 62 67
REMARK Flexibility Score: inf
ROOT
ATOM      1  C   UNL     1       0.588  -1.708  -2.873  1.00  0.00     0.188 C 
ENDROOT
BRANCH   1   2
ATOM      2  O   UNL     1       0.885  -2.855  -3.643  1.00  0.00    -0.376 OA
BRANCH   2   3
ATOM      3  C   UNL     1       1.735  -3.873  -3.154  1.00  0.00     0.202 C 
BRANCH   3   4
ATOM      4  C   UNL     1       1.672  -4.355  -1.698  1.00  0.00     0.261 C 
BRANCH   4   5
ATOM      5  O   UNL     1       1.019  -3.459  -0.808  1.00  0.00    -0.459 OA
BRANCH   5   6
ATOM      6  C   UNL     1       1.774  -2.716   0.021  1.00  0.00     0.355 C 
ATOM      7  O   UNL     1       2.987  -2.710   0.113  1.00  0.00    -0.245 OA
BRANCH   6   8
ATOM      8  C   UNL     1       0.892  -1.673   0.705  1.00  0.00     0.161 C 
ATOM      9  C   UNL     1       1.326  -0.242   0.549  1.00  0.00     0.079 C 
ATOM     10  N   UNL     1      -0.238  -1.932   1.298  1.00  0.00    -0.084 NA
BRANCH  10  11
ATOM     11  O   UNL     1      -0.511  -3.310   1.271  1.00  0.00    -0.390 OA
BRANCH  11  12
ATOM     12  C   UNL     1      -1.517  -3.626   2.231  1.00  0.00     0.302 C 
BRANCH  12  13
ATOM     13  C   UNL     1      -0.919  -3.510   3.611  1.00  0.00     0.016 A 
ATOM     14  C   UNL     1      -0.016  -4.519   4.005  1.00  0.00     0.009 A 
ATOM     15  C   UNL     1      -1.150  -2.405   4.455  1.00  0.00     0.045 A 
ATOM     16  C   UNL     1       0.616  -4.470   5.242  1.00  0.00     0.001 A 
ATOM     17  C   UNL     1      -0.564  -2.424   5.732  1.00  0.00     0.026 A 
ATOM     18  C   UNL     1       0.327  -3.430   6.114  1.00  0.00     0.002 A 
BRANCH  15  19
ATOM     19  N   UNL     1      -1.993  -1.344   4.058  1.00  0.00    -0.353 N 
ATOM     20  H   UNL     1      -2.445  -1.468   3.192  1.00  0.00     0.167 HD
BRANCH  19  21
ATOM     21  C   UNL     1      -2.282  -0.130   4.724  1.00  0.00     0.076 A 
ATOM     22  C   UNL     1      -3.620   0.202   5.020  1.00  0.00     0.066 A 
ATOM     23  C   UNL     1      -1.298   0.840   5.005  1.00  0.00     0.066 A 
ATOM     24  Cl  UNL     1      -4.922  -0.856   4.588  1.00  0.00    -0.082 Cl
ATOM     25  C   UNL     1      -3.946   1.391   5.682  1.00  0.00     0.023 A 
ATOM     26  C   UNL     1      -1.624   2.026   5.675  1.00  0.00     0.023 A 
ATOM     27  Cl  UNL     1       0.350   0.658   4.502  1.00  0.00    -0.082 Cl
ATOM     28  C   UNL     1      -2.944   2.294   6.029  1.00  0.00     0.003 A 
ENDBRANCH  19  21
ENDBRANCH  15  19
ENDBRANCH  12  13
ENDBRANCH  11  12
ENDBRANCH  10  11
ENDBRANCH   6   8
ENDBRANCH   5   6
ENDBRANCH   4   5
ENDBRANCH   3   4
ENDBRANCH   2   3
ENDBRANCH   1   2
BRANCH   1  29
ATOM     29  C   UNL     1      -0.843  -1.685  -2.277  1.00  0.00     0.188 C 
BRANCH  29  30
ATOM     30  O   UNL     1      -1.620  -2.873  -2.235  1.00  0.00    -0.377 OA
BRANCH  30  31
ATOM     31  C   UNL     1      -1.702  -3.710  -3.381  1.00  0.00     0.188 C 
BRANCH  31  32
ATOM     32  C   UNL     1      -1.580  -3.131  -4.810  1.00  0.00     0.188 C 
BRANCH  32  33
ATOM     33  O   UNL     1      -1.449  -1.722  -4.870  1.00  0.00    -0.376 OA
BRANCH  33  34
ATOM     34  C   UNL     1      -2.560  -0.969  -5.320  1.00  0.00     0.202 C 
BRANCH  34  35
ATOM     35  C   UNL     1      -3.855  -1.049  -4.498  1.00  0.00     0.261 C 
BRANCH  35  36
ATOM     36  O   UNL     1      -4.342  -2.367  -4.205  1.00  0.00    -0.460 OA
BRANCH  36  37
ATOM     37  C   UNL     1      -4.787  -3.105  -5.241  1.00  0.00     0.338 C 
ATOM     38  O   UNL     1      -4.824  -2.785  -6.419  1.00  0.00    -0.246 OA
BRANCH  37  39
ATOM     39  C   UNL     1      -5.066  -4.462  -4.733  1.00  0.00     0.060 A 
ATOM     40  C   UNL     1      -4.341  -5.548  -5.243  1.00  0.00     0.016 A 
ATOM     41  C   UNL     1      -6.041  -4.657  -3.752  1.00  0.00     0.016 A 
ATOM     42  C   UNL     1      -4.616  -6.840  -4.796  1.00  0.00     0.010 A 
ATOM     43  C   UNL     1      -6.331  -5.954  -3.323  1.00  0.00     0.010 A 
ATOM     44  C   UNL     1      -5.646  -7.053  -3.871  1.00  0.00    -0.014 A 
BRANCH  44  45
ATOM     45  C   UNL     1      -6.158  -8.426  -3.646  1.00  0.00     0.031 A 
ATOM     46  C   UNL     1      -7.386  -8.854  -4.403  1.00  0.00     0.074 A 
ATOM     47  C   UNL     1      -5.545  -9.281  -2.809  1.00  0.00     0.049 A 
ATOM     48  N   UNL     1      -8.063  -9.971  -4.335  1.00  0.00    -0.248 NA
ATOM     49  C   UNL     1      -7.925  -7.882  -5.369  1.00  0.00     0.031 C 
ATOM     50  C   UNL     1      -4.325  -9.000  -2.058  1.00  0.00     0.029 A 
ATOM     51  N   UNL     1      -5.880 -10.562  -2.447  1.00  0.00    -0.354 N 
ATOM     52  C   UNL     1      -9.108  -9.832  -5.238  1.00  0.00     0.074 A 
ATOM     53  C   UNL     1      -8.999  -8.512  -5.817  1.00  0.00     0.031 C 
ATOM     54  C   UNL     1      -4.019 -10.075  -1.310  1.00  0.00     0.029 A 
ATOM     55  C   UNL     1      -5.042 -11.103  -1.503  1.00  0.00     0.049 A 
ATOM     56  H   UNL     1      -6.647 -11.047  -2.828  1.00  0.00     0.167 HD
ATOM     57  C   UNL     1     -10.069 -10.729  -5.562  1.00  0.00     0.037 A 
ATOM     58  C   UNL     1      -5.115 -12.281  -0.853  1.00  0.00     0.037 A 
ATOM     59  C   UNL     1     -10.175 -12.040  -4.980  1.00  0.00     0.049 A 
ATOM     60  C   UNL     1      -6.246 -13.230  -1.169  1.00  0.00     0.074 A 
ATOM     61  C   UNL     1     -11.104 -13.030  -5.248  1.00  0.00     0.029 A 
ATOM     62  N   UNL     1      -9.327 -12.541  -4.003  1.00  0.00    -0.354 N 
ATOM     63  N   UNL     1      -7.218 -13.105  -2.041  1.00  0.00    -0.248 NA
ATOM     64  C   UNL     1      -6.286 -14.490  -0.412  1.00  0.00     0.031 C 
ATOM     65  C   UNL     1     -10.857 -14.104  -4.388  1.00  0.00     0.029 A 
ATOM     66  C   UNL     1      -9.729 -13.815  -3.637  1.00  0.00     0.049 A 
ATOM     67  H   UNL     1      -8.554 -12.062  -3.626  1.00  0.00     0.167 HD
ATOM     68  C   UNL     1      -7.958 -14.279  -1.964  1.00  0.00     0.074 A 
ATOM     69  C   UNL     1      -7.315 -15.111  -0.969  1.00  0.00     0.031 C 
ATOM     70  C   UNL     1      -9.068 -14.638  -2.655  1.00  0.00     0.037 A 
BRANCH  57  71
ATOM     71  C   UNL     1     -11.099 -10.310  -6.571  1.00  0.00     0.064 A 
ATOM     72  C   UNL     1     -10.779 -10.128  -7.925  1.00  0.00     0.173 A 
ATOM     73  C   UNL     1     -12.433 -10.118  -6.181  1.00  0.00     0.173 A 
ATOM     74  F   UNL     1      -9.515 -10.283  -8.347  1.00  0.00    -0.203 F 
ATOM     75  C   UNL     1     -11.751  -9.744  -8.845  1.00  0.00     0.198 A 
ATOM     76  C   UNL     1     -13.409  -9.767  -7.111  1.00  0.00     0.198 A 
ATOM     77  F   UNL     1     -12.794 -10.280  -4.899  1.00  0.00    -0.203 F 
ATOM     78  F   UNL     1     -11.411  -9.526 -10.123  1.00  0.00    -0.200 F 
ATOM     79  C   UNL     1     -13.066  -9.573  -8.440  1.00  0.00     0.200 A 
ATOM     80  F   UNL     1     -14.681  -9.617  -6.719  1.00  0.00    -0.200 F 
ATOM     81  F   UNL     1     -14.002  -9.213  -9.329  1.00  0.00    -0.200 F 
ENDBRANCH  57  71
BRANCH  58  82
ATOM     82  C   UNL     1      -4.101 -12.633   0.178  1.00  0.00     0.064 A 
ATOM     83  C   UNL     1      -3.219 -13.707  -0.009  1.00  0.00     0.173 A 
ATOM     84  C   UNL     1      -4.019 -11.930   1.390  1.00  0.00     0.173 A 
ATOM     85  F   UNL     1      -3.274 -14.430  -1.138  1.00  0.00    -0.203 F 
ATOM     86  C   UNL     1      -2.316 -14.081   0.985  1.00  0.00     0.198 A 
ATOM     87  C   UNL     1      -3.092 -12.283   2.368  1.00  0.00     0.198 A 
ATOM     88  F   UNL     1      -4.841 -10.896   1.623  1.00  0.00    -0.203 F 
ATOM     89  F   UNL     1      -1.528 -15.150   0.803  1.00  0.00    -0.200 F 
ATOM     90  C   UNL     1      -2.249 -13.365   2.170  1.00  0.00     0.200 A 
ATOM     91  F   UNL     1      -3.023 -11.580   3.507  1.00  0.00    -0.200 F 
ATOM     92  F   UNL     1      -1.382 -13.726   3.126  1.00  0.00    -0.200 F 
ENDBRANCH  58  82
BRANCH  70  93
ATOM     93  C   UNL     1      -9.631 -16.010  -2.406  1.00  0.00     0.064 A 
ATOM     94  C   UNL     1     -10.260 -16.348  -1.199  1.00  0.00     0.173 A 
ATOM     95  C   UNL     1      -9.579 -16.987  -3.413  1.00  0.00     0.173 A 
ATOM     96  F   UNL     1     -10.327 -15.455  -0.200  1.00  0.00    -0.203 F 
ATOM     97  C   UNL     1     -10.788 -17.621  -0.998  1.00  0.00     0.198 A 
ATOM     98  C   UNL     1     -10.141 -18.246  -3.223  1.00  0.00     0.198 A 
ATOM     99  F   UNL     1      -8.999 -16.715  -4.592  1.00  0.00    -0.203 F 
ATOM    100  F   UNL     1     -11.336 -17.938   0.183  1.00  0.00    -0.200 F 
ATOM    101  C   UNL     1     -10.736 -18.566  -2.013  1.00  0.00     0.200 A 
ATOM    102  F   UNL     1     -10.107 -19.150  -4.212  1.00  0.00    -0.200 F 
ATOM    103  F   UNL     1     -11.255 -19.786  -1.821  1.00  0.00    -0.200 F 
ENDBRANCH  70  93
ENDBRANCH  44  45
ENDBRANCH  37  39
ENDBRANCH  36  37
ENDBRANCH  35  36
ENDBRANCH  34  35
ENDBRANCH  33  34
ENDBRANCH  32  33
ENDBRANCH  31  32
ENDBRANCH  30  31
ENDBRANCH  29  30
ENDBRANCH   1  29
TORSDOF 25
