REMARK SMILES CC[C@H](C)C[C@@H](CC)[N@@H+]1CCO[C@H](CC(=O)OCCOCCOCCOCCOC(=O)c2ccc(-c3c4nc(c(-c5c(F)c(F)c(F)c(F)c5F)c5ccc([nH]5)c(-c5c(F)c(F)c(F)c(F)c5F)c5nc(c(-c6c(F)c(F)c(F)c(F)c6F)c6ccc3[nH]6)C=C5)C=C4)cc2)C1
REMARK SMILES IDX 21 1 20 2 19 3 18 4 17 5 15 6 16 7 14 8 13 9 9 10 10 11
REMARK SMILES IDX 95 12 11 14 12 15 6 16 5 17 3 18 4 19 2 20 1 21 7 22 8 23
REMARK SMILES IDX 22 24 23 25 24 26 25 27 26 28 27 29 28 30 29 31 30 32 31 33
REMARK SMILES IDX 32 34 33 35 94 36 34 37 93 38 35 39 36 40 37 41 87 42 38 43
REMARK SMILES IDX 92 44 86 45 88 46 39 47 91 48 85 49 84 50 40 52 72 53 52 54
REMARK SMILES IDX 71 55 53 56 56 57 70 58 89 59 54 60 55 61 69 63 90 64 57 65
REMARK SMILES IDX 41 66 42 67 50 68 43 69 44 70 48 71 51 72 45 73 46 74 49 75
REMARK SMILES IDX 47 76 73 77 74 78 82 79 75 80 76 81 80 82 83 83 77 84 78 85
REMARK SMILES IDX 81 86 79 87 58 88 59 89 67 90 60 91 61 92 65 93 68 94 62 95
REMARK SMILES IDX 63 96 66 97 64 98
REMARK H PARENT 9 13 88 51 56 62
REMARK Flexibility Score: inf
ROOT
ATOM      1  C   UNL     1       1.880   7.307   1.535  1.00  0.00     0.188 C 
ENDROOT
BRANCH   1   2
ATOM      2  O   UNL     1       3.238   7.674   1.678  1.00  0.00    -0.376 OA
BRANCH   2   3
ATOM      3  C   UNL     1       4.338   6.977   1.121  1.00  0.00     0.202 C 
BRANCH   3   4
ATOM      4  C   UNL     1       4.278   5.879   0.040  1.00  0.00     0.261 C 
BRANCH   4   5
ATOM      5  O   UNL     1       3.036   5.773  -0.651  1.00  0.00    -0.463 OA
BRANCH   5   6
ATOM      6  C   UNL     1       2.351   4.605  -0.584  1.00  0.00     0.308 C 
ATOM      7  O   UNL     1       2.828   3.558  -0.161  1.00  0.00    -0.252 OA
BRANCH   6   8
ATOM      8  C   UNL     1       0.861   4.777  -0.858  1.00  0.00     0.160 C 
BRANCH   8   9
ATOM      9  C   UNL     1       0.299   5.492  -2.114  1.00  0.00     0.184 C 
ATOM     10  N   UNL     1       0.695   3.957  -4.099  1.00  0.00    -0.328 N 
ATOM     11  C   UNL     1       1.459   5.066  -4.686  1.00  0.00     0.291 C 
ATOM     12  C   UNL     1      -0.310   4.568  -3.195  1.00  0.00     0.295 C 
ATOM     13  H   UNL     1       0.310   3.455  -4.899  1.00  0.00     0.348 HD
ATOM     14  C   UNL     1       2.044   6.067  -3.684  1.00  0.00     0.222 C 
ATOM     15  O   UNL     1       1.105   6.515  -2.708  1.00  0.00    -0.366 OA
BRANCH  10  16
ATOM     16  C   UNL     1       1.406   2.855  -3.417  1.00  0.00     0.184 C 
BRANCH  16  17
ATOM     17  C   UNL     1       0.622   1.550  -3.698  1.00  0.00     0.068 C 
BRANCH  17  18
ATOM     18  C   UNL     1       0.883   0.396  -2.700  1.00  0.00    -0.009 C 
ATOM     19  C   UNL     1       0.544   0.750  -1.244  1.00  0.00     0.008 C 
BRANCH  18  20
ATOM     20  C   UNL     1       0.125  -0.887  -3.107  1.00  0.00    -0.000 C 
ATOM     21  C   UNL     1      -1.374  -0.716  -3.333  1.00  0.00     0.004 C 
ENDBRANCH  18  20
ENDBRANCH  17  18
ENDBRANCH  16  17
BRANCH  16  22
ATOM     22  C   UNL     1       2.937   2.728  -3.526  1.00  0.00     0.061 C 
ATOM     23  C   UNL     1       3.513   2.268  -4.848  1.00  0.00     0.010 C 
ENDBRANCH  16  22
ENDBRANCH  10  16
ENDBRANCH   8   9
ENDBRANCH   6   8
ENDBRANCH   5   6
ENDBRANCH   4   5
ENDBRANCH   3   4
ENDBRANCH   2   3
ENDBRANCH   1   2
BRANCH   1  24
ATOM     24  C   UNL     1       1.180   7.722   0.226  1.00  0.00     0.188 C 
BRANCH  24  25
ATOM     25  O   UNL     1       1.254   9.022  -0.301  1.00  0.00    -0.377 OA
BRANCH  25  26
ATOM     26  C   UNL     1       2.547   9.591  -0.309  1.00  0.00     0.188 C 
BRANCH  26  27
ATOM     27  C   UNL     1       2.695  10.489   0.917  1.00  0.00     0.188 C 
BRANCH  27  28
ATOM     28  O   UNL     1       1.609  10.400   1.825  1.00  0.00    -0.376 OA
BRANCH  28  29
ATOM     29  C   UNL     1       0.325  10.928   1.502  1.00  0.00     0.202 C 
BRANCH  29  30
ATOM     30  C   UNL     1      -0.233  11.278   0.096  1.00  0.00     0.261 C 
BRANCH  30  31
ATOM     31  O   UNL     1       0.654  11.634  -0.968  1.00  0.00    -0.460 OA
BRANCH  31  32
ATOM     32  C   UNL     1       1.358  12.775  -0.880  1.00  0.00     0.338 C 
ATOM     33  O   UNL     1       1.336  13.596   0.019  1.00  0.00    -0.246 OA
BRANCH  32  34
ATOM     34  C   UNL     1       2.318  12.761  -2.008  1.00  0.00     0.060 A 
ATOM     35  C   UNL     1       3.694  12.754  -1.740  1.00  0.00     0.016 A 
ATOM     36  C   UNL     1       1.856  12.714  -3.326  1.00  0.00     0.016 A 
ATOM     37  C   UNL     1       4.614  12.733  -2.788  1.00  0.00     0.010 A 
ATOM     38  C   UNL     1       2.776  12.732  -4.376  1.00  0.00     0.010 A 
ATOM     39  C   UNL     1       4.156  12.778  -4.110  1.00  0.00    -0.014 A 
BRANCH  39  40
ATOM     40  C   UNL     1       5.085  13.150  -5.202  1.00  0.00     0.031 A 
ATOM     41  C   UNL     1       5.159  14.603  -5.579  1.00  0.00     0.074 A 
ATOM     42  C   UNL     1       5.826  12.238  -5.853  1.00  0.00     0.049 A 
ATOM     43  N   UNL     1       5.768  15.177  -6.583  1.00  0.00    -0.248 NA
ATOM     44  C   UNL     1       4.432  15.536  -4.701  1.00  0.00     0.031 C 
ATOM     45  C   UNL     1       5.892  10.815  -5.533  1.00  0.00     0.029 A 
ATOM     46  N   UNL     1       6.653  12.381  -6.940  1.00  0.00    -0.354 N 
ATOM     47  C   UNL     1       5.485  16.531  -6.465  1.00  0.00     0.074 A 
ATOM     48  C   UNL     1       4.631  16.693  -5.311  1.00  0.00     0.031 C 
ATOM     49  C   UNL     1       6.699  10.208  -6.423  1.00  0.00     0.029 A 
ATOM     50  C   UNL     1       7.165  11.193  -7.399  1.00  0.00     0.049 A 
ATOM     51  H   UNL     1       6.858  13.252  -7.350  1.00  0.00     0.167 HD
ATOM     52  C   UNL     1       5.902  17.550  -7.252  1.00  0.00     0.037 A 
ATOM     53  C   UNL     1       7.893  10.935  -8.504  1.00  0.00     0.037 A 
ATOM     54  C   UNL     1       6.741  17.378  -8.405  1.00  0.00     0.049 A 
ATOM     55  C   UNL     1       8.258  12.072  -9.429  1.00  0.00     0.074 A 
ATOM     56  C   UNL     1       7.222  18.340  -9.274  1.00  0.00     0.029 A 
ATOM     57  N   UNL     1       7.215  16.154  -8.856  1.00  0.00    -0.354 N 
ATOM     58  N   UNL     1       7.995  13.352  -9.314  1.00  0.00    -0.248 NA
ATOM     59  C   UNL     1       9.015  11.727 -10.642  1.00  0.00     0.031 C 
ATOM     60  C   UNL     1       7.938  17.693 -10.284  1.00  0.00     0.029 A 
ATOM     61  C   UNL     1       7.962  16.335 -10.007  1.00  0.00     0.049 A 
ATOM     62  H   UNL     1       7.045  15.287  -8.422  1.00  0.00     0.167 HD
ATOM     63  C   UNL     1       8.590  13.967 -10.410  1.00  0.00     0.074 A 
ATOM     64  C   UNL     1       9.225  12.920 -11.182  1.00  0.00     0.031 C 
ATOM     65  C   UNL     1       8.613  15.281 -10.744  1.00  0.00     0.037 A 
BRANCH  52  66
ATOM     66  C   UNL     1       5.420  18.929  -6.910  1.00  0.00     0.064 A 
ATOM     67  C   UNL     1       5.856  19.602  -5.759  1.00  0.00     0.173 A 
ATOM     68  C   UNL     1       4.515  19.591  -7.754  1.00  0.00     0.173 A 
ATOM     69  F   UNL     1       6.706  19.006  -4.909  1.00  0.00    -0.203 F 
ATOM     70  C   UNL     1       5.381  20.874  -5.450  1.00  0.00     0.198 A 
ATOM     71  C   UNL     1       4.069  20.877  -7.460  1.00  0.00     0.198 A 
ATOM     72  F   UNL     1       4.066  18.994  -8.868  1.00  0.00    -0.203 F 
ATOM     73  F   UNL     1       5.768  21.474  -4.315  1.00  0.00    -0.200 F 
ATOM     74  C   UNL     1       4.495  21.513  -6.303  1.00  0.00     0.200 A 
ATOM     75  F   UNL     1       3.223  21.497  -8.293  1.00  0.00    -0.200 F 
ATOM     76  F   UNL     1       4.043  22.739  -6.008  1.00  0.00    -0.200 F 
ENDBRANCH  52  66
BRANCH  53  77
ATOM     77  C   UNL     1       8.311   9.542  -8.818  1.00  0.00     0.064 A 
ATOM     78  C   UNL     1       9.663   9.173  -8.798  1.00  0.00     0.173 A 
ATOM     79  C   UNL     1       7.374   8.558  -9.169  1.00  0.00     0.173 A 
ATOM     80  F   UNL     1      10.601  10.083  -8.495  1.00  0.00    -0.203 F 
ATOM     81  C   UNL     1      10.064   7.881  -9.136  1.00  0.00     0.198 A 
ATOM     82  C   UNL     1       7.773   7.259  -9.477  1.00  0.00     0.198 A 
ATOM     83  F   UNL     1       6.067   8.857  -9.207  1.00  0.00    -0.203 F 
ATOM     84  F   UNL     1      11.367   7.571  -9.158  1.00  0.00    -0.200 F 
ATOM     85  C   UNL     1       9.118   6.924  -9.469  1.00  0.00     0.200 A 
ATOM     86  F   UNL     1       6.854   6.333  -9.785  1.00  0.00    -0.200 F 
ATOM     87  F   UNL     1       9.504   5.682  -9.792  1.00  0.00    -0.200 F 
ENDBRANCH  53  77
BRANCH  65  88
ATOM     88  C   UNL     1       9.403  15.686 -11.955  1.00  0.00     0.064 A 
ATOM     89  C   UNL     1       8.957  15.419 -13.256  1.00  0.00     0.173 A 
ATOM     90  C   UNL     1      10.580  16.438 -11.805  1.00  0.00     0.173 A 
ATOM     91  F   UNL     1       7.846  14.694 -13.454  1.00  0.00    -0.203 F 
ATOM     92  C   UNL     1       9.664  15.882 -14.363  1.00  0.00     0.198 A 
ATOM     93  C   UNL     1      11.267  16.926 -12.912  1.00  0.00     0.198 A 
ATOM     94  F   UNL     1      11.045  16.728 -10.580  1.00  0.00    -0.203 F 
ATOM     95  F   UNL     1       9.236  15.590 -15.599  1.00  0.00    -0.200 F 
ATOM     96  C   UNL     1      10.810  16.645 -14.190  1.00  0.00     0.200 A 
ATOM     97  F   UNL     1      12.362  17.679 -12.741  1.00  0.00    -0.200 F 
ATOM     98  F   UNL     1      11.475  17.110 -15.257  1.00  0.00    -0.200 F 
ENDBRANCH  65  88
ENDBRANCH  39  40
ENDBRANCH  32  34
ENDBRANCH  31  32
ENDBRANCH  30  31
ENDBRANCH  29  30
ENDBRANCH  28  29
ENDBRANCH  27  28
ENDBRANCH  26  27
ENDBRANCH  25  26
ENDBRANCH  24  25
ENDBRANCH   1  24
TORSDOF 26
