REMARK SMILES Cc1ccccc1NC(=O)c1ccccc1NC(=O)CCC(=O)OCCOCCOCCOCCOC(=O)c1ccc(-c2c3nc(c(-c4c(F)c(F)c(F)c(F)c4F)c4ccc([nH]4)c(-c4c(F)c(F)c(F)c(F)c4F)c4nc(c(-c5c(F)c(F)c(F)c(F)c5F)c5ccc2[nH]5)C=C4)C=C3)cc1
REMARK SMILES IDX 28 1 27 2 26 3 25 4 24 5 22 6 23 7 21 8 20 9 18 10 17 11
REMARK SMILES IDX 19 13 16 14 11 15 12 16 13 17 15 18 14 19 9 20 8 21 10 23
REMARK SMILES IDX 7 24 1 25 2 26 3 27 4 28 6 29 5 30 29 31 30 32 31 33 32 34
REMARK SMILES IDX 33 35 34 36 35 37 36 38 37 39 38 40 39 41 40 42 101 43 41 44
REMARK SMILES IDX 100 45 42 46 43 47 44 48 94 49 45 50 99 51 93 52 95 53 46 54
REMARK SMILES IDX 98 55 92 56 91 57 47 59 79 60 59 61 78 62 60 63 63 64 77 65
REMARK SMILES IDX 96 66 61 67 62 68 76 70 97 71 64 72 48 73 49 74 57 75 50 76
REMARK SMILES IDX 51 77 55 78 58 79 52 80 53 81 56 82 54 83 80 84 81 85 89 86
REMARK SMILES IDX 82 87 83 88 87 89 90 90 84 91 85 92 88 93 86 94 65 95 66 96
REMARK SMILES IDX 74 97 67 98 68 99 72 100 75 101 69 102 70 103 73 104 71 105
REMARK H PARENT 17 12 8 22 95 58 63 69
REMARK Flexibility Score: inf
ROOT
ATOM      1  C   UNL     1      -3.521   2.361   1.224  1.00  0.00     0.188 C 
ENDROOT
BRANCH   1   2
ATOM      2  O   UNL     1      -2.121   3.654   1.911  1.00  0.00    -0.376 OA
BRANCH   2   3
ATOM      3  C   UNL     1      -0.576   4.749   1.575  1.00  0.00     0.202 C 
BRANCH   3   4
ATOM      4  C   UNL     1      -0.010   5.995   3.031  1.00  0.00     0.261 C 
BRANCH   4   5
ATOM      5  O   UNL     1      -0.988   5.904   4.671  1.00  0.00    -0.463 OA
BRANCH   5   6
ATOM      6  C   UNL     1      -2.228   4.991   5.367  1.00  0.00     0.306 C 
ATOM      7  O   UNL     1      -3.265   5.586   5.699  1.00  0.00    -0.252 OA
BRANCH   6   8
ATOM      8  C   UNL     1      -2.131   3.188   5.858  1.00  0.00     0.132 C 
BRANCH   8   9
ATOM      9  C   UNL     1      -1.766   1.522   5.416  1.00  0.00     0.112 C 
BRANCH   9  10
ATOM     10  C   UNL     1      -1.196   0.527   4.177  1.00  0.00     0.224 C 
ATOM     11  N   UNL     1      -1.179   0.729   2.793  1.00  0.00    -0.325 N 
ATOM     12  H   UNL     1      -0.706   0.037   2.276  1.00  0.00     0.169 HD
ATOM     13  O   UNL     1      -0.703  -0.567   4.505  1.00  0.00    -0.275 OA
BRANCH  11  14
ATOM     14  C   UNL     1      -1.748   1.796   2.010  1.00  0.00     0.054 A 
ATOM     15  C   UNL     1      -1.482   2.724   0.381  1.00  0.00     0.063 A 
ATOM     16  C   UNL     1      -2.700   3.958   0.153  1.00  0.00     0.016 A 
ATOM     17  C   UNL     1      -3.876   4.452   1.497  1.00  0.00     0.001 A 
ATOM     18  C   UNL     1      -2.930   2.404   3.264  1.00  0.00     0.027 A 
ATOM     19  C   UNL     1      -3.912   3.753   3.033  1.00  0.00     0.002 A 
BRANCH  15  20
ATOM     20  C   UNL     1       0.012   3.234  -0.789  1.00  0.00     0.257 C 
ATOM     21  N   UNL     1       1.382   2.161  -1.169  1.00  0.00    -0.322 N 
ATOM     22  H   UNL     1       2.115   2.526  -1.716  1.00  0.00     0.170 HD
ATOM     23  O   UNL     1       0.104   4.339  -1.338  1.00  0.00    -0.269 OA
BRANCH  21  24
ATOM     24  C   UNL     1       1.513   0.480  -0.626  1.00  0.00     0.044 A 
ATOM     25  C   UNL     1       4.336  -0.266  -0.792  1.00  0.00     0.046 C 
ATOM     26  C   UNL     1       2.896  -0.650  -0.891  1.00  0.00    -0.027 A 
ATOM     27  C   UNL     1       2.677  -2.378  -0.380  1.00  0.00     0.005 A 
ATOM     28  C   UNL     1       1.184  -3.026   0.392  1.00  0.00     0.000 A 
ATOM     29  C   UNL     1      -0.089  -0.377   0.346  1.00  0.00     0.026 A 
ATOM     30  C   UNL     1      -0.174  -2.056   0.761  1.00  0.00     0.002 A 
ENDBRANCH  21  24
ENDBRANCH  15  20
ENDBRANCH  11  14
ENDBRANCH   9  10
ENDBRANCH   8   9
ENDBRANCH   6   8
ENDBRANCH   5   6
ENDBRANCH   4   5
ENDBRANCH   3   4
ENDBRANCH   2   3
ENDBRANCH   1   2
BRANCH   1  31
ATOM     31  C   UNL     1      -3.716   0.839   0.815  1.00  0.00     0.188 C 
BRANCH  31  32
ATOM     32  O   UNL     1      -4.093   0.672  -0.535  1.00  0.00    -0.377 OA
BRANCH  32  33
ATOM     33  C   UNL     1      -4.180   1.892  -1.278  1.00  0.00     0.188 C 
BRANCH  33  34
ATOM     34  C   UNL     1      -5.201   2.974  -0.768  1.00  0.00     0.188 C 
BRANCH  34  35
ATOM     35  O   UNL     1      -6.343   2.502  -0.151  1.00  0.00    -0.376 OA
BRANCH  35  36
ATOM     36  C   UNL     1      -7.094   2.073  -1.272  1.00  0.00     0.202 C 
BRANCH  36  37
ATOM     37  C   UNL     1      -6.522   2.560  -2.795  1.00  0.00     0.261 C 
BRANCH  37  38
ATOM     38  O   UNL     1      -5.788   4.096  -2.998  1.00  0.00    -0.460 OA
BRANCH  38  39
ATOM     39  C   UNL     1      -4.378   4.534  -2.989  1.00  0.00     0.338 C 
ATOM     40  O   UNL     1      -3.533   3.815  -3.521  1.00  0.00    -0.246 OA
BRANCH  39  41
ATOM     41  C   UNL     1      -3.801   5.840  -1.982  1.00  0.00     0.060 A 
ATOM     42  C   UNL     1      -2.422   6.177  -1.741  1.00  0.00     0.016 A 
ATOM     43  C   UNL     1      -4.499   6.351  -0.897  1.00  0.00     0.016 A 
ATOM     44  C   UNL     1      -1.806   6.532  -0.310  1.00  0.00     0.010 A 
ATOM     45  C   UNL     1      -3.859   6.702   0.477  1.00  0.00     0.010 A 
ATOM     46  C   UNL     1      -2.500   6.413   0.974  1.00  0.00    -0.014 A 
BRANCH  46  47
ATOM     47  C   UNL     1      -2.071   5.706   2.746  1.00  0.00     0.031 A 
ATOM     48  C   UNL     1      -2.365   7.246   3.404  1.00  0.00     0.074 A 
ATOM     49  C   UNL     1      -1.124   4.354   3.520  1.00  0.00     0.049 A 
ATOM     50  N   UNL     1      -1.475   7.987   4.036  1.00  0.00    -0.248 NA
ATOM     51  C   UNL     1      -3.475   8.165   3.051  1.00  0.00     0.031 C 
ATOM     52  C   UNL     1      -0.115   3.968   4.939  1.00  0.00     0.029 A 
ATOM     53  N   UNL     1      -0.242   3.124   3.038  1.00  0.00    -0.354 N 
ATOM     54  C   UNL     1      -2.245   8.814   4.783  1.00  0.00     0.074 A 
ATOM     55  C   UNL     1      -3.209   9.218   3.830  1.00  0.00     0.031 C 
ATOM     56  C   UNL     1       0.741   2.924   4.955  1.00  0.00     0.029 A 
ATOM     57  C   UNL     1       0.852   2.466   3.620  1.00  0.00     0.049 A 
ATOM     58  H   UNL     1      -0.513   2.754   2.167  1.00  0.00     0.167 HD
ATOM     59  C   UNL     1      -2.303   8.606   6.131  1.00  0.00     0.037 A 
ATOM     60  C   UNL     1       1.918   1.827   3.037  1.00  0.00     0.037 A 
ATOM     61  C   UNL     1      -1.151   7.742   6.647  1.00  0.00     0.049 A 
ATOM     62  C   UNL     1       2.797   3.337   3.466  1.00  0.00     0.074 A 
ATOM     63  C   UNL     1      -1.034   6.722   7.583  1.00  0.00     0.029 A 
ATOM     64  N   UNL     1       0.104   7.680   5.942  1.00  0.00    -0.354 N 
ATOM     65  N   UNL     1       2.223   4.542   3.741  1.00  0.00    -0.248 NA
ATOM     66  C   UNL     1       4.067   3.341   4.226  1.00  0.00     0.031 C 
ATOM     67  C   UNL     1       0.235   6.045   7.400  1.00  0.00     0.029 A 
ATOM     68  C   UNL     1       0.905   6.540   6.261  1.00  0.00     0.049 A 
ATOM     69  H   UNL     1       0.387   8.366   5.295  1.00  0.00     0.167 HD
ATOM     70  C   UNL     1       2.807   5.272   4.835  1.00  0.00     0.074 A 
ATOM     71  C   UNL     1       4.035   4.476   4.981  1.00  0.00     0.031 C 
ATOM     72  C   UNL     1       2.322   6.325   5.709  1.00  0.00     0.037 A 
BRANCH  59  73
ATOM     73  C   UNL     1      -3.595   9.024   6.892  1.00  0.00     0.064 A 
ATOM     74  C   UNL     1      -3.621   8.998   8.295  1.00  0.00     0.173 A 
ATOM     75  C   UNL     1      -4.834   9.478   6.327  1.00  0.00     0.173 A 
ATOM     76  F   UNL     1      -2.575   8.543   8.994  1.00  0.00    -0.203 F 
ATOM     77  C   UNL     1      -4.718   9.459   9.047  1.00  0.00     0.198 A 
ATOM     78  C   UNL     1      -5.894  10.002   7.075  1.00  0.00     0.198 A 
ATOM     79  F   UNL     1      -5.143   9.405   5.029  1.00  0.00    -0.203 F 
ATOM     80  F   UNL     1      -4.676   9.390  10.385  1.00  0.00    -0.200 F 
ATOM     81  C   UNL     1      -5.834  10.000   8.441  1.00  0.00     0.200 A 
ATOM     82  F   UNL     1      -6.973  10.497   6.445  1.00  0.00    -0.200 F 
ATOM     83  F   UNL     1      -6.845  10.501   9.163  1.00  0.00    -0.200 F 
ENDBRANCH  59  73
BRANCH  60  84
ATOM     84  C   UNL     1       1.479   0.813   1.605  1.00  0.00     0.064 A 
ATOM     85  C   UNL     1       1.703  -0.798   0.857  1.00  0.00     0.173 A 
ATOM     86  C   UNL     1       0.427   1.610   0.670  1.00  0.00     0.173 A 
ATOM     87  F   UNL     1       2.387  -1.597   1.702  1.00  0.00    -0.203 F 
ATOM     88  C   UNL     1       0.895  -1.322  -0.979  1.00  0.00     0.198 A 
ATOM     89  C   UNL     1      -0.473   1.112  -0.991  1.00  0.00     0.198 A 
ATOM     90  F   UNL     1       0.997   2.828   0.857  1.00  0.00    -0.203 F 
ATOM     91  F   UNL     1       0.996  -2.443  -1.743  1.00  0.00    -0.200 F 
ATOM     92  C   UNL     1      -0.171  -0.278  -1.804  1.00  0.00     0.200 A 
ATOM     93  F   UNL     1      -1.206   1.924  -1.805  1.00  0.00    -0.200 F 
ATOM     94  F   UNL     1      -0.616  -0.488  -3.050  1.00  0.00    -0.200 F 
ENDBRANCH  60  84
BRANCH  72  95
ATOM     95  C   UNL     1       3.238   7.409   6.360  1.00  0.00     0.064 A 
ATOM     96  C   UNL     1       4.549   7.645   5.953  1.00  0.00     0.173 A 
ATOM     97  C   UNL     1       2.737   8.390   7.294  1.00  0.00     0.173 A 
ATOM     98  F   UNL     1       5.119   6.913   4.989  1.00  0.00    -0.203 F 
ATOM     99  C   UNL     1       5.318   8.683   6.500  1.00  0.00     0.198 A 
ATOM    100  C   UNL     1       3.467   9.481   7.744  1.00  0.00     0.198 A 
ATOM    101  F   UNL     1       1.512   8.363   7.829  1.00  0.00    -0.203 F 
ATOM    102  F   UNL     1       6.604   8.796   6.148  1.00  0.00    -0.200 F 
ATOM    103  C   UNL     1       4.777   9.605   7.381  1.00  0.00     0.200 A 
ATOM    104  F   UNL     1       2.879  10.396   8.531  1.00  0.00    -0.200 F 
ATOM    105  F   UNL     1       5.515  10.605   7.876  1.00  0.00    -0.200 F 
ENDBRANCH  72  95
ENDBRANCH  46  47
ENDBRANCH  39  41
ENDBRANCH  38  39
ENDBRANCH  37  38
ENDBRANCH  36  37
ENDBRANCH  35  36
ENDBRANCH  34  35
ENDBRANCH  33  34
ENDBRANCH  32  33
ENDBRANCH  31  32
ENDBRANCH   1  31
TORSDOF 25
