REMARK SMILES C[C@@H](C(=O)OCCOCCOCCOCCOC(=O)c1ccc(-c2c3nc(c(-c4c(F)c(F)c(F)c(F)c4F)c4ccc([nH]4)c(-c4c(F)c(F)c(F)c(F)c4F)c4nc(c(-c5c(F)c(F)c(F)c(F)c5F)c5ccc2[nH]5)C=C4)C=C3)cc1)c1ccc(C[C@H]2CCC[C@@H]2O)cc1F
REMARK SMILES IDX 10 1 9 2 8 3 7 4 6 5 5 6 3 7 4 8 2 9 1 10 83 11 84 12 95 13
REMARK SMILES IDX 85 14 94 15 96 16 86 17 87 18 88 19 89 20 92 21 90 22 91 23
REMARK SMILES IDX 93 24 11 26 12 27 13 28 14 29 15 30 16 31 17 32 18 33 19 34
REMARK SMILES IDX 20 35 21 36 82 37 22 38 81 39 23 40 24 41 25 42 75 43 26 44
REMARK SMILES IDX 80 45 74 46 76 47 27 48 79 49 73 50 72 51 28 53 60 54 40 55
REMARK SMILES IDX 59 56 41 57 44 58 58 59 77 60 42 61 43 62 57 64 78 65 45 66
REMARK SMILES IDX 29 67 30 68 38 69 31 70 32 71 36 72 39 73 33 74 34 75 37 76
REMARK SMILES IDX 35 77 61 78 62 79 70 80 63 81 64 82 68 83 71 84 65 85 66 86
REMARK SMILES IDX 69 87 67 88 46 89 47 90 55 91 48 92 49 93 53 94 56 95 50 96
REMARK SMILES IDX 51 97 54 98 52 99
REMARK H PARENT 93 25 76 52 44 63
REMARK Flexibility Score: inf
ROOT
ATOM      1  C   UNL     1       1.084   1.156   2.514  1.00  0.00     0.188 C 
ENDROOT
BRANCH   1   2
ATOM      2  C   UNL     1       0.208   0.436   3.554  1.00  0.00     0.188 C 
BRANCH   2   3
ATOM      3  O   UNL     1       0.767   0.023   4.789  1.00  0.00    -0.376 OA
BRANCH   3   4
ATOM      4  C   UNL     1       2.010  -0.660   4.838  1.00  0.00     0.202 C 
BRANCH   4   5
ATOM      5  C   UNL     1       2.465  -1.694   3.787  1.00  0.00     0.261 C 
BRANCH   5   6
ATOM      6  O   UNL     1       2.049  -1.493   2.426  1.00  0.00    -0.463 OA
BRANCH   6   7
ATOM      7  C   UNL     1       1.071  -2.318   1.976  1.00  0.00     0.313 C 
ATOM      8  O   UNL     1       0.577  -3.202   2.669  1.00  0.00    -0.252 OA
BRANCH   7   9
ATOM      9  C   UNL     1       0.601  -2.011   0.534  1.00  0.00     0.129 C 
ATOM     10  C   UNL     1       1.484  -1.067  -0.299  1.00  0.00     0.025 C 
BRANCH   9  11
ATOM     11  C   UNL     1      -0.899  -1.709   0.526  1.00  0.00     0.002 A 
ATOM     12  C   UNL     1      -1.465  -0.433   0.382  1.00  0.00     0.008 A 
ATOM     13  C   UNL     1      -1.778  -2.770   0.784  1.00  0.00     0.127 A 
ATOM     14  C   UNL     1      -2.846  -0.233   0.547  1.00  0.00     0.004 A 
ATOM     15  C   UNL     1      -3.143  -2.574   0.975  1.00  0.00     0.043 A 
ATOM     16  F   UNL     1      -1.302  -4.020   0.869  1.00  0.00    -0.207 F 
ATOM     17  C   UNL     1      -3.695  -1.294   0.883  1.00  0.00    -0.045 A 
BRANCH  17  18
ATOM     18  C   UNL     1      -5.173  -1.090   1.116  1.00  0.00     0.041 C 
BRANCH  18  19
ATOM     19  C   UNL     1      -5.602  -0.484   2.463  1.00  0.00     0.022 C 
ATOM     20  C   UNL     1      -5.086  -1.185   3.729  1.00  0.00     0.007 C 
ATOM     21  C   UNL     1      -5.246   0.988   2.675  1.00  0.00     0.117 C 
ATOM     22  C   UNL     1      -4.878  -0.076   4.770  1.00  0.00     0.003 C 
ATOM     23  C   UNL     1      -5.490   1.178   4.165  1.00  0.00     0.032 C 
BRANCH  21  24
ATOM     24  O   UNL     1      -6.051   1.848   1.890  1.00  0.00    -0.393 OA
ATOM     25  H   UNL     1      -6.985   1.696   2.099  1.00  0.00     0.210 HD
ENDBRANCH  21  24
ENDBRANCH  18  19
ENDBRANCH  17  18
ENDBRANCH   9  11
ENDBRANCH   7   9
ENDBRANCH   6   7
ENDBRANCH   5   6
ENDBRANCH   4   5
ENDBRANCH   3   4
ENDBRANCH   2   3
ENDBRANCH   1   2
BRANCH   1  26
ATOM     26  O   UNL     1       2.472   1.123   2.779  1.00  0.00    -0.377 OA
BRANCH  26  27
ATOM     27  C   UNL     1       3.026   2.243   3.451  1.00  0.00     0.188 C 
BRANCH  27  28
ATOM     28  C   UNL     1       2.167   2.971   4.504  1.00  0.00     0.188 C 
BRANCH  28  29
ATOM     29  O   UNL     1       0.857   3.300   4.060  1.00  0.00    -0.376 OA
BRANCH  29  30
ATOM     30  C   UNL     1       0.604   4.618   3.596  1.00  0.00     0.202 C 
BRANCH  30  31
ATOM     31  C   UNL     1       1.262   5.040   2.272  1.00  0.00     0.261 C 
BRANCH  31  32
ATOM     32  O   UNL     1       2.695   4.976   2.220  1.00  0.00    -0.460 OA
BRANCH  32  33
ATOM     33  C   UNL     1       3.393   5.709   3.111  1.00  0.00     0.338 C 
ATOM     34  O   UNL     1       2.946   6.490   3.935  1.00  0.00    -0.246 OA
BRANCH  33  35
ATOM     35  C   UNL     1       4.801   5.261   3.063  1.00  0.00     0.060 A 
ATOM     36  C   UNL     1       5.387   4.749   4.228  1.00  0.00     0.016 A 
ATOM     37  C   UNL     1       5.536   5.336   1.877  1.00  0.00     0.016 A 
ATOM     38  C   UNL     1       6.723   4.347   4.221  1.00  0.00     0.010 A 
ATOM     39  C   UNL     1       6.881   4.956   1.878  1.00  0.00     0.010 A 
ATOM     40  C   UNL     1       7.490   4.495   3.059  1.00  0.00    -0.014 A 
BRANCH  40  41
ATOM     41  C   UNL     1       8.967   4.371   3.134  1.00  0.00     0.031 A 
ATOM     42  C   UNL     1       9.779   5.631   3.262  1.00  0.00     0.074 A 
ATOM     43  C   UNL     1       9.577   3.173   3.115  1.00  0.00     0.049 A 
ATOM     44  N   UNL     1      11.077   5.790   3.291  1.00  0.00    -0.248 NA
ATOM     45  C   UNL     1       9.017   6.886   3.369  1.00  0.00     0.031 C 
ATOM     46  C   UNL     1       8.901   1.881   3.046  1.00  0.00     0.029 A 
ATOM     47  N   UNL     1      10.913   2.855   3.145  1.00  0.00    -0.354 N 
ATOM     48  C   UNL     1      11.286   7.158   3.409  1.00  0.00     0.074 A 
ATOM     49  C   UNL     1       9.985   7.788   3.414  1.00  0.00     0.031 C 
ATOM     50  C   UNL     1       9.827   0.906   3.026  1.00  0.00     0.029 A 
ATOM     51  C   UNL     1      11.160   1.509   3.043  1.00  0.00     0.049 A 
ATOM     52  H   UNL     1      11.625   3.529   3.231  1.00  0.00     0.167 HD
ATOM     53  C   UNL     1      12.458   7.827   3.513  1.00  0.00     0.037 A 
ATOM     54  C   UNL     1      12.330   0.846   2.949  1.00  0.00     0.037 A 
ATOM     55  C   UNL     1      13.751   7.196   3.505  1.00  0.00     0.049 A 
ATOM     56  C   UNL     1      13.624   1.622   2.978  1.00  0.00     0.074 A 
ATOM     57  C   UNL     1      14.999   7.783   3.620  1.00  0.00     0.029 A 
ATOM     58  N   UNL     1      13.963   5.832   3.361  1.00  0.00    -0.354 N 
ATOM     59  N   UNL     1      13.816   2.912   3.115  1.00  0.00    -0.248 NA
ATOM     60  C   UNL     1      14.866   0.847   2.843  1.00  0.00     0.031 C 
ATOM     61  C   UNL     1      15.966   6.784   3.479  1.00  0.00     0.029 A 
ATOM     62  C   UNL     1      15.322   5.564   3.351  1.00  0.00     0.049 A 
ATOM     63  H   UNL     1      13.252   5.156   3.278  1.00  0.00     0.167 HD
ATOM     64  C   UNL     1      15.194   3.098   3.119  1.00  0.00     0.074 A 
ATOM     65  C   UNL     1      15.790   1.786   2.983  1.00  0.00     0.031 C 
ATOM     66  C   UNL     1      15.902   4.250   3.227  1.00  0.00     0.037 A 
BRANCH  53  67
ATOM     67  C   UNL     1      12.397   9.325   3.607  1.00  0.00     0.064 A 
ATOM     68  C   UNL     1      11.896   9.978   4.744  1.00  0.00     0.173 A 
ATOM     69  C   UNL     1      12.874  10.119   2.553  1.00  0.00     0.173 A 
ATOM     70  F   UNL     1      11.412   9.266   5.773  1.00  0.00    -0.203 F 
ATOM     71  C   UNL     1      11.848  11.368   4.809  1.00  0.00     0.198 A 
ATOM     72  C   UNL     1      12.857  11.509   2.636  1.00  0.00     0.198 A 
ATOM     73  F   UNL     1      13.366   9.547   1.444  1.00  0.00    -0.203 F 
ATOM     74  F   UNL     1      11.315  11.969   5.882  1.00  0.00    -0.200 F 
ATOM     75  C   UNL     1      12.336  12.132   3.760  1.00  0.00     0.200 A 
ATOM     76  F   UNL     1      13.343  12.244   1.627  1.00  0.00    -0.200 F 
ATOM     77  F   UNL     1      12.298  13.470   3.828  1.00  0.00    -0.200 F 
ENDBRANCH  53  67
BRANCH  54  78
ATOM     78  C   UNL     1      12.341  -0.635   2.800  1.00  0.00     0.064 A 
ATOM     79  C   UNL     1      12.870  -1.461   3.802  1.00  0.00     0.173 A 
ATOM     80  C   UNL     1      11.855  -1.254   1.638  1.00  0.00     0.173 A 
ATOM     81  F   UNL     1      13.374  -0.918   4.920  1.00  0.00    -0.203 F 
ATOM     82  C   UNL     1      12.933  -2.844   3.638  1.00  0.00     0.198 A 
ATOM     83  C   UNL     1      11.887  -2.639   1.489  1.00  0.00     0.198 A 
ATOM     84  F   UNL     1      11.343  -0.511   0.645  1.00  0.00    -0.203 F 
ATOM     85  F   UNL     1      13.496  -3.604   4.588  1.00  0.00    -0.200 F 
ATOM     86  C   UNL     1      12.436  -3.432   2.485  1.00  0.00     0.200 A 
ATOM     87  F   UNL     1      11.395  -3.203   0.378  1.00  0.00    -0.200 F 
ATOM     88  F   UNL     1      12.496  -4.762   2.328  1.00  0.00    -0.200 F 
ENDBRANCH  54  78
BRANCH  66  89
ATOM     89  C   UNL     1      17.402   4.145   3.255  1.00  0.00     0.064 A 
ATOM     90  C   UNL     1      18.143   3.781   2.122  1.00  0.00     0.173 A 
ATOM     91  C   UNL     1      18.111   4.461   4.426  1.00  0.00     0.173 A 
ATOM     92  F   UNL     1      17.517   3.459   0.980  1.00  0.00    -0.203 F 
ATOM     93  C   UNL     1      19.534   3.707   2.168  1.00  0.00     0.198 A 
ATOM     94  C   UNL     1      19.502   4.421   4.458  1.00  0.00     0.198 A 
ATOM     95  F   UNL     1      17.453   4.825   5.538  1.00  0.00    -0.203 F 
ATOM     96  F   UNL     1      20.217   3.304   1.087  1.00  0.00    -0.200 F 
ATOM     97  C   UNL     1      20.212   4.035   3.332  1.00  0.00     0.200 A 
ATOM     98  F   UNL     1      20.155   4.758   5.579  1.00  0.00    -0.200 F 
ATOM     99  F   UNL     1      21.550   3.973   3.371  1.00  0.00    -0.200 F 
ENDBRANCH  66  89
ENDBRANCH  40  41
ENDBRANCH  33  35
ENDBRANCH  32  33
ENDBRANCH  31  32
ENDBRANCH  30  31
ENDBRANCH  29  30
ENDBRANCH  28  29
ENDBRANCH  27  28
ENDBRANCH  26  27
ENDBRANCH   1  26
TORSDOF 24
