REMARK SMILES C[C@H](C(=O)Nc1ccc(C(F)(F)F)cc1)n1nc(C(=O)OCCOCCOCCOCCOC(=O)c2ccc(-c3c4nc(c(-c5c(F)c(F)c(F)c(F)c5F)c5ccc([nH]5)c(-c5c(F)c(F)c(F)c(F)c5F)c5nc(c(-c6c(F)c(F)c(F)c(F)c6F)c6ccc3[nH]6)C=C5)C=C4)cc2)c2ccccc2c1=O
REMARK SMILES IDX 26 1 25 2 24 3 23 4 22 5 21 6 19 7 20 8 18 9 16 10 17 11
REMARK SMILES IDX 105 12 104 13 106 14 99 15 103 16 100 17 102 18 101 19 2 20
REMARK SMILES IDX 1 21 3 22 4 23 5 24 6 26 7 27 15 28 8 29 14 30 9 31 10 32
REMARK SMILES IDX 11 33 12 34 13 35 27 36 28 37 29 38 30 39 31 40 32 41 33 42
REMARK SMILES IDX 34 43 35 44 36 45 37 46 98 47 38 48 97 49 39 50 40 51 41 52
REMARK SMILES IDX 91 53 42 54 96 55 90 56 92 57 43 58 95 59 89 60 88 61 44 63
REMARK SMILES IDX 76 64 56 65 75 66 57 67 60 68 74 69 93 70 58 71 59 72 73 74
REMARK SMILES IDX 94 75 61 76 45 77 46 78 54 79 47 80 48 81 52 82 55 83 49 84
REMARK SMILES IDX 50 85 53 86 51 87 77 88 78 89 86 90 79 91 80 92 84 93 87 94
REMARK SMILES IDX 81 95 82 96 85 97 83 98 62 99 63 100 71 101 64 102 65 103
REMARK SMILES IDX 69 104 72 105 66 106 67 107 70 108 68 109
REMARK H PARENT 5 25 92 62 60 73
REMARK Flexibility Score: inf
ROOT
ATOM      1  C   UNL     1      -4.355  -0.829  -3.591  1.00  0.00     0.188 C 
ENDROOT
BRANCH   1   2
ATOM      2  C   UNL     1      -5.754  -0.445  -3.065  1.00  0.00     0.188 C 
BRANCH   2   3
ATOM      3  O   UNL     1      -6.363   0.797  -3.397  1.00  0.00    -0.376 OA
BRANCH   3   4
ATOM      4  C   UNL     1      -5.637   2.019  -3.356  1.00  0.00     0.202 C 
BRANCH   4   5
ATOM      5  C   UNL     1      -4.803   2.397  -2.127  1.00  0.00     0.261 C 
BRANCH   5   6
ATOM      6  O   UNL     1      -3.835   1.415  -1.745  1.00  0.00    -0.458 OA
BRANCH   6   7
ATOM      7  C   UNL     1      -4.111   0.735  -0.620  1.00  0.00     0.359 C 
ATOM      8  O   UNL     1      -5.069   0.884   0.118  1.00  0.00    -0.244 OA
BRANCH   7   9
ATOM      9  C   UNL     1      -3.046  -0.316  -0.324  1.00  0.00     0.176 A 
ATOM     10  N   UNL     1      -0.796  -0.755  -0.069  1.00  0.00    -0.216 N 
ATOM     11  N   UNL     1      -1.822  -0.043  -0.649  1.00  0.00    -0.161 NA
ATOM     12  C   UNL     1      -1.008  -1.641   0.991  1.00  0.00     0.275 A 
ATOM     13  C   UNL     1      -2.412  -2.053   1.221  1.00  0.00     0.051 A 
ATOM     14  O   UNL     1      -0.128  -2.139   1.681  1.00  0.00    -0.267 OA
ATOM     15  C   UNL     1      -3.410  -1.513   0.427  1.00  0.00     0.022 A 
ATOM     16  C   UNL     1      -2.736  -3.053   2.141  1.00  0.00     0.014 A 
ATOM     17  C   UNL     1      -4.681  -2.095   0.386  1.00  0.00     0.011 A 
ATOM     18  C   UNL     1      -4.027  -3.589   2.160  1.00  0.00     0.001 A 
ATOM     19  C   UNL     1      -4.981  -3.150   1.243  1.00  0.00     0.001 A 
BRANCH  10  20
ATOM     20  C   UNL     1       0.554  -0.467  -0.603  1.00  0.00     0.197 C 
ATOM     21  C   UNL     1       1.176  -1.717  -1.238  1.00  0.00     0.044 C 
BRANCH  20  22
ATOM     22  C   UNL     1       1.509   0.176   0.420  1.00  0.00     0.249 C 
ATOM     23  O   UNL     1       2.269  -0.517   1.109  1.00  0.00    -0.272 OA
ATOM     24  N   UNL     1       1.639   1.530   0.591  1.00  0.00    -0.324 N 
ATOM     25  H   UNL     1       2.314   1.760   1.269  1.00  0.00     0.170 HD
BRANCH  24  26
ATOM     26  C   UNL     1       1.036   2.665   0.025  1.00  0.00     0.041 A 
ATOM     27  C   UNL     1       1.718   3.880   0.138  1.00  0.00     0.027 A 
ATOM     28  C   UNL     1      -0.188   2.680  -0.625  1.00  0.00     0.027 A 
ATOM     29  C   UNL     1       1.221   5.046  -0.463  1.00  0.00     0.015 A 
ATOM     30  C   UNL     1      -0.702   3.833  -1.221  1.00  0.00     0.015 A 
ATOM     31  C   UNL     1       0.011   5.028  -1.170  1.00  0.00     0.056 A 
BRANCH  31  32
ATOM     32  C   UNL     1      -0.506   6.261  -1.864  1.00  0.00     0.416 C 
ATOM     33  F   UNL     1      -0.772   7.279  -1.003  1.00  0.00    -0.166 F 
ATOM     34  F   UNL     1       0.385   6.753  -2.771  1.00  0.00    -0.166 F 
ATOM     35  F   UNL     1      -1.659   6.049  -2.561  1.00  0.00    -0.166 F 
ENDBRANCH  31  32
ENDBRANCH  24  26
ENDBRANCH  20  22
ENDBRANCH  10  20
ENDBRANCH   7   9
ENDBRANCH   6   7
ENDBRANCH   5   6
ENDBRANCH   4   5
ENDBRANCH   3   4
ENDBRANCH   2   3
ENDBRANCH   1   2
BRANCH   1  36
ATOM     36  O   UNL     1      -3.670   0.237  -4.218  1.00  0.00    -0.377 OA
BRANCH  36  37
ATOM     37  C   UNL     1      -3.741   0.261  -5.640  1.00  0.00     0.188 C 
BRANCH  37  38
ATOM     38  C   UNL     1      -5.116  -0.008  -6.283  1.00  0.00     0.188 C 
BRANCH  38  39
ATOM     39  O   UNL     1      -5.645  -1.295  -5.963  1.00  0.00    -0.376 OA
BRANCH  39  40
ATOM     40  C   UNL     1      -5.567  -2.290  -6.977  1.00  0.00     0.202 C 
BRANCH  40  41
ATOM     41  C   UNL     1      -4.181  -2.932  -7.131  1.00  0.00     0.261 C 
BRANCH  41  42
ATOM     42  O   UNL     1      -3.140  -2.045  -7.573  1.00  0.00    -0.460 OA
BRANCH  42  43
ATOM     43  C   UNL     1      -3.325  -1.396  -8.738  1.00  0.00     0.338 C 
ATOM     44  O   UNL     1      -4.249  -1.533  -9.529  1.00  0.00    -0.246 OA
BRANCH  43  45
ATOM     45  C   UNL     1      -2.318  -0.325  -8.825  1.00  0.00     0.060 A 
ATOM     46  C   UNL     1      -2.750   0.998  -8.992  1.00  0.00     0.016 A 
ATOM     47  C   UNL     1      -0.957  -0.629  -8.758  1.00  0.00     0.016 A 
ATOM     48  C   UNL     1      -1.815   2.020  -9.145  1.00  0.00     0.010 A 
ATOM     49  C   UNL     1      -0.022   0.389  -8.940  1.00  0.00     0.010 A 
ATOM     50  C   UNL     1      -0.450   1.708  -9.178  1.00  0.00    -0.014 A 
BRANCH  50  51
ATOM     51  C   UNL     1       0.513   2.688  -9.727  1.00  0.00     0.031 A 
ATOM     52  C   UNL     1       0.796   2.629 -11.204  1.00  0.00     0.074 A 
ATOM     53  C   UNL     1       1.129   3.591  -8.945  1.00  0.00     0.049 A 
ATOM     54  N   UNL     1       1.665   3.299 -11.914  1.00  0.00    -0.248 NA
ATOM     55  C   UNL     1      -0.013   1.677 -11.986  1.00  0.00     0.031 C 
ATOM     56  C   UNL     1       0.899   3.771  -7.514  1.00  0.00     0.029 A 
ATOM     57  N   UNL     1       2.092   4.518  -9.254  1.00  0.00    -0.354 N 
ATOM     58  C   UNL     1       1.516   2.841 -13.216  1.00  0.00     0.074 A 
ATOM     59  C   UNL     1       0.486   1.828 -13.202  1.00  0.00     0.031 C 
ATOM     60  C   UNL     1       1.720   4.736  -7.061  1.00  0.00     0.029 A 
ATOM     61  C   UNL     1       2.554   5.213  -8.164  1.00  0.00     0.049 A 
ATOM     62  H   UNL     1       2.421   4.670 -10.169  1.00  0.00     0.167 HD
ATOM     63  C   UNL     1       2.181   3.232 -14.326  1.00  0.00     0.037 A 
ATOM     64  C   UNL     1       3.559   6.107  -8.072  1.00  0.00     0.037 A 
ATOM     65  C   UNL     1       3.204   4.240 -14.336  1.00  0.00     0.049 A 
ATOM     66  C   UNL     1       4.332   6.475  -9.316  1.00  0.00     0.074 A 
ATOM     67  C   UNL     1       3.929   4.722 -15.411  1.00  0.00     0.029 A 
ATOM     68  N   UNL     1       3.650   4.917 -13.211  1.00  0.00    -0.354 N 
ATOM     69  N   UNL     1       4.167   6.061 -10.550  1.00  0.00    -0.248 NA
ATOM     70  C   UNL     1       5.435   7.435  -9.154  1.00  0.00     0.031 C 
ATOM     71  C   UNL     1       4.847   5.659 -14.928  1.00  0.00     0.029 A 
ATOM     72  C   UNL     1       4.657   5.797 -13.562  1.00  0.00     0.049 A 
ATOM     73  H   UNL     1       3.302   4.789 -12.299  1.00  0.00     0.167 HD
ATOM     74  C   UNL     1       5.111   6.739 -11.312  1.00  0.00     0.074 A 
ATOM     75  C   UNL     1       5.846   7.593 -10.404  1.00  0.00     0.031 C 
ATOM     76  C   UNL     1       5.349   6.663 -12.645  1.00  0.00     0.037 A 
BRANCH  63  77
ATOM     77  C   UNL     1       1.845   2.550 -15.616  1.00  0.00     0.064 A 
ATOM     78  C   UNL     1       0.650   2.815 -16.299  1.00  0.00     0.173 A 
ATOM     79  C   UNL     1       2.755   1.656 -16.200  1.00  0.00     0.173 A 
ATOM     80  F   UNL     1      -0.260   3.647 -15.770  1.00  0.00    -0.203 F 
ATOM     81  C   UNL     1       0.372   2.200 -17.517  1.00  0.00     0.198 A 
ATOM     82  C   UNL     1       2.485   1.062 -17.429  1.00  0.00     0.198 A 
ATOM     83  F   UNL     1       3.910   1.367 -15.582  1.00  0.00    -0.203 F 
ATOM     84  F   UNL     1      -0.790   2.442 -18.139  1.00  0.00    -0.200 F 
ATOM     85  C   UNL     1       1.294   1.333 -18.085  1.00  0.00     0.200 A 
ATOM     86  F   UNL     1       3.380   0.230 -17.980  1.00  0.00    -0.200 F 
ATOM     87  F   UNL     1       1.031   0.752 -19.265  1.00  0.00    -0.200 F 
ENDBRANCH  63  77
BRANCH  64  88
ATOM     88  C   UNL     1       3.921   6.702  -6.758  1.00  0.00     0.064 A 
ATOM     89  C   UNL     1       3.747   8.072  -6.511  1.00  0.00     0.173 A 
ATOM     90  C   UNL     1       4.499   5.927  -5.742  1.00  0.00     0.173 A 
ATOM     91  F   UNL     1       3.226   8.862  -7.462  1.00  0.00    -0.203 F 
ATOM     92  C   UNL     1       4.164   8.647  -5.312  1.00  0.00     0.198 A 
ATOM     93  C   UNL     1       4.888   6.497  -4.532  1.00  0.00     0.198 A 
ATOM     94  F   UNL     1       4.694   4.613  -5.928  1.00  0.00    -0.203 F 
ATOM     95  F   UNL     1       4.046   9.969  -5.129  1.00  0.00    -0.200 F 
ATOM     96  C   UNL     1       4.731   7.859  -4.322  1.00  0.00     0.200 A 
ATOM     97  F   UNL     1       5.428   5.731  -3.575  1.00  0.00    -0.200 F 
ATOM     98  F   UNL     1       5.142   8.413  -3.174  1.00  0.00    -0.200 F 
ENDBRANCH  64  88
BRANCH  76  99
ATOM     99  C   UNL     1       6.399   7.569 -13.218  1.00  0.00     0.064 A 
ATOM    100  C   UNL     1       7.766   7.335 -13.015  1.00  0.00     0.173 A 
ATOM    101  C   UNL     1       6.028   8.642 -14.042  1.00  0.00     0.173 A 
ATOM    102  F   UNL     1       8.170   6.328 -12.227  1.00  0.00    -0.203 F 
ATOM    103  C   UNL     1       8.725   8.155 -13.605  1.00  0.00     0.198 A 
ATOM    104  C   UNL     1       6.989   9.442 -14.653  1.00  0.00     0.198 A 
ATOM    105  F   UNL     1       4.732   8.900 -14.275  1.00  0.00    -0.203 F 
ATOM    106  F   UNL     1      10.026   7.936 -13.370  1.00  0.00    -0.200 F 
ATOM    107  C   UNL     1       8.336   9.201 -14.430  1.00  0.00     0.200 A 
ATOM    108  F   UNL     1       6.612  10.441 -15.463  1.00  0.00    -0.200 F 
ATOM    109  F   UNL     1       9.261   9.979 -15.008  1.00  0.00    -0.200 F 
ENDBRANCH  76  99
ENDBRANCH  50  51
ENDBRANCH  43  45
ENDBRANCH  42  43
ENDBRANCH  41  42
ENDBRANCH  40  41
ENDBRANCH  39  40
ENDBRANCH  38  39
ENDBRANCH  37  38
ENDBRANCH  36  37
ENDBRANCH   1  36
TORSDOF 24
