REMARK SMILES C[C@H](C(=O)OCCOCCOCCOCCOC(=O)c1ccc(-c2c3nc(c(-c4c(F)c(F)c(F)c(F)c4F)c4ccc([nH]4)c(-c4c(F)c(F)c(F)c(F)c4F)c4nc(c(-c5c(F)c(F)c(F)c(F)c5F)c5ccc2[nH]5)C=C4)C=C3)cc1)c1ccc(-c2ccccc2)c(F)c1
REMARK SMILES IDX 11 1 10 2 9 3 8 4 7 5 6 6 5 7 3 8 4 9 2 10 1 11 83 12 84 13
REMARK SMILES IDX 95 14 85 15 93 16 86 17 94 18 87 19 88 20 92 21 89 22 91 23
REMARK SMILES IDX 90 24 12 25 13 26 14 27 15 28 16 29 17 30 18 31 19 32 20 33
REMARK SMILES IDX 21 34 82 35 22 36 81 37 23 38 24 39 25 40 75 41 26 42 80 43
REMARK SMILES IDX 74 44 76 45 27 46 79 47 73 48 72 49 28 51 60 52 40 53 59 54
REMARK SMILES IDX 41 55 44 56 58 57 77 58 42 59 43 60 57 62 78 63 45 64 29 65
REMARK SMILES IDX 30 66 38 67 31 68 32 69 36 70 39 71 33 72 34 73 37 74 35 75
REMARK SMILES IDX 61 76 62 77 70 78 63 79 64 80 68 81 71 82 65 83 66 84 69 85
REMARK SMILES IDX 67 86 46 87 47 88 55 89 48 90 49 91 53 92 56 93 50 94 51 95
REMARK SMILES IDX 54 96 52 97
REMARK H PARENT 76 50 44 61
REMARK Flexibility Score: inf
ROOT
ATOM      1  O   UNL     1       3.074  -1.031   0.921  1.00  0.00    -0.377 OA
ENDROOT
BRANCH   1   2
ATOM      2  C   UNL     1       3.598  -1.363  -0.356  1.00  0.00     0.188 C 
BRANCH   2   3
ATOM      3  C   UNL     1       3.195  -0.363  -1.442  1.00  0.00     0.188 C 
BRANCH   3   4
ATOM      4  O   UNL     1       3.767   0.938  -1.363  1.00  0.00    -0.376 OA
BRANCH   4   5
ATOM      5  C   UNL     1       3.535   1.726  -0.199  1.00  0.00     0.202 C 
BRANCH   5   6
ATOM      6  C   UNL     1       2.081   2.047   0.186  1.00  0.00     0.261 C 
BRANCH   6   7
ATOM      7  O   UNL     1       1.386   0.921   0.759  1.00  0.00    -0.463 OA
BRANCH   7   8
ATOM      8  C   UNL     1       0.379   0.394   0.015  1.00  0.00     0.313 C 
ATOM      9  O   UNL     1      -0.034   0.911  -1.020  1.00  0.00    -0.252 OA
BRANCH   8  10
ATOM     10  C   UNL     1      -0.114  -0.977   0.512  1.00  0.00     0.126 C 
ATOM     11  C   UNL     1       0.157  -1.336   1.975  1.00  0.00     0.025 C 
BRANCH  10  12
ATOM     12  C   UNL     1      -1.611  -1.154   0.300  1.00  0.00    -0.031 A 
ATOM     13  C   UNL     1      -2.470  -0.055   0.432  1.00  0.00     0.005 A 
ATOM     14  C   UNL     1      -2.165  -2.429   0.111  1.00  0.00     0.044 A 
ATOM     15  C   UNL     1      -3.845  -0.223   0.385  1.00  0.00     0.012 A 
ATOM     16  C   UNL     1      -3.550  -2.591   0.092  1.00  0.00     0.131 A 
ATOM     17  C   UNL     1      -4.410  -1.496   0.235  1.00  0.00     0.017 A 
ATOM     18  F   UNL     1      -4.045  -3.832  -0.035  1.00  0.00    -0.206 F 
BRANCH  17  19
ATOM     19  C   UNL     1      -5.865  -1.611   0.301  1.00  0.00    -0.015 A 
ATOM     20  C   UNL     1      -6.667  -0.936  -0.634  1.00  0.00     0.009 A 
ATOM     21  C   UNL     1      -6.485  -2.261   1.377  1.00  0.00     0.009 A 
ATOM     22  C   UNL     1      -8.049  -0.879  -0.477  1.00  0.00     0.001 A 
ATOM     23  C   UNL     1      -7.870  -2.202   1.536  1.00  0.00     0.001 A 
ATOM     24  C   UNL     1      -8.649  -1.503   0.615  1.00  0.00     0.000 A 
ENDBRANCH  17  19
ENDBRANCH  10  12
ENDBRANCH   8  10
ENDBRANCH   7   8
ENDBRANCH   6   7
ENDBRANCH   5   6
ENDBRANCH   4   5
ENDBRANCH   3   4
ENDBRANCH   2   3
ENDBRANCH   1   2
BRANCH   1  25
ATOM     25  C   UNL     1       3.947  -0.861   2.037  1.00  0.00     0.188 C 
BRANCH  25  26
ATOM     26  C   UNL     1       5.331  -1.488   1.931  1.00  0.00     0.188 C 
BRANCH  26  27
ATOM     27  O   UNL     1       5.363  -2.879   1.613  1.00  0.00    -0.376 OA
BRANCH  27  28
ATOM     28  C   UNL     1       4.323  -3.711   2.125  1.00  0.00     0.202 C 
BRANCH  28  29
ATOM     29  C   UNL     1       4.504  -4.165   3.573  1.00  0.00     0.261 C 
BRANCH  29  30
ATOM     30  O   UNL     1       4.366  -3.077   4.502  1.00  0.00    -0.460 OA
BRANCH  30  31
ATOM     31  C   UNL     1       5.526  -2.559   4.956  1.00  0.00     0.338 C 
ATOM     32  O   UNL     1       6.666  -2.911   4.679  1.00  0.00    -0.246 OA
BRANCH  31  33
ATOM     33  C   UNL     1       5.239  -1.362   5.758  1.00  0.00     0.060 A 
ATOM     34  C   UNL     1       5.908  -0.169   5.450  1.00  0.00     0.016 A 
ATOM     35  C   UNL     1       4.391  -1.444   6.864  1.00  0.00     0.016 A 
ATOM     36  C   UNL     1       5.769   0.937   6.280  1.00  0.00     0.010 A 
ATOM     37  C   UNL     1       4.266  -0.341   7.705  1.00  0.00     0.010 A 
ATOM     38  C   UNL     1       4.989   0.835   7.438  1.00  0.00    -0.014 A 
BRANCH  38  39
ATOM     39  C   UNL     1       5.095   1.878   8.479  1.00  0.00     0.031 A 
ATOM     40  C   UNL     1       6.000   1.622   9.649  1.00  0.00     0.074 A 
ATOM     41  C   UNL     1       4.406   3.025   8.372  1.00  0.00     0.049 A 
ATOM     42  N   UNL     1       6.188   2.335  10.728  1.00  0.00    -0.248 NA
ATOM     43  C   UNL     1       6.799   0.386   9.597  1.00  0.00     0.031 C 
ATOM     44  C   UNL     1       3.542   3.388   7.252  1.00  0.00     0.029 A 
ATOM     45  N   UNL     1       4.317   4.088   9.231  1.00  0.00    -0.354 N 
ATOM     46  C   UNL     1       7.115   1.631  11.485  1.00  0.00     0.074 A 
ATOM     47  C   UNL     1       7.427   0.419  10.761  1.00  0.00     0.031 C 
ATOM     48  C   UNL     1       2.989   4.587   7.503  1.00  0.00     0.029 A 
ATOM     49  C   UNL     1       3.431   5.050   8.817  1.00  0.00     0.049 A 
ATOM     50  H   UNL     1       4.838   4.156  10.064  1.00  0.00     0.167 HD
ATOM     51  C   UNL     1       7.661   1.974  12.675  1.00  0.00     0.037 A 
ATOM     52  C   UNL     1       3.004   6.158   9.451  1.00  0.00     0.037 A 
ATOM     53  C   UNL     1       7.332   3.182  13.385  1.00  0.00     0.049 A 
ATOM     54  C   UNL     1       3.565   6.479  10.813  1.00  0.00     0.074 A 
ATOM     55  C   UNL     1       7.825   3.636  14.594  1.00  0.00     0.029 A 
ATOM     56  N   UNL     1       6.412   4.125  12.946  1.00  0.00    -0.354 N 
ATOM     57  N   UNL     1       4.451   5.820  11.521  1.00  0.00    -0.248 NA
ATOM     58  C   UNL     1       3.069   7.700  11.461  1.00  0.00     0.031 C 
ATOM     59  C   UNL     1       7.160   4.823  14.916  1.00  0.00     0.029 A 
ATOM     60  C   UNL     1       6.303   5.147  13.875  1.00  0.00     0.049 A 
ATOM     61  H   UNL     1       5.912   4.076  12.100  1.00  0.00     0.167 HD
ATOM     62  C   UNL     1       4.643   6.560  12.681  1.00  0.00     0.074 A 
ATOM     63  C   UNL     1       3.790   7.726  12.573  1.00  0.00     0.031 C 
ATOM     64  C   UNL     1       5.451   6.302  13.740  1.00  0.00     0.037 A 
BRANCH  51  65
ATOM     65  C   UNL     1       8.637   1.015  13.294  1.00  0.00     0.064 A 
ATOM     66  C   UNL     1       9.906   0.786  12.739  1.00  0.00     0.173 A 
ATOM     67  C   UNL     1       8.305   0.326  14.471  1.00  0.00     0.173 A 
ATOM     68  F   UNL     1      10.268   1.405  11.605  1.00  0.00    -0.203 F 
ATOM     69  C   UNL     1      10.791  -0.117  13.322  1.00  0.00     0.198 A 
ATOM     70  C   UNL     1       9.206  -0.550  15.069  1.00  0.00     0.198 A 
ATOM     71  F   UNL     1       7.105   0.506  15.045  1.00  0.00    -0.203 F 
ATOM     72  F   UNL     1      11.975  -0.361  12.742  1.00  0.00    -0.200 F 
ATOM     73  C   UNL     1      10.444  -0.778  14.490  1.00  0.00     0.200 A 
ATOM     74  F   UNL     1       8.873  -1.179  16.206  1.00  0.00    -0.200 F 
ATOM     75  F   UNL     1      11.300  -1.643  15.053  1.00  0.00    -0.200 F 
ENDBRANCH  51  65
BRANCH  52  76
ATOM     76  C   UNL     1       1.982   7.030   8.815  1.00  0.00     0.064 A 
ATOM     77  C   UNL     1       2.296   8.330   8.398  1.00  0.00     0.173 A 
ATOM     78  C   UNL     1       0.666   6.583   8.617  1.00  0.00     0.173 A 
ATOM     79  F   UNL     1       3.534   8.811   8.582  1.00  0.00    -0.203 F 
ATOM     80  C   UNL     1       1.330   9.157   7.827  1.00  0.00     0.198 A 
ATOM     81  C   UNL     1      -0.290   7.399   8.017  1.00  0.00     0.198 A 
ATOM     82  F   UNL     1       0.313   5.346   8.996  1.00  0.00    -0.203 F 
ATOM     83  F   UNL     1       1.646  10.412   7.482  1.00  0.00    -0.200 F 
ATOM     84  C   UNL     1       0.040   8.688   7.631  1.00  0.00     0.200 A 
ATOM     85  F   UNL     1      -1.531   6.935   7.815  1.00  0.00    -0.200 F 
ATOM     86  F   UNL     1      -0.887   9.482   7.077  1.00  0.00    -0.200 F 
ENDBRANCH  52  76
BRANCH  64  87
ATOM     87  C   UNL     1       5.486   7.320  14.844  1.00  0.00     0.064 A 
ATOM     88  C   UNL     1       4.398   7.514  15.708  1.00  0.00     0.173 A 
ATOM     89  C   UNL     1       6.644   8.083  15.065  1.00  0.00     0.173 A 
ATOM     90  F   UNL     1       3.263   6.820  15.532  1.00  0.00    -0.203 F 
ATOM     91  C   UNL     1       4.457   8.454  16.733  1.00  0.00     0.198 A 
ATOM     92  C   UNL     1       6.712   8.995  16.114  1.00  0.00     0.198 A 
ATOM     93  F   UNL     1       7.716   7.930  14.274  1.00  0.00    -0.203 F 
ATOM     94  F   UNL     1       3.387   8.661  17.512  1.00  0.00    -0.200 F 
ATOM     95  C   UNL     1       5.617   9.187  16.941  1.00  0.00     0.200 A 
ATOM     96  F   UNL     1       7.840   9.688  16.323  1.00  0.00    -0.200 F 
ATOM     97  F   UNL     1       5.675  10.085  17.934  1.00  0.00    -0.200 F 
ENDBRANCH  64  87
ENDBRANCH  38  39
ENDBRANCH  31  33
ENDBRANCH  30  31
ENDBRANCH  29  30
ENDBRANCH  28  29
ENDBRANCH  27  28
ENDBRANCH  26  27
ENDBRANCH  25  26
ENDBRANCH   1  25
TORSDOF 22
