REMARK SMILES COC[C@@H](C)CNc1cc(C)c(N)c(C(=O)OCCOCCOCCOCCOC(=O)c2ccc(-c3c4nc(c(-c5c(F)c(F)c(F)c(F)c5F)c5ccc([nH]5)c(-c5c(F)c(F)c(F)c(F)c5F)c5nc(c(-c6c(F)c(F)c(F)c(F)c6F)c6ccc3[nH]6)C=C5)C=C4)cc2)c1
REMARK SMILES IDX 21 1 20 2 19 3 18 4 17 5 15 6 16 7 14 8 8 9 9 10 95 11 10 12
REMARK SMILES IDX 11 13 12 14 7 15 6 17 4 18 5 19 3 20 2 21 1 22 13 23 22 26
REMARK SMILES IDX 23 27 24 28 25 29 26 30 27 31 28 32 29 33 30 34 31 35 32 36
REMARK SMILES IDX 33 37 94 38 34 39 93 40 35 41 36 42 37 43 87 44 38 45 92 46
REMARK SMILES IDX 86 47 88 48 39 49 91 50 85 51 84 52 40 54 72 55 52 56 71 57
REMARK SMILES IDX 53 58 56 59 70 60 89 61 54 62 55 63 69 65 90 66 57 67 41 68
REMARK SMILES IDX 42 69 50 70 43 71 44 72 48 73 51 74 45 75 46 76 49 77 47 78
REMARK SMILES IDX 73 79 74 80 82 81 75 82 76 83 80 84 83 85 77 86 78 87 81 88
REMARK SMILES IDX 79 89 58 90 59 91 67 92 60 93 61 94 65 95 68 96 62 97 63 98
REMARK SMILES IDX 66 99 64 100
REMARK H PARENT 7 16 13 24 13 25 88 53 56 64
REMARK Flexibility Score: inf
ROOT
ATOM      1  C   UNL     1      -5.202   1.800   7.782  1.00  0.00     0.188 C 
ENDROOT
BRANCH   1   2
ATOM      2  O   UNL     1      -6.024   2.937   7.577  1.00  0.00    -0.376 OA
BRANCH   2   3
ATOM      3  C   UNL     1      -5.510   4.209   7.917  1.00  0.00     0.202 C 
BRANCH   3   4
ATOM      4  C   UNL     1      -4.344   4.724   7.065  1.00  0.00     0.261 C 
BRANCH   4   5
ATOM      5  O   UNL     1      -3.248   3.812   6.905  1.00  0.00    -0.460 OA
BRANCH   5   6
ATOM      6  C   UNL     1      -2.487   3.568   7.998  1.00  0.00     0.340 C 
ATOM      7  O   UNL     1      -2.629   4.078   9.098  1.00  0.00    -0.246 OA
BRANCH   6   8
ATOM      8  C   UNL     1      -1.574   2.432   7.696  1.00  0.00     0.085 A 
ATOM      9  C   UNL     1      -0.156   1.289   6.062  1.00  0.00     0.035 A 
ATOM     10  C   UNL     1       0.034   0.281   7.009  1.00  0.00     0.031 A 
ATOM     11  C   UNL     1      -0.952   2.375   6.436  1.00  0.00     0.043 A 
ATOM     12  C   UNL     1      -0.583   0.308   8.278  1.00  0.00    -0.025 A 
ATOM     13  C   UNL     1      -0.362  -0.858   9.205  1.00  0.00     0.047 C 
ATOM     14  C   UNL     1      -1.413   1.387   8.632  1.00  0.00     0.049 A 
BRANCH   9  15
ATOM     15  N   UNL     1       0.327   1.235   4.769  1.00  0.00    -0.385 N 
ATOM     16  H   UNL     1       0.230   2.046   4.219  1.00  0.00     0.160 HD
BRANCH  15  17
ATOM     17  C   UNL     1       0.965   0.084   4.149  1.00  0.00     0.118 C 
BRANCH  17  18
ATOM     18  C   UNL     1       0.497  -0.104   2.690  1.00  0.00     0.031 C 
ATOM     19  C   UNL     1       0.948  -1.489   2.205  1.00  0.00     0.012 C 
BRANCH  18  20
ATOM     20  C   UNL     1       1.027   1.015   1.777  1.00  0.00     0.164 C 
BRANCH  20  21
ATOM     21  O   UNL     1       0.374   1.063   0.509  1.00  0.00    -0.384 OA
ATOM     22  C   UNL     1       0.968   0.266  -0.504  1.00  0.00     0.194 C 
ENDBRANCH  20  21
ENDBRANCH  18  20
ENDBRANCH  17  18
ENDBRANCH  15  17
ENDBRANCH   9  15
BRANCH  14  23
ATOM     23  N   UNL     1      -2.196   1.318   9.786  1.00  0.00    -0.398 N 
ATOM     24  H   UNL     1      -2.066   0.580  10.425  1.00  0.00     0.156 HD
ATOM     25  H   UNL     1      -2.877   2.006   9.961  1.00  0.00     0.156 HD
ENDBRANCH  14  23
ENDBRANCH   6   8
ENDBRANCH   5   6
ENDBRANCH   4   5
ENDBRANCH   3   4
ENDBRANCH   2   3
ENDBRANCH   1   2
BRANCH   1  26
ATOM     26  C   UNL     1      -4.713   1.101   6.490  1.00  0.00     0.188 C 
BRANCH  26  27
ATOM     27  O   UNL     1      -5.173   1.488   5.198  1.00  0.00    -0.377 OA
BRANCH  27  28
ATOM     28  C   UNL     1      -6.406   2.178   5.059  1.00  0.00     0.188 C 
BRANCH  28  29
ATOM     29  C   UNL     1      -7.648   1.622   5.787  1.00  0.00     0.188 C 
BRANCH  29  30
ATOM     30  O   UNL     1      -7.373   0.491   6.595  1.00  0.00    -0.376 OA
BRANCH  30  31
ATOM     31  C   UNL     1      -7.728  -0.786   6.103  1.00  0.00     0.202 C 
BRANCH  31  32
ATOM     32  C   UNL     1      -7.210  -1.238   4.728  1.00  0.00     0.261 C 
BRANCH  32  33
ATOM     33  O   UNL     1      -7.332  -0.307   3.643  1.00  0.00    -0.460 OA
BRANCH  33  34
ATOM     34  C   UNL     1      -8.572  -0.027   3.180  1.00  0.00     0.338 C 
ATOM     35  O   UNL     1      -9.627  -0.470   3.574  1.00  0.00    -0.246 OA
BRANCH  34  36
ATOM     36  C   UNL     1      -8.420   1.086   2.212  1.00  0.00     0.060 A 
ATOM     37  C   UNL     1      -9.000   2.330   2.496  1.00  0.00     0.016 A 
ATOM     38  C   UNL     1      -7.665   0.907   1.052  1.00  0.00     0.016 A 
ATOM     39  C   UNL     1      -8.832   3.398   1.613  1.00  0.00     0.010 A 
ATOM     40  C   UNL     1      -7.523   1.968   0.154  1.00  0.00     0.010 A 
ATOM     41  C   UNL     1      -8.124   3.211   0.419  1.00  0.00    -0.014 A 
BRANCH  41  42
ATOM     42  C   UNL     1      -8.165   4.247  -0.641  1.00  0.00     0.031 A 
ATOM     43  C   UNL     1      -9.157   4.081  -1.757  1.00  0.00     0.074 A 
ATOM     44  C   UNL     1      -7.339   5.308  -0.621  1.00  0.00     0.049 A 
ATOM     45  N   UNL     1      -9.321   4.794  -2.841  1.00  0.00    -0.248 NA
ATOM     46  C   UNL     1     -10.088   2.947  -1.634  1.00  0.00     0.031 C 
ATOM     47  C   UNL     1      -6.365   5.602   0.427  1.00  0.00     0.029 A 
ATOM     48  N   UNL     1      -7.180   6.329  -1.527  1.00  0.00    -0.354 N 
ATOM     49  C   UNL     1     -10.362   4.189  -3.534  1.00  0.00     0.074 A 
ATOM     50  C   UNL     1     -10.776   3.039  -2.762  1.00  0.00     0.031 C 
ATOM     51  C   UNL     1      -5.691   6.717   0.093  1.00  0.00     0.029 A 
ATOM     52  C   UNL     1      -6.158   7.190  -1.210  1.00  0.00     0.049 A 
ATOM     53  H   UNL     1      -7.744   6.432  -2.327  1.00  0.00     0.167 HD
ATOM     54  C   UNL     1     -10.922   4.564  -4.708  1.00  0.00     0.037 A 
ATOM     55  C   UNL     1      -5.641   8.218  -1.911  1.00  0.00     0.037 A 
ATOM     56  C   UNL     1     -10.504   5.708  -5.473  1.00  0.00     0.049 A 
ATOM     57  C   UNL     1      -6.232   8.569  -3.255  1.00  0.00     0.074 A 
ATOM     58  C   UNL     1     -11.026   6.188  -6.661  1.00  0.00     0.029 A 
ATOM     59  N   UNL     1      -9.451   6.545  -5.131  1.00  0.00    -0.354 N 
ATOM     60  N   UNL     1      -7.238   8.016  -3.890  1.00  0.00    -0.248 NA
ATOM     61  C   UNL     1      -5.616   9.690  -3.980  1.00  0.00     0.031 C 
ATOM     62  C   UNL     1     -10.247   7.273  -7.073  1.00  0.00     0.029 A 
ATOM     63  C   UNL     1      -9.285   7.516  -6.105  1.00  0.00     0.049 A 
ATOM     64  H   UNL     1      -8.903   6.461  -4.317  1.00  0.00     0.167 HD
ATOM     65  C   UNL     1      -7.393   8.737  -5.068  1.00  0.00     0.074 A 
ATOM     66  C   UNL     1      -6.390   9.780  -5.052  1.00  0.00     0.031 C 
ATOM     67  C   UNL     1      -8.286   8.554  -6.072  1.00  0.00     0.037 A 
BRANCH  54  68
ATOM     68  C   UNL     1     -12.023   3.706  -5.259  1.00  0.00     0.064 A 
ATOM     69  C   UNL     1     -13.291   3.650  -4.661  1.00  0.00     0.173 A 
ATOM     70  C   UNL     1     -11.816   2.959  -6.429  1.00  0.00     0.173 A 
ATOM     71  F   UNL     1     -13.537   4.333  -3.532  1.00  0.00    -0.203 F 
ATOM     72  C   UNL     1     -14.304   2.861  -5.202  1.00  0.00     0.198 A 
ATOM     73  C   UNL     1     -12.841   2.198  -6.985  1.00  0.00     0.198 A 
ATOM     74  F   UNL     1     -10.623   2.977  -7.041  1.00  0.00    -0.203 F 
ATOM     75  F   UNL     1     -15.493   2.787  -4.588  1.00  0.00    -0.200 F 
ATOM     76  C   UNL     1     -14.081   2.144  -6.367  1.00  0.00     0.200 A 
ATOM     77  F   UNL     1     -12.627   1.518  -8.119  1.00  0.00    -0.200 F 
ATOM     78  F   UNL     1     -15.060   1.396  -6.894  1.00  0.00    -0.200 F 
ENDBRANCH  54  68
BRANCH  55  79
ATOM     79  C   UNL     1      -4.476   8.977  -1.378  1.00  0.00     0.064 A 
ATOM     80  C   UNL     1      -4.589  10.329  -1.025  1.00  0.00     0.173 A 
ATOM     81  C   UNL     1      -3.214   8.376  -1.251  1.00  0.00     0.173 A 
ATOM     82  F   UNL     1      -5.766  10.959  -1.157  1.00  0.00    -0.203 F 
ATOM     83  C   UNL     1      -3.482  11.056  -0.591  1.00  0.00     0.198 A 
ATOM     84  C   UNL     1      -2.116   9.095  -0.783  1.00  0.00     0.198 A 
ATOM     85  F   UNL     1      -3.047   7.087  -1.581  1.00  0.00    -0.203 F 
ATOM     86  F   UNL     1      -3.606  12.363  -0.320  1.00  0.00    -0.200 F 
ATOM     87  C   UNL     1      -2.248  10.437  -0.464  1.00  0.00     0.200 A 
ATOM     88  F   UNL     1      -0.928   8.489  -0.652  1.00  0.00    -0.200 F 
ATOM     89  F   UNL     1      -1.184  11.137  -0.048  1.00  0.00    -0.200 F 
ENDBRANCH  55  79
BRANCH  67  90
ATOM     90  C   UNL     1      -8.252   9.526  -7.220  1.00  0.00     0.064 A 
ATOM     91  C   UNL     1      -7.196   9.546  -8.143  1.00  0.00     0.173 A 
ATOM     92  C   UNL     1      -9.316  10.419  -7.424  1.00  0.00     0.173 A 
ATOM     93  F   UNL     1      -6.148   8.722  -7.989  1.00  0.00    -0.203 F 
ATOM     94  C   UNL     1      -7.192  10.444  -9.208  1.00  0.00     0.198 A 
ATOM     95  C   UNL     1      -9.326  11.289  -8.510  1.00  0.00     0.198 A 
ATOM     96  F   UNL     1     -10.357  10.436  -6.578  1.00  0.00    -0.203 F 
ATOM     97  F   UNL     1      -6.146  10.482 -10.046  1.00  0.00    -0.200 F 
ATOM     98  C   UNL     1      -8.260  11.308  -9.396  1.00  0.00     0.200 A 
ATOM     99  F   UNL     1     -10.369  12.109  -8.700  1.00  0.00    -0.200 F 
ATOM    100  F   UNL     1      -8.259  12.164 -10.427  1.00  0.00    -0.200 F 
ENDBRANCH  67  90
ENDBRANCH  41  42
ENDBRANCH  34  36
ENDBRANCH  33  34
ENDBRANCH  32  33
ENDBRANCH  31  32
ENDBRANCH  30  31
ENDBRANCH  29  30
ENDBRANCH  28  29
ENDBRANCH  27  28
ENDBRANCH  26  27
ENDBRANCH   1  26
TORSDOF 26
