REMARK SMILES Cc1c(Cl)cccc1S(=O)(=O)N[C@H]1C=C[C@@H](C(=O)OCCOCCOCCOCCOC(=O)c2ccc(-c3c4nc(c(-c5c(F)c(F)c(F)c(F)c5F)c5ccc([nH]5)c(-c5c(F)c(F)c(F)c(F)c5F)c5nc(c(-c6c(F)c(F)c(F)c(F)c6F)c6ccc3[nH]6)C=C5)C=C4)cc2)C1
REMARK SMILES IDX 24 1 23 2 22 3 21 4 20 5 19 6 17 7 18 8 16 9 13 10 14 11
REMARK SMILES IDX 97 12 15 13 12 14 9 16 10 17 11 18 8 19 1 20 2 21 3 22 4 23
REMARK SMILES IDX 5 24 7 25 6 26 25 27 26 28 27 29 28 30 29 31 30 32 31 33
REMARK SMILES IDX 32 34 33 35 34 36 35 37 96 38 36 39 95 40 37 41 38 42 39 43
REMARK SMILES IDX 89 44 40 45 94 46 88 47 90 48 41 49 93 50 87 51 86 52 42 54
REMARK SMILES IDX 74 55 54 56 73 57 55 58 58 59 72 60 91 61 56 62 57 63 71 65
REMARK SMILES IDX 92 66 59 67 43 68 44 69 52 70 45 71 46 72 50 73 53 74 47 75
REMARK SMILES IDX 48 76 51 77 49 78 75 79 76 80 84 81 77 82 78 83 82 84 85 85
REMARK SMILES IDX 79 86 80 87 83 88 81 89 60 90 61 91 69 92 62 93 63 94 67 95
REMARK SMILES IDX 70 96 64 97 65 98 68 99 66 100
REMARK H PARENT 12 15 90 53 58 64
REMARK Flexibility Score: inf
ROOT
ATOM      1  C   UNL     1       2.933  -0.024  -0.696  1.00  0.00     0.188 C 
ENDROOT
BRANCH   1   2
ATOM      2  C   UNL     1       4.354   0.360  -1.132  1.00  0.00     0.188 C 
BRANCH   2   3
ATOM      3  O   UNL     1       5.351   0.605  -0.151  1.00  0.00    -0.376 OA
BRANCH   3   4
ATOM      4  C   UNL     1       5.038   1.423   0.968  1.00  0.00     0.202 C 
BRANCH   4   5
ATOM      5  C   UNL     1       4.445   2.825   0.744  1.00  0.00     0.261 C 
BRANCH   5   6
ATOM      6  O   UNL     1       3.249   2.910  -0.066  1.00  0.00    -0.463 OA
BRANCH   6   7
ATOM      7  C   UNL     1       3.372   3.640  -1.206  1.00  0.00     0.312 C 
ATOM      8  O   UNL     1       4.437   4.102  -1.611  1.00  0.00    -0.252 OA
BRANCH   7   9
ATOM      9  C   UNL     1       2.067   3.921  -1.957  1.00  0.00     0.123 C 
ATOM     10  C   UNL     1      -0.371   4.161  -1.538  1.00  0.00     0.093 C 
ATOM     11  C   UNL     1       0.354   5.470  -1.502  1.00  0.00    -0.011 C 
ATOM     12  C   UNL     1       0.782   3.140  -1.646  1.00  0.00     0.043 C 
ATOM     13  C   UNL     1       1.666   5.345  -1.718  1.00  0.00    -0.015 C 
BRANCH  10  14
ATOM     14  N   UNL     1      -1.101   4.042  -0.273  1.00  0.00    -0.204 NA
ATOM     15  H   UNL     1      -0.603   3.347   0.284  1.00  0.00     0.142 HD
BRANCH  14  16
ATOM     16  S   UNL     1      -2.728   3.603  -0.241  1.00  0.00     0.241 S 
ATOM     17  O   UNL     1      -3.237   3.634  -1.592  1.00  0.00    -0.207 OA
ATOM     18  O   UNL     1      -3.325   4.378   0.825  1.00  0.00    -0.207 OA
BRANCH  16  19
ATOM     19  C   UNL     1      -2.782   1.911   0.301  1.00  0.00     0.086 A 
ATOM     20  C   UNL     1      -0.581   1.932   1.631  1.00  0.00     0.047 C 
ATOM     21  C   UNL     1      -1.685   1.271   0.860  1.00  0.00    -0.012 A 
ATOM     22  C   UNL     1      -1.659  -0.110   0.679  1.00  0.00     0.045 A 
ATOM     23  Cl  UNL     1      -0.379  -0.672  -0.337  1.00  0.00    -0.084 Cl
ATOM     24  C   UNL     1      -2.818  -0.867   0.538  1.00  0.00     0.021 A 
ATOM     25  C   UNL     1      -3.941   1.169  -0.009  1.00  0.00     0.022 A 
ATOM     26  C   UNL     1      -3.990  -0.209   0.217  1.00  0.00     0.003 A 
ENDBRANCH  16  19
ENDBRANCH  14  16
ENDBRANCH  10  14
ENDBRANCH   7   9
ENDBRANCH   6   7
ENDBRANCH   5   6
ENDBRANCH   4   5
ENDBRANCH   3   4
ENDBRANCH   2   3
ENDBRANCH   1   2
BRANCH   1  27
ATOM     27  O   UNL     1       2.687   0.109   0.688  1.00  0.00    -0.377 OA
BRANCH  27  28
ATOM     28  C   UNL     1       2.397  -1.052   1.451  1.00  0.00     0.188 C 
BRANCH  28  29
ATOM     29  C   UNL     1       3.221  -2.326   1.231  1.00  0.00     0.188 C 
BRANCH  29  30
ATOM     30  O   UNL     1       3.036  -3.096   0.046  1.00  0.00    -0.376 OA
BRANCH  30  31
ATOM     31  C   UNL     1       1.733  -3.382  -0.450  1.00  0.00     0.202 C 
BRANCH  31  32
ATOM     32  C   UNL     1       0.719  -4.095   0.449  1.00  0.00     0.261 C 
BRANCH  32  33
ATOM     33  O   UNL     1       0.327  -3.307   1.588  1.00  0.00    -0.460 OA
BRANCH  33  34
ATOM     34  C   UNL     1       0.532  -3.899   2.784  1.00  0.00     0.338 C 
ATOM     35  O   UNL     1       0.933  -5.033   2.985  1.00  0.00    -0.246 OA
BRANCH  34  36
ATOM     36  C   UNL     1       0.350  -2.939   3.888  1.00  0.00     0.060 A 
ATOM     37  C   UNL     1       1.421  -2.799   4.776  1.00  0.00     0.016 A 
ATOM     38  C   UNL     1      -0.880  -2.333   4.158  1.00  0.00     0.016 A 
ATOM     39  C   UNL     1       1.238  -2.142   5.988  1.00  0.00     0.010 A 
ATOM     40  C   UNL     1      -1.061  -1.667   5.380  1.00  0.00     0.010 A 
ATOM     41  C   UNL     1      -0.021  -1.628   6.328  1.00  0.00    -0.014 A 
BRANCH  41  42
ATOM     42  C   UNL     1      -0.265  -1.255   7.748  1.00  0.00     0.031 A 
ATOM     43  C   UNL     1      -0.974  -2.233   8.650  1.00  0.00     0.074 A 
ATOM     44  C   UNL     1       0.241  -0.121   8.265  1.00  0.00     0.049 A 
ATOM     45  N   UNL     1      -1.190  -2.170   9.942  1.00  0.00    -0.248 NA
ATOM     46  C   UNL     1      -1.506  -3.449   8.015  1.00  0.00     0.031 C 
ATOM     47  C   UNL     1       0.980   0.891   7.516  1.00  0.00     0.029 A 
ATOM     48  N   UNL     1       0.223   0.356   9.553  1.00  0.00    -0.354 N 
ATOM     49  C   UNL     1      -1.872  -3.334  10.270  1.00  0.00     0.074 A 
ATOM     50  C   UNL     1      -2.078  -4.065   9.039  1.00  0.00     0.031 C 
ATOM     51  C   UNL     1       1.355   1.869   8.360  1.00  0.00     0.029 A 
ATOM     52  C   UNL     1       0.868   1.558   9.703  1.00  0.00     0.049 A 
ATOM     53  H   UNL     1      -0.211  -0.120  10.298  1.00  0.00     0.167 HD
ATOM     54  C   UNL     1      -2.275  -3.770  11.488  1.00  0.00     0.037 A 
ATOM     55  C   UNL     1       1.043   2.322  10.800  1.00  0.00     0.037 A 
ATOM     56  C   UNL     1      -2.069  -3.056  12.720  1.00  0.00     0.049 A 
ATOM     57  C   UNL     1       0.527   1.846  12.134  1.00  0.00     0.074 A 
ATOM     58  C   UNL     1      -2.424  -3.431  14.005  1.00  0.00     0.029 A 
ATOM     59  N   UNL     1      -1.460  -1.815  12.821  1.00  0.00    -0.354 N 
ATOM     60  N   UNL     1      -0.078   0.724  12.439  1.00  0.00    -0.248 NA
ATOM     61  C   UNL     1       0.730   2.744  13.281  1.00  0.00     0.031 C 
ATOM     62  C   UNL     1      -2.078  -2.393  14.876  1.00  0.00     0.029 A 
ATOM     63  C   UNL     1      -1.455  -1.397  14.143  1.00  0.00     0.049 A 
ATOM     64  H   UNL     1      -1.086  -1.306  12.066  1.00  0.00     0.167 HD
ATOM     65  C   UNL     1      -0.296   0.766  13.811  1.00  0.00     0.074 A 
ATOM     66  C   UNL     1       0.254   2.018  14.283  1.00  0.00     0.031 C 
ATOM     67  C   UNL     1      -0.897  -0.152  14.607  1.00  0.00     0.037 A 
BRANCH  54  68
ATOM     68  C   UNL     1      -2.998  -5.084  11.549  1.00  0.00     0.064 A 
ATOM     69  C   UNL     1      -2.333  -6.302  11.341  1.00  0.00     0.173 A 
ATOM     70  C   UNL     1      -4.366  -5.127  11.856  1.00  0.00     0.173 A 
ATOM     71  F   UNL     1      -1.028  -6.315  11.031  1.00  0.00    -0.203 F 
ATOM     72  C   UNL     1      -3.018  -7.513  11.413  1.00  0.00     0.198 A 
ATOM     73  C   UNL     1      -5.041  -6.341  11.957  1.00  0.00     0.198 A 
ATOM     74  F   UNL     1      -5.048  -3.991  12.069  1.00  0.00    -0.203 F 
ATOM     75  F   UNL     1      -2.373  -8.661  11.165  1.00  0.00    -0.200 F 
ATOM     76  C   UNL     1      -4.368  -7.532  11.728  1.00  0.00     0.200 A 
ATOM     77  F   UNL     1      -6.343  -6.358  12.273  1.00  0.00    -0.200 F 
ATOM     78  F   UNL     1      -5.024  -8.698  11.805  1.00  0.00    -0.200 F 
ENDBRANCH  54  68
BRANCH  55  79
ATOM     79  C   UNL     1       1.747   3.627  10.690  1.00  0.00     0.064 A 
ATOM     80  C   UNL     1       2.999   3.830  11.288  1.00  0.00     0.173 A 
ATOM     81  C   UNL     1       1.163   4.708  10.014  1.00  0.00     0.173 A 
ATOM     82  F   UNL     1       3.586   2.835  11.968  1.00  0.00    -0.203 F 
ATOM     83  C   UNL     1       3.628   5.072  11.233  1.00  0.00     0.198 A 
ATOM     84  C   UNL     1       1.807   5.941   9.935  1.00  0.00     0.198 A 
ATOM     85  F   UNL     1      -0.035   4.566   9.428  1.00  0.00    -0.203 F 
ATOM     86  F   UNL     1       4.800   5.255  11.858  1.00  0.00    -0.200 F 
ATOM     87  C   UNL     1       3.034   6.125  10.553  1.00  0.00     0.200 A 
ATOM     88  F   UNL     1       1.234   6.951   9.268  1.00  0.00    -0.200 F 
ATOM     89  F   UNL     1       3.639   7.319  10.502  1.00  0.00    -0.200 F 
ENDBRANCH  55  79
BRANCH  67  90
ATOM     90  C   UNL     1      -0.960   0.140  16.080  1.00  0.00     0.064 A 
ATOM     91  C   UNL     1      -1.792   1.142  16.601  1.00  0.00     0.173 A 
ATOM     92  C   UNL     1      -0.203  -0.618  16.988  1.00  0.00     0.173 A 
ATOM     93  F   UNL     1      -2.527   1.904  15.777  1.00  0.00    -0.203 F 
ATOM     94  C   UNL     1      -1.841   1.394  17.970  1.00  0.00     0.198 A 
ATOM     95  C   UNL     1      -0.278  -0.385  18.358  1.00  0.00     0.198 A 
ATOM     96  F   UNL     1       0.603  -1.595  16.546  1.00  0.00    -0.203 F 
ATOM     97  F   UNL     1      -2.604   2.391  18.438  1.00  0.00    -0.200 F 
ATOM     98  C   UNL     1      -1.090   0.627  18.848  1.00  0.00     0.200 A 
ATOM     99  F   UNL     1       0.436  -1.138  19.206  1.00  0.00    -0.200 F 
ATOM    100  F   UNL     1      -1.143   0.868  20.165  1.00  0.00    -0.200 F 
ENDBRANCH  67  90
ENDBRANCH  41  42
ENDBRANCH  34  36
ENDBRANCH  33  34
ENDBRANCH  32  33
ENDBRANCH  31  32
ENDBRANCH  30  31
ENDBRANCH  29  30
ENDBRANCH  28  29
ENDBRANCH  27  28
ENDBRANCH   1  27
TORSDOF 23
