REMARK SMILES C[C@H]([NH2+]CC1CCCC1)[C@H](C)C(=O)OCCOCCOCCOCCOC(=O)c1ccc(-c2c3nc(c(-c4c(F)c(F)c(F)c(F)c4F)c4ccc([nH]4)c(-c4c(F)c(F)c(F)c(F)c4F)c4nc(c(-c5c(F)c(F)c(F)c(F)c5F)c5ccc2[nH]5)C=C4)C=C3)cc1
REMARK SMILES IDX 19 1 18 2 17 3 16 4 15 5 14 6 12 7 13 8 10 9 11 10 2 11 1 12
REMARK SMILES IDX 3 13 4 16 5 17 6 18 9 19 7 20 8 21 20 22 21 23 22 24 23 25
REMARK SMILES IDX 24 26 25 27 26 28 27 29 28 30 29 31 30 32 91 33 31 34 90 35
REMARK SMILES IDX 32 36 33 37 34 38 84 39 35 40 89 41 83 42 85 43 36 44 88 45
REMARK SMILES IDX 82 46 81 47 37 49 69 50 49 51 68 52 50 53 53 54 67 55 86 56
REMARK SMILES IDX 51 57 52 58 66 60 87 61 54 62 38 63 39 64 47 65 40 66 41 67
REMARK SMILES IDX 45 68 48 69 42 70 43 71 46 72 44 73 70 74 71 75 79 76 72 77
REMARK SMILES IDX 73 78 77 79 80 80 74 81 75 82 78 83 76 84 55 85 56 86 64 87
REMARK SMILES IDX 57 88 58 89 62 90 65 91 59 92 60 93 63 94 61 95
REMARK H PARENT 3 14 3 15 85 48 53 59
REMARK Flexibility Score: inf
ROOT
ATOM      1  C   UNL     1      -0.025   3.327  -2.566  1.00  0.00     0.188 C 
ENDROOT
BRANCH   1   2
ATOM      2  C   UNL     1      -1.393   3.236  -3.265  1.00  0.00     0.188 C 
BRANCH   2   3
ATOM      3  O   UNL     1      -2.255   4.365  -3.300  1.00  0.00    -0.376 OA
BRANCH   3   4
ATOM      4  C   UNL     1      -2.528   5.088  -2.108  1.00  0.00     0.202 C 
BRANCH   4   5
ATOM      5  C   UNL     1      -2.859   4.359  -0.798  1.00  0.00     0.261 C 
BRANCH   5   6
ATOM      6  O   UNL     1      -1.968   3.296  -0.424  1.00  0.00    -0.463 OA
BRANCH   6   7
ATOM      7  C   UNL     1      -2.470   2.038  -0.433  1.00  0.00     0.314 C 
ATOM      8  O   UNL     1      -3.564   1.741  -0.906  1.00  0.00    -0.252 OA
BRANCH   7   9
ATOM      9  C   UNL     1      -1.586   1.002   0.262  1.00  0.00     0.154 C 
ATOM     10  C   UNL     1      -0.124   0.851  -0.161  1.00  0.00     0.026 C 
BRANCH   9  11
ATOM     11  C   UNL     1      -1.757   1.073   1.799  1.00  0.00     0.193 C 
ATOM     12  C   UNL     1      -3.177   0.592   2.142  1.00  0.00     0.076 C 
BRANCH  11  13
ATOM     13  N   UNL     1      -1.548   2.364   2.477  1.00  0.00    -0.343 N 
ATOM     14  H   UNL     1      -1.535   2.187   3.482  1.00  0.00     0.346 HD
ATOM     15  H   UNL     1      -2.312   2.961   2.161  1.00  0.00     0.346 HD
BRANCH  13  16
ATOM     16  C   UNL     1      -0.326   3.089   2.139  1.00  0.00     0.264 C 
BRANCH  16  17
ATOM     17  C   UNL     1      -0.363   4.519   2.687  1.00  0.00     0.044 C 
ATOM     18  C   UNL     1       0.285   4.673   4.056  1.00  0.00     0.009 C 
ATOM     19  C   UNL     1       0.447   5.494   1.824  1.00  0.00     0.009 C 
ATOM     20  C   UNL     1       0.522   6.174   4.168  1.00  0.00     0.001 C 
ATOM     21  C   UNL     1       0.773   6.666   2.743  1.00  0.00     0.001 C 
ENDBRANCH  16  17
ENDBRANCH  13  16
ENDBRANCH  11  13
ENDBRANCH   9  11
ENDBRANCH   7   9
ENDBRANCH   6   7
ENDBRANCH   5   6
ENDBRANCH   4   5
ENDBRANCH   3   4
ENDBRANCH   2   3
ENDBRANCH   1   2
BRANCH   1  22
ATOM     22  O   UNL     1       0.154   4.438  -1.711  1.00  0.00    -0.377 OA
BRANCH  22  23
ATOM     23  C   UNL     1       0.823   5.564  -2.267  1.00  0.00     0.188 C 
BRANCH  23  24
ATOM     24  C   UNL     1       0.583   5.901  -3.755  1.00  0.00     0.188 C 
BRANCH  24  25
ATOM     25  O   UNL     1       0.658   4.789  -4.637  1.00  0.00    -0.376 OA
BRANCH  25  26
ATOM     26  C   UNL     1       1.860   4.539  -5.349  1.00  0.00     0.202 C 
BRANCH  26  27
ATOM     27  C   UNL     1       3.100   4.121  -4.540  1.00  0.00     0.261 C 
BRANCH  27  28
ATOM     28  O   UNL     1       3.516   5.036  -3.517  1.00  0.00    -0.460 OA
BRANCH  28  29
ATOM     29  C   UNL     1       3.860   6.272  -3.921  1.00  0.00     0.338 C 
ATOM     30  O   UNL     1       3.925   6.683  -5.073  1.00  0.00    -0.246 OA
BRANCH  29  31
ATOM     31  C   UNL     1       3.980   7.140  -2.739  1.00  0.00     0.060 A 
ATOM     32  C   UNL     1       3.179   8.287  -2.674  1.00  0.00     0.016 A 
ATOM     33  C   UNL     1       4.919   6.867  -1.740  1.00  0.00     0.016 A 
ATOM     34  C   UNL     1       3.377   9.215  -1.659  1.00  0.00     0.010 A 
ATOM     35  C   UNL     1       5.134   7.811  -0.733  1.00  0.00     0.010 A 
ATOM     36  C   UNL     1       4.410   9.017  -0.733  1.00  0.00    -0.014 A 
BRANCH  36  37
ATOM     37  C   UNL     1       4.912  10.196   0.011  1.00  0.00     0.031 A 
ATOM     38  C   UNL     1       6.098  10.931  -0.558  1.00  0.00     0.074 A 
ATOM     39  C   UNL     1       4.283  10.659   1.103  1.00  0.00     0.049 A 
ATOM     40  N   UNL     1       6.710  11.999  -0.117  1.00  0.00    -0.248 NA
ATOM     41  C   UNL     1       6.668  10.385  -1.802  1.00  0.00     0.031 C 
ATOM     42  C   UNL     1       3.092  10.070   1.707  1.00  0.00     0.029 A 
ATOM     43  N   UNL     1       4.564  11.746   1.892  1.00  0.00    -0.354 N 
ATOM     44  C   UNL     1       7.736  12.245  -1.022  1.00  0.00     0.074 A 
ATOM     45  C   UNL     1       7.691  11.196  -2.014  1.00  0.00     0.031 C 
ATOM     46  C   UNL     1       2.744  10.800   2.782  1.00  0.00     0.029 A 
ATOM     47  C   UNL     1       3.705  11.890   2.952  1.00  0.00     0.049 A 
ATOM     48  H   UNL     1       5.310  12.363   1.714  1.00  0.00     0.167 HD
ATOM     49  C   UNL     1       8.627  13.264  -1.034  1.00  0.00     0.037 A 
ATOM     50  C   UNL     1       3.710  12.794   3.951  1.00  0.00     0.037 A 
ATOM     51  C   UNL     1       8.665  14.308  -0.045  1.00  0.00     0.049 A 
ATOM     52  C   UNL     1       4.761  13.878   3.957  1.00  0.00     0.074 A 
ATOM     53  C   UNL     1       9.527  15.386   0.038  1.00  0.00     0.029 A 
ATOM     54  N   UNL     1       7.803  14.398   1.038  1.00  0.00    -0.354 N 
ATOM     55  N   UNL     1       5.720  14.113   3.094  1.00  0.00    -0.248 NA
ATOM     56  C   UNL     1       4.717  14.832   5.074  1.00  0.00     0.031 C 
ATOM     57  C   UNL     1       9.225  16.096   1.205  1.00  0.00     0.029 A 
ATOM     58  C   UNL     1       8.127  15.503   1.808  1.00  0.00     0.049 A 
ATOM     59  H   UNL     1       7.071  13.769   1.231  1.00  0.00     0.167 HD
ATOM     60  C   UNL     1       6.364  15.262   3.537  1.00  0.00     0.074 A 
ATOM     61  C   UNL     1       5.678  15.682   4.742  1.00  0.00     0.031 C 
ATOM     62  C   UNL     1       7.421  15.916   2.995  1.00  0.00     0.037 A 
BRANCH  49  63
ATOM     63  C   UNL     1       9.652  13.275  -2.131  1.00  0.00     0.064 A 
ATOM     64  C   UNL     1       9.308  13.523  -3.469  1.00  0.00     0.173 A 
ATOM     65  C   UNL     1      11.005  13.047  -1.836  1.00  0.00     0.173 A 
ATOM     66  F   UNL     1       8.026  13.727  -3.810  1.00  0.00    -0.203 F 
ATOM     67  C   UNL     1      10.274  13.514  -4.472  1.00  0.00     0.198 A 
ATOM     68  C   UNL     1      11.973  13.074  -2.836  1.00  0.00     0.198 A 
ATOM     69  F   UNL     1      11.390  12.803  -0.574  1.00  0.00    -0.203 F 
ATOM     70  F   UNL     1       9.913  13.697  -5.750  1.00  0.00    -0.200 F 
ATOM     71  C   UNL     1      11.606  13.298  -4.154  1.00  0.00     0.200 A 
ATOM     72  F   UNL     1      13.261  12.877  -2.523  1.00  0.00    -0.200 F 
ATOM     73  F   UNL     1      12.536  13.296  -5.119  1.00  0.00    -0.200 F 
ENDBRANCH  49  63
BRANCH  50  74
ATOM     74  C   UNL     1       2.692  12.717   5.032  1.00  0.00     0.064 A 
ATOM     75  C   UNL     1       1.726  13.720   5.196  1.00  0.00     0.173 A 
ATOM     76  C   UNL     1       2.687  11.653   5.947  1.00  0.00     0.173 A 
ATOM     77  F   UNL     1       1.704  14.770   4.362  1.00  0.00    -0.203 F 
ATOM     78  C   UNL     1       0.814  13.676   6.248  1.00  0.00     0.198 A 
ATOM     79  C   UNL     1       1.753  11.594   6.979  1.00  0.00     0.198 A 
ATOM     80  F   UNL     1       3.590  10.668   5.837  1.00  0.00    -0.203 F 
ATOM     81  F   UNL     1      -0.060  14.678   6.415  1.00  0.00    -0.200 F 
ATOM     82  C   UNL     1       0.824  12.611   7.135  1.00  0.00     0.200 A 
ATOM     83  F   UNL     1       1.759  10.555   7.826  1.00  0.00    -0.200 F 
ATOM     84  F   UNL     1      -0.053  12.570   8.148  1.00  0.00    -0.200 F 
ENDBRANCH  50  74
BRANCH  62  85
ATOM     85  C   UNL     1       7.860  17.194   3.656  1.00  0.00     0.064 A 
ATOM     86  C   UNL     1       8.465  17.210   4.921  1.00  0.00     0.173 A 
ATOM     87  C   UNL     1       7.696  18.421   2.993  1.00  0.00     0.173 A 
ATOM     88  F   UNL     1       8.639  16.068   5.602  1.00  0.00    -0.203 F 
ATOM     89  C   UNL     1       8.850  18.410   5.516  1.00  0.00     0.198 A 
ATOM     90  C   UNL     1       8.117  19.614   3.573  1.00  0.00     0.198 A 
ATOM     91  F   UNL     1       7.135  18.463   1.775  1.00  0.00    -0.203 F 
ATOM     92  F   UNL     1       9.366  18.407   6.753  1.00  0.00    -0.200 F 
ATOM     93  C   UNL     1       8.682  19.609   4.839  1.00  0.00     0.200 A 
ATOM     94  F   UNL     1       7.973  20.768   2.908  1.00  0.00    -0.200 F 
ATOM     95  F   UNL     1       9.056  20.762   5.411  1.00  0.00    -0.200 F 
ENDBRANCH  62  85
ENDBRANCH  36  37
ENDBRANCH  29  31
ENDBRANCH  28  29
ENDBRANCH  27  28
ENDBRANCH  26  27
ENDBRANCH  25  26
ENDBRANCH  24  25
ENDBRANCH  23  24
ENDBRANCH  22  23
ENDBRANCH   1  22
TORSDOF 24
