REMARK SMILES O=C(OCCOCCOCCOCCOC(=O)c1ccccc1/N=C/c1coc2ccccc2c1=O)c1ccc(-c2c3nc(c(-c4c(F)c(F)c(F)c(F)c4F)c4ccc([nH]4)c(-c4c(F)c(F)c(F)c(F)c4F)c4nc(c(-c5c(F)c(F)c(F)c(F)c5F)c5ccc2[nH]5)C=C4)C=C3)cc1
REMARK SMILES IDX 9 1 8 2 7 3 6 4 5 5 4 6 3 7 2 8 1 9 37 10 38 11 99 12 39 13
REMARK SMILES IDX 98 14 40 15 41 16 42 17 92 18 43 19 97 20 91 21 93 22 44 23
REMARK SMILES IDX 96 24 90 25 89 26 45 28 77 29 57 30 76 31 58 32 61 33 75 34
REMARK SMILES IDX 94 35 59 36 60 37 74 39 95 40 62 41 46 42 47 43 55 44 48 45
REMARK SMILES IDX 49 46 53 47 56 48 50 49 51 50 54 51 52 52 78 53 79 54 87 55
REMARK SMILES IDX 80 56 81 57 85 58 88 59 82 60 83 61 86 62 84 63 63 64 64 65
REMARK SMILES IDX 72 66 65 67 66 68 70 69 73 70 67 71 68 72 71 73 69 74 10 75
REMARK SMILES IDX 11 76 12 77 13 78 14 79 15 80 16 81 17 82 18 83 19 84 23 85
REMARK SMILES IDX 20 86 22 87 21 88 24 89 25 90 26 91 27 92 35 93 28 94 34 95
REMARK SMILES IDX 36 96 29 97 33 98 30 99 32 100 31 101
REMARK H PARENT 93 27 61 38
REMARK Flexibility Score: inf
ROOT
ATOM      1  O   UNL     1       2.729   1.612  -3.377  1.00  0.00    -0.377 OA
ENDROOT
BRANCH   1   2
ATOM      2  C   UNL     1       1.917   1.487  -2.221  1.00  0.00     0.188 C 
BRANCH   2   3
ATOM      3  C   UNL     1       2.213   0.289  -1.323  1.00  0.00     0.188 C 
BRANCH   3   4
ATOM      4  O   UNL     1       3.587   0.210  -0.949  1.00  0.00    -0.376 OA
BRANCH   4   5
ATOM      5  C   UNL     1       4.243  -1.001  -1.318  1.00  0.00     0.202 C 
BRANCH   5   6
ATOM      6  C   UNL     1       4.178  -2.066  -0.224  1.00  0.00     0.261 C 
BRANCH   6   7
ATOM      7  O   UNL     1       2.875  -2.147   0.371  1.00  0.00    -0.460 OA
BRANCH   7   8
ATOM      8  C   UNL     1       2.345  -1.393   1.365  1.00  0.00     0.338 C 
ATOM      9  O   UNL     1       1.167  -1.595   1.663  1.00  0.00    -0.246 OA
BRANCH   8  10
ATOM     10  C   UNL     1       3.086  -0.351   2.159  1.00  0.00     0.060 A 
ATOM     11  C   UNL     1       4.321   0.220   1.837  1.00  0.00     0.016 A 
ATOM     12  C   UNL     1       2.454   0.102   3.335  1.00  0.00     0.016 A 
ATOM     13  C   UNL     1       4.949   1.131   2.679  1.00  0.00     0.010 A 
ATOM     14  C   UNL     1       3.074   1.019   4.191  1.00  0.00     0.010 A 
ATOM     15  C   UNL     1       4.352   1.489   3.883  1.00  0.00    -0.014 A 
BRANCH  15  16
ATOM     16  C   UNL     1       5.221   2.110   4.898  1.00  0.00     0.031 A 
ATOM     17  C   UNL     1       5.866   1.192   5.895  1.00  0.00     0.074 A 
ATOM     18  C   UNL     1       5.562   3.405   4.803  1.00  0.00     0.049 A 
ATOM     19  N   UNL     1       6.710   1.459   6.854  1.00  0.00    -0.248 NA
ATOM     20  C   UNL     1       5.532  -0.240   5.773  1.00  0.00     0.031 C 
ATOM     21  C   UNL     1       5.093   4.326   3.767  1.00  0.00     0.029 A 
ATOM     22  N   UNL     1       6.416   4.157   5.563  1.00  0.00    -0.354 N 
ATOM     23  C   UNL     1       6.987   0.239   7.458  1.00  0.00     0.074 A 
ATOM     24  C   UNL     1       6.224  -0.771   6.765  1.00  0.00     0.031 C 
ATOM     25  C   UNL     1       5.683   5.520   3.947  1.00  0.00     0.029 A 
ATOM     26  C   UNL     1       6.527   5.457   5.136  1.00  0.00     0.049 A 
ATOM     27  H   UNL     1       6.903   3.801   6.340  1.00  0.00     0.167 HD
ATOM     28  C   UNL     1       7.804  -0.008   8.506  1.00  0.00     0.037 A 
ATOM     29  C   UNL     1       7.224   6.476   5.675  1.00  0.00     0.037 A 
ATOM     30  C   UNL     1       8.545   1.020   9.180  1.00  0.00     0.049 A 
ATOM     31  C   UNL     1       8.040   6.196   6.912  1.00  0.00     0.074 A 
ATOM     32  C   UNL     1       9.352   0.921  10.296  1.00  0.00     0.029 A 
ATOM     33  N   UNL     1       8.558   2.353   8.786  1.00  0.00    -0.354 N 
ATOM     34  N   UNL     1       8.252   5.054   7.524  1.00  0.00    -0.248 NA
ATOM     35  C   UNL     1       8.702   7.345   7.540  1.00  0.00     0.031 C 
ATOM     36  C   UNL     1       9.813   2.205  10.608  1.00  0.00     0.029 A 
ATOM     37  C   UNL     1       9.341   3.094   9.652  1.00  0.00     0.049 A 
ATOM     38  H   UNL     1       8.080   2.716   8.006  1.00  0.00     0.167 HD
ATOM     39  C   UNL     1       9.090   5.340   8.593  1.00  0.00     0.074 A 
ATOM     40  C   UNL     1       9.360   6.764   8.533  1.00  0.00     0.031 C 
ATOM     41  C   UNL     1       9.592   4.510   9.542  1.00  0.00     0.037 A 
BRANCH  28  42
ATOM     42  C   UNL     1       7.843  -1.417   9.020  1.00  0.00     0.064 A 
ATOM     43  C   UNL     1       8.450  -2.459   8.303  1.00  0.00     0.173 A 
ATOM     44  C   UNL     1       7.201  -1.740  10.225  1.00  0.00     0.173 A 
ATOM     45  F   UNL     1       9.047  -2.212   7.127  1.00  0.00    -0.203 F 
ATOM     46  C   UNL     1       8.380  -3.776   8.754  1.00  0.00     0.198 A 
ATOM     47  C   UNL     1       7.158  -3.052  10.688  1.00  0.00     0.198 A 
ATOM     48  F   UNL     1       6.595  -0.784  10.945  1.00  0.00    -0.203 F 
ATOM     49  F   UNL     1       8.905  -4.765   8.017  1.00  0.00    -0.200 F 
ATOM     50  C   UNL     1       7.736  -4.071   9.947  1.00  0.00     0.200 A 
ATOM     51  F   UNL     1       6.536  -3.334  11.841  1.00  0.00    -0.200 F 
ATOM     52  F   UNL     1       7.657  -5.339  10.373  1.00  0.00    -0.200 F 
ENDBRANCH  28  42
BRANCH  29  53
ATOM     53  C   UNL     1       7.158   7.838   5.079  1.00  0.00     0.064 A 
ATOM     54  C   UNL     1       8.294   8.454   4.535  1.00  0.00     0.173 A 
ATOM     55  C   UNL     1       5.957   8.565   5.061  1.00  0.00     0.173 A 
ATOM     56  F   UNL     1       9.473   7.815   4.548  1.00  0.00    -0.203 F 
ATOM     57  C   UNL     1       8.235   9.747   4.015  1.00  0.00     0.198 A 
ATOM     58  C   UNL     1       5.892   9.845   4.513  1.00  0.00     0.198 A 
ATOM     59  F   UNL     1       4.839   8.030   5.574  1.00  0.00    -0.203 F 
ATOM     60  F   UNL     1       9.348  10.330   3.549  1.00  0.00    -0.200 F 
ATOM     61  C   UNL     1       7.034  10.439   3.999  1.00  0.00     0.200 A 
ATOM     62  F   UNL     1       4.726  10.504   4.490  1.00  0.00    -0.200 F 
ATOM     63  F   UNL     1       6.978  11.681   3.499  1.00  0.00    -0.200 F 
ENDBRANCH  29  53
BRANCH  41  64
ATOM     64  C   UNL     1      10.514   5.118  10.556  1.00  0.00     0.064 A 
ATOM     65  C   UNL     1      10.040   5.963  11.569  1.00  0.00     0.173 A 
ATOM     66  C   UNL     1      11.882   4.808  10.537  1.00  0.00     0.173 A 
ATOM     67  F   UNL     1       8.741   6.296  11.618  1.00  0.00    -0.203 F 
ATOM     68  C   UNL     1      10.910   6.500  12.513  1.00  0.00     0.198 A 
ATOM     69  C   UNL     1      12.742   5.320  11.502  1.00  0.00     0.198 A 
ATOM     70  F   UNL     1      12.379   3.996   9.592  1.00  0.00    -0.203 F 
ATOM     71  F   UNL     1      10.446   7.345  13.443  1.00  0.00    -0.200 F 
ATOM     72  C   UNL     1      12.258   6.172  12.483  1.00  0.00     0.200 A 
ATOM     73  F   UNL     1      14.041   4.989  11.482  1.00  0.00    -0.200 F 
ATOM     74  F   UNL     1      13.092   6.683  13.399  1.00  0.00    -0.200 F 
ENDBRANCH  41  64
ENDBRANCH  15  16
ENDBRANCH   8  10
ENDBRANCH   7   8
ENDBRANCH   6   7
ENDBRANCH   5   6
ENDBRANCH   4   5
ENDBRANCH   3   4
ENDBRANCH   2   3
ENDBRANCH   1   2
BRANCH   1  75
ATOM     75  C   UNL     1       4.136   1.748  -3.221  1.00  0.00     0.188 C 
BRANCH  75  76
ATOM     76  C   UNL     1       4.764   2.548  -2.048  1.00  0.00     0.188 C 
BRANCH  76  77
ATOM     77  O   UNL     1       3.888   3.384  -1.306  1.00  0.00    -0.376 OA
BRANCH  77  78
ATOM     78  C   UNL     1       3.969   4.775  -1.598  1.00  0.00     0.202 C 
BRANCH  78  79
ATOM     79  C   UNL     1       3.450   5.139  -2.985  1.00  0.00     0.261 C 
BRANCH  79  80
ATOM     80  O   UNL     1       4.217   4.566  -4.056  1.00  0.00    -0.460 OA
BRANCH  80  81
ATOM     81  C   UNL     1       5.507   4.944  -4.227  1.00  0.00     0.340 C 
ATOM     82  O   UNL     1       6.143   5.716  -3.553  1.00  0.00    -0.246 OA
BRANCH  81  83
ATOM     83  C   UNL     1       6.048   4.141  -5.345  1.00  0.00     0.085 A 
ATOM     84  C   UNL     1       7.019   3.175  -5.016  1.00  0.00     0.018 A 
ATOM     85  C   UNL     1       5.505   4.201  -6.637  1.00  0.00     0.077 A 
ATOM     86  C   UNL     1       7.421   2.230  -5.961  1.00  0.00     0.001 A 
ATOM     87  C   UNL     1       5.992   3.287  -7.588  1.00  0.00     0.029 A 
ATOM     88  C   UNL     1       6.919   2.297  -7.255  1.00  0.00     0.002 A 
BRANCH  85  89
ATOM     89  N   UNL     1       4.304   4.811  -7.003  1.00  0.00    -0.255 NA
ATOM     90  C   UNL     1       3.751   5.847  -6.472  1.00  0.00     0.127 C 
BRANCH  90  91
ATOM     91  C   UNL     1       2.248   5.997  -6.531  1.00  0.00     0.076 A 
ATOM     92  C   UNL     1       1.787   6.454  -7.712  1.00  0.00     0.209 A 
ATOM     93  C   UNL     1       1.535   4.683  -6.300  1.00  0.00     0.201 A 
ATOM     94  O   UNL     1       1.794   5.655  -8.875  1.00  0.00    -0.463 OA
ATOM     95  C   UNL     1       1.748   3.722  -7.408  1.00  0.00     0.065 A 
ATOM     96  O   UNL     1       0.897   4.441  -5.287  1.00  0.00    -0.288 OA
ATOM     97  C   UNL     1       1.948   4.295  -8.673  1.00  0.00     0.137 A 
ATOM     98  C   UNL     1       2.034   2.378  -7.171  1.00  0.00     0.016 A 
ATOM     99  C   UNL     1       2.428   3.522  -9.723  1.00  0.00     0.048 A 
ATOM    100  C   UNL     1       2.555   1.614  -8.220  1.00  0.00     0.001 A 
ATOM    101  C   UNL     1       2.751   2.184  -9.487  1.00  0.00     0.004 A 
ENDBRANCH  90  91
ENDBRANCH  85  89
ENDBRANCH  81  83
ENDBRANCH  80  81
ENDBRANCH  79  80
ENDBRANCH  78  79
ENDBRANCH  77  78
ENDBRANCH  76  77
ENDBRANCH  75  76
ENDBRANCH   1  75
TORSDOF 22
