REMARK SMILES C[C@H]1N=N[C@H](S/C(=C/c2ccc(-c3cccc(Cl)c3)o2)C(=O)OCCOCCOCCOCCOC(=O)c2ccc(-c3c4nc(c(-c5c(F)c(F)c(F)c(F)c5F)c5ccc([nH]5)c(-c5c(F)c(F)c(F)c(F)c5F)c5nc(c(-c6c(F)c(F)c(F)c(F)c6F)c6ccc3[nH]6)C=C5)C=C4)cc2)[NH2+]1
REMARK SMILES IDX 29 1 28 2 27 3 26 4 25 5 24 6 23 7 21 8 22 9 7 10 8 11 6 12
REMARK SMILES IDX 5 13 1 14 2 15 3 16 101 17 4 18 9 21 10 22 20 23 11 24 12 25
REMARK SMILES IDX 13 26 14 27 19 28 15 29 17 30 16 31 18 32 30 33 31 34 32 35
REMARK SMILES IDX 33 36 34 37 35 38 36 39 37 40 38 41 39 42 100 43 40 44 99 45
REMARK SMILES IDX 41 46 42 47 43 48 93 49 44 50 98 51 92 52 94 53 45 54 97 55
REMARK SMILES IDX 91 56 90 57 46 59 78 60 58 61 77 62 59 63 62 64 76 65 95 66
REMARK SMILES IDX 60 67 61 68 75 70 96 71 63 72 47 73 48 74 56 75 49 76 50 77
REMARK SMILES IDX 54 78 57 79 51 80 52 81 55 82 53 83 79 84 80 85 88 86 81 87
REMARK SMILES IDX 82 88 86 89 89 90 83 91 84 92 87 93 85 94 64 95 65 96 73 97
REMARK SMILES IDX 66 98 67 99 71 100 74 101 68 102 69 103 72 104 70 105
REMARK H PARENT 101 19 101 20 94 58 62 69
REMARK Flexibility Score: inf
ROOT
ATOM      1  O   UNL     1      -4.125  -6.521   0.100  1.00  0.00    -0.377 OA
ENDROOT
BRANCH   1   2
ATOM      2  C   UNL     1      -3.829  -5.362  -0.658  1.00  0.00     0.188 C 
BRANCH   2   3
ATOM      3  C   UNL     1      -4.077  -5.404  -2.185  1.00  0.00     0.188 C 
BRANCH   3   4
ATOM      4  O   UNL     1      -5.008  -6.371  -2.629  1.00  0.00    -0.376 OA
BRANCH   4   5
ATOM      5  C   UNL     1      -4.610  -7.665  -3.044  1.00  0.00     0.202 C 
BRANCH   5   6
ATOM      6  C   UNL     1      -3.261  -8.316  -2.706  1.00  0.00     0.261 C 
BRANCH   6   7
ATOM      7  O   UNL     1      -2.386  -7.522  -1.917  1.00  0.00    -0.459 OA
BRANCH   7   8
ATOM      8  C   UNL     1      -1.214  -7.112  -2.459  1.00  0.00     0.345 C 
ATOM      9  O   UNL     1      -0.807  -7.372  -3.580  1.00  0.00    -0.246 OA
BRANCH   8  10
ATOM     10  C   UNL     1      -0.535  -6.188  -1.487  1.00  0.00     0.104 C 
ATOM     11  C   UNL     1      -0.314  -6.544  -0.203  1.00  0.00     0.070 C 
BRANCH  10  12
ATOM     12  S   UNL     1      -0.352  -4.590  -2.166  1.00  0.00    -0.028 SA
BRANCH  12  13
ATOM     13  C   UNL     1       0.953  -3.735  -1.243  1.00  0.00     0.393 C 
ATOM     14  C   UNL     1       0.836  -0.428   0.028  1.00  0.00     0.106 C 
ATOM     15  C   UNL     1       0.459  -1.565  -0.916  1.00  0.00     0.324 C 
ATOM     16  N   UNL     1       1.508  -1.676  -1.941  1.00  0.00    -0.126 NA
ATOM     17  N   UNL     1       0.365  -2.857  -0.224  1.00  0.00    -0.293 N 
ATOM     18  N   UNL     1       1.814  -2.883  -2.095  1.00  0.00    -0.115 NA
ATOM     19  H   UNL     1      -0.602  -3.108  -0.020  1.00  0.00     0.350 HD
ATOM     20  H   UNL     1       0.821  -2.891   0.688  1.00  0.00     0.350 HD
ENDBRANCH  12  13
ENDBRANCH  10  12
BRANCH  11  21
ATOM     21  C   UNL     1      -0.581  -7.851   0.328  1.00  0.00     0.128 A 
ATOM     22  C   UNL     1      -0.540  -9.100  -0.291  1.00  0.00     0.051 A 
ATOM     23  O   UNL     1      -0.950  -8.074   1.651  1.00  0.00    -0.457 OA
ATOM     24  C   UNL     1      -0.997 -10.066   0.621  1.00  0.00     0.051 A 
ATOM     25  C   UNL     1      -1.194  -9.407   1.810  1.00  0.00     0.134 A 
BRANCH  25  26
ATOM     26  C   UNL     1      -1.527  -9.910   3.135  1.00  0.00     0.019 A 
ATOM     27  C   UNL     1      -0.896 -11.089   3.572  1.00  0.00     0.012 A 
ATOM     28  C   UNL     1      -2.490  -9.316   3.956  1.00  0.00     0.032 A 
ATOM     29  C   UNL     1      -1.235 -11.688   4.784  1.00  0.00     0.002 A 
ATOM     30  C   UNL     1      -2.813  -9.914   5.179  1.00  0.00     0.041 A 
ATOM     31  C   UNL     1      -2.207 -11.103   5.586  1.00  0.00     0.020 A 
ATOM     32  Cl  UNL     1      -3.957  -9.179   6.228  1.00  0.00    -0.084 Cl
ENDBRANCH  25  26
ENDBRANCH  11  21
ENDBRANCH   8  10
ENDBRANCH   7   8
ENDBRANCH   6   7
ENDBRANCH   5   6
ENDBRANCH   4   5
ENDBRANCH   3   4
ENDBRANCH   2   3
ENDBRANCH   1   2
BRANCH   1  33
ATOM     33  C   UNL     1      -5.462  -7.001   0.172  1.00  0.00     0.188 C 
BRANCH  33  34
ATOM     34  C   UNL     1      -6.668  -6.201  -0.378  1.00  0.00     0.188 C 
BRANCH  34  35
ATOM     35  O   UNL     1      -6.421  -4.832  -0.636  1.00  0.00    -0.376 OA
BRANCH  35  36
ATOM     36  C   UNL     1      -6.923  -3.862   0.265  1.00  0.00     0.202 C 
BRANCH  36  37
ATOM     37  C   UNL     1      -6.422  -3.910   1.715  1.00  0.00     0.261 C 
BRANCH  37  38
ATOM     38  O   UNL     1      -6.556  -5.172   2.384  1.00  0.00    -0.460 OA
BRANCH  38  39
ATOM     39  C   UNL     1      -7.808  -5.618   2.607  1.00  0.00     0.338 C 
ATOM     40  O   UNL     1      -8.858  -5.071   2.309  1.00  0.00    -0.246 OA
BRANCH  39  41
ATOM     41  C   UNL     1      -7.701  -6.985   3.143  1.00  0.00     0.060 A 
ATOM     42  C   UNL     1      -8.228  -8.060   2.414  1.00  0.00     0.016 A 
ATOM     43  C   UNL     1      -7.091  -7.196   4.379  1.00  0.00     0.016 A 
ATOM     44  C   UNL     1      -8.171  -9.353   2.937  1.00  0.00     0.010 A 
ATOM     45  C   UNL     1      -7.070  -8.483   4.913  1.00  0.00     0.010 A 
ATOM     46  C   UNL     1      -7.630  -9.564   4.210  1.00  0.00    -0.014 A 
BRANCH  46  47
ATOM     47  C   UNL     1      -7.854 -10.853   4.910  1.00  0.00     0.031 A 
ATOM     48  C   UNL     1      -8.932 -10.905   5.958  1.00  0.00     0.074 A 
ATOM     49  C   UNL     1      -7.133 -11.951   4.625  1.00  0.00     0.049 A 
ATOM     50  N   UNL     1      -9.286 -11.887   6.747  1.00  0.00    -0.248 NA
ATOM     51  C   UNL     1      -9.714  -9.671   6.146  1.00  0.00     0.031 C 
ATOM     52  C   UNL     1      -6.081 -12.038   3.615  1.00  0.00     0.029 A 
ATOM     53  N   UNL     1      -7.180 -13.210   5.173  1.00  0.00    -0.354 N 
ATOM     54  C   UNL     1     -10.314 -11.383   7.533  1.00  0.00     0.074 A 
ATOM     55  C   UNL     1     -10.501  -9.999   7.157  1.00  0.00     0.031 C 
ATOM     56  C   UNL     1      -5.579 -13.285   3.617  1.00  0.00     0.029 A 
ATOM     57  C   UNL     1      -6.248 -14.073   4.652  1.00  0.00     0.049 A 
ATOM     58  H   UNL     1      -7.822 -13.469   5.873  1.00  0.00     0.167 HD
ATOM     59  C   UNL     1     -11.049 -12.019   8.475  1.00  0.00     0.037 A 
ATOM     60  C   UNL     1      -5.960 -15.346   4.991  1.00  0.00     0.037 A 
ATOM     61  C   UNL     1     -10.862 -13.396   8.846  1.00  0.00     0.049 A 
ATOM     62  C   UNL     1      -6.751 -16.017   6.089  1.00  0.00     0.074 A 
ATOM     63  C   UNL     1     -11.564 -14.141   9.776  1.00  0.00     0.029 A 
ATOM     64  N   UNL     1      -9.895 -14.232   8.309  1.00  0.00    -0.354 N 
ATOM     65  N   UNL     1      -7.741 -15.546   6.808  1.00  0.00    -0.248 NA
ATOM     66  C   UNL     1      -6.384 -17.403   6.418  1.00  0.00     0.031 C 
ATOM     67  C   UNL     1     -10.981 -15.409   9.848  1.00  0.00     0.029 A 
ATOM     68  C   UNL     1      -9.965 -15.480   8.908  1.00  0.00     0.049 A 
ATOM     69  H   UNL     1      -9.254 -13.977   7.607  1.00  0.00     0.167 HD
ATOM     70  C   UNL     1      -8.140 -16.584   7.643  1.00  0.00     0.074 A 
ATOM     71  C   UNL     1      -7.291 -17.714   7.333  1.00  0.00     0.031 C 
ATOM     72  C   UNL     1      -9.122 -16.601   8.578  1.00  0.00     0.037 A 
BRANCH  59  73
ATOM     73  C   UNL     1     -12.099 -11.218   9.190  1.00  0.00     0.064 A 
ATOM     74  C   UNL     1     -13.254 -10.758   8.538  1.00  0.00     0.173 A 
ATOM     75  C   UNL     1     -11.953 -10.917  10.553  1.00  0.00     0.173 A 
ATOM     76  F   UNL     1     -13.434 -11.003   7.231  1.00  0.00    -0.203 F 
ATOM     77  C   UNL     1     -14.205 -10.000   9.214  1.00  0.00     0.198 A 
ATOM     78  C   UNL     1     -12.924 -10.190  11.235  1.00  0.00     0.198 A 
ATOM     79  F   UNL     1     -10.869 -11.332  11.226  1.00  0.00    -0.203 F 
ATOM     80  F   UNL     1     -15.270  -9.521   8.556  1.00  0.00    -0.200 F 
ATOM     81  C   UNL     1     -14.044  -9.723  10.563  1.00  0.00     0.200 A 
ATOM     82  F   UNL     1     -12.774  -9.936  12.542  1.00  0.00    -0.200 F 
ATOM     83  F   UNL     1     -14.964  -8.999  11.215  1.00  0.00    -0.200 F 
ENDBRANCH  59  73
BRANCH  60  84
ATOM     84  C   UNL     1      -4.869 -16.077   4.291  1.00  0.00     0.064 A 
ATOM     85  C   UNL     1      -5.145 -17.189   3.482  1.00  0.00     0.173 A 
ATOM     86  C   UNL     1      -3.526 -15.700   4.441  1.00  0.00     0.173 A 
ATOM     87  F   UNL     1      -6.410 -17.608   3.328  1.00  0.00    -0.203 F 
ATOM     88  C   UNL     1      -4.120 -17.909   2.870  1.00  0.00     0.198 A 
ATOM     89  C   UNL     1      -2.505 -16.399   3.800  1.00  0.00     0.198 A 
ATOM     90  F   UNL     1      -3.203 -14.649   5.208  1.00  0.00    -0.203 F 
ATOM     91  F   UNL     1      -4.409 -19.002   2.150  1.00  0.00    -0.200 F 
ATOM     92  C   UNL     1      -2.801 -17.510   3.025  1.00  0.00     0.200 A 
ATOM     93  F   UNL     1      -1.233 -16.000   3.941  1.00  0.00    -0.200 F 
ATOM     94  F   UNL     1      -1.816 -18.200   2.435  1.00  0.00    -0.200 F 
ENDBRANCH  60  84
BRANCH  72  95
ATOM     95  C   UNL     1      -9.377 -17.898   9.297  1.00  0.00     0.064 A 
ATOM     96  C   UNL     1      -8.466 -18.431  10.220  1.00  0.00     0.173 A 
ATOM     97  C   UNL     1     -10.579 -18.595   9.088  1.00  0.00     0.173 A 
ATOM     98  F   UNL     1      -7.298 -17.812  10.451  1.00  0.00    -0.203 F 
ATOM     99  C   UNL     1      -8.732 -19.628  10.880  1.00  0.00     0.198 A 
ATOM    100  C   UNL     1     -10.858 -19.771   9.777  1.00  0.00     0.198 A 
ATOM    101  F   UNL     1     -11.492 -18.125   8.224  1.00  0.00    -0.203 F 
ATOM    102  F   UNL     1      -7.820 -20.148  11.714  1.00  0.00    -0.200 F 
ATOM    103  C   UNL     1      -9.930 -20.293  10.665  1.00  0.00     0.200 A 
ATOM    104  F   UNL     1     -12.025 -20.400   9.582  1.00  0.00    -0.200 F 
ATOM    105  F   UNL     1     -10.187 -21.441  11.307  1.00  0.00    -0.200 F 
ENDBRANCH  72  95
ENDBRANCH  46  47
ENDBRANCH  39  41
ENDBRANCH  38  39
ENDBRANCH  37  38
ENDBRANCH  36  37
ENDBRANCH  35  36
ENDBRANCH  34  35
ENDBRANCH  33  34
ENDBRANCH   1  33
TORSDOF 24
