REMARK SMILES CC1=C(C)C[C@@H](C(=O)OCCOCCOCCOCCOC(=O)c2ccc(-c3c4nc(c(-c5c(F)c(F)c(F)c(F)c5F)c5ccc([nH]5)c(-c5c(F)c(F)c(F)c(F)c5F)c5nc(c(-c6c(F)c(F)c(F)c(F)c6F)c6ccc3[nH]6)C=C5)C=C4)cc2)[C@@H](C(=O)N2CCN(c3cccc(C(F)(F)F)c3)CC2)C1
REMARK SMILES IDX 14 1 13 2 12 3 11 4 10 5 9 6 7 7 8 8 6 9 1 10 2 11 3 12
REMARK SMILES IDX 106 13 4 14 5 15 87 16 88 17 89 18 90 19 91 20 105 21 92 22
REMARK SMILES IDX 104 23 93 24 94 25 95 26 103 27 96 28 98 29 97 30 99 31
REMARK SMILES IDX 100 32 101 33 102 34 15 35 16 36 17 37 18 38 19 39 20 40
REMARK SMILES IDX 21 41 22 42 23 43 24 44 25 45 86 46 26 47 85 48 27 49 28 50
REMARK SMILES IDX 29 51 79 52 30 53 84 54 78 55 80 56 31 57 83 58 77 59 76 60
REMARK SMILES IDX 32 62 64 63 44 64 63 65 45 66 48 67 62 68 81 69 46 70 47 71
REMARK SMILES IDX 61 73 82 74 49 75 33 76 34 77 42 78 35 79 36 80 40 81 43 82
REMARK SMILES IDX 37 83 38 84 41 85 39 86 65 87 66 88 74 89 67 90 68 91 72 92
REMARK SMILES IDX 75 93 69 94 70 95 73 96 71 97 50 98 51 99 59 100 52 101
REMARK SMILES IDX 53 102 57 103 60 104 54 105 55 106 58 107 56 108
REMARK H PARENT 80 61 48 72
REMARK Flexibility Score: inf
ROOT
ATOM      1  C   UNL     1       0.932   6.988   1.739  1.00  0.00     0.188 C 
ENDROOT
BRANCH   1   2
ATOM      2  C   UNL     1      -0.598   7.113   1.578  1.00  0.00     0.188 C 
BRANCH   2   3
ATOM      3  O   UNL     1      -1.468   7.009   2.695  1.00  0.00    -0.376 OA
BRANCH   3   4
ATOM      4  C   UNL     1      -1.842   5.697   3.136  1.00  0.00     0.202 C 
BRANCH   4   5
ATOM      5  C   UNL     1      -2.792   4.876   2.231  1.00  0.00     0.261 C 
BRANCH   5   6
ATOM      6  O   UNL     1      -2.115   3.932   1.361  1.00  0.00    -0.463 OA
BRANCH   6   7
ATOM      7  C   UNL     1      -1.887   4.322   0.079  1.00  0.00     0.310 C 
ATOM      8  O   UNL     1      -2.461   5.265  -0.461  1.00  0.00    -0.252 OA
BRANCH   7   9
ATOM      9  C   UNL     1      -0.931   3.410  -0.708  1.00  0.00     0.116 C 
ATOM     10  C   UNL     1       0.876  -0.625  -0.270  1.00  0.00     0.039 C 
ATOM     11  C   UNL     1       0.200   0.682  -0.573  1.00  0.00    -0.074 C 
ATOM     12  C   UNL     1      -1.133   0.825  -0.699  1.00  0.00    -0.073 C 
ATOM     13  C   UNL     1       1.095   1.862  -0.821  1.00  0.00     0.045 C 
ATOM     14  C   UNL     1      -2.131  -0.290  -0.560  1.00  0.00     0.039 C 
ATOM     15  C   UNL     1      -1.739   2.152  -1.075  1.00  0.00     0.046 C 
ATOM     16  C   UNL     1       0.553   3.164  -0.243  1.00  0.00     0.097 C 
BRANCH  16  17
ATOM     17  C   UNL     1       0.750   3.400   1.241  1.00  0.00     0.227 C 
ATOM     18  O   UNL     1       0.214   4.395   1.716  1.00  0.00    -0.275 OA
ATOM     19  N   UNL     1       1.473   2.617   2.089  1.00  0.00    -0.339 N 
ATOM     20  C   UNL     1       1.038   2.638   3.489  1.00  0.00     0.141 C 
ATOM     21  C   UNL     1       2.901   2.307   1.963  1.00  0.00     0.141 C 
ATOM     22  C   UNL     1       1.235   1.261   4.109  1.00  0.00     0.138 C 
ATOM     23  C   UNL     1       3.243   0.959   2.637  1.00  0.00     0.138 C 
ATOM     24  N   UNL     1       2.646   0.877   3.986  1.00  0.00    -0.368 N 
BRANCH  24  25
ATOM     25  C   UNL     1       3.200   0.073   4.960  1.00  0.00     0.037 A 
ATOM     26  C   UNL     1       2.461  -0.919   5.609  1.00  0.00     0.026 A 
ATOM     27  C   UNL     1       4.513   0.293   5.387  1.00  0.00     0.039 A 
ATOM     28  C   UNL     1       3.000  -1.641   6.671  1.00  0.00     0.003 A 
ATOM     29  C   UNL     1       5.062  -0.403   6.477  1.00  0.00     0.058 A 
ATOM     30  C   UNL     1       4.284  -1.365   7.127  1.00  0.00     0.013 A 
BRANCH  29  31
ATOM     31  C   UNL     1       6.450  -0.095   6.968  1.00  0.00     0.416 C 
ATOM     32  F   UNL     1       6.454   0.522   8.180  1.00  0.00    -0.166 F 
ATOM     33  F   UNL     1       7.225  -1.204   7.104  1.00  0.00    -0.166 F 
ATOM     34  F   UNL     1       7.141   0.741   6.137  1.00  0.00    -0.166 F 
ENDBRANCH  29  31
ENDBRANCH  24  25
ENDBRANCH  16  17
ENDBRANCH   7   9
ENDBRANCH   6   7
ENDBRANCH   5   6
ENDBRANCH   4   5
ENDBRANCH   3   4
ENDBRANCH   2   3
ENDBRANCH   1   2
BRANCH   1  35
ATOM     35  O   UNL     1       1.498   6.356   2.878  1.00  0.00    -0.377 OA
BRANCH  35  36
ATOM     36  C   UNL     1       1.244   6.941   4.139  1.00  0.00     0.188 C 
BRANCH  36  37
ATOM     37  C   UNL     1       1.818   8.341   4.386  1.00  0.00     0.188 C 
BRANCH  37  38
ATOM     38  O   UNL     1       2.357   8.978   3.239  1.00  0.00    -0.376 OA
BRANCH  38  39
ATOM     39  C   UNL     1       3.779   8.968   3.137  1.00  0.00     0.202 C 
BRANCH  39  40
ATOM     40  C   UNL     1       4.436   7.607   2.850  1.00  0.00     0.261 C 
BRANCH  40  41
ATOM     41  O   UNL     1       4.283   6.601   3.870  1.00  0.00    -0.460 OA
BRANCH  41  42
ATOM     42  C   UNL     1       4.799   6.864   5.082  1.00  0.00     0.338 C 
ATOM     43  O   UNL     1       5.383   7.879   5.444  1.00  0.00    -0.246 OA
BRANCH  42  44
ATOM     44  C   UNL     1       4.510   5.732   5.974  1.00  0.00     0.060 A 
ATOM     45  C   UNL     1       3.570   5.874   7.001  1.00  0.00     0.016 A 
ATOM     46  C   UNL     1       5.261   4.564   5.859  1.00  0.00     0.016 A 
ATOM     47  C   UNL     1       3.407   4.855   7.946  1.00  0.00     0.010 A 
ATOM     48  C   UNL     1       5.105   3.558   6.814  1.00  0.00     0.010 A 
ATOM     49  C   UNL     1       4.207   3.706   7.888  1.00  0.00    -0.014 A 
BRANCH  49  50
ATOM     50  C   UNL     1       4.273   2.772   9.048  1.00  0.00     0.031 A 
ATOM     51  C   UNL     1       5.478   2.837   9.957  1.00  0.00     0.074 A 
ATOM     52  C   UNL     1       3.304   1.872   9.304  1.00  0.00     0.049 A 
ATOM     53  N   UNL     1       5.768   2.122  11.016  1.00  0.00    -0.248 NA
ATOM     54  C   UNL     1       6.502   3.837   9.611  1.00  0.00     0.031 C 
ATOM     55  C   UNL     1       2.091   1.676   8.514  1.00  0.00     0.029 A 
ATOM     56  N   UNL     1       3.205   0.936  10.307  1.00  0.00    -0.354 N 
ATOM     57  C   UNL     1       7.012   2.572  11.445  1.00  0.00     0.074 A 
ATOM     58  C   UNL     1       7.441   3.587  10.509  1.00  0.00     0.031 C 
ATOM     59  C   UNL     1       1.373   0.674   9.057  1.00  0.00     0.029 A 
ATOM     60  C   UNL     1       2.081   0.151  10.225  1.00  0.00     0.049 A 
ATOM     61  H   UNL     1       3.878   0.837  11.019  1.00  0.00     0.167 HD
ATOM     62  C   UNL     1       7.726   2.195  12.533  1.00  0.00     0.037 A 
ATOM     63  C   UNL     1       1.675  -0.877  10.998  1.00  0.00     0.037 A 
ATOM     64  C   UNL     1       7.305   1.196  13.478  1.00  0.00     0.049 A 
ATOM     65  C   UNL     1       2.496  -1.297  12.187  1.00  0.00     0.074 A 
ATOM     66  C   UNL     1       7.925   0.799  14.650  1.00  0.00     0.029 A 
ATOM     67  N   UNL     1       6.160   0.426  13.352  1.00  0.00    -0.354 N 
ATOM     68  N   UNL     1       3.638  -0.825  12.618  1.00  0.00    -0.248 NA
ATOM     69  C   UNL     1       1.951  -2.390  13.008  1.00  0.00     0.031 C 
ATOM     70  C   UNL     1       7.181  -0.245  15.209  1.00  0.00     0.029 A 
ATOM     71  C   UNL     1       6.064  -0.456  14.417  1.00  0.00     0.049 A 
ATOM     72  H   UNL     1       5.510   0.494  12.615  1.00  0.00     0.167 HD
ATOM     73  C   UNL     1       3.927  -1.528  13.781  1.00  0.00     0.074 A 
ATOM     74  C   UNL     1       2.846  -2.469  13.981  1.00  0.00     0.031 C 
ATOM     75  C   UNL     1       4.985  -1.388  14.616  1.00  0.00     0.037 A 
BRANCH  62  76
ATOM     76  C   UNL     1       9.046   2.876  12.764  1.00  0.00     0.064 A 
ATOM     77  C   UNL     1       9.121   4.230  13.128  1.00  0.00     0.173 A 
ATOM     78  C   UNL     1      10.247   2.159  12.655  1.00  0.00     0.173 A 
ATOM     79  F   UNL     1       8.004   4.963  13.238  1.00  0.00    -0.203 F 
ATOM     80  C   UNL     1      10.351   4.848  13.338  1.00  0.00     0.198 A 
ATOM     81  C   UNL     1      11.473   2.772  12.900  1.00  0.00     0.198 A 
ATOM     82  F   UNL     1      10.232   0.860  12.320  1.00  0.00    -0.203 F 
ATOM     83  F   UNL     1      10.400   6.155  13.631  1.00  0.00    -0.200 F 
ATOM     84  C   UNL     1      11.524   4.117  13.232  1.00  0.00     0.200 A 
ATOM     85  F   UNL     1      12.605   2.061  12.814  1.00  0.00    -0.200 F 
ATOM     86  F   UNL     1      12.707   4.712  13.444  1.00  0.00    -0.200 F 
ENDBRANCH  62  76
BRANCH  63  87
ATOM     87  C   UNL     1       0.416  -1.598  10.688  1.00  0.00     0.064 A 
ATOM     88  C   UNL     1      -0.764  -1.348  11.399  1.00  0.00     0.173 A 
ATOM     89  C   UNL     1       0.389  -2.600   9.711  1.00  0.00     0.173 A 
ATOM     90  F   UNL     1      -0.767  -0.450  12.394  1.00  0.00    -0.203 F 
ATOM     91  C   UNL     1      -1.929  -2.065  11.128  1.00  0.00     0.198 A 
ATOM     92  C   UNL     1      -0.783  -3.290   9.414  1.00  0.00     0.198 A 
ATOM     93  F   UNL     1       1.518  -2.944   9.080  1.00  0.00    -0.203 F 
ATOM     94  F   UNL     1      -3.033  -1.845  11.856  1.00  0.00    -0.200 F 
ATOM     95  C   UNL     1      -1.942  -3.024  10.125  1.00  0.00     0.200 A 
ATOM     96  F   UNL     1      -0.782  -4.225   8.454  1.00  0.00    -0.200 F 
ATOM     97  F   UNL     1      -3.063  -3.708   9.861  1.00  0.00    -0.200 F 
ENDBRANCH  63  87
BRANCH  75  98
ATOM     98  C   UNL     1       4.998  -2.223  15.864  1.00  0.00     0.064 A 
ATOM     99  C   UNL     1       5.226  -3.606  15.833  1.00  0.00     0.173 A 
ATOM    100  C   UNL     1       4.800  -1.618  17.115  1.00  0.00     0.173 A 
ATOM    101  F   UNL     1       5.404  -4.236  14.662  1.00  0.00    -0.203 F 
ATOM    102  C   UNL     1       5.227  -4.357  17.007  1.00  0.00     0.198 A 
ATOM    103  C   UNL     1       4.832  -2.366  18.288  1.00  0.00     0.198 A 
ATOM    104  F   UNL     1       4.582  -0.297  17.201  1.00  0.00    -0.203 F 
ATOM    105  F   UNL     1       5.394  -5.686  16.950  1.00  0.00    -0.200 F 
ATOM    106  C   UNL     1       5.037  -3.736  18.233  1.00  0.00     0.200 A 
ATOM    107  F   UNL     1       4.660  -1.761  19.472  1.00  0.00    -0.200 F 
ATOM    108  F   UNL     1       5.040  -4.460  19.360  1.00  0.00    -0.200 F 
ENDBRANCH  75  98
ENDBRANCH  49  50
ENDBRANCH  42  44
ENDBRANCH  41  42
ENDBRANCH  40  41
ENDBRANCH  39  40
ENDBRANCH  38  39
ENDBRANCH  37  38
ENDBRANCH  36  37
ENDBRANCH  35  36
ENDBRANCH   1  35
TORSDOF 23
