REMARK SMILES O=C(CCC(=O)OCCOCCOCCOCCOC(=O)c1ccc(-c2c3nc(c(-c4c(F)c(F)c(F)c(F)c4F)c4ccc([nH]4)c(-c4c(F)c(F)c(F)c(F)c4F)c4nc(c(-c5c(F)c(F)c(F)c(F)c5F)c5ccc2[nH]5)C=C4)C=C3)cc1)Nc1ccc(N2CCN(c3ccc(F)cc3)CC2)cc1
REMARK SMILES IDX 11 1 10 2 9 3 8 4 7 5 5 6 6 7 4 8 3 9 2 10 1 11 85 12 86 14
REMARK SMILES IDX 87 15 104 16 88 17 103 18 89 19 90 20 91 21 102 22 92 23
REMARK SMILES IDX 101 24 93 25 94 26 95 27 100 28 96 29 99 30 97 31 98 32
REMARK SMILES IDX 12 33 13 34 14 35 15 36 16 37 17 38 18 39 19 40 20 41 21 42
REMARK SMILES IDX 22 43 23 44 84 45 24 46 83 47 25 48 26 49 27 50 77 51 28 52
REMARK SMILES IDX 82 53 76 54 78 55 29 56 81 57 75 58 74 59 30 61 62 62 42 63
REMARK SMILES IDX 61 64 43 65 46 66 60 67 79 68 44 69 45 70 59 72 80 73 47 74
REMARK SMILES IDX 31 75 32 76 40 77 33 78 34 79 38 80 41 81 35 82 36 83 39 84
REMARK SMILES IDX 37 85 63 86 64 87 72 88 65 89 66 90 70 91 73 92 67 93 68 94
REMARK SMILES IDX 71 95 69 96 48 97 49 98 57 99 50 100 51 101 55 102 58 103
REMARK SMILES IDX 52 104 53 105 56 106 54 107
REMARK H PARENT 85 13 78 60 46 71
REMARK Flexibility Score: inf
ROOT
ATOM      1  C   UNL     1       6.867   0.115   0.434  1.00  0.00     0.188 C 
ENDROOT
BRANCH   1   2
ATOM      2  O   UNL     1       7.298  -0.729  -0.609  1.00  0.00    -0.376 OA
BRANCH   2   3
ATOM      3  C   UNL     1       7.040  -2.115  -0.529  1.00  0.00     0.202 C 
BRANCH   3   4
ATOM      4  C   UNL     1       5.682  -2.679  -0.061  1.00  0.00     0.261 C 
BRANCH   4   5
ATOM      5  O   UNL     1       4.743  -1.763   0.538  1.00  0.00    -0.463 OA
BRANCH   5   6
ATOM      6  C   UNL     1       4.513  -1.911   1.862  1.00  0.00     0.306 C 
ATOM      7  O   UNL     1       5.121  -2.709   2.568  1.00  0.00    -0.252 OA
BRANCH   6   8
ATOM      8  C   UNL     1       3.456  -0.998   2.451  1.00  0.00     0.132 C 
BRANCH   8   9
ATOM      9  C   UNL     1       2.644   0.036   1.685  1.00  0.00     0.112 C 
BRANCH   9  10
ATOM     10  C   UNL     1       1.776  -0.363   0.516  1.00  0.00     0.224 C 
ATOM     11  O   UNL     1       0.579  -0.075   0.528  1.00  0.00    -0.275 OA
ATOM     12  N   UNL     1       2.422  -0.981  -0.528  1.00  0.00    -0.326 N 
ATOM     13  H   UNL     1       3.366  -1.235  -0.412  1.00  0.00     0.169 HD
BRANCH  12  14
ATOM     14  C   UNL     1       1.799  -1.266  -1.747  1.00  0.00     0.041 A 
ATOM     15  C   UNL     1       1.995  -2.518  -2.323  1.00  0.00     0.028 A 
ATOM     16  C   UNL     1       0.923  -0.351  -2.328  1.00  0.00     0.028 A 
ATOM     17  C   UNL     1       1.117  -2.931  -3.323  1.00  0.00     0.028 A 
ATOM     18  C   UNL     1       0.113  -0.742  -3.381  1.00  0.00     0.028 A 
ATOM     19  C   UNL     1       0.120  -2.068  -3.803  1.00  0.00     0.037 A 
BRANCH  19  20
ATOM     20  N   UNL     1      -0.975  -2.526  -4.501  1.00  0.00    -0.368 N 
ATOM     21  C   UNL     1      -1.767  -3.590  -3.873  1.00  0.00     0.138 C 
ATOM     22  C   UNL     1      -1.207  -2.136  -5.893  1.00  0.00     0.138 C 
ATOM     23  C   UNL     1      -3.238  -3.610  -4.339  1.00  0.00     0.138 C 
ATOM     24  C   UNL     1      -2.699  -2.164  -6.270  1.00  0.00     0.138 C 
ATOM     25  N   UNL     1      -3.360  -3.389  -5.788  1.00  0.00    -0.368 N 
BRANCH  25  26
ATOM     26  C   UNL     1      -4.143  -4.178  -6.598  1.00  0.00     0.037 A 
ATOM     27  C   UNL     1      -5.323  -4.777  -6.127  1.00  0.00     0.029 A 
ATOM     28  C   UNL     1      -3.779  -4.447  -7.927  1.00  0.00     0.029 A 
ATOM     29  C   UNL     1      -6.096  -5.617  -6.935  1.00  0.00     0.041 A 
ATOM     30  C   UNL     1      -4.541  -5.292  -8.738  1.00  0.00     0.041 A 
ATOM     31  C   UNL     1      -5.689  -5.876  -8.232  1.00  0.00     0.123 A 
ATOM     32  F   UNL     1      -6.408  -6.698  -9.007  1.00  0.00    -0.207 F 
ENDBRANCH  25  26
ENDBRANCH  19  20
ENDBRANCH  12  14
ENDBRANCH   9  10
ENDBRANCH   8   9
ENDBRANCH   6   8
ENDBRANCH   5   6
ENDBRANCH   4   5
ENDBRANCH   3   4
ENDBRANCH   2   3
ENDBRANCH   1   2
BRANCH   1  33
ATOM     33  C   UNL     1       5.700   1.018   0.015  1.00  0.00     0.188 C 
BRANCH  33  34
ATOM     34  O   UNL     1       4.825   0.571  -1.012  1.00  0.00    -0.377 OA
BRANCH  34  35
ATOM     35  C   UNL     1       5.343   0.230  -2.301  1.00  0.00     0.188 C 
BRANCH  35  36
ATOM     36  C   UNL     1       6.662   0.843  -2.821  1.00  0.00     0.188 C 
BRANCH  36  37
ATOM     37  O   UNL     1       7.144   1.932  -2.061  1.00  0.00    -0.376 OA
BRANCH  37  38
ATOM     38  C   UNL     1       6.864   3.240  -2.534  1.00  0.00     0.202 C 
BRANCH  38  39
ATOM     39  C   UNL     1       5.399   3.628  -2.800  1.00  0.00     0.261 C 
BRANCH  39  40
ATOM     40  O   UNL     1       4.648   2.777  -3.687  1.00  0.00    -0.460 OA
BRANCH  40  41
ATOM     41  C   UNL     1       5.030   2.705  -4.976  1.00  0.00     0.338 C 
ATOM     42  O   UNL     1       5.961   3.300  -5.503  1.00  0.00    -0.246 OA
BRANCH  41  43
ATOM     43  C   UNL     1       4.237   1.645  -5.640  1.00  0.00     0.060 A 
ATOM     44  C   UNL     1       4.881   0.485  -6.093  1.00  0.00     0.016 A 
ATOM     45  C   UNL     1       2.869   1.810  -5.858  1.00  0.00     0.016 A 
ATOM     46  C   UNL     1       4.170  -0.491  -6.801  1.00  0.00     0.010 A 
ATOM     47  C   UNL     1       2.162   0.840  -6.584  1.00  0.00     0.010 A 
ATOM     48  C   UNL     1       2.813  -0.303  -7.096  1.00  0.00    -0.014 A 
BRANCH  48  49
ATOM     49  C   UNL     1       2.154  -1.129  -8.157  1.00  0.00     0.031 A 
ATOM     50  C   UNL     1       1.903  -0.450  -9.482  1.00  0.00     0.074 A 
ATOM     51  C   UNL     1       1.853  -2.438  -8.014  1.00  0.00     0.049 A 
ATOM     52  N   UNL     1       1.097  -0.784 -10.454  1.00  0.00    -0.248 NA
ATOM     53  C   UNL     1       2.674   0.782  -9.741  1.00  0.00     0.031 C 
ATOM     54  C   UNL     1       2.148  -3.247  -6.834  1.00  0.00     0.029 A 
ATOM     55  N   UNL     1       1.190  -3.317  -8.854  1.00  0.00    -0.354 N 
ATOM     56  C   UNL     1       1.272   0.184 -11.437  1.00  0.00     0.074 A 
ATOM     57  C   UNL     1       2.223   1.146 -10.932  1.00  0.00     0.031 C 
ATOM     58  C   UNL     1       1.614  -4.474  -6.989  1.00  0.00     0.029 A 
ATOM     59  C   UNL     1       0.884  -4.529  -8.256  1.00  0.00     0.049 A 
ATOM     60  H   UNL     1       0.958  -3.102  -9.786  1.00  0.00     0.167 HD
ATOM     61  C   UNL     1       0.700   0.246 -12.662  1.00  0.00     0.037 A 
ATOM     62  C   UNL     1       0.025  -5.508  -8.638  1.00  0.00     0.037 A 
ATOM     63  C   UNL     1      -0.246  -0.723 -13.142  1.00  0.00     0.049 A 
ATOM     64  C   UNL     1      -0.723  -5.319  -9.947  1.00  0.00     0.074 A 
ATOM     65  C   UNL     1      -0.886  -0.778 -14.367  1.00  0.00     0.029 A 
ATOM     66  N   UNL     1      -0.676  -1.817 -12.411  1.00  0.00    -0.354 N 
ATOM     67  N   UNL     1      -0.794  -4.252 -10.710  1.00  0.00    -0.248 NA
ATOM     68  C   UNL     1      -1.545  -6.438 -10.430  1.00  0.00     0.031 C 
ATOM     69  C   UNL     1      -1.749  -1.876 -14.356  1.00  0.00     0.029 A 
ATOM     70  C   UNL     1      -1.562  -2.558 -13.166  1.00  0.00     0.049 A 
ATOM     71  H   UNL     1      -0.393  -2.033 -11.493  1.00  0.00     0.167 HD
ATOM     72  C   UNL     1      -1.693  -4.564 -11.723  1.00  0.00     0.074 A 
ATOM     73  C   UNL     1      -2.130  -5.920 -11.497  1.00  0.00     0.031 C 
ATOM     74  C   UNL     1      -2.110  -3.823 -12.776  1.00  0.00     0.037 A 
BRANCH  61  75
ATOM     75  C   UNL     1       1.071   1.373 -13.581  1.00  0.00     0.064 A 
ATOM     76  C   UNL     1       2.334   1.441 -14.187  1.00  0.00     0.173 A 
ATOM     77  C   UNL     1       0.109   2.321 -13.963  1.00  0.00     0.173 A 
ATOM     78  F   UNL     1       3.292   0.563 -13.853  1.00  0.00    -0.203 F 
ATOM     79  C   UNL     1       2.619   2.414 -15.142  1.00  0.00     0.198 A 
ATOM     80  C   UNL     1       0.387   3.273 -14.941  1.00  0.00     0.198 A 
ATOM     81  F   UNL     1      -1.118   2.296 -13.420  1.00  0.00    -0.203 F 
ATOM     82  F   UNL     1       3.838   2.469 -15.697  1.00  0.00    -0.200 F 
ATOM     83  C   UNL     1       1.641   3.318 -15.529  1.00  0.00     0.200 A 
ATOM     84  F   UNL     1      -0.567   4.131 -15.328  1.00  0.00    -0.200 F 
ATOM     85  F   UNL     1       1.906   4.231 -16.474  1.00  0.00    -0.200 F 
ENDBRANCH  61  75
BRANCH  62  86
ATOM     86  C   UNL     1      -0.432  -6.594  -7.693  1.00  0.00     0.064 A 
ATOM     87  C   UNL     1      -0.443  -7.962  -7.984  1.00  0.00     0.173 A 
ATOM     88  C   UNL     1      -1.082  -6.226  -6.509  1.00  0.00     0.173 A 
ATOM     89  F   UNL     1       0.170  -8.416  -9.088  1.00  0.00    -0.203 F 
ATOM     90  C   UNL     1      -1.165  -8.873  -7.199  1.00  0.00     0.198 A 
ATOM     91  C   UNL     1      -1.760  -7.129  -5.692  1.00  0.00     0.198 A 
ATOM     92  F   UNL     1      -1.074  -4.946  -6.157  1.00  0.00    -0.203 F 
ATOM     93  F   UNL     1      -1.255 -10.155  -7.581  1.00  0.00    -0.200 F 
ATOM     94  C   UNL     1      -1.831  -8.454  -6.059  1.00  0.00     0.200 A 
ATOM     95  F   UNL     1      -2.360  -6.708  -4.570  1.00  0.00    -0.200 F 
ATOM     96  F   UNL     1      -2.541  -9.319  -5.322  1.00  0.00    -0.200 F 
ENDBRANCH  62  86
BRANCH  74  97
ATOM     97  C   UNL     1      -3.119  -4.450 -13.685  1.00  0.00     0.064 A 
ATOM     98  C   UNL     1      -4.489  -4.430 -13.392  1.00  0.00     0.173 A 
ATOM     99  C   UNL     1      -2.699  -5.067 -14.871  1.00  0.00     0.173 A 
ATOM    100  F   UNL     1      -4.929  -3.872 -12.254  1.00  0.00    -0.203 F 
ATOM    101  C   UNL     1      -5.407  -5.014 -14.262  1.00  0.00     0.198 A 
ATOM    102  C   UNL     1      -3.618  -5.637 -15.742  1.00  0.00     0.198 A 
ATOM    103  F   UNL     1      -1.394  -5.115 -15.178  1.00  0.00    -0.203 F 
ATOM    104  F   UNL     1      -6.712  -5.009 -13.960  1.00  0.00    -0.200 F 
ATOM    105  C   UNL     1      -4.970  -5.612 -15.436  1.00  0.00     0.200 A 
ATOM    106  F   UNL     1      -3.193  -6.216 -16.873  1.00  0.00    -0.200 F 
ATOM    107  F   UNL     1      -5.854  -6.176 -16.271  1.00  0.00    -0.200 F 
ENDBRANCH  74  97
ENDBRANCH  48  49
ENDBRANCH  41  43
ENDBRANCH  40  41
ENDBRANCH  39  40
ENDBRANCH  38  39
ENDBRANCH  37  38
ENDBRANCH  36  37
ENDBRANCH  35  36
ENDBRANCH  34  35
ENDBRANCH  33  34
ENDBRANCH   1  33
TORSDOF 25
