REMARK SMILES Cc1ccc2occ(/C=N/NC(=O)CCC(=O)Nc3ccc(C(=O)OCCOCCOCCOCCOC(=O)c4ccc(-c5c6nc(c(-c7c(F)c(F)c(F)c(F)c7F)c7ccc([nH]7)c(-c7c(F)c(F)c(F)c(F)c7F)c7nc(c(-c8c(F)c(F)c(F)c(F)c8F)c8ccc5[nH]8)C=C7)C=C6)cc4)cc3)c(=O)c2c1
REMARK SMILES IDX 29 1 28 2 27 3 26 4 25 5 23 6 24 7 22 8 19 9 20 10 104 11
REMARK SMILES IDX 21 12 103 13 18 14 16 15 17 16 15 18 14 19 12 20 11 21 13 23
REMARK SMILES IDX 10 24 9 25 8 26 1 27 2 28 3 29 108 30 4 31 107 32 5 33
REMARK SMILES IDX 105 34 6 35 106 36 7 37 30 38 31 39 32 40 33 41 34 42 35 43
REMARK SMILES IDX 36 44 37 45 38 46 39 47 40 48 41 49 102 50 42 51 101 52
REMARK SMILES IDX 43 53 44 54 45 55 95 56 46 57 100 58 94 59 96 60 47 61 99 62
REMARK SMILES IDX 93 63 92 64 48 66 80 67 60 68 79 69 61 70 64 71 78 72 97 73
REMARK SMILES IDX 62 74 63 75 77 77 98 78 65 79 49 80 50 81 58 82 51 83 52 84
REMARK SMILES IDX 56 85 59 86 53 87 54 88 57 89 55 90 81 91 82 92 90 93 83 94
REMARK SMILES IDX 84 95 88 96 91 97 85 98 86 99 89 100 87 101 66 102 67 103
REMARK SMILES IDX 75 104 68 105 69 106 73 107 76 108 70 109 71 110 74 111
REMARK SMILES IDX 72 112
REMARK H PARENT 18 17 11 22 96 65 64 76
REMARK Flexibility Score: inf
ROOT
ATOM      1  C   UNL     1      11.999   0.719  -0.587  1.00  0.00     0.188 C 
ENDROOT
BRANCH   1   2
ATOM      2  O   UNL     1      13.061   1.655  -0.443  1.00  0.00    -0.376 OA
BRANCH   2   3
ATOM      3  C   UNL     1      13.301   2.620  -1.447  1.00  0.00     0.202 C 
BRANCH   3   4
ATOM      4  C   UNL     1      12.319   3.784  -1.384  1.00  0.00     0.261 C 
BRANCH   4   5
ATOM      5  O   UNL     1      10.969   3.384  -1.607  1.00  0.00    -0.460 OA
BRANCH   5   6
ATOM      6  C   UNL     1      10.660   2.758  -2.765  1.00  0.00     0.338 C 
ATOM      7  O   UNL     1      11.387   2.531  -3.714  1.00  0.00    -0.246 OA
BRANCH   6   8
ATOM      8  C   UNL     1       9.289   2.252  -2.594  1.00  0.00     0.060 A 
ATOM      9  C   UNL     1       6.661   1.379  -2.185  1.00  0.00     0.041 A 
ATOM     10  C   UNL     1       7.571   0.575  -2.886  1.00  0.00     0.027 A 
ATOM     11  C   UNL     1       7.115   2.576  -1.654  1.00  0.00     0.027 A 
ATOM     12  C   UNL     1       8.884   1.018  -3.110  1.00  0.00     0.018 A 
ATOM     13  C   UNL     1       8.408   3.014  -1.842  1.00  0.00     0.018 A 
BRANCH   9  14
ATOM     14  N   UNL     1       5.335   0.941  -2.072  1.00  0.00    -0.326 N 
ATOM     15  C   UNL     1       4.189   1.556  -1.661  1.00  0.00     0.224 C 
ATOM     16  O   UNL     1       3.140   0.907  -1.755  1.00  0.00    -0.275 OA
ATOM     17  H   UNL     1       5.205   0.004  -2.342  1.00  0.00     0.169 HD
BRANCH  15  18
ATOM     18  C   UNL     1       4.128   3.004  -1.213  1.00  0.00     0.110 C 
BRANCH  18  19
ATOM     19  C   UNL     1       4.333   3.364   0.264  1.00  0.00     0.112 C 
BRANCH  19  20
ATOM     20  C   UNL     1       5.491   2.784   1.083  1.00  0.00     0.240 C 
ATOM     21  N   UNL     1       5.546   1.451   1.413  1.00  0.00    -0.247 N 
ATOM     22  H   UNL     1       6.313   1.160   1.957  1.00  0.00     0.193 HD
ATOM     23  O   UNL     1       6.404   3.526   1.463  1.00  0.00    -0.273 OA
BRANCH  21  24
ATOM     24  N   UNL     1       4.646   0.495   1.061  1.00  0.00    -0.180 NA
ATOM     25  C   UNL     1       3.436   0.748   1.438  1.00  0.00     0.148 C 
BRANCH  25  26
ATOM     26  C   UNL     1       2.241   0.081   0.913  1.00  0.00     0.078 A 
ATOM     27  C   UNL     1      -3.855   0.860  -0.087  1.00  0.00     0.044 C 
ATOM     28  C   UNL     1      -2.548   0.127  -0.050  1.00  0.00    -0.050 A 
ATOM     29  C   UNL     1      -2.477  -1.264  -0.211  1.00  0.00     0.007 A 
ATOM     30  C   UNL     1      -1.371   0.847   0.160  1.00  0.00     0.019 A 
ATOM     31  C   UNL     1      -1.246  -1.931  -0.158  1.00  0.00     0.048 A 
ATOM     32  C   UNL     1      -0.156   0.169   0.258  1.00  0.00     0.066 A 
ATOM     33  C   UNL     1      -0.081  -1.211   0.088  1.00  0.00     0.137 A 
ATOM     34  C   UNL     1       1.049   0.901   0.644  1.00  0.00     0.201 A 
ATOM     35  O   UNL     1       1.099  -1.912   0.183  1.00  0.00    -0.463 OA
ATOM     36  O   UNL     1       1.054   2.120   0.779  1.00  0.00    -0.288 OA
ATOM     37  C   UNL     1       2.204  -1.226   0.641  1.00  0.00     0.209 A 
ENDBRANCH  25  26
ENDBRANCH  21  24
ENDBRANCH  19  20
ENDBRANCH  18  19
ENDBRANCH  15  18
ENDBRANCH   9  14
ENDBRANCH   6   8
ENDBRANCH   5   6
ENDBRANCH   4   5
ENDBRANCH   3   4
ENDBRANCH   2   3
ENDBRANCH   1   2
BRANCH   1  38
ATOM     38  C   UNL     1      10.947   0.811   0.547  1.00  0.00     0.188 C 
BRANCH  38  39
ATOM     39  O   UNL     1      11.339   0.974   1.914  1.00  0.00    -0.377 OA
BRANCH  39  40
ATOM     40  C   UNL     1      12.544   1.690   2.164  1.00  0.00     0.188 C 
BRANCH  40  41
ATOM     41  C   UNL     1      13.801   0.802   2.026  1.00  0.00     0.188 C 
BRANCH  41  42
ATOM     42  O   UNL     1      13.516  -0.460   1.440  1.00  0.00    -0.376 OA
BRANCH  42  43
ATOM     43  C   UNL     1      13.324  -1.580   2.287  1.00  0.00     0.202 C 
BRANCH  43  44
ATOM     44  C   UNL     1      12.342  -1.513   3.469  1.00  0.00     0.261 C 
BRANCH  44  45
ATOM     45  O   UNL     1      12.433  -0.376   4.338  1.00  0.00    -0.460 OA
BRANCH  45  46
ATOM     46  C   UNL     1      13.559  -0.209   5.061  1.00  0.00     0.338 C 
ATOM     47  O   UNL     1      14.536  -0.932   5.095  1.00  0.00    -0.246 OA
BRANCH  46  48
ATOM     48  C   UNL     1      13.473   1.138   5.665  1.00  0.00     0.060 A 
ATOM     49  C   UNL     1      14.438   2.103   5.339  1.00  0.00     0.016 A 
ATOM     50  C   UNL     1      12.413   1.455   6.516  1.00  0.00     0.016 A 
ATOM     51  C   UNL     1      14.356   3.384   5.886  1.00  0.00     0.010 A 
ATOM     52  C   UNL     1      12.349   2.726   7.087  1.00  0.00     0.010 A 
ATOM     53  C   UNL     1      13.337   3.684   6.799  1.00  0.00    -0.014 A 
BRANCH  53  54
ATOM     54  C   UNL     1      13.425   4.904   7.633  1.00  0.00     0.031 A 
ATOM     55  C   UNL     1      14.039   4.772   8.999  1.00  0.00     0.074 A 
ATOM     56  C   UNL     1      12.968   6.091   7.202  1.00  0.00     0.049 A 
ATOM     57  N   UNL     1      14.135   5.653   9.960  1.00  0.00    -0.248 NA
ATOM     58  C   UNL     1      14.618   3.458   9.325  1.00  0.00     0.031 C 
ATOM     59  C   UNL     1      12.398   6.352   5.883  1.00  0.00     0.029 A 
ATOM     60  N   UNL     1      12.896   7.301   7.848  1.00  0.00    -0.354 N 
ATOM     61  C   UNL     1      14.774   4.998  11.004  1.00  0.00     0.074 A 
ATOM     62  C   UNL     1      15.018   3.640  10.573  1.00  0.00     0.031 C 
ATOM     63  C   UNL     1      12.015   7.640   5.823  1.00  0.00     0.029 A 
ATOM     64  C   UNL     1      12.275   8.280   7.112  1.00  0.00     0.049 A 
ATOM     65  H   UNL     1      13.256   7.452   8.752  1.00  0.00     0.167 HD
ATOM     66  C   UNL     1      15.128   5.489  12.214  1.00  0.00     0.037 A 
ATOM     67  C   UNL     1      11.931   9.535   7.460  1.00  0.00     0.037 A 
ATOM     68  C   UNL     1      14.876   6.839  12.639  1.00  0.00     0.049 A 
ATOM     69  C   UNL     1      12.258  10.033   8.847  1.00  0.00     0.074 A 
ATOM     70  C   UNL     1      15.202   7.440  13.841  1.00  0.00     0.029 A 
ATOM     71  N   UNL     1      14.223   7.795  11.874  1.00  0.00    -0.354 N 
ATOM     72  N   UNL     1      12.879   9.419   9.825  1.00  0.00    -0.248 NA
ATOM     73  C   UNL     1      11.834  11.402   9.178  1.00  0.00     0.031 C 
ATOM     74  C   UNL     1      14.697   8.743  13.826  1.00  0.00     0.029 A 
ATOM     75  C   UNL     1      14.114   8.976  12.590  1.00  0.00     0.049 A 
ATOM     76  H   UNL     1      13.888   7.656  10.959  1.00  0.00     0.167 HD
ATOM     77  C   UNL     1      12.953  10.334  10.869  1.00  0.00     0.074 A 
ATOM     78  C   UNL     1      12.320  11.549  10.402  1.00  0.00     0.031 C 
ATOM     79  C   UNL     1      13.498  10.183  12.101  1.00  0.00     0.037 A 
BRANCH  66  80
ATOM     80  C   UNL     1      15.796   4.550  13.174  1.00  0.00     0.064 A 
ATOM     81  C   UNL     1      17.104   4.087  12.966  1.00  0.00     0.173 A 
ATOM     82  C   UNL     1      15.127   4.129  14.333  1.00  0.00     0.173 A 
ATOM     83  F   UNL     1      17.780   4.444  11.863  1.00  0.00    -0.203 F 
ATOM     84  C   UNL     1      17.709   3.218  13.871  1.00  0.00     0.198 A 
ATOM     85  C   UNL     1      15.746   3.286  15.252  1.00  0.00     0.198 A 
ATOM     86  F   UNL     1      13.875   4.542  14.580  1.00  0.00    -0.203 F 
ATOM     87  F   UNL     1      18.941   2.750  13.627  1.00  0.00    -0.200 F 
ATOM     88  C   UNL     1      17.033   2.826  15.017  1.00  0.00     0.200 A 
ATOM     89  F   UNL     1      15.097   2.918  16.365  1.00  0.00    -0.200 F 
ATOM     90  F   UNL     1      17.620   1.998  15.892  1.00  0.00    -0.200 F 
ENDBRANCH  66  80
BRANCH  67  91
ATOM     91  C   UNL     1      11.215  10.410   6.492  1.00  0.00     0.064 A 
ATOM     92  C   UNL     1      11.822  11.563   5.974  1.00  0.00     0.173 A 
ATOM     93  C   UNL     1       9.899  10.133   6.094  1.00  0.00     0.173 A 
ATOM     94  F   UNL     1      13.069  11.889   6.347  1.00  0.00    -0.203 F 
ATOM     95  C   UNL     1      11.133  12.416   5.114  1.00  0.00     0.198 A 
ATOM     96  C   UNL     1       9.222  10.970   5.209  1.00  0.00     0.198 A 
ATOM     97  F   UNL     1       9.269   9.047   6.564  1.00  0.00    -0.203 F 
ATOM     98  F   UNL     1      11.717  13.541   4.680  1.00  0.00    -0.200 F 
ATOM     99  C   UNL     1       9.835  12.116   4.728  1.00  0.00     0.200 A 
ATOM    100  F   UNL     1       7.971  10.671   4.831  1.00  0.00    -0.200 F 
ATOM    101  F   UNL     1       9.172  12.938   3.902  1.00  0.00    -0.200 F 
ENDBRANCH  67  91
BRANCH  79 102
ATOM    102  C   UNL     1      13.490  11.373  13.018  1.00  0.00     0.064 A 
ATOM    103  C   UNL     1      12.311  11.839  13.618  1.00  0.00     0.173 A 
ATOM    104  C   UNL     1      14.694  12.015  13.350  1.00  0.00     0.173 A 
ATOM    105  F   UNL     1      11.133  11.268  13.325  1.00  0.00    -0.203 F 
ATOM    106  C   UNL     1      12.335  12.918  14.499  1.00  0.00     0.198 A 
ATOM    107  C   UNL     1      14.718  13.071  14.257  1.00  0.00     0.198 A 
ATOM    108  F   UNL     1      15.851  11.603  12.812  1.00  0.00    -0.203 F 
ATOM    109  F   UNL     1      11.190  13.374  15.026  1.00  0.00    -0.200 F 
ATOM    110  C   UNL     1      13.538  13.526  14.825  1.00  0.00     0.200 A 
ATOM    111  F   UNL     1      15.884  13.645  14.584  1.00  0.00    -0.200 F 
ATOM    112  F   UNL     1      13.560  14.554  15.684  1.00  0.00    -0.200 F 
ENDBRANCH  79 102
ENDBRANCH  53  54
ENDBRANCH  46  48
ENDBRANCH  45  46
ENDBRANCH  44  45
ENDBRANCH  43  44
ENDBRANCH  42  43
ENDBRANCH  41  42
ENDBRANCH  40  41
ENDBRANCH  39  40
ENDBRANCH  38  39
ENDBRANCH   1  38
TORSDOF 26
