REMARK SMILES Cc1c(C[NH2+]C2CCCCCC2)c(C(=O)OCCOCCOCCOCCOC(=O)c2ccc(-c3c4nc(c(-c5c(F)c(F)c(F)c(F)c5F)c5ccc([nH]5)c(-c5c(F)c(F)c(F)c(F)c5F)c5nc(c(-c6c(F)c(F)c(F)c(F)c6F)c6ccc3[nH]6)C=C5)C=C4)cc2)c(C)n1Cc1cccc(F)c1
REMARK SMILES IDX 20 1 19 2 18 3 17 4 16 5 14 6 15 7 13 8 1 9 2 10 3 11 96 12
REMARK SMILES IDX 94 13 95 14 4 15 5 16 6 19 7 20 8 21 9 22 12 24 11 25 10 26
REMARK SMILES IDX 97 28 98 29 99 30 104 31 100 32 102 33 101 34 103 35 21 36
REMARK SMILES IDX 22 37 23 38 24 39 25 40 26 41 27 42 28 43 29 44 30 45 31 46
REMARK SMILES IDX 32 47 93 48 33 49 92 50 34 51 35 52 36 53 86 54 37 55 91 56
REMARK SMILES IDX 85 57 87 58 38 59 90 60 84 61 83 62 39 64 71 65 51 66 70 67
REMARK SMILES IDX 52 68 55 69 69 70 88 71 53 72 54 73 68 75 89 76 56 77 40 78
REMARK SMILES IDX 41 79 49 80 42 81 43 82 47 83 50 84 44 85 45 86 48 87 46 88
REMARK SMILES IDX 72 89 73 90 81 91 74 92 75 93 79 94 82 95 76 96 77 97 80 98
REMARK SMILES IDX 78 99 57 100 58 101 66 102 59 103 60 104 64 105 67 106
REMARK SMILES IDX 61 107 62 108 65 109 63 110
REMARK H PARENT 5 17 5 18 87 63 55 74
REMARK Flexibility Score: 90.00
ROOT
ATOM      1  C   UNL     1       0.562   1.234  -6.708  1.00  0.00     0.188 C 
ENDROOT
BRANCH   1   2
ATOM      2  O   UNL     1      -0.039   1.994  -7.753  1.00  0.00    -0.376 OA
BRANCH   2   3
ATOM      3  C   UNL     1      -1.427   2.292  -7.660  1.00  0.00     0.202 C 
BRANCH   3   4
ATOM      4  C   UNL     1      -1.873   3.234  -6.535  1.00  0.00     0.261 C 
BRANCH   4   5
ATOM      5  O   UNL     1      -1.280   2.951  -5.268  1.00  0.00    -0.460 OA
BRANCH   5   6
ATOM      6  C   UNL     1      -1.826   2.039  -4.429  1.00  0.00     0.340 C 
ATOM      7  O   UNL     1      -2.910   1.482  -4.627  1.00  0.00    -0.246 OA
BRANCH   6   8
ATOM      8  C   UNL     1      -0.956   1.835  -3.260  1.00  0.00     0.089 A 
ATOM      9  C   UNL     1       0.992   0.156  -0.540  1.00  0.00     0.065 C 
ATOM     10  C   UNL     1       0.338   1.007  -1.583  1.00  0.00     0.025 A 
ATOM     11  C   UNL     1      -0.471   0.616  -2.656  1.00  0.00     0.042 A 
ATOM     12  N   UNL     1       0.489   2.387  -1.613  1.00  0.00    -0.343 N 
ATOM     13  C   UNL     1      -0.373   2.900  -2.564  1.00  0.00     0.030 A 
ATOM     14  C   UNL     1      -0.587   4.362  -2.808  1.00  0.00     0.065 C 
BRANCH  11  15
ATOM     15  C   UNL     1      -0.686  -0.826  -3.088  1.00  0.00     0.300 C 
BRANCH  15  16
ATOM     16  N   UNL     1      -1.966  -1.004  -3.739  1.00  0.00    -0.340 N 
ATOM     17  H   UNL     1      -1.916  -0.531  -4.641  1.00  0.00     0.346 HD
ATOM     18  H   UNL     1      -2.644  -0.625  -3.077  1.00  0.00     0.346 HD
BRANCH  16  19
ATOM     19  C   UNL     1      -2.429  -2.379  -3.991  1.00  0.00     0.182 C 
BRANCH  19  20
ATOM     20  C   UNL     1      -1.381  -3.336  -4.594  1.00  0.00     0.065 C 
BRANCH  20  21
ATOM     21  C   UNL     1      -0.722  -4.327  -3.631  1.00  0.00     0.006 C 
BRANCH  21  22
ATOM     22  C   UNL     1      -1.548  -5.599  -3.424  1.00  0.00     0.000 CG0
ATOM     23  G   UNL     1      -2.791  -5.439  -2.556  1.00  0.00     0.000 G0
ENDBRANCH  21  22
ENDBRANCH  20  21
ENDBRANCH  19  20
BRANCH  19  24
ATOM     24  C   UNL     1      -3.204  -2.931  -2.781  1.00  0.00     0.065 C 
BRANCH  24  25
ATOM     25  C   UNL     1      -3.757  -4.343  -2.996  1.00  0.00     0.006 C 
BRANCH  25  26
ATOM     26  C   UNL     1      -2.791  -5.439  -2.556  1.00  0.00     0.000 CG0
ATOM     27  G   UNL     1      -1.548  -5.599  -3.424  1.00  0.00     0.000 G0
ENDBRANCH  25  26
ENDBRANCH  24  25
ENDBRANCH  19  24
ENDBRANCH  16  19
ENDBRANCH  15  16
ENDBRANCH  11  15
BRANCH  12  28
ATOM     28  C   UNL     1       1.267   3.175  -0.640  1.00  0.00     0.157 C 
BRANCH  28  29
ATOM     29  C   UNL     1       2.616   3.710  -1.095  1.00  0.00    -0.025 A 
ATOM     30  C   UNL     1       3.739   3.545  -0.259  1.00  0.00     0.006 A 
ATOM     31  C   UNL     1       2.776   4.522  -2.228  1.00  0.00     0.044 A 
ATOM     32  C   UNL     1       4.958   4.183  -0.534  1.00  0.00     0.003 A 
ATOM     33  C   UNL     1       3.987   5.165  -2.488  1.00  0.00     0.123 A 
ATOM     34  C   UNL     1       5.078   5.008  -1.648  1.00  0.00     0.039 A 
ATOM     35  F   UNL     1       4.084   5.982  -3.545  1.00  0.00    -0.207 F 
ENDBRANCH  28  29
ENDBRANCH  12  28
ENDBRANCH   6   8
ENDBRANCH   5   6
ENDBRANCH   4   5
ENDBRANCH   3   4
ENDBRANCH   2   3
ENDBRANCH   1   2
BRANCH   1  36
ATOM     36  C   UNL     1       1.474   2.075  -5.783  1.00  0.00     0.188 C 
BRANCH  36  37
ATOM     37  O   UNL     1       2.448   2.959  -6.332  1.00  0.00    -0.377 OA
BRANCH  37  38
ATOM     38  C   UNL     1       2.096   3.706  -7.480  1.00  0.00     0.188 C 
BRANCH  38  39
ATOM     39  C   UNL     1       2.671   3.135  -8.786  1.00  0.00     0.188 C 
BRANCH  39  40
ATOM     40  O   UNL     1       3.256   1.843  -8.763  1.00  0.00    -0.376 OA
BRANCH  40  41
ATOM     41  C   UNL     1       4.257   1.551  -7.790  1.00  0.00     0.202 C 
BRANCH  41  42
ATOM     42  C   UNL     1       5.596   2.353  -7.730  1.00  0.00     0.261 C 
BRANCH  42  43
ATOM     43  O   UNL     1       5.767   3.652  -7.043  1.00  0.00    -0.460 OA
BRANCH  43  44
ATOM     44  C   UNL     1       6.485   4.614  -7.732  1.00  0.00     0.338 C 
ATOM     45  O   UNL     1       6.526   4.646  -8.959  1.00  0.00    -0.246 OA
BRANCH  44  46
ATOM     46  C   UNL     1       7.281   5.683  -6.935  1.00  0.00     0.060 A 
ATOM     47  C   UNL     1       6.850   7.002  -6.929  1.00  0.00     0.016 A 
ATOM     48  C   UNL     1       8.620   5.538  -6.491  1.00  0.00     0.016 A 
ATOM     49  C   UNL     1       7.694   8.087  -6.449  1.00  0.00     0.010 A 
ATOM     50  C   UNL     1       9.505   6.670  -6.061  1.00  0.00     0.010 A 
ATOM     51  C   UNL     1       9.085   8.014  -6.026  1.00  0.00    -0.014 A 
BRANCH  51  52
ATOM     52  C   UNL     1       9.982   9.455  -6.004  1.00  0.00     0.031 A 
ATOM     53  C   UNL     1       9.364  10.183  -7.149  1.00  0.00     0.074 A 
ATOM     54  C   UNL     1      11.083  10.180  -5.466  1.00  0.00     0.049 A 
ATOM     55  N   UNL     1       9.357   9.633  -8.333  1.00  0.00    -0.248 NA
ATOM     56  C   UNL     1       8.408  11.280  -6.979  1.00  0.00     0.031 C 
ATOM     57  C   UNL     1      12.080   9.741  -4.466  1.00  0.00     0.029 A 
ATOM     58  N   UNL     1      11.607  11.533  -5.690  1.00  0.00    -0.354 N 
ATOM     59  C   UNL     1       8.654  10.484  -9.143  1.00  0.00     0.074 A 
ATOM     60  C   UNL     1       7.905  11.326  -8.219  1.00  0.00     0.031 C 
ATOM     61  C   UNL     1      12.939  10.743  -4.088  1.00  0.00     0.029 A 
ATOM     62  C   UNL     1      12.698  11.992  -4.820  1.00  0.00     0.049 A 
ATOM     63  H   UNL     1      11.242  12.111  -6.398  1.00  0.00     0.167 HD
ATOM     64  C   UNL     1       9.293  10.837 -10.294  1.00  0.00     0.037 A 
ATOM     65  C   UNL     1      13.423  13.204  -4.737  1.00  0.00     0.037 A 
ATOM     66  C   UNL     1       9.867  12.149 -10.214  1.00  0.00     0.049 A 
ATOM     67  C   UNL     1      13.319  13.860  -6.043  1.00  0.00     0.074 A 
ATOM     68  C   UNL     1       9.437  13.334  -9.648  1.00  0.00     0.029 A 
ATOM     69  N   UNL     1      11.237  12.242 -10.325  1.00  0.00    -0.354 N 
ATOM     70  N   UNL     1      14.086  13.500  -7.025  1.00  0.00    -0.248 NA
ATOM     71  C   UNL     1      12.526  15.062  -6.280  1.00  0.00     0.031 C 
ATOM     72  C   UNL     1      10.555  13.793  -8.926  1.00  0.00     0.029 A 
ATOM     73  C   UNL     1      11.689  13.143  -9.396  1.00  0.00     0.049 A 
ATOM     74  H   UNL     1      11.797  11.745 -10.964  1.00  0.00     0.167 HD
ATOM     75  C   UNL     1      13.460  14.030  -8.099  1.00  0.00     0.074 A 
ATOM     76  C   UNL     1      12.739  15.185  -7.594  1.00  0.00     0.031 C 
ATOM     77  C   UNL     1      13.069  13.106  -9.007  1.00  0.00     0.037 A 
BRANCH  64  78
ATOM     78  C   UNL     1       9.953   9.685 -11.004  1.00  0.00     0.064 A 
ATOM     79  C   UNL     1       9.443   9.265 -12.233  1.00  0.00     0.173 A 
ATOM     80  C   UNL     1      11.008   8.931 -10.446  1.00  0.00     0.173 A 
ATOM     81  F   UNL     1       8.506   9.995 -12.857  1.00  0.00    -0.203 F 
ATOM     82  C   UNL     1       9.907   8.097 -12.836  1.00  0.00     0.198 A 
ATOM     83  C   UNL     1      11.413   7.727 -11.008  1.00  0.00     0.198 A 
ATOM     84  F   UNL     1      11.677   9.372  -9.368  1.00  0.00    -0.203 F 
ATOM     85  F   UNL     1       9.434   7.733 -14.036  1.00  0.00    -0.200 F 
ATOM     86  C   UNL     1      10.857   7.307 -12.203  1.00  0.00     0.200 A 
ATOM     87  F   UNL     1      12.351   6.987 -10.399  1.00  0.00    -0.200 F 
ATOM     88  F   UNL     1      11.265   6.160 -12.762  1.00  0.00    -0.200 F 
ENDBRANCH  64  78
BRANCH  65  89
ATOM     89  C   UNL     1      14.482  14.086  -3.928  1.00  0.00     0.064 A 
ATOM     90  C   UNL     1      15.484  14.884  -4.610  1.00  0.00     0.173 A 
ATOM     91  C   UNL     1      14.228  14.556  -2.629  1.00  0.00     0.173 A 
ATOM     92  F   UNL     1      15.922  14.561  -5.834  1.00  0.00    -0.203 F 
ATOM     93  C   UNL     1      16.040  16.081  -4.106  1.00  0.00     0.198 A 
ATOM     94  C   UNL     1      14.836  15.737  -2.100  1.00  0.00     0.198 A 
ATOM     95  F   UNL     1      13.315  13.942  -1.868  1.00  0.00    -0.203 F 
ATOM     96  F   UNL     1      16.846  16.834  -4.875  1.00  0.00    -0.200 F 
ATOM     97  C   UNL     1      15.702  16.518  -2.851  1.00  0.00     0.200 A 
ATOM     98  F   UNL     1      14.514  16.160  -0.868  1.00  0.00    -0.200 F 
ATOM     99  F   UNL     1      16.179  17.683  -2.383  1.00  0.00    -0.200 F 
ENDBRANCH  65  89
BRANCH  77 100
ATOM    100  C   UNL     1      14.062  11.993  -9.301  1.00  0.00     0.064 A 
ATOM    101  C   UNL     1      14.663  11.122  -8.358  1.00  0.00     0.173 A 
ATOM    102  C   UNL     1      14.521  11.880 -10.617  1.00  0.00     0.173 A 
ATOM    103  F   UNL     1      14.241  11.048  -7.090  1.00  0.00    -0.203 F 
ATOM    104  C   UNL     1      15.723  10.278  -8.699  1.00  0.00     0.198 A 
ATOM    105  C   UNL     1      15.544  10.997 -10.967  1.00  0.00     0.198 A 
ATOM    106  F   UNL     1      13.962  12.624 -11.582  1.00  0.00    -0.203 F 
ATOM    107  F   UNL     1      16.316   9.526  -7.758  1.00  0.00    -0.200 F 
ATOM    108  C   UNL     1      16.165  10.219 -10.005  1.00  0.00     0.200 A 
ATOM    109  F   UNL     1      15.929  10.907 -12.247  1.00  0.00    -0.200 F 
ATOM    110  F   UNL     1      17.172   9.402 -10.342  1.00  0.00    -0.200 F 
ENDBRANCH  77 100
ENDBRANCH  51  52
ENDBRANCH  44  46
ENDBRANCH  43  44
ENDBRANCH  42  43
ENDBRANCH  41  42
ENDBRANCH  40  41
ENDBRANCH  39  40
ENDBRANCH  38  39
ENDBRANCH  37  38
ENDBRANCH  36  37
ENDBRANCH   1  36
TORSDOF 25
