REMARK SMILES Cc1c([C@H]2[C@H](C(=O)OCCOCCOCCOCCOC(=O)c3ccc(-c4c5nc(c(-c6c(F)c(F)c(F)c(F)c6F)c6ccc([nH]6)c(-c6c(F)c(F)c(F)c(F)c6F)c6nc(c(-c7c(F)c(F)c(F)c(F)c7F)c7ccc4[nH]7)C=C6)C=C5)cc3)OCC(=O)N2CC(C)C)cnn1C
REMARK SMILES IDX 14 1 13 2 12 3 11 4 10 5 9 6 8 7 6 8 7 9 5 10 4 11 90 12
REMARK SMILES IDX 86 13 88 14 87 15 89 16 3 17 1 18 2 19 97 20 95 21 96 22
REMARK SMILES IDX 98 23 91 24 92 25 93 26 94 27 15 28 16 29 17 30 18 31 19 32
REMARK SMILES IDX 20 33 21 34 22 35 23 36 24 37 85 38 25 39 84 40 26 41 27 42
REMARK SMILES IDX 28 43 78 44 29 45 83 46 77 47 79 48 30 49 82 50 76 51 75 52
REMARK SMILES IDX 31 54 63 55 43 56 62 57 44 58 47 59 61 60 80 61 45 62 46 63
REMARK SMILES IDX 60 65 81 66 48 67 32 68 33 69 41 70 34 71 35 72 39 73 42 74
REMARK SMILES IDX 36 75 37 76 40 77 38 78 64 79 65 80 73 81 66 82 67 83 71 84
REMARK SMILES IDX 74 85 68 86 69 87 72 88 70 89 49 90 50 91 58 92 51 93 52 94
REMARK SMILES IDX 56 95 59 96 53 97 54 98 57 99 55 100
REMARK H PARENT 79 53 47 64
REMARK Flexibility Score: inf
ROOT
ATOM      1  O   UNL     1      -4.013  -1.633  -0.156  1.00  0.00    -0.377 OA
ENDROOT
BRANCH   1   2
ATOM      2  C   UNL     1      -3.411  -1.737  -1.426  1.00  0.00     0.188 C 
BRANCH   2   3
ATOM      3  C   UNL     1      -4.050  -2.792  -2.334  1.00  0.00     0.188 C 
BRANCH   3   4
ATOM      4  O   UNL     1      -5.396  -3.177  -2.141  1.00  0.00    -0.376 OA
BRANCH   4   5
ATOM      5  C   UNL     1      -5.877  -3.619  -0.882  1.00  0.00     0.202 C 
BRANCH   5   6
ATOM      6  C   UNL     1      -5.061  -4.432   0.144  1.00  0.00     0.261 C 
BRANCH   6   7
ATOM      7  O   UNL     1      -3.631  -4.321   0.129  1.00  0.00    -0.461 OA
BRANCH   7   8
ATOM      8  C   UNL     1      -2.983  -5.332  -0.498  1.00  0.00     0.337 C 
ATOM      9  O   UNL     1      -3.553  -6.242  -1.092  1.00  0.00    -0.249 OA
BRANCH   8  10
ATOM     10  C   UNL     1      -1.454  -5.260  -0.377  1.00  0.00     0.255 C 
ATOM     11  C   UNL     1      -0.815  -3.890  -0.005  1.00  0.00     0.159 C 
ATOM     12  N   UNL     1      -0.564  -3.660   1.437  1.00  0.00    -0.330 N 
ATOM     13  O   UNL     1      -0.902  -6.301   0.423  1.00  0.00    -0.354 OA
ATOM     14  C   UNL     1      -0.787  -4.683   2.360  1.00  0.00     0.249 C 
ATOM     15  C   UNL     1      -1.161  -6.061   1.792  1.00  0.00     0.261 C 
ATOM     16  O   UNL     1      -0.772  -4.503   3.579  1.00  0.00    -0.272 OA
BRANCH  11  17
ATOM     17  C   UNL     1       0.405  -3.689  -0.879  1.00  0.00     0.019 A 
ATOM     18  C   UNL     1      -0.586  -2.791  -3.161  1.00  0.00     0.067 C 
ATOM     19  C   UNL     1       0.454  -3.281  -2.218  1.00  0.00     0.040 A 
ATOM     20  N   UNL     1       1.744  -3.518  -2.630  1.00  0.00    -0.273 N 
ATOM     21  C   UNL     1       1.743  -4.040  -0.588  1.00  0.00     0.141 A 
ATOM     22  N   UNL     1       2.556  -3.903  -1.636  1.00  0.00    -0.181 NA
ATOM     23  C   UNL     1       2.227  -3.533  -3.994  1.00  0.00     0.174 C 
ENDBRANCH  11  17
BRANCH  12  24
ATOM     24  C   UNL     1      -0.440  -2.275   1.956  1.00  0.00     0.123 C 
BRANCH  24  25
ATOM     25  C   UNL     1       1.003  -1.745   2.127  1.00  0.00     0.002 C 
ATOM     26  C   UNL     1       1.421  -0.849   0.957  1.00  0.00     0.009 C 
ATOM     27  C   UNL     1       1.132  -0.904   3.409  1.00  0.00     0.009 C 
ENDBRANCH  24  25
ENDBRANCH  12  24
ENDBRANCH   8  10
ENDBRANCH   7   8
ENDBRANCH   6   7
ENDBRANCH   5   6
ENDBRANCH   4   5
ENDBRANCH   3   4
ENDBRANCH   2   3
ENDBRANCH   1   2
BRANCH   1  28
ATOM     28  C   UNL     1      -4.891  -0.524   0.007  1.00  0.00     0.188 C 
BRANCH  28  29
ATOM     29  C   UNL     1      -5.728  -0.062  -1.213  1.00  0.00     0.188 C 
BRANCH  29  30
ATOM     30  O   UNL     1      -4.996   0.115  -2.418  1.00  0.00    -0.376 OA
BRANCH  30  31
ATOM     31  C   UNL     1      -4.504   1.402  -2.764  1.00  0.00     0.202 C 
BRANCH  31  32
ATOM     32  C   UNL     1      -3.490   2.088  -1.830  1.00  0.00     0.261 C 
BRANCH  32  33
ATOM     33  O   UNL     1      -3.893   2.269  -0.465  1.00  0.00    -0.460 OA
BRANCH  33  34
ATOM     34  C   UNL     1      -5.020   2.970  -0.229  1.00  0.00     0.338 C 
ATOM     35  O   UNL     1      -5.720   3.540  -1.049  1.00  0.00    -0.246 OA
BRANCH  34  36
ATOM     36  C   UNL     1      -5.396   2.753   1.184  1.00  0.00     0.060 A 
ATOM     37  C   UNL     1      -6.637   2.168   1.472  1.00  0.00     0.016 A 
ATOM     38  C   UNL     1      -4.528   3.114   2.217  1.00  0.00     0.016 A 
ATOM     39  C   UNL     1      -7.031   1.979   2.795  1.00  0.00     0.010 A 
ATOM     40  C   UNL     1      -4.937   2.952   3.543  1.00  0.00     0.010 A 
ATOM     41  C   UNL     1      -6.206   2.419   3.836  1.00  0.00    -0.014 A 
BRANCH  41  42
ATOM     42  C   UNL     1      -6.759   2.531   5.207  1.00  0.00     0.031 A 
ATOM     43  C   UNL     1      -7.273   3.873   5.653  1.00  0.00     0.074 A 
ATOM     44  C   UNL     1      -6.832   1.469   6.027  1.00  0.00     0.049 A 
ATOM     45  N   UNL     1      -7.750   4.240   6.815  1.00  0.00    -0.248 NA
ATOM     46  C   UNL     1      -7.242   4.950   4.649  1.00  0.00     0.031 C 
ATOM     47  C   UNL     1      -6.419   0.110   5.689  1.00  0.00     0.029 A 
ATOM     48  N   UNL     1      -7.276   1.377   7.322  1.00  0.00    -0.354 N 
ATOM     49  C   UNL     1      -8.056   5.589   6.685  1.00  0.00     0.074 A 
ATOM     50  C   UNL     1      -7.692   5.983   5.343  1.00  0.00     0.031 C 
ATOM     51  C   UNL     1      -6.617  -0.682   6.758  1.00  0.00     0.029 A 
ATOM     52  C   UNL     1      -7.134   0.123   7.864  1.00  0.00     0.049 A 
ATOM     53  H   UNL     1      -7.659   2.137   7.817  1.00  0.00     0.167 HD
ATOM     54  C   UNL     1      -8.598   6.422   7.605  1.00  0.00     0.037 A 
ATOM     55  C   UNL     1      -7.371  -0.311   9.118  1.00  0.00     0.037 A 
ATOM     56  C   UNL     1      -8.964   6.022   8.937  1.00  0.00     0.049 A 
ATOM     57  C   UNL     1      -7.895   0.661  10.148  1.00  0.00     0.074 A 
ATOM     58  C   UNL     1      -9.547   6.783   9.935  1.00  0.00     0.029 A 
ATOM     59  N   UNL     1      -8.769   4.753   9.462  1.00  0.00    -0.354 N 
ATOM     60  N   UNL     1      -8.215   1.925  10.012  1.00  0.00    -0.248 NA
ATOM     61  C   UNL     1      -8.093   0.140  11.509  1.00  0.00     0.031 C 
ATOM     62  C   UNL     1      -9.640   5.995  11.085  1.00  0.00     0.029 A 
ATOM     63  C   UNL     1      -9.187   4.721  10.783  1.00  0.00     0.049 A 
ATOM     64  H   UNL     1      -8.391   3.990   8.970  1.00  0.00     0.167 HD
ATOM     65  C   UNL     1      -8.686   2.338  11.253  1.00  0.00     0.074 A 
ATOM     66  C   UNL     1      -8.623   1.185  12.126  1.00  0.00     0.031 C 
ATOM     67  C   UNL     1      -9.134   3.560  11.636  1.00  0.00     0.037 A 
BRANCH  54  68
ATOM     68  C   UNL     1      -8.789   7.860   7.217  1.00  0.00     0.064 A 
ATOM     69  C   UNL     1      -9.752   8.256   6.278  1.00  0.00     0.173 A 
ATOM     70  C   UNL     1      -8.018   8.861   7.829  1.00  0.00     0.173 A 
ATOM     71  F   UNL     1     -10.503   7.338   5.651  1.00  0.00    -0.203 F 
ATOM     72  C   UNL     1      -9.920   9.599   5.948  1.00  0.00     0.198 A 
ATOM     73  C   UNL     1      -8.212  10.204   7.522  1.00  0.00     0.198 A 
ATOM     74  F   UNL     1      -7.083   8.537   8.734  1.00  0.00    -0.203 F 
ATOM     75  F   UNL     1     -10.813   9.951   5.012  1.00  0.00    -0.200 F 
ATOM     76  C   UNL     1      -9.158  10.572   6.577  1.00  0.00     0.200 A 
ATOM     77  F   UNL     1      -7.484  11.143   8.141  1.00  0.00    -0.200 F 
ATOM     78  F   UNL     1      -9.329  11.864   6.267  1.00  0.00    -0.200 F 
ENDBRANCH  54  68
BRANCH  55  79
ATOM     79  C   UNL     1      -7.101  -1.727   9.488  1.00  0.00     0.064 A 
ATOM     80  C   UNL     1      -8.144  -2.588   9.861  1.00  0.00     0.173 A 
ATOM     81  C   UNL     1      -5.795  -2.236   9.523  1.00  0.00     0.173 A 
ATOM     82  F   UNL     1      -9.409  -2.141   9.871  1.00  0.00    -0.203 F 
ATOM     83  C   UNL     1      -7.887  -3.891  10.282  1.00  0.00     0.198 A 
ATOM     84  C   UNL     1      -5.542  -3.551   9.912  1.00  0.00     0.198 A 
ATOM     85  F   UNL     1      -4.759  -1.455   9.182  1.00  0.00    -0.203 F 
ATOM     86  F   UNL     1      -8.897  -4.670  10.693  1.00  0.00    -0.200 F 
ATOM     87  C   UNL     1      -6.588  -4.373  10.302  1.00  0.00     0.200 A 
ATOM     88  F   UNL     1      -4.286  -4.015   9.920  1.00  0.00    -0.200 F 
ATOM     89  F   UNL     1      -6.342  -5.625  10.711  1.00  0.00    -0.200 F 
ENDBRANCH  55  79
BRANCH  67  90
ATOM     90  C   UNL     1      -9.645   3.706  13.042  1.00  0.00     0.064 A 
ATOM     91  C   UNL     1      -8.790   3.656  14.153  1.00  0.00     0.173 A 
ATOM     92  C   UNL     1     -11.009   3.945  13.276  1.00  0.00     0.173 A 
ATOM     93  F   UNL     1      -7.480   3.419  13.987  1.00  0.00    -0.203 F 
ATOM     94  C   UNL     1      -9.286   3.808  15.446  1.00  0.00     0.198 A 
ATOM     95  C   UNL     1     -11.495   4.134  14.567  1.00  0.00     0.198 A 
ATOM     96  F   UNL     1     -11.870   4.013  12.250  1.00  0.00    -0.203 F 
ATOM     97  F   UNL     1      -8.459   3.702  16.495  1.00  0.00    -0.200 F 
ATOM     98  C   UNL     1     -10.635   4.056  15.651  1.00  0.00     0.200 A 
ATOM     99  F   UNL     1     -12.795   4.394  14.760  1.00  0.00    -0.200 F 
ATOM    100  F   UNL     1     -11.108   4.213  16.895  1.00  0.00    -0.200 F 
ENDBRANCH  67  90
ENDBRANCH  41  42
ENDBRANCH  34  36
ENDBRANCH  33  34
ENDBRANCH  32  33
ENDBRANCH  31  32
ENDBRANCH  30  31
ENDBRANCH  29  30
ENDBRANCH  28  29
ENDBRANCH   1  28
TORSDOF 23
