REMARK SMILES O=Cc1c(OCc2ccc(C(=O)OCCOCCOCCOCCOC(=O)c3ccc(-c4c5nc(c(-c6c(F)c(F)c(F)c(F)c6F)c6ccc([nH]6)c(-c6c(F)c(F)c(F)c(F)c6F)c6nc(c(-c7c(F)c(F)c(F)c(F)c7F)c7ccc4[nH]7)C=C6)C=C5)cc3)cc2)ccc2ccccc12
REMARK SMILES IDX 18 1 17 2 16 3 15 4 14 5 13 6 11 7 12 8 10 9 7 10 8 11 92 12
REMARK SMILES IDX 9 13 91 14 6 15 5 16 4 17 3 18 100 19 93 20 95 21 99 22
REMARK SMILES IDX 94 23 96 24 98 25 97 26 2 27 1 28 19 29 20 30 21 31 22 32
REMARK SMILES IDX 23 33 24 34 25 35 26 36 27 37 28 38 29 39 90 40 30 41 89 42
REMARK SMILES IDX 31 43 32 44 33 45 83 46 34 47 88 48 82 49 84 50 35 51 87 52
REMARK SMILES IDX 81 53 80 54 36 56 68 57 48 58 67 59 49 60 52 61 66 62 85 63
REMARK SMILES IDX 50 64 51 65 65 67 86 68 53 69 37 70 38 71 46 72 39 73 40 74
REMARK SMILES IDX 44 75 47 76 41 77 42 78 45 79 43 80 69 81 70 82 78 83 71 84
REMARK SMILES IDX 72 85 76 86 79 87 73 88 74 89 77 90 75 91 54 92 55 93 63 94
REMARK SMILES IDX 56 95 57 96 61 97 64 98 58 99 59 100 62 101 60 102
REMARK H PARENT 84 55 52 66
REMARK Flexibility Score: inf
ROOT
ATOM      1  C   UNL     1       4.297   3.482   8.560  1.00  0.00     0.188 C 
ENDROOT
BRANCH   1   2
ATOM      2  C   UNL     1       5.581   2.625   8.524  1.00  0.00     0.188 C 
BRANCH   2   3
ATOM      3  O   UNL     1       6.689   3.234   9.164  1.00  0.00    -0.376 OA
BRANCH   3   4
ATOM      4  C   UNL     1       7.763   3.718   8.380  1.00  0.00     0.202 C 
BRANCH   4   5
ATOM      5  C   UNL     1       7.493   4.809   7.332  1.00  0.00     0.261 C 
BRANCH   5   6
ATOM      6  O   UNL     1       6.307   4.643   6.552  1.00  0.00    -0.460 OA
BRANCH   6   7
ATOM      7  C   UNL     1       6.341   3.684   5.603  1.00  0.00     0.338 C 
ATOM      8  O   UNL     1       7.297   2.988   5.307  1.00  0.00    -0.246 OA
BRANCH   7   9
ATOM      9  C   UNL     1       4.961   3.468   5.109  1.00  0.00     0.060 A 
ATOM     10  C   UNL     1       2.444   2.986   4.010  1.00  0.00    -0.011 A 
ATOM     11  C   UNL     1       3.285   1.911   4.328  1.00  0.00     0.008 A 
ATOM     12  C   UNL     1       2.802   4.286   4.403  1.00  0.00     0.008 A 
ATOM     13  C   UNL     1       4.550   2.154   4.856  1.00  0.00     0.016 A 
ATOM     14  C   UNL     1       4.066   4.530   4.937  1.00  0.00     0.016 A 
BRANCH  10  15
ATOM     15  C   UNL     1       1.256   2.770   3.092  1.00  0.00     0.265 C 
BRANCH  15  16
ATOM     16  O   UNL     1       1.576   1.972   1.938  1.00  0.00    -0.488 OA
BRANCH  16  17
ATOM     17  C   UNL     1       2.577   2.347   1.077  1.00  0.00     0.130 A 
ATOM     18  C   UNL     1       3.023   1.397   0.137  1.00  0.00     0.064 A 
ATOM     19  C   UNL     1       4.149   1.645  -0.708  1.00  0.00    -0.004 A 
ATOM     20  C   UNL     1       3.221   3.582   1.119  1.00  0.00     0.048 A 
ATOM     21  C   UNL     1       4.829   2.877  -0.561  1.00  0.00    -0.017 A 
ATOM     22  C   UNL     1       4.636   0.758  -1.704  1.00  0.00     0.009 A 
ATOM     23  C   UNL     1       4.354   3.829   0.344  1.00  0.00     0.012 A 
ATOM     24  C   UNL     1       5.965   3.166  -1.335  1.00  0.00     0.009 A 
ATOM     25  C   UNL     1       5.755   1.067  -2.484  1.00  0.00     0.001 A 
ATOM     26  C   UNL     1       6.426   2.266  -2.292  1.00  0.00     0.001 A 
BRANCH  18  27
ATOM     27  C   UNL     1       2.328   0.091   0.042  1.00  0.00     0.264 C 
ATOM     28  O   UNL     1       1.111  -0.033   0.092  1.00  0.00    -0.298 OA
ENDBRANCH  18  27
ENDBRANCH  16  17
ENDBRANCH  15  16
ENDBRANCH  10  15
ENDBRANCH   7   9
ENDBRANCH   6   7
ENDBRANCH   5   6
ENDBRANCH   4   5
ENDBRANCH   3   4
ENDBRANCH   2   3
ENDBRANCH   1   2
BRANCH   1  29
ATOM     29  O   UNL     1       4.409   4.848   8.935  1.00  0.00    -0.377 OA
BRANCH  29  30
ATOM     30  C   UNL     1       5.077   5.195  10.146  1.00  0.00     0.188 C 
BRANCH  30  31
ATOM     31  C   UNL     1       5.283   4.180  11.299  1.00  0.00     0.188 C 
BRANCH  31  32
ATOM     32  O   UNL     1       4.569   2.966  11.159  1.00  0.00    -0.376 OA
BRANCH  32  33
ATOM     33  C   UNL     1       3.452   2.748  11.999  1.00  0.00     0.202 C 
BRANCH  33  34
ATOM     34  C   UNL     1       2.268   3.713  11.850  1.00  0.00     0.261 C 
BRANCH  34  35
ATOM     35  O   UNL     1       2.579   5.113  11.930  1.00  0.00    -0.460 OA
BRANCH  35  36
ATOM     36  C   UNL     1       3.008   5.585  13.118  1.00  0.00     0.338 C 
ATOM     37  O   UNL     1       3.162   4.957  14.153  1.00  0.00    -0.246 OA
BRANCH  36  38
ATOM     38  C   UNL     1       3.443   6.981  12.912  1.00  0.00     0.060 A 
ATOM     39  C   UNL     1       4.780   7.325  13.154  1.00  0.00     0.016 A 
ATOM     40  C   UNL     1       2.533   7.943  12.470  1.00  0.00     0.016 A 
ATOM     41  C   UNL     1       5.201   8.645  12.990  1.00  0.00     0.010 A 
ATOM     42  C   UNL     1       2.950   9.268  12.328  1.00  0.00     0.010 A 
ATOM     43  C   UNL     1       4.276   9.632  12.624  1.00  0.00    -0.014 A 
BRANCH  43  44
ATOM     44  C   UNL     1       4.634  11.064  12.763  1.00  0.00     0.031 A 
ATOM     45  C   UNL     1       4.194  11.786  14.007  1.00  0.00     0.074 A 
ATOM     46  C   UNL     1       5.348  11.708  11.824  1.00  0.00     0.049 A 
ATOM     47  N   UNL     1       4.332  13.044  14.337  1.00  0.00    -0.248 NA
ATOM     48  C   UNL     1       3.495  10.972  15.016  1.00  0.00     0.031 C 
ATOM     49  C   UNL     1       5.870  11.109  10.599  1.00  0.00     0.029 A 
ATOM     50  N   UNL     1       5.748  13.020  11.757  1.00  0.00    -0.354 N 
ATOM     51  C   UNL     1       3.732  13.173  15.582  1.00  0.00     0.074 A 
ATOM     52  C   UNL     1       3.197  11.877  15.935  1.00  0.00     0.031 C 
ATOM     53  C   UNL     1       6.513  12.056   9.892  1.00  0.00     0.029 A 
ATOM     54  C   UNL     1       6.415  13.333  10.598  1.00  0.00     0.049 A 
ATOM     55  H   UNL     1       5.573  13.674  12.471  1.00  0.00     0.167 HD
ATOM     56  C   UNL     1       3.644  14.273  16.367  1.00  0.00     0.037 A 
ATOM     57  C   UNL     1       6.870  14.521  10.153  1.00  0.00     0.037 A 
ATOM     58  C   UNL     1       4.175  15.562  16.011  1.00  0.00     0.049 A 
ATOM     59  C   UNL     1       6.687  15.751  11.009  1.00  0.00     0.074 A 
ATOM     60  C   UNL     1       4.150  16.737  16.742  1.00  0.00     0.029 A 
ATOM     61  N   UNL     1       4.816  15.848  14.815  1.00  0.00    -0.354 N 
ATOM     62  N   UNL     1       6.142  15.863  12.197  1.00  0.00    -0.248 NA
ATOM     63  C   UNL     1       7.188  17.020  10.462  1.00  0.00     0.031 C 
ATOM     64  C   UNL     1       4.719  17.748  15.961  1.00  0.00     0.029 A 
ATOM     65  C   UNL     1       5.165  17.189  14.774  1.00  0.00     0.049 A 
ATOM     66  H   UNL     1       4.997  15.195  14.100  1.00  0.00     0.167 HD
ATOM     67  C   UNL     1       6.268  17.201  12.553  1.00  0.00     0.074 A 
ATOM     68  C   UNL     1       6.952  17.859  11.461  1.00  0.00     0.031 C 
ATOM     69  C   UNL     1       5.857  17.828  13.684  1.00  0.00     0.037 A 
BRANCH  56  70
ATOM     70  C   UNL     1       2.916  14.136  17.674  1.00  0.00     0.064 A 
ATOM     71  C   UNL     1       3.436  13.381  18.737  1.00  0.00     0.173 A 
ATOM     72  C   UNL     1       1.690  14.789  17.873  1.00  0.00     0.173 A 
ATOM     73  F   UNL     1       4.597  12.723  18.594  1.00  0.00    -0.203 F 
ATOM     74  C   UNL     1       2.742  13.261  19.938  1.00  0.00     0.198 A 
ATOM     75  C   UNL     1       1.016  14.696  19.087  1.00  0.00     0.198 A 
ATOM     76  F   UNL     1       1.148  15.525  16.891  1.00  0.00    -0.203 F 
ATOM     77  F   UNL     1       3.231  12.490  20.919  1.00  0.00    -0.200 F 
ATOM     78  C   UNL     1       1.537  13.925  20.115  1.00  0.00     0.200 A 
ATOM     79  F   UNL     1      -0.140  15.350  19.261  1.00  0.00    -0.200 F 
ATOM     80  F   UNL     1       0.874  13.816  21.275  1.00  0.00    -0.200 F 
ENDBRANCH  56  70
BRANCH  57  81
ATOM     81  C   UNL     1       7.532  14.618   8.823  1.00  0.00     0.064 A 
ATOM     82  C   UNL     1       8.888  14.955   8.711  1.00  0.00     0.173 A 
ATOM     83  C   UNL     1       6.814  14.409   7.636  1.00  0.00     0.173 A 
ATOM     84  F   UNL     1       9.612  15.192   9.815  1.00  0.00    -0.203 F 
ATOM     85  C   UNL     1       9.494  15.102   7.465  1.00  0.00     0.198 A 
ATOM     86  C   UNL     1       7.429  14.523   6.391  1.00  0.00     0.198 A 
ATOM     87  F   UNL     1       5.512  14.088   7.685  1.00  0.00    -0.203 F 
ATOM     88  F   UNL     1      10.777  15.480   7.387  1.00  0.00    -0.200 F 
ATOM     89  C   UNL     1       8.766  14.880   6.306  1.00  0.00     0.200 A 
ATOM     90  F   UNL     1       6.724  14.295   5.274  1.00  0.00    -0.200 F 
ATOM     91  F   UNL     1       9.349  15.020   5.108  1.00  0.00    -0.200 F 
ENDBRANCH  57  81
BRANCH  69  92
ATOM     92  C   UNL     1       6.181  19.290  13.825  1.00  0.00     0.064 A 
ATOM     93  C   UNL     1       5.560  20.269  13.036  1.00  0.00     0.173 A 
ATOM     94  C   UNL     1       7.098  19.720  14.799  1.00  0.00     0.173 A 
ATOM     95  F   UNL     1       4.684  19.914  12.084  1.00  0.00    -0.203 F 
ATOM     96  C   UNL     1       5.869  21.619  13.193  1.00  0.00     0.198 A 
ATOM     97  C   UNL     1       7.376  21.072  14.978  1.00  0.00     0.198 A 
ATOM     98  F   UNL     1       7.714  18.827  15.589  1.00  0.00    -0.203 F 
ATOM     99  F   UNL     1       5.305  22.531  12.389  1.00  0.00    -0.200 F 
ATOM    100  C   UNL     1       6.769  22.019  14.169  1.00  0.00     0.200 A 
ATOM    101  F   UNL     1       8.232  21.457  15.935  1.00  0.00    -0.200 F 
ATOM    102  F   UNL     1       7.058  23.319  14.324  1.00  0.00    -0.200 F 
ENDBRANCH  69  92
ENDBRANCH  43  44
ENDBRANCH  36  38
ENDBRANCH  35  36
ENDBRANCH  34  35
ENDBRANCH  33  34
ENDBRANCH  32  33
ENDBRANCH  31  32
ENDBRANCH  30  31
ENDBRANCH  29  30
ENDBRANCH   1  29
TORSDOF 24
