REMARK SMILES O=C(OCCOCCOCCOCCOC(=O)[C@H](c1ccccc1)N1C(=O)/C(=C\c2ccc(Br)cc2)SC1=S)c1ccc(-c2c3nc(c(-c4c(F)c(F)c(F)c(F)c4F)c4ccc([nH]4)c(-c4c(F)c(F)c(F)c(F)c4F)c4nc(c(-c5c(F)c(F)c(F)c(F)c5F)c5ccc2[nH]5)C=C4)C=C3)cc1
REMARK SMILES IDX 9 1 8 2 7 3 6 4 5 5 4 6 3 7 2 8 1 9 40 10 41 11 102 12 42 13
REMARK SMILES IDX 101 14 43 15 44 16 45 17 95 18 46 19 100 20 94 21 96 22
REMARK SMILES IDX 47 23 99 24 93 25 92 26 48 28 80 29 60 30 79 31 61 32 64 33
REMARK SMILES IDX 78 34 97 35 62 36 63 37 77 39 98 40 65 41 49 42 50 43 58 44
REMARK SMILES IDX 51 45 52 46 56 47 59 48 53 49 54 50 57 51 55 52 81 53 82 54
REMARK SMILES IDX 90 55 83 56 84 57 88 58 91 59 85 60 86 61 89 62 87 63 66 64
REMARK SMILES IDX 67 65 75 66 68 67 69 68 73 69 76 70 70 71 71 72 74 73 72 74
REMARK SMILES IDX 10 75 11 76 12 77 13 78 14 79 15 80 16 81 17 82 18 83 25 84
REMARK SMILES IDX 26 85 38 86 27 87 28 88 37 89 39 90 29 91 30 92 31 93 36 94
REMARK SMILES IDX 32 95 35 96 33 97 34 98 19 99 20 100 24 101 21 102 23 103
REMARK SMILES IDX 22 104
REMARK H PARENT 96 27 64 38
REMARK Flexibility Score: inf
ROOT
ATOM      1  O   UNL     1       6.410   6.228   0.514  1.00  0.00    -0.377 OA
ENDROOT
BRANCH   1   2
ATOM      2  C   UNL     1       6.823   6.545  -0.813  1.00  0.00     0.188 C 
BRANCH   2   3
ATOM      3  C   UNL     1       8.072   5.821  -1.320  1.00  0.00     0.188 C 
BRANCH   3   4
ATOM      4  O   UNL     1       7.966   4.399  -1.239  1.00  0.00    -0.376 OA
BRANCH   4   5
ATOM      5  C   UNL     1       9.059   3.720  -0.607  1.00  0.00     0.202 C 
BRANCH   5   6
ATOM      6  C   UNL     1      10.344   3.655  -1.430  1.00  0.00     0.261 C 
BRANCH   6   7
ATOM      7  O   UNL     1      10.464   4.712  -2.396  1.00  0.00    -0.460 OA
BRANCH   7   8
ATOM      8  C   UNL     1       9.998   4.757  -3.668  1.00  0.00     0.338 C 
ATOM      9  O   UNL     1      10.290   5.729  -4.363  1.00  0.00    -0.246 OA
BRANCH   8  10
ATOM     10  C   UNL     1       9.136   3.701  -4.284  1.00  0.00     0.060 A 
ATOM     11  C   UNL     1       8.354   2.801  -3.571  1.00  0.00     0.016 A 
ATOM     12  C   UNL     1       9.050   3.657  -5.686  1.00  0.00     0.016 A 
ATOM     13  C   UNL     1       7.549   1.867  -4.180  1.00  0.00     0.010 A 
ATOM     14  C   UNL     1       8.230   2.719  -6.328  1.00  0.00     0.010 A 
ATOM     15  C   UNL     1       7.494   1.811  -5.562  1.00  0.00    -0.014 A 
BRANCH  15  16
ATOM     16  C   UNL     1       6.819   0.624  -6.099  1.00  0.00     0.031 A 
ATOM     17  C   UNL     1       7.689  -0.519  -6.516  1.00  0.00     0.074 A 
ATOM     18  C   UNL     1       5.492   0.491  -5.923  1.00  0.00     0.049 A 
ATOM     19  N   UNL     1       7.353  -1.684  -6.995  1.00  0.00    -0.248 NA
ATOM     20  C   UNL     1       9.142  -0.340  -6.332  1.00  0.00     0.031 C 
ATOM     21  C   UNL     1       4.618   1.493  -5.298  1.00  0.00     0.029 A 
ATOM     22  N   UNL     1       4.656  -0.557  -6.188  1.00  0.00    -0.354 N 
ATOM     23  C   UNL     1       8.549  -2.359  -7.195  1.00  0.00     0.074 A 
ATOM     24  C   UNL     1       9.621  -1.485  -6.787  1.00  0.00     0.031 C 
ATOM     25  C   UNL     1       3.372   1.001  -5.221  1.00  0.00     0.029 A 
ATOM     26  C   UNL     1       3.346  -0.305  -5.864  1.00  0.00     0.049 A 
ATOM     27  H   UNL     1       4.964  -1.409  -6.574  1.00  0.00     0.167 HD
ATOM     28  C   UNL     1       8.718  -3.605  -7.689  1.00  0.00     0.037 A 
ATOM     29  C   UNL     1       2.250  -1.042  -6.120  1.00  0.00     0.037 A 
ATOM     30  C   UNL     1       7.616  -4.435  -8.085  1.00  0.00     0.049 A 
ATOM     31  C   UNL     1       2.462  -2.359  -6.821  1.00  0.00     0.074 A 
ATOM     32  C   UNL     1       7.632  -5.660  -8.719  1.00  0.00     0.029 A 
ATOM     33  N   UNL     1       6.282  -4.104  -7.870  1.00  0.00    -0.354 N 
ATOM     34  N   UNL     1       3.589  -2.953  -7.143  1.00  0.00    -0.248 NA
ATOM     35  C   UNL     1       1.260  -3.100  -7.213  1.00  0.00     0.031 C 
ATOM     36  C   UNL     1       6.304  -6.050  -8.930  1.00  0.00     0.029 A 
ATOM     37  C   UNL     1       5.462  -5.096  -8.374  1.00  0.00     0.049 A 
ATOM     38  H   UNL     1       5.968  -3.284  -7.425  1.00  0.00     0.167 HD
ATOM     39  C   UNL     1       3.234  -4.142  -7.759  1.00  0.00     0.074 A 
ATOM     40  C   UNL     1       1.785  -4.199  -7.734  1.00  0.00     0.031 C 
ATOM     41  C   UNL     1       4.022  -5.099  -8.311  1.00  0.00     0.037 A 
BRANCH  28  42
ATOM     42  C   UNL     1      10.125  -4.069  -7.905  1.00  0.00     0.064 A 
ATOM     43  C   UNL     1      10.970  -4.411  -6.839  1.00  0.00     0.173 A 
ATOM     44  C   UNL     1      10.652  -4.125  -9.204  1.00  0.00     0.173 A 
ATOM     45  F   UNL     1      10.529  -4.332  -5.574  1.00  0.00    -0.203 F 
ATOM     46  C   UNL     1      12.297  -4.774  -7.066  1.00  0.00     0.198 A 
ATOM     47  C   UNL     1      11.970  -4.512  -9.429  1.00  0.00     0.198 A 
ATOM     48  F   UNL     1       9.892  -3.785 -10.256  1.00  0.00    -0.203 F 
ATOM     49  F   UNL     1      13.104  -5.041  -6.029  1.00  0.00    -0.200 F 
ATOM     50  C   UNL     1      12.793  -4.830  -8.360  1.00  0.00     0.200 A 
ATOM     51  F   UNL     1      12.448  -4.561 -10.680  1.00  0.00    -0.200 F 
ATOM     52  F   UNL     1      14.070  -5.174  -8.575  1.00  0.00    -0.200 F 
ENDBRANCH  28  42
BRANCH  29  53
ATOM     53  C   UNL     1       0.887  -0.522  -5.822  1.00  0.00     0.064 A 
ATOM     54  C   UNL     1       0.007  -1.204  -4.971  1.00  0.00     0.173 A 
ATOM     55  C   UNL     1       0.408   0.645  -6.442  1.00  0.00     0.173 A 
ATOM     56  F   UNL     1       0.402  -2.334  -4.366  1.00  0.00    -0.203 F 
ATOM     57  C   UNL     1      -1.303  -0.763  -4.782  1.00  0.00     0.198 A 
ATOM     58  C   UNL     1      -0.889   1.106  -6.222  1.00  0.00     0.198 A 
ATOM     59  F   UNL     1       1.198   1.341  -7.272  1.00  0.00    -0.203 F 
ATOM     60  F   UNL     1      -2.144  -1.477  -4.020  1.00  0.00    -0.200 F 
ATOM     61  C   UNL     1      -1.749   0.392  -5.405  1.00  0.00     0.200 A 
ATOM     62  F   UNL     1      -1.307   2.232  -6.817  1.00  0.00    -0.200 F 
ATOM     63  F   UNL     1      -3.012   0.807  -5.234  1.00  0.00    -0.200 F 
ENDBRANCH  29  53
BRANCH  41  64
ATOM     64  C   UNL     1       3.319  -6.288  -8.890  1.00  0.00     0.064 A 
ATOM     65  C   UNL     1       2.574  -6.196 -10.074  1.00  0.00     0.173 A 
ATOM     66  C   UNL     1       3.424  -7.540  -8.267  1.00  0.00     0.173 A 
ATOM     67  F   UNL     1       2.435  -5.014 -10.695  1.00  0.00    -0.203 F 
ATOM     68  C   UNL     1       1.926  -7.311 -10.594  1.00  0.00     0.198 A 
ATOM     69  C   UNL     1       2.807  -8.660  -8.812  1.00  0.00     0.198 A 
ATOM     70  F   UNL     1       4.135  -7.678  -7.138  1.00  0.00    -0.203 F 
ATOM     71  F   UNL     1       1.167  -7.189 -11.692  1.00  0.00    -0.200 F 
ATOM     72  C   UNL     1       2.050  -8.542  -9.968  1.00  0.00     0.200 A 
ATOM     73  F   UNL     1       2.943  -9.853  -8.216  1.00  0.00    -0.200 F 
ATOM     74  F   UNL     1       1.431  -9.617 -10.475  1.00  0.00    -0.200 F 
ENDBRANCH  41  64
ENDBRANCH  15  16
ENDBRANCH   8  10
ENDBRANCH   7   8
ENDBRANCH   6   7
ENDBRANCH   5   6
ENDBRANCH   4   5
ENDBRANCH   3   4
ENDBRANCH   2   3
ENDBRANCH   1   2
BRANCH   1  75
ATOM     75  C   UNL     1       6.374   4.854   0.852  1.00  0.00     0.188 C 
BRANCH  75  76
ATOM     76  C   UNL     1       5.346   3.957   0.150  1.00  0.00     0.188 C 
BRANCH  76  77
ATOM     77  O   UNL     1       4.911   4.451  -1.111  1.00  0.00    -0.376 OA
BRANCH  77  78
ATOM     78  C   UNL     1       3.533   4.820  -1.179  1.00  0.00     0.202 C 
BRANCH  78  79
ATOM     79  C   UNL     1       3.153   6.162  -0.518  1.00  0.00     0.261 C 
BRANCH  79  80
ATOM     80  O   UNL     1       3.566   6.319   0.851  1.00  0.00    -0.461 OA
BRANCH  80  81
ATOM     81  C   UNL     1       2.974   5.523   1.788  1.00  0.00     0.334 C 
ATOM     82  O   UNL     1       1.997   4.825   1.554  1.00  0.00    -0.249 OA
BRANCH  81  83
ATOM     83  C   UNL     1       3.841   5.532   3.077  1.00  0.00     0.232 C 
BRANCH  83  84
ATOM     84  N   UNL     1       3.735   6.748   3.876  1.00  0.00    -0.274 N 
ATOM     85  C   UNL     1       2.596   6.953   4.611  1.00  0.00     0.267 C 
ATOM     86  C   UNL     1       4.650   7.791   3.890  1.00  0.00     0.149 C 
ATOM     87  O   UNL     1       1.571   6.291   4.552  1.00  0.00    -0.268 OA
ATOM     88  C   UNL     1       2.776   8.163   5.453  1.00  0.00     0.081 C 
ATOM     89  S   UNL     1       3.958   9.176   4.740  1.00  0.00    -0.054 SA
ATOM     90  S   UNL     1       6.219   7.858   3.337  1.00  0.00    -0.052 S 
ATOM     91  C   UNL     1       2.334   8.320   6.704  1.00  0.00     0.029 C 
BRANCH  91  92
ATOM     92  C   UNL     1       1.703   7.207   7.404  1.00  0.00    -0.024 A 
ATOM     93  C   UNL     1       0.314   7.099   7.458  1.00  0.00     0.009 A 
ATOM     94  C   UNL     1       2.513   6.181   7.914  1.00  0.00     0.009 A 
ATOM     95  C   UNL     1      -0.267   5.963   8.020  1.00  0.00     0.016 A 
ATOM     96  C   UNL     1       1.932   5.044   8.471  1.00  0.00     0.016 A 
ATOM     97  C   UNL     1       0.543   4.942   8.521  1.00  0.00     0.018 A 
ATOM     98  Br  UNL     1      -0.250   3.394   9.260  1.00  0.00    -0.051 Br
ENDBRANCH  91  92
ENDBRANCH  83  84
BRANCH  83  99
ATOM     99  C   UNL     1       3.911   4.185   3.814  1.00  0.00    -0.014 A 
ATOM    100  C   UNL     1       2.764   3.431   4.096  1.00  0.00     0.006 A 
ATOM    101  C   UNL     1       5.161   3.600   4.115  1.00  0.00     0.006 A 
ATOM    102  C   UNL     1       2.860   2.123   4.588  1.00  0.00     0.000 A 
ATOM    103  C   UNL     1       5.257   2.285   4.584  1.00  0.00     0.000 A 
ATOM    104  C   UNL     1       4.105   1.543   4.811  1.00  0.00     0.000 A 
ENDBRANCH  83  99
ENDBRANCH  81  83
ENDBRANCH  80  81
ENDBRANCH  79  80
ENDBRANCH  78  79
ENDBRANCH  77  78
ENDBRANCH  76  77
ENDBRANCH  75  76
ENDBRANCH   1  75
TORSDOF 23
