REMARK SMILES Cc1c(C(=O)OCCOCCOCCOCCOC(=O)c2ccc(-c3c4nc(c(-c5c(F)c(F)c(F)c(F)c5F)c5ccc([nH]5)c(-c5c(F)c(F)c(F)c(F)c5F)c5nc(c(-c6c(F)c(F)c(F)c(F)c6F)c6ccc3[nH]6)C=C5)C=C4)cc2)sc2ncnc(NCc3cn4c(n3)SCC4)c12
REMARK SMILES IDX 11 1 10 2 9 3 8 4 7 5 6 6 4 7 5 8 3 9 1 10 2 11 100 12 84 13
REMARK SMILES IDX 85 14 89 15 86 16 88 17 87 18 90 19 91 21 92 22 93 23 96 24
REMARK SMILES IDX 94 25 95 26 99 27 97 28 98 29 12 30 13 31 14 32 15 33 16 34
REMARK SMILES IDX 17 35 18 36 19 37 20 38 21 39 22 40 83 41 23 42 82 43 24 44
REMARK SMILES IDX 25 45 26 46 76 47 27 48 81 49 75 50 77 51 28 52 80 53 74 54
REMARK SMILES IDX 73 55 29 57 61 58 41 59 60 60 42 61 45 62 59 63 78 64 43 65
REMARK SMILES IDX 44 66 58 68 79 69 46 70 30 71 31 72 39 73 32 74 33 75 37 76
REMARK SMILES IDX 40 77 34 78 35 79 38 80 36 81 62 82 63 83 71 84 64 85 65 86
REMARK SMILES IDX 69 87 72 88 66 89 67 90 70 91 68 92 47 93 48 94 56 95 49 96
REMARK SMILES IDX 50 97 54 98 57 99 51 100 52 101 55 102 53 103
REMARK H PARENT 90 20 77 56 45 67
REMARK Flexibility Score: inf
ROOT
ATOM      1  C   UNL     1       3.034   2.784   1.435  1.00  0.00     0.188 C 
ENDROOT
BRANCH   1   2
ATOM      2  C   UNL     1       2.587   2.974  -0.033  1.00  0.00     0.188 C 
BRANCH   2   3
ATOM      3  O   UNL     1       2.770   4.283  -0.541  1.00  0.00    -0.376 OA
BRANCH   3   4
ATOM      4  C   UNL     1       1.633   5.018  -0.936  1.00  0.00     0.202 C 
BRANCH   4   5
ATOM      5  C   UNL     1       0.665   5.406   0.189  1.00  0.00     0.261 C 
BRANCH   5   6
ATOM      6  O   UNL     1       0.285   4.325   1.054  1.00  0.00    -0.459 OA
BRANCH   6   7
ATOM      7  C   UNL     1      -0.628   3.443   0.575  1.00  0.00     0.348 C 
ATOM      8  O   UNL     1      -1.189   3.561  -0.518  1.00  0.00    -0.245 OA
BRANCH   7   9
ATOM      9  C   UNL     1      -0.677   2.269   1.428  1.00  0.00     0.118 A 
ATOM     10  C   UNL     1      -0.179   0.553  -0.347  1.00  0.00     0.047 C 
ATOM     11  C   UNL     1      -0.500   0.930   1.070  1.00  0.00    -0.012 A 
ATOM     12  C   UNL     1      -0.622   0.028   2.236  1.00  0.00     0.058 A 
ATOM     13  S   UNL     1      -0.938   2.469   3.092  1.00  0.00    -0.108 S 
ATOM     14  C   UNL     1      -0.870   0.797   3.373  1.00  0.00     0.129 A 
ATOM     15  C   UNL     1      -0.565  -1.381   2.491  1.00  0.00     0.138 A 
ATOM     16  N   UNL     1      -1.056   0.373   4.632  1.00  0.00    -0.225 NA
ATOM     17  N   UNL     1      -0.795  -1.817   3.753  1.00  0.00    -0.219 NA
ATOM     18  C   UNL     1      -1.016  -0.946   4.737  1.00  0.00     0.225 A 
BRANCH  15  19
ATOM     19  N   UNL     1      -0.327  -2.439   1.651  1.00  0.00    -0.364 N 
ATOM     20  H   UNL     1      -0.718  -3.304   1.915  1.00  0.00     0.162 HD
BRANCH  19  21
ATOM     21  C   UNL     1       0.426  -2.427   0.437  1.00  0.00     0.172 C 
BRANCH  21  22
ATOM     22  C   UNL     1       1.619  -3.311   0.297  1.00  0.00     0.079 A 
ATOM     23  C   UNL     1       2.676  -3.098  -0.582  1.00  0.00     0.113 A 
ATOM     24  N   UNL     1       1.752  -4.518   0.967  1.00  0.00    -0.226 NA
ATOM     25  N   UNL     1       3.419  -4.215  -0.464  1.00  0.00    -0.325 N 
ATOM     26  C   UNL     1       2.845  -5.024   0.466  1.00  0.00     0.168 A 
ATOM     27  C   UNL     1       4.429  -4.800  -1.318  1.00  0.00     0.135 C 
ATOM     28  S   UNL     1       3.483  -6.622   0.414  1.00  0.00    -0.086 SA
ATOM     29  C   UNL     1       4.154  -6.302  -1.273  1.00  0.00     0.100 C 
ENDBRANCH  21  22
ENDBRANCH  19  21
ENDBRANCH  15  19
ENDBRANCH   7   9
ENDBRANCH   6   7
ENDBRANCH   5   6
ENDBRANCH   4   5
ENDBRANCH   3   4
ENDBRANCH   2   3
ENDBRANCH   1   2
BRANCH   1  30
ATOM     30  O   UNL     1       3.594   3.849   2.196  1.00  0.00    -0.377 OA
BRANCH  30  31
ATOM     31  C   UNL     1       4.302   4.898   1.549  1.00  0.00     0.188 C 
BRANCH  31  32
ATOM     32  C   UNL     1       5.317   4.577   0.421  1.00  0.00     0.188 C 
BRANCH  32  33
ATOM     33  O   UNL     1       5.239   3.259  -0.100  1.00  0.00    -0.376 OA
BRANCH  33  34
ATOM     34  C   UNL     1       6.233   2.285   0.148  1.00  0.00     0.202 C 
BRANCH  34  35
ATOM     35  C   UNL     1       6.556   1.892   1.585  1.00  0.00     0.261 C 
BRANCH  35  36
ATOM     36  O   UNL     1       6.487   2.962   2.501  1.00  0.00    -0.460 OA
BRANCH  36  37
ATOM     37  C   UNL     1       7.477   3.855   2.393  1.00  0.00     0.338 C 
ATOM     38  O   UNL     1       8.337   3.920   1.517  1.00  0.00    -0.246 OA
BRANCH  37  39
ATOM     39  C   UNL     1       7.434   4.712   3.569  1.00  0.00     0.060 A 
ATOM     40  C   UNL     1       8.262   5.832   3.550  1.00  0.00     0.016 A 
ATOM     41  C   UNL     1       6.914   4.164   4.753  1.00  0.00     0.016 A 
ATOM     42  C   UNL     1       8.822   6.213   4.740  1.00  0.00     0.010 A 
ATOM     43  C   UNL     1       7.494   4.527   5.934  1.00  0.00     0.010 A 
ATOM     44  C   UNL     1       8.516   5.465   5.884  1.00  0.00    -0.014 A 
BRANCH  44  45
ATOM     45  C   UNL     1       9.289   5.723   7.070  1.00  0.00     0.031 A 
ATOM     46  C   UNL     1       8.866   6.962   7.735  1.00  0.00     0.074 A 
ATOM     47  C   UNL     1      10.243   4.877   7.497  1.00  0.00     0.049 A 
ATOM     48  N   UNL     1       9.507   8.079   7.772  1.00  0.00    -0.248 NA
ATOM     49  C   UNL     1       7.487   7.032   8.242  1.00  0.00     0.031 C 
ATOM     50  C   UNL     1      10.509   3.510   7.037  1.00  0.00     0.029 A 
ATOM     51  N   UNL     1      11.134   5.042   8.511  1.00  0.00    -0.354 N 
ATOM     52  C   UNL     1       8.700   8.931   8.512  1.00  0.00     0.074 A 
ATOM     53  C   UNL     1       7.402   8.317   8.588  1.00  0.00     0.031 C 
ATOM     54  C   UNL     1      11.335   2.898   7.918  1.00  0.00     0.029 A 
ATOM     55  C   UNL     1      11.769   3.872   8.905  1.00  0.00     0.049 A 
ATOM     56  H   UNL     1      11.313   5.915   8.929  1.00  0.00     0.167 HD
ATOM     57  C   UNL     1       9.265   9.900   9.276  1.00  0.00     0.037 A 
ATOM     58  C   UNL     1      12.541   3.735  10.009  1.00  0.00     0.037 A 
ATOM     59  C   UNL     1      10.637  10.124   8.906  1.00  0.00     0.049 A 
ATOM     60  C   UNL     1      13.012   5.090  10.386  1.00  0.00     0.074 A 
ATOM     61  C   UNL     1      11.304  10.793   7.904  1.00  0.00     0.029 A 
ATOM     62  N   UNL     1      11.514   9.225   9.453  1.00  0.00    -0.354 N 
ATOM     63  N   UNL     1      13.847   5.788   9.668  1.00  0.00    -0.248 NA
ATOM     64  C   UNL     1      12.296   5.836  11.418  1.00  0.00     0.031 C 
ATOM     65  C   UNL     1      12.580  10.165   7.781  1.00  0.00     0.029 A 
ATOM     66  C   UNL     1      12.671   9.146   8.725  1.00  0.00     0.049 A 
ATOM     67  H   UNL     1      11.335   8.701  10.267  1.00  0.00     0.167 HD
ATOM     68  C   UNL     1      13.460   7.096   9.873  1.00  0.00     0.074 A 
ATOM     69  C   UNL     1      12.643   7.080  11.077  1.00  0.00     0.031 C 
ATOM     70  C   UNL     1      13.554   8.012   8.869  1.00  0.00     0.037 A 
BRANCH  57  71
ATOM     71  C   UNL     1       8.751  10.275  10.641  1.00  0.00     0.064 A 
ATOM     72  C   UNL     1       9.255  11.426  11.272  1.00  0.00     0.173 A 
ATOM     73  C   UNL     1       8.014   9.397  11.468  1.00  0.00     0.173 A 
ATOM     74  F   UNL     1      10.014  12.299  10.592  1.00  0.00    -0.203 F 
ATOM     75  C   UNL     1       9.056  11.663  12.635  1.00  0.00     0.198 A 
ATOM     76  C   UNL     1       7.766   9.667  12.810  1.00  0.00     0.198 A 
ATOM     77  F   UNL     1       7.611   8.192  11.047  1.00  0.00    -0.203 F 
ATOM     78  F   UNL     1       9.642  12.717  13.220  1.00  0.00    -0.200 F 
ATOM     79  C   UNL     1       8.306  10.787  13.401  1.00  0.00     0.200 A 
ATOM     80  F   UNL     1       7.065   8.786  13.540  1.00  0.00    -0.200 F 
ATOM     81  F   UNL     1       8.147  10.992  14.714  1.00  0.00    -0.200 F 
ENDBRANCH  57  71
BRANCH  58  82
ATOM     82  C   UNL     1      12.668   2.589  10.939  1.00  0.00     0.064 A 
ATOM     83  C   UNL     1      13.694   2.575  11.901  1.00  0.00     0.173 A 
ATOM     84  C   UNL     1      11.613   1.679  11.132  1.00  0.00     0.173 A 
ATOM     85  F   UNL     1      14.728   3.423  11.797  1.00  0.00    -0.203 F 
ATOM     86  C   UNL     1      13.626   1.761  13.033  1.00  0.00     0.198 A 
ATOM     87  C   UNL     1      11.551   0.859  12.260  1.00  0.00     0.198 A 
ATOM     88  F   UNL     1      10.570   1.645  10.291  1.00  0.00    -0.203 F 
ATOM     89  F   UNL     1      14.574   1.849  13.976  1.00  0.00    -0.200 F 
ATOM     90  C   UNL     1      12.543   0.920  13.223  1.00  0.00     0.200 A 
ATOM     91  F   UNL     1      10.486   0.068  12.449  1.00  0.00    -0.200 F 
ATOM     92  F   UNL     1      12.432   0.204  14.351  1.00  0.00    -0.200 F 
ENDBRANCH  58  82
BRANCH  70  93
ATOM     93  C   UNL     1      14.526   7.721   7.770  1.00  0.00     0.064 A 
ATOM     94  C   UNL     1      14.372   6.694   6.826  1.00  0.00     0.173 A 
ATOM     95  C   UNL     1      15.628   8.574   7.631  1.00  0.00     0.173 A 
ATOM     96  F   UNL     1      13.306   5.883   6.859  1.00  0.00    -0.203 F 
ATOM     97  C   UNL     1      15.304   6.513   5.805  1.00  0.00     0.198 A 
ATOM     98  C   UNL     1      16.536   8.414   6.591  1.00  0.00     0.198 A 
ATOM     99  F   UNL     1      15.801   9.592   8.489  1.00  0.00    -0.203 F 
ATOM    100  F   UNL     1      15.149   5.517   4.920  1.00  0.00    -0.200 F 
ATOM    101  C   UNL     1      16.380   7.379   5.684  1.00  0.00     0.200 A 
ATOM    102  F   UNL     1      17.552   9.278   6.457  1.00  0.00    -0.200 F 
ATOM    103  F   UNL     1      17.255   7.230   4.680  1.00  0.00    -0.200 F 
ENDBRANCH  70  93
ENDBRANCH  44  45
ENDBRANCH  37  39
ENDBRANCH  36  37
ENDBRANCH  35  36
ENDBRANCH  34  35
ENDBRANCH  33  34
ENDBRANCH  32  33
ENDBRANCH  31  32
ENDBRANCH  30  31
ENDBRANCH   1  30
TORSDOF 23
