REMARK SMILES O=C(OCCOCCOCCOCCOC(=O)c1ccc(-c2c3nc(c(-c4c(F)c(F)c(F)c(F)c4F)c4ccc([nH]4)c(-c4c(F)c(F)c(F)c(F)c4F)c4nc(c(-c5c(F)c(F)c(F)c(F)c5F)c5ccc2[nH]5)C=C4)C=C3)cc1)c1ccc(CNC(=O)c2ccccc2I)cc1
REMARK SMILES IDX 8 1 7 2 6 3 5 4 4 5 3 6 2 7 1 8 81 9 82 10 97 11 83 12 96 13
REMARK SMILES IDX 84 14 85 15 86 16 87 17 88 19 89 20 90 21 94 22 91 23 93 24
REMARK SMILES IDX 95 25 92 26 9 27 10 28 11 29 12 30 13 31 14 32 15 33 16 34
REMARK SMILES IDX 17 35 18 36 19 37 80 38 20 39 79 40 21 41 22 42 23 43 73 44
REMARK SMILES IDX 24 45 78 46 72 47 74 48 25 49 77 50 71 51 70 52 26 54 58 55
REMARK SMILES IDX 38 56 57 57 39 58 42 59 56 60 75 61 40 62 41 63 55 65 76 66
REMARK SMILES IDX 43 67 27 68 28 69 36 70 29 71 30 72 34 73 37 74 31 75 32 76
REMARK SMILES IDX 35 77 33 78 59 79 60 80 68 81 61 82 62 83 66 84 69 85 63 86
REMARK SMILES IDX 64 87 67 88 65 89 44 90 45 91 53 92 46 93 47 94 51 95 54 96
REMARK SMILES IDX 48 97 49 98 52 99 50 100
REMARK H PARENT 86 18 74 53 42 64
REMARK Flexibility Score: inf
ROOT
ATOM      1  C   UNL     1       1.867   0.952   2.641  1.00  0.00     0.188 C 
ENDROOT
BRANCH   1   2
ATOM      2  C   UNL     1       2.321   1.081   1.186  1.00  0.00     0.188 C 
BRANCH   2   3
ATOM      3  O   UNL     1       3.585   0.433   1.021  1.00  0.00    -0.376 OA
BRANCH   3   4
ATOM      4  C   UNL     1       4.485   1.024   0.092  1.00  0.00     0.202 C 
BRANCH   4   5
ATOM      5  C   UNL     1       4.154   0.787  -1.379  1.00  0.00     0.261 C 
BRANCH   5   6
ATOM      6  O   UNL     1       2.786   0.417  -1.594  1.00  0.00    -0.460 OA
BRANCH   6   7
ATOM      7  C   UNL     1       2.296  -0.846  -1.562  1.00  0.00     0.338 C 
ATOM      8  O   UNL     1       1.094  -1.043  -1.725  1.00  0.00    -0.246 OA
BRANCH   7   9
ATOM      9  C   UNL     1       3.188  -2.026  -1.434  1.00  0.00     0.060 A 
ATOM     10  C   UNL     1       4.026  -2.254  -0.341  1.00  0.00     0.016 A 
ATOM     11  C   UNL     1       3.042  -3.033  -2.393  1.00  0.00     0.016 A 
ATOM     12  C   UNL     1       4.764  -3.431  -0.238  1.00  0.00     0.006 A 
ATOM     13  C   UNL     1       3.755  -4.231  -2.276  1.00  0.00     0.006 A 
ATOM     14  C   UNL     1       4.628  -4.434  -1.199  1.00  0.00    -0.029 A 
BRANCH  14  15
ATOM     15  C   UNL     1       5.365  -5.732  -1.014  1.00  0.00     0.152 C 
BRANCH  15  16
ATOM     16  N   UNL     1       6.795  -5.547  -1.149  1.00  0.00    -0.348 N 
ATOM     17  C   UNL     1       7.818  -5.839  -0.286  1.00  0.00     0.252 C 
ATOM     18  H   UNL     1       7.079  -5.144  -2.001  1.00  0.00     0.164 HD
ATOM     19  O   UNL     1       8.966  -5.509  -0.580  1.00  0.00    -0.269 OA
BRANCH  17  20
ATOM     20  C   UNL     1       7.572  -6.449   1.040  1.00  0.00     0.053 A 
ATOM     21  C   UNL     1       8.070  -5.722   2.138  1.00  0.00     0.015 A 
ATOM     22  C   UNL     1       6.987  -7.703   1.264  1.00  0.00     0.026 A 
ATOM     23  C   UNL     1       7.930  -6.205   3.440  1.00  0.00     0.001 A 
ATOM     24  C   UNL     1       6.805  -8.159   2.579  1.00  0.00     0.015 A 
ATOM     25  I   UNL     1       6.501  -9.067  -0.259  1.00  0.00    -0.043 I 
ATOM     26  C   UNL     1       7.274  -7.411   3.661  1.00  0.00     0.001 A 
ENDBRANCH  17  20
ENDBRANCH  15  16
ENDBRANCH  14  15
ENDBRANCH   7   9
ENDBRANCH   6   7
ENDBRANCH   5   6
ENDBRANCH   4   5
ENDBRANCH   3   4
ENDBRANCH   2   3
ENDBRANCH   1   2
BRANCH   1  27
ATOM     27  O   UNL     1       2.600   1.754   3.569  1.00  0.00    -0.377 OA
BRANCH  27  28
ATOM     28  C   UNL     1       4.017   1.703   3.465  1.00  0.00     0.188 C 
BRANCH  28  29
ATOM     29  C   UNL     1       4.732   0.357   3.713  1.00  0.00     0.188 C 
BRANCH  29  30
ATOM     30  O   UNL     1       3.875  -0.759   3.920  1.00  0.00    -0.376 OA
BRANCH  30  31
ATOM     31  C   UNL     1       3.820  -1.242   5.262  1.00  0.00     0.202 C 
BRANCH  31  32
ATOM     32  C   UNL     1       2.980  -0.378   6.212  1.00  0.00     0.261 C 
BRANCH  32  33
ATOM     33  O   UNL     1       3.458   0.967   6.388  1.00  0.00    -0.460 OA
BRANCH  33  34
ATOM     34  C   UNL     1       4.685   1.143   6.923  1.00  0.00     0.338 C 
ATOM     35  O   UNL     1       5.418   0.286   7.385  1.00  0.00    -0.246 OA
BRANCH  34  36
ATOM     36  C   UNL     1       5.101   2.534   6.616  1.00  0.00     0.060 A 
ATOM     37  C   UNL     1       6.369   2.742   6.053  1.00  0.00     0.016 A 
ATOM     38  C   UNL     1       4.205   3.602   6.743  1.00  0.00     0.016 A 
ATOM     39  C   UNL     1       6.746   4.020   5.630  1.00  0.00     0.010 A 
ATOM     40  C   UNL     1       4.590   4.883   6.337  1.00  0.00     0.010 A 
ATOM     41  C   UNL     1       5.872   5.103   5.804  1.00  0.00    -0.014 A 
BRANCH  41  42
ATOM     42  C   UNL     1       6.389   6.489   5.697  1.00  0.00     0.031 A 
ATOM     43  C   UNL     1       6.931   7.115   6.953  1.00  0.00     0.074 A 
ATOM     44  C   UNL     1       6.389   7.183   4.545  1.00  0.00     0.049 A 
ATOM     45  N   UNL     1       7.422   8.311   7.149  1.00  0.00    -0.248 NA
ATOM     46  C   UNL     1       6.912   6.267   8.157  1.00  0.00     0.031 C 
ATOM     47  C   UNL     1       5.915   6.691   3.255  1.00  0.00     0.029 A 
ATOM     48  N   UNL     1       6.800   8.469   4.286  1.00  0.00    -0.354 N 
ATOM     49  C   UNL     1       7.771   8.355   8.491  1.00  0.00     0.074 A 
ATOM     50  C   UNL     1       7.403   7.084   9.073  1.00  0.00     0.031 C 
ATOM     51  C   UNL     1       6.053   7.669   2.339  1.00  0.00     0.029 A 
ATOM     52  C   UNL     1       6.601   8.863   2.985  1.00  0.00     0.049 A 
ATOM     53  H   UNL     1       7.199   9.054   4.970  1.00  0.00     0.167 HD
ATOM     54  C   UNL     1       8.357   9.360   9.181  1.00  0.00     0.037 A 
ATOM     55  C   UNL     1       6.823  10.056   2.396  1.00  0.00     0.037 A 
ATOM     56  C   UNL     1       8.705  10.633   8.616  1.00  0.00     0.049 A 
ATOM     57  C   UNL     1       7.401  11.193   3.207  1.00  0.00     0.074 A 
ATOM     58  C   UNL     1       9.313  11.712   9.231  1.00  0.00     0.029 A 
ATOM     59  N   UNL     1       8.457  11.004   7.303  1.00  0.00    -0.354 N 
ATOM     60  N   UNL     1       7.774  11.211   4.463  1.00  0.00    -0.248 NA
ATOM     61  C   UNL     1       7.588  12.476   2.512  1.00  0.00     0.031 C 
ATOM     62  C   UNL     1       9.386  12.756   8.304  1.00  0.00     0.029 A 
ATOM     63  C   UNL     1       8.874  12.308   7.096  1.00  0.00     0.049 A 
ATOM     64  H   UNL     1       8.045  10.427   6.620  1.00  0.00     0.167 HD
ATOM     65  C   UNL     1       8.266  12.490   4.700  1.00  0.00     0.074 A 
ATOM     66  C   UNL     1       8.155  13.217   3.454  1.00  0.00     0.031 C 
ATOM     67  C   UNL     1       8.767  13.015   5.846  1.00  0.00     0.037 A 
BRANCH  54  68
ATOM     68  C   UNL     1       8.627   9.119  10.636  1.00  0.00     0.064 A 
ATOM     69  C   UNL     1       9.622   8.226  11.061  1.00  0.00     0.173 A 
ATOM     70  C   UNL     1       7.879   9.788  11.616  1.00  0.00     0.173 A 
ATOM     71  F   UNL     1      10.347   7.544  10.161  1.00  0.00    -0.203 F 
ATOM     72  C   UNL     1       9.839   7.989  12.415  1.00  0.00     0.198 A 
ATOM     73  C   UNL     1       8.120   9.572  12.969  1.00  0.00     0.198 A 
ATOM     74  F   UNL     1       6.913  10.648  11.260  1.00  0.00    -0.203 F 
ATOM     75  F   UNL     1      10.756   7.090  12.798  1.00  0.00    -0.200 F 
ATOM     76  C   UNL     1       9.092   8.667  13.368  1.00  0.00     0.200 A 
ATOM     77  F   UNL     1       7.403  10.232  13.889  1.00  0.00    -0.200 F 
ATOM     78  F   UNL     1       9.303   8.439  14.671  1.00  0.00    -0.200 F 
ENDBRANCH  54  68
BRANCH  55  79
ATOM     79  C   UNL     1       6.496  10.255   0.958  1.00  0.00     0.064 A 
ATOM     80  C   UNL     1       7.506  10.462   0.007  1.00  0.00     0.173 A 
ATOM     81  C   UNL     1       5.166  10.288   0.511  1.00  0.00     0.173 A 
ATOM     82  F   UNL     1       8.791  10.473   0.388  1.00  0.00    -0.203 F 
ATOM     83  C   UNL     1       7.198  10.710  -1.330  1.00  0.00     0.198 A 
ATOM     84  C   UNL     1       4.861  10.510  -0.831  1.00  0.00     0.198 A 
ATOM     85  F   UNL     1       4.162  10.107   1.381  1.00  0.00    -0.203 F 
ATOM     86  F   UNL     1       8.181  10.954  -2.208  1.00  0.00    -0.200 F 
ATOM     87  C   UNL     1       5.877  10.729  -1.749  1.00  0.00     0.200 A 
ATOM     88  F   UNL     1       3.583  10.520  -1.232  1.00  0.00    -0.200 F 
ATOM     89  F   UNL     1       5.582  10.968  -3.034  1.00  0.00    -0.200 F 
ENDBRANCH  55  79
BRANCH  67  90
ATOM     90  C   UNL     1       9.271  14.430   5.805  1.00  0.00     0.064 A 
ATOM     91  C   UNL     1       8.396  15.523   5.714  1.00  0.00     0.173 A 
ATOM     92  C   UNL     1      10.644  14.696   5.920  1.00  0.00     0.173 A 
ATOM     93  F   UNL     1       7.076  15.322   5.591  1.00  0.00    -0.203 F 
ATOM     94  C   UNL     1       8.880  16.829   5.718  1.00  0.00     0.198 A 
ATOM     95  C   UNL     1      11.122  16.003   5.955  1.00  0.00     0.198 A 
ATOM     96  F   UNL     1      11.523  13.687   6.021  1.00  0.00    -0.203 F 
ATOM     97  F   UNL     1       8.030  17.857   5.588  1.00  0.00    -0.200 F 
ATOM     98  C   UNL     1      10.241  17.068   5.847  1.00  0.00     0.200 A 
ATOM     99  F   UNL     1      12.435  16.232   6.097  1.00  0.00    -0.200 F 
ATOM    100  F   UNL     1      10.703  18.326   5.863  1.00  0.00    -0.200 F 
ENDBRANCH  67  90
ENDBRANCH  41  42
ENDBRANCH  34  36
ENDBRANCH  33  34
ENDBRANCH  32  33
ENDBRANCH  31  32
ENDBRANCH  30  31
ENDBRANCH  29  30
ENDBRANCH  28  29
ENDBRANCH  27  28
ENDBRANCH   1  27
TORSDOF 23
