REMARK SMILES CC1=C[C@@H]([C@@H]2N=N[C@H](S)N2/N=C/c2ccc(C(=O)OCCOCCOCCOCCOC(=O)c3ccc(-c4c5nc(c(-c6c(F)c(F)c(F)c(F)c6F)c6ccc([nH]6)c(-c6c(F)c(F)c(F)c(F)c6F)c6nc(c(-c7c(F)c(F)c(F)c(F)c7F)c7ccc4[nH]7)C=C6)C=C5)cc3)cc2)N=N1
REMARK SMILES IDX 24 1 23 2 22 3 21 4 20 5 19 6 17 7 18 8 16 9 13 10 14 11
REMARK SMILES IDX 98 12 15 13 97 14 12 15 11 16 10 17 5 18 6 19 7 20 8 21 4 22
REMARK SMILES IDX 1 23 2 24 3 25 100 26 99 27 9 28 25 30 26 31 27 32 28 33
REMARK SMILES IDX 29 34 30 35 31 36 32 37 33 38 34 39 35 40 96 41 36 42 95 43
REMARK SMILES IDX 37 44 38 45 39 46 89 47 40 48 94 49 88 50 90 51 41 52 93 53
REMARK SMILES IDX 87 54 86 55 42 57 74 58 54 59 73 60 55 61 58 62 72 63 91 64
REMARK SMILES IDX 56 65 57 66 71 68 92 69 59 70 43 71 44 72 52 73 45 74 46 75
REMARK SMILES IDX 50 76 53 77 47 78 48 79 51 80 49 81 75 82 76 83 84 84 77 85
REMARK SMILES IDX 78 86 82 87 85 88 79 89 80 90 83 91 81 92 60 93 61 94 69 95
REMARK SMILES IDX 62 96 63 97 67 98 70 99 64 100 65 101 68 102 66 103
REMARK H PARENT 9 29 90 56 58 67
REMARK Flexibility Score: inf
ROOT
ATOM      1  C   UNL     1       0.126  -6.475  12.012  1.00  0.00     0.188 C 
ENDROOT
BRANCH   1   2
ATOM      2  C   UNL     1       1.074  -7.672  11.774  1.00  0.00     0.188 C 
BRANCH   2   3
ATOM      3  O   UNL     1       2.113  -7.771  12.726  1.00  0.00    -0.376 OA
BRANCH   3   4
ATOM      4  C   UNL     1       3.443  -7.501  12.351  1.00  0.00     0.202 C 
BRANCH   4   5
ATOM      5  C   UNL     1       3.776  -6.140  11.727  1.00  0.00     0.261 C 
BRANCH   5   6
ATOM      6  O   UNL     1       2.837  -5.628  10.773  1.00  0.00    -0.460 OA
BRANCH   6   7
ATOM      7  C   UNL     1       2.837  -6.202   9.555  1.00  0.00     0.338 C 
ATOM      8  O   UNL     1       3.558  -7.123   9.180  1.00  0.00    -0.246 OA
BRANCH   7   9
ATOM      9  C   UNL     1       1.686  -5.686   8.784  1.00  0.00     0.060 A 
ATOM     10  C   UNL     1      -0.432  -4.774   7.225  1.00  0.00    -0.005 A 
ATOM     11  C   UNL     1      -0.168  -6.143   7.289  1.00  0.00     0.010 A 
ATOM     12  C   UNL     1       0.309  -3.865   7.990  1.00  0.00     0.010 A 
ATOM     13  C   UNL     1       0.907  -6.596   8.054  1.00  0.00     0.016 A 
ATOM     14  C   UNL     1       1.359  -4.324   8.787  1.00  0.00     0.016 A 
BRANCH  10  15
ATOM     15  C   UNL     1      -1.448  -4.300   6.266  1.00  0.00     0.141 C 
ATOM     16  N   UNL     1      -1.322  -3.138   5.713  1.00  0.00    -0.180 NA
BRANCH  16  17
ATOM     17  N   UNL     1      -2.243  -2.740   4.802  1.00  0.00    -0.233 NA
ATOM     18  C   UNL     1      -1.857  -1.710   3.829  1.00  0.00     0.274 C 
ATOM     19  N   UNL     1      -2.706  -1.874   2.624  1.00  0.00    -0.161 NA
ATOM     20  N   UNL     1      -3.409  -2.907   2.726  1.00  0.00    -0.153 NA
ATOM     21  C   UNL     1      -3.195  -3.550   4.041  1.00  0.00     0.298 C 
BRANCH  18  22
ATOM     22  C   UNL     1      -2.000  -0.297   4.434  1.00  0.00     0.201 C 
ATOM     23  C   UNL     1      -5.210   1.547   4.384  1.00  0.00     0.068 C 
ATOM     24  C   UNL     1      -3.843   0.980   4.281  1.00  0.00     0.058 C 
ATOM     25  C   UNL     1      -3.343  -0.012   5.013  1.00  0.00     0.031 C 
ATOM     26  N   UNL     1      -2.963   1.423   3.326  1.00  0.00    -0.160 NA
ATOM     27  N   UNL     1      -1.892   0.749   3.372  1.00  0.00    -0.177 NA
ENDBRANCH  18  22
BRANCH  21  28
ATOM     28  S   UNL     1      -4.752  -3.755   4.988  1.00  0.00    -0.128 SA
ATOM     29  H   UNL     1      -5.297  -2.533   5.233  1.00  0.00     0.106 HD
ENDBRANCH  21  28
ENDBRANCH  16  17
ENDBRANCH  10  15
ENDBRANCH   7   9
ENDBRANCH   6   7
ENDBRANCH   5   6
ENDBRANCH   4   5
ENDBRANCH   3   4
ENDBRANCH   2   3
ENDBRANCH   1   2
BRANCH   1  30
ATOM     30  O   UNL     1       0.410  -5.503  13.011  1.00  0.00    -0.377 OA
BRANCH  30  31
ATOM     31  C   UNL     1       0.936  -5.888  14.278  1.00  0.00     0.188 C 
BRANCH  31  32
ATOM     32  C   UNL     1       0.607  -7.255  14.937  1.00  0.00     0.188 C 
BRANCH  32  33
ATOM     33  O   UNL     1      -0.101  -8.172  14.123  1.00  0.00    -0.376 OA
BRANCH  33  34
ATOM     34  C   UNL     1      -1.455  -8.502  14.339  1.00  0.00     0.202 C 
BRANCH  34  35
ATOM     35  C   UNL     1      -2.495  -7.392  14.352  1.00  0.00     0.261 C 
BRANCH  35  36
ATOM     36  O   UNL     1      -2.037  -6.182  14.916  1.00  0.00    -0.460 OA
BRANCH  36  37
ATOM     37  C   UNL     1      -1.917  -6.198  16.247  1.00  0.00     0.338 C 
ATOM     38  O   UNL     1      -1.944  -7.183  16.990  1.00  0.00    -0.246 OA
BRANCH  37  39
ATOM     39  C   UNL     1      -1.907  -4.820  16.715  1.00  0.00     0.060 A 
ATOM     40  C   UNL     1      -1.718  -4.642  18.084  1.00  0.00     0.016 A 
ATOM     41  C   UNL     1      -2.492  -3.843  15.892  1.00  0.00     0.016 A 
ATOM     42  C   UNL     1      -2.388  -3.606  18.679  1.00  0.00     0.010 A 
ATOM     43  C   UNL     1      -3.183  -2.826  16.490  1.00  0.00     0.010 A 
ATOM     44  C   UNL     1      -3.199  -2.791  17.878  1.00  0.00    -0.014 A 
BRANCH  44  45
ATOM     45  C   UNL     1      -4.019  -1.817  18.549  1.00  0.00     0.031 A 
ATOM     46  C   UNL     1      -3.221  -0.689  19.056  1.00  0.00     0.074 A 
ATOM     47  C   UNL     1      -5.355  -1.933  18.633  1.00  0.00     0.049 A 
ATOM     48  N   UNL     1      -2.974  -0.406  20.288  1.00  0.00    -0.248 NA
ATOM     49  C   UNL     1      -2.442   0.091  18.081  1.00  0.00     0.031 C 
ATOM     50  C   UNL     1      -6.234  -2.878  17.941  1.00  0.00     0.029 A 
ATOM     51  N   UNL     1      -6.226  -1.140  19.306  1.00  0.00    -0.354 N 
ATOM     52  C   UNL     1      -2.176   0.728  20.247  1.00  0.00     0.074 A 
ATOM     53  C   UNL     1      -1.715   0.861  18.890  1.00  0.00     0.031 C 
ATOM     54  C   UNL     1      -7.513  -2.450  18.050  1.00  0.00     0.029 A 
ATOM     55  C   UNL     1      -7.548  -1.280  18.912  1.00  0.00     0.049 A 
ATOM     56  H   UNL     1      -5.944  -0.517  20.014  1.00  0.00     0.167 HD
ATOM     57  C   UNL     1      -2.227   1.628  21.262  1.00  0.00     0.037 A 
ATOM     58  C   UNL     1      -8.554  -0.420  19.211  1.00  0.00     0.037 A 
ATOM     59  C   UNL     1      -2.737   1.023  22.468  1.00  0.00     0.049 A 
ATOM     60  C   UNL     1      -8.118   0.378  20.390  1.00  0.00     0.074 A 
ATOM     61  C   UNL     1      -2.355  -0.057  23.243  1.00  0.00     0.029 A 
ATOM     62  N   UNL     1      -4.034   1.297  22.832  1.00  0.00    -0.354 N 
ATOM     63  N   UNL     1      -7.973  -0.119  21.588  1.00  0.00    -0.248 NA
ATOM     64  C   UNL     1      -7.396   1.618  20.141  1.00  0.00     0.031 C 
ATOM     65  C   UNL     1      -3.574  -0.662  23.671  1.00  0.00     0.029 A 
ATOM     66  C   UNL     1      -4.627   0.114  23.187  1.00  0.00     0.049 A 
ATOM     67  H   UNL     1      -4.460   2.185  22.836  1.00  0.00     0.167 HD
ATOM     68  C   UNL     1      -6.823   0.480  22.080  1.00  0.00     0.074 A 
ATOM     69  C   UNL     1      -6.563   1.604  21.185  1.00  0.00     0.031 C 
ATOM     70  C   UNL     1      -6.028  -0.167  22.982  1.00  0.00     0.037 A 
BRANCH  57  71
ATOM     71  C   UNL     1      -2.245   3.117  21.024  1.00  0.00     0.064 A 
ATOM     72  C   UNL     1      -2.206   3.974  22.138  1.00  0.00     0.173 A 
ATOM     73  C   UNL     1      -2.620   3.722  19.801  1.00  0.00     0.173 A 
ATOM     74  F   UNL     1      -1.880   3.501  23.350  1.00  0.00    -0.203 F 
ATOM     75  C   UNL     1      -2.609   5.308  22.053  1.00  0.00     0.198 A 
ATOM     76  C   UNL     1      -2.965   5.066  19.710  1.00  0.00     0.198 A 
ATOM     77  F   UNL     1      -2.787   3.028  18.671  1.00  0.00    -0.203 F 
ATOM     78  F   UNL     1      -2.695   6.046  23.167  1.00  0.00    -0.200 F 
ATOM     79  C   UNL     1      -2.996   5.850  20.841  1.00  0.00     0.200 A 
ATOM     80  F   UNL     1      -3.355   5.565  18.528  1.00  0.00    -0.200 F 
ATOM     81  F   UNL     1      -3.450   7.107  20.770  1.00  0.00    -0.200 F 
ENDBRANCH  57  71
BRANCH  58  82
ATOM     82  C   UNL     1      -9.686  -0.003  18.346  1.00  0.00     0.064 A 
ATOM     83  C   UNL     1     -10.757   0.739  18.873  1.00  0.00     0.173 A 
ATOM     84  C   UNL     1      -9.613  -0.075  16.940  1.00  0.00     0.173 A 
ATOM     85  F   UNL     1     -10.879   0.897  20.200  1.00  0.00    -0.203 F 
ATOM     86  C   UNL     1     -11.675   1.395  18.046  1.00  0.00     0.198 A 
ATOM     87  C   UNL     1     -10.536   0.570  16.117  1.00  0.00     0.198 A 
ATOM     88  F   UNL     1      -8.591  -0.690  16.330  1.00  0.00    -0.203 F 
ATOM     89  F   UNL     1     -12.641   2.151  18.587  1.00  0.00    -0.200 F 
ATOM     90  C   UNL     1     -11.558   1.319  16.669  1.00  0.00     0.200 A 
ATOM     91  F   UNL     1     -10.389   0.516  14.785  1.00  0.00    -0.200 F 
ATOM     92  F   UNL     1     -12.398   1.998  15.876  1.00  0.00    -0.200 F 
ENDBRANCH  58  82
BRANCH  70  93
ATOM     93  C   UNL     1      -6.577  -1.401  23.640  1.00  0.00     0.064 A 
ATOM     94  C   UNL     1      -6.925  -2.575  22.951  1.00  0.00     0.173 A 
ATOM     95  C   UNL     1      -6.625  -1.436  25.040  1.00  0.00     0.173 A 
ATOM     96  F   UNL     1      -6.806  -2.656  21.619  1.00  0.00    -0.203 F 
ATOM     97  C   UNL     1      -7.351  -3.714  23.634  1.00  0.00     0.198 A 
ATOM     98  C   UNL     1      -7.013  -2.586  25.721  1.00  0.00     0.198 A 
ATOM     99  F   UNL     1      -6.251  -0.362  25.752  1.00  0.00    -0.203 F 
ATOM    100  F   UNL     1      -7.695  -4.817  22.953  1.00  0.00    -0.200 F 
ATOM    101  C   UNL     1      -7.388  -3.720  25.018  1.00  0.00     0.200 A 
ATOM    102  F   UNL     1      -6.999  -2.602  27.061  1.00  0.00    -0.200 F 
ATOM    103  F   UNL     1      -7.759  -4.826  25.678  1.00  0.00    -0.200 F 
ENDBRANCH  70  93
ENDBRANCH  44  45
ENDBRANCH  37  39
ENDBRANCH  36  37
ENDBRANCH  35  36
ENDBRANCH  34  35
ENDBRANCH  33  34
ENDBRANCH  32  33
ENDBRANCH  31  32
ENDBRANCH  30  31
ENDBRANCH   1  30
TORSDOF 24
