REMARK SMILES Cc1ccc(-c2cc([C@@H](C)C(=O)OCCOCCOCCOCCOC(=O)c3ccc(-c4c5nc(c(-c6c(F)c(F)c(F)c(F)c6F)c6ccc([nH]6)c(-c6c(F)c(F)c(F)c(F)c6F)c6nc(c(-c7c(F)c(F)c(F)c(F)c7F)c7ccc4[nH]7)C=C6)C=C5)cc3)ccc2C[C@H]2CCCC2=O)cc1
REMARK SMILES IDX 18 1 17 2 16 3 15 4 14 5 13 6 11 7 12 8 9 9 10 10 8 11 6 12
REMARK SMILES IDX 7 13 93 14 92 15 91 16 5 17 1 18 2 19 3 20 102 21 4 22
REMARK SMILES IDX 101 23 94 24 95 25 96 26 99 27 97 28 98 29 100 30 19 31
REMARK SMILES IDX 20 32 21 33 22 34 23 35 24 36 25 37 26 38 27 39 28 40 29 41
REMARK SMILES IDX 90 42 30 43 89 44 31 45 32 46 33 47 83 48 34 49 88 50 82 51
REMARK SMILES IDX 84 52 35 53 87 54 81 55 80 56 36 58 68 59 48 60 67 61 49 62
REMARK SMILES IDX 52 63 66 64 85 65 50 66 51 67 65 69 86 70 53 71 37 72 38 73
REMARK SMILES IDX 46 74 39 75 40 76 44 77 47 78 41 79 42 80 45 81 43 82 69 83
REMARK SMILES IDX 70 84 78 85 71 86 72 87 76 88 79 89 73 90 74 91 77 92 75 93
REMARK SMILES IDX 54 94 55 95 63 96 56 97 57 98 61 99 64 100 58 101 59 102
REMARK SMILES IDX 62 103 60 104
REMARK H PARENT 84 57 52 68
REMARK Flexibility Score: inf
ROOT
ATOM      1  C   UNL     1      -4.105   2.561  -0.230  1.00  0.00     0.188 C 
ENDROOT
BRANCH   1   2
ATOM      2  C   UNL     1      -3.861   3.362  -1.505  1.00  0.00     0.188 C 
BRANCH   2   3
ATOM      3  O   UNL     1      -4.631   4.533  -1.706  1.00  0.00    -0.376 OA
BRANCH   3   4
ATOM      4  C   UNL     1      -6.011   4.306  -1.972  1.00  0.00     0.202 C 
BRANCH   4   5
ATOM      5  C   UNL     1      -6.330   3.437  -3.185  1.00  0.00     0.261 C 
BRANCH   5   6
ATOM      6  O   UNL     1      -6.203   2.030  -2.898  1.00  0.00    -0.463 OA
BRANCH   6   7
ATOM      7  C   UNL     1      -5.403   1.319  -3.724  1.00  0.00     0.313 C 
ATOM      8  O   UNL     1      -4.795   1.798  -4.685  1.00  0.00    -0.252 OA
BRANCH   7   9
ATOM      9  C   UNL     1      -5.324  -0.155  -3.367  1.00  0.00     0.126 C 
ATOM     10  C   UNL     1      -6.609  -0.853  -3.811  1.00  0.00     0.025 C 
BRANCH   9  11
ATOM     11  C   UNL     1      -4.821  -0.471  -1.957  1.00  0.00    -0.033 A 
ATOM     12  C   UNL     1      -2.876  -0.690  -0.426  1.00  0.00    -0.015 A 
ATOM     13  C   UNL     1      -3.441  -0.406  -1.702  1.00  0.00     0.013 A 
ATOM     14  C   UNL     1      -3.712  -1.124   0.637  1.00  0.00    -0.039 A 
ATOM     15  C   UNL     1      -5.097  -1.163   0.386  1.00  0.00     0.004 A 
ATOM     16  C   UNL     1      -5.638  -0.832  -0.880  1.00  0.00     0.005 A 
BRANCH  12  17
ATOM     17  C   UNL     1      -1.429  -0.478  -0.276  1.00  0.00    -0.018 A 
ATOM     18  C   UNL     1       2.835   0.106   0.041  1.00  0.00     0.044 C 
ATOM     19  C   UNL     1       1.353  -0.080  -0.060  1.00  0.00    -0.051 A 
ATOM     20  C   UNL     1       0.823  -1.369  -0.186  1.00  0.00     0.004 A 
ATOM     21  C   UNL     1       0.488   1.014  -0.041  1.00  0.00     0.004 A 
ATOM     22  C   UNL     1      -0.552  -1.563  -0.308  1.00  0.00     0.009 A 
ATOM     23  C   UNL     1      -0.888   0.814  -0.146  1.00  0.00     0.009 A 
ENDBRANCH  12  17
BRANCH  14  24
ATOM     24  C   UNL     1      -3.146  -1.762   1.906  1.00  0.00     0.047 C 
BRANCH  24  25
ATOM     25  C   UNL     1      -3.315  -1.247   3.342  1.00  0.00     0.060 C 
ATOM     26  C   UNL     1      -2.788   0.147   3.673  1.00  0.00     0.012 C 
ATOM     27  C   UNL     1      -4.741  -1.213   3.847  1.00  0.00     0.136 C 
ATOM     28  C   UNL     1      -4.035   0.990   3.775  1.00  0.00     0.009 C 
ATOM     29  C   UNL     1      -5.121   0.135   4.389  1.00  0.00     0.076 C 
ATOM     30  O   UNL     1      -5.484  -2.185   3.870  1.00  0.00    -0.299 OA
ENDBRANCH  24  25
ENDBRANCH  14  24
ENDBRANCH   9  11
ENDBRANCH   7   9
ENDBRANCH   6   7
ENDBRANCH   5   6
ENDBRANCH   4   5
ENDBRANCH   3   4
ENDBRANCH   2   3
ENDBRANCH   1   2
BRANCH   1  31
ATOM     31  O   UNL     1      -5.443   2.340   0.140  1.00  0.00    -0.377 OA
BRANCH  31  32
ATOM     32  C   UNL     1      -5.831   2.769   1.432  1.00  0.00     0.188 C 
BRANCH  32  33
ATOM     33  C   UNL     1      -4.889   3.632   2.251  1.00  0.00     0.188 C 
BRANCH  33  34
ATOM     34  O   UNL     1      -4.499   4.777   1.508  1.00  0.00    -0.376 OA
BRANCH  34  35
ATOM     35  C   UNL     1      -3.228   5.302   1.885  1.00  0.00     0.202 C 
BRANCH  35  36
ATOM     36  C   UNL     1      -3.169   5.705   3.364  1.00  0.00     0.261 C 
BRANCH  36  37
ATOM     37  O   UNL     1      -4.179   6.708   3.617  1.00  0.00    -0.460 OA
BRANCH  37  38
ATOM     38  C   UNL     1      -5.293   6.271   4.274  1.00  0.00     0.338 C 
ATOM     39  O   UNL     1      -5.282   5.612   5.300  1.00  0.00    -0.246 OA
BRANCH  38  40
ATOM     40  C   UNL     1      -6.507   6.403   3.396  1.00  0.00     0.060 A 
ATOM     41  C   UNL     1      -7.707   5.761   3.758  1.00  0.00     0.016 A 
ATOM     42  C   UNL     1      -6.317   6.767   2.073  1.00  0.00     0.016 A 
ATOM     43  C   UNL     1      -8.614   5.314   2.771  1.00  0.00     0.010 A 
ATOM     44  C   UNL     1      -7.127   6.183   1.113  1.00  0.00     0.010 A 
ATOM     45  C   UNL     1      -8.282   5.436   1.425  1.00  0.00    -0.014 A 
BRANCH  45  46
ATOM     46  C   UNL     1      -8.912   4.737   0.266  1.00  0.00     0.031 A 
ATOM     47  C   UNL     1      -9.069   5.521  -1.016  1.00  0.00     0.074 A 
ATOM     48  C   UNL     1      -8.980   3.376   0.215  1.00  0.00     0.049 A 
ATOM     49  N   UNL     1      -9.321   5.033  -2.185  1.00  0.00    -0.248 NA
ATOM     50  C   UNL     1      -8.915   6.973  -1.071  1.00  0.00     0.031 C 
ATOM     51  C   UNL     1      -8.787   2.561  -0.989  1.00  0.00     0.029 A 
ATOM     52  N   UNL     1      -9.103   2.400   1.215  1.00  0.00    -0.354 N 
ATOM     53  C   UNL     1      -9.098   6.002  -3.150  1.00  0.00     0.074 A 
ATOM     54  C   UNL     1      -8.889   7.205  -2.387  1.00  0.00     0.031 C 
ATOM     55  C   UNL     1      -8.870   1.256  -0.710  1.00  0.00     0.029 A 
ATOM     56  C   UNL     1      -9.457   1.171   0.594  1.00  0.00     0.049 A 
ATOM     57  H   UNL     1      -8.967   2.541   2.180  1.00  0.00     0.167 HD
ATOM     58  C   UNL     1      -9.033   5.625  -4.469  1.00  0.00     0.037 A 
ATOM     59  C   UNL     1     -10.708   0.650   0.787  1.00  0.00     0.037 A 
ATOM     60  C   UNL     1      -9.521   4.231  -4.649  1.00  0.00     0.049 A 
ATOM     61  C   UNL     1     -11.633   0.817  -0.421  1.00  0.00     0.074 A 
ATOM     62  C   UNL     1      -9.065   3.067  -5.253  1.00  0.00     0.029 A 
ATOM     63  N   UNL     1     -10.672   3.837  -3.964  1.00  0.00    -0.354 N 
ATOM     64  N   UNL     1     -11.264   1.297  -1.586  1.00  0.00    -0.248 NA
ATOM     65  C   UNL     1     -13.057   0.510  -0.400  1.00  0.00     0.031 C 
ATOM     66  C   UNL     1      -9.945   1.991  -4.908  1.00  0.00     0.029 A 
ATOM     67  C   UNL     1     -10.973   2.503  -4.140  1.00  0.00     0.049 A 
ATOM     68  H   UNL     1     -11.212   4.449  -3.413  1.00  0.00     0.167 HD
ATOM     69  C   UNL     1     -12.342   1.456  -2.412  1.00  0.00     0.074 A 
ATOM     70  C   UNL     1     -13.448   0.951  -1.610  1.00  0.00     0.031 C 
ATOM     71  C   UNL     1     -12.262   2.019  -3.663  1.00  0.00     0.037 A 
BRANCH  58  72
ATOM     72  C   UNL     1      -8.416   6.451  -5.624  1.00  0.00     0.064 A 
ATOM     73  C   UNL     1      -8.339   5.919  -6.937  1.00  0.00     0.173 A 
ATOM     74  C   UNL     1      -7.805   7.723  -5.514  1.00  0.00     0.173 A 
ATOM     75  F   UNL     1      -8.925   4.760  -7.258  1.00  0.00    -0.203 F 
ATOM     76  C   UNL     1      -7.665   6.555  -7.995  1.00  0.00     0.198 A 
ATOM     77  C   UNL     1      -7.170   8.380  -6.583  1.00  0.00     0.198 A 
ATOM     78  F   UNL     1      -7.766   8.406  -4.372  1.00  0.00    -0.203 F 
ATOM     79  F   UNL     1      -7.590   5.955  -9.192  1.00  0.00    -0.200 F 
ATOM     80  C   UNL     1      -7.080   7.787  -7.819  1.00  0.00     0.200 A 
ATOM     81  F   UNL     1      -6.635   9.595  -6.389  1.00  0.00    -0.200 F 
ATOM     82  F   UNL     1      -6.444   8.400  -8.827  1.00  0.00    -0.200 F 
ENDBRANCH  58  72
BRANCH  59  83
ATOM     83  C   UNL     1     -11.009   0.639   2.257  1.00  0.00     0.064 A 
ATOM     84  C   UNL     1     -10.172  -0.231   2.998  1.00  0.00     0.173 A 
ATOM     85  C   UNL     1     -11.390   1.841   2.875  1.00  0.00     0.173 A 
ATOM     86  F   UNL     1      -9.815  -1.415   2.473  1.00  0.00    -0.203 F 
ATOM     87  C   UNL     1      -9.499   0.219   4.133  1.00  0.00     0.198 A 
ATOM     88  C   UNL     1     -10.725   2.277   4.028  1.00  0.00     0.198 A 
ATOM     89  F   UNL     1     -12.198   2.698   2.234  1.00  0.00    -0.203 F 
ATOM     90  F   UNL     1      -8.524  -0.524   4.675  1.00  0.00    -0.200 F 
ATOM     91  C   UNL     1      -9.731   1.498   4.607  1.00  0.00     0.200 A 
ATOM     92  F   UNL     1     -10.934   3.519   4.489  1.00  0.00    -0.200 F 
ATOM     93  F   UNL     1      -8.941   2.013   5.562  1.00  0.00    -0.200 F 
ENDBRANCH  59  83
BRANCH  71  94
ATOM     94  C   UNL     1     -13.463   2.283  -4.546  1.00  0.00     0.064 A 
ATOM     95  C   UNL     1     -14.582   1.446  -4.580  1.00  0.00     0.173 A 
ATOM     96  C   UNL     1     -13.520   3.402  -5.416  1.00  0.00     0.173 A 
ATOM     97  F   UNL     1     -14.554   0.237  -4.003  1.00  0.00    -0.203 F 
ATOM     98  C   UNL     1     -15.756   1.820  -5.236  1.00  0.00     0.198 A 
ATOM     99  C   UNL     1     -14.670   3.743  -6.120  1.00  0.00     0.198 A 
ATOM    100  F   UNL     1     -12.476   4.217  -5.612  1.00  0.00    -0.203 F 
ATOM    101  F   UNL     1     -16.846   1.049  -5.126  1.00  0.00    -0.200 F 
ATOM    102  C   UNL     1     -15.807   2.982  -5.984  1.00  0.00     0.200 A 
ATOM    103  F   UNL     1     -14.669   4.828  -6.908  1.00  0.00    -0.200 F 
ATOM    104  F   UNL     1     -16.944   3.357  -6.584  1.00  0.00    -0.200 F 
ENDBRANCH  71  94
ENDBRANCH  45  46
ENDBRANCH  38  40
ENDBRANCH  37  38
ENDBRANCH  36  37
ENDBRANCH  35  36
ENDBRANCH  34  35
ENDBRANCH  33  34
ENDBRANCH  32  33
ENDBRANCH  31  32
ENDBRANCH   1  31
TORSDOF 24
