REMARK SMILES C[C@@H]1[C@H](C(=O)OCCOCCOCCOCCOC(=O)c2ccc(-c3c4nc(c(-c5c(F)c(F)c(F)c(F)c5F)c5ccc([nH]5)c(-c5c(F)c(F)c(F)c(F)c5F)c5nc(c(-c6c(F)c(F)c(F)c(F)c6F)c6ccc3[nH]6)C=C5)C=C4)cc2)[C@@H](C)CC(=O)N1CC(C)(C)S(C)(=O)=O
REMARK SMILES IDX 11 1 10 2 9 3 8 4 7 5 6 6 4 7 5 8 3 9 1 10 2 11 89 12 84 13
REMARK SMILES IDX 87 14 86 15 85 16 88 17 90 18 91 19 92 20 93 21 94 22 95 23
REMARK SMILES IDX 96 24 97 25 12 26 13 27 14 28 15 29 16 30 17 31 18 32 19 33
REMARK SMILES IDX 20 34 21 35 22 36 83 37 23 38 82 39 24 40 25 41 26 42 76 43
REMARK SMILES IDX 27 44 81 45 75 46 77 47 28 48 80 49 74 50 73 51 29 53 61 54
REMARK SMILES IDX 41 55 60 56 42 57 45 58 59 59 78 60 43 61 44 62 58 64 79 65
REMARK SMILES IDX 46 66 30 67 31 68 39 69 32 70 33 71 37 72 40 73 34 74 35 75
REMARK SMILES IDX 38 76 36 77 62 78 63 79 71 80 64 81 65 82 69 83 72 84 66 85
REMARK SMILES IDX 67 86 70 87 68 88 47 89 48 90 56 91 49 92 50 93 54 94 57 95
REMARK SMILES IDX 51 96 52 97 55 98 53 99
REMARK H PARENT 77 52 45 63
REMARK Flexibility Score: inf
ROOT
ATOM      1  C   UNL     1       1.043  -2.640   2.333  1.00  0.00     0.188 C 
ENDROOT
BRANCH   1   2
ATOM      2  C   UNL     1      -0.042  -3.687   2.611  1.00  0.00     0.188 C 
BRANCH   2   3
ATOM      3  O   UNL     1      -0.118  -4.809   1.768  1.00  0.00    -0.376 OA
BRANCH   3   4
ATOM      4  C   UNL     1      -0.641  -4.768   0.454  1.00  0.00     0.202 C 
BRANCH   4   5
ATOM      5  C   UNL     1      -1.268  -3.564  -0.275  1.00  0.00     0.261 C 
BRANCH   5   6
ATOM      6  O   UNL     1      -0.828  -2.237   0.032  1.00  0.00    -0.463 OA
BRANCH   6   7
ATOM      7  C   UNL     1      -1.622  -1.554   0.881  1.00  0.00     0.311 C 
ATOM      8  O   UNL     1      -2.568  -2.069   1.474  1.00  0.00    -0.252 OA
BRANCH   7   9
ATOM      9  C   UNL     1      -1.334  -0.062   1.019  1.00  0.00     0.125 C 
ATOM     10  C   UNL     1       0.710   0.296  -0.567  1.00  0.00     0.032 C 
ATOM     11  C   UNL     1       0.094   0.514   0.817  1.00  0.00     0.096 C 
ATOM     12  N   UNL     1       0.125   1.979   1.151  1.00  0.00    -0.338 N 
ATOM     13  C   UNL     1      -2.350   0.744   0.196  1.00  0.00     0.011 C 
ATOM     14  C   UNL     1      -0.914   2.812   0.741  1.00  0.00     0.223 C 
ATOM     15  C   UNL     1      -2.285   2.188   0.658  1.00  0.00     0.104 C 
ATOM     16  C   UNL     1      -3.802   0.270   0.366  1.00  0.00     0.009 C 
ATOM     17  O   UNL     1      -0.837   4.035   0.685  1.00  0.00    -0.275 OA
BRANCH  12  18
ATOM     18  C   UNL     1       1.081   2.494   2.154  1.00  0.00     0.142 C 
BRANCH  18  19
ATOM     19  C   UNL     1       2.174   3.575   1.869  1.00  0.00     0.084 C 
ATOM     20  C   UNL     1       1.659   4.888   1.263  1.00  0.00     0.030 C 
ATOM     21  C   UNL     1       2.793   3.955   3.241  1.00  0.00     0.030 C 
BRANCH  19  22
ATOM     22  S   UNL     1       3.511   2.961   0.789  1.00  0.00     0.154 S 
ATOM     23  C   UNL     1       4.210   1.547   1.611  1.00  0.00     0.158 C 
ATOM     24  O   UNL     1       2.942   2.495  -0.459  1.00  0.00    -0.229 OA
ATOM     25  O   UNL     1       4.564   3.962   0.761  1.00  0.00    -0.229 OA
ENDBRANCH  19  22
ENDBRANCH  18  19
ENDBRANCH  12  18
ENDBRANCH   7   9
ENDBRANCH   6   7
ENDBRANCH   5   6
ENDBRANCH   4   5
ENDBRANCH   3   4
ENDBRANCH   2   3
ENDBRANCH   1   2
BRANCH   1  26
ATOM     26  O   UNL     1       1.583  -2.579   1.027  1.00  0.00    -0.377 OA
BRANCH  26  27
ATOM     27  C   UNL     1       2.441  -3.623   0.569  1.00  0.00     0.188 C 
BRANCH  27  28
ATOM     28  C   UNL     1       2.819  -4.809   1.480  1.00  0.00     0.188 C 
BRANCH  28  29
ATOM     29  O   UNL     1       2.876  -4.499   2.861  1.00  0.00    -0.376 OA
BRANCH  29  30
ATOM     30  C   UNL     1       4.137  -4.194   3.436  1.00  0.00     0.202 C 
BRANCH  30  31
ATOM     31  C   UNL     1       4.886  -2.971   2.885  1.00  0.00     0.261 C 
BRANCH  31  32
ATOM     32  O   UNL     1       5.242  -3.015   1.494  1.00  0.00    -0.460 OA
BRANCH  32  33
ATOM     33  C   UNL     1       6.002  -4.051   1.073  1.00  0.00     0.338 C 
ATOM     34  O   UNL     1       6.481  -4.937   1.748  1.00  0.00    -0.246 OA
BRANCH  33  35
ATOM     35  C   UNL     1       6.003  -4.034  -0.405  1.00  0.00     0.060 A 
ATOM     36  C   UNL     1       5.462  -5.125  -1.098  1.00  0.00     0.016 A 
ATOM     37  C   UNL     1       6.553  -2.954  -1.097  1.00  0.00     0.016 A 
ATOM     38  C   UNL     1       5.507  -5.157  -2.491  1.00  0.00     0.010 A 
ATOM     39  C   UNL     1       6.617  -2.998  -2.492  1.00  0.00     0.010 A 
ATOM     40  C   UNL     1       6.129  -4.116  -3.192  1.00  0.00    -0.014 A 
BRANCH  40  41
ATOM     41  C   UNL     1       6.457  -4.291  -4.627  1.00  0.00     0.031 A 
ATOM     42  C   UNL     1       7.849  -4.729  -4.990  1.00  0.00     0.074 A 
ATOM     43  C   UNL     1       5.539  -4.088  -5.587  1.00  0.00     0.049 A 
ATOM     44  N   UNL     1       8.394  -4.888  -6.169  1.00  0.00    -0.248 NA
ATOM     45  C   UNL     1       8.751  -5.025  -3.865  1.00  0.00     0.031 C 
ATOM     46  C   UNL     1       4.146  -3.712  -5.359  1.00  0.00     0.029 A 
ATOM     47  N   UNL     1       5.651  -4.160  -6.954  1.00  0.00    -0.354 N 
ATOM     48  C   UNL     1       9.701  -5.292  -5.927  1.00  0.00     0.074 A 
ATOM     49  C   UNL     1       9.878  -5.323  -4.492  1.00  0.00     0.031 C 
ATOM     50  C   UNL     1       3.534  -3.571  -6.548  1.00  0.00     0.029 A 
ATOM     51  C   UNL     1       4.503  -3.809  -7.618  1.00  0.00     0.049 A 
ATOM     52  H   UNL     1       6.477  -4.438  -7.413  1.00  0.00     0.167 HD
ATOM     53  C   UNL     1      10.664  -5.614  -6.823  1.00  0.00     0.037 A 
ATOM     54  C   UNL     1       4.273  -3.667  -8.939  1.00  0.00     0.037 A 
ATOM     55  C   UNL     1      10.484  -5.574  -8.250  1.00  0.00     0.049 A 
ATOM     56  C   UNL     1       5.390  -3.945  -9.916  1.00  0.00     0.074 A 
ATOM     57  C   UNL     1      11.392  -5.894  -9.243  1.00  0.00     0.029 A 
ATOM     58  N   UNL     1       9.316  -5.177  -8.887  1.00  0.00    -0.354 N 
ATOM     59  N   UNL     1       6.615  -4.350  -9.684  1.00  0.00    -0.248 NA
ATOM     60  C   UNL     1       5.087  -3.747 -11.341  1.00  0.00     0.031 C 
ATOM     61  C   UNL     1      10.796  -5.628 -10.480  1.00  0.00     0.029 A 
ATOM     62  C   UNL     1       9.492  -5.214 -10.261  1.00  0.00     0.049 A 
ATOM     63  H   UNL     1       8.486  -4.910  -8.430  1.00  0.00     0.167 HD
ATOM     64  C   UNL     1       7.217  -4.487 -10.930  1.00  0.00     0.074 A 
ATOM     65  C   UNL     1       6.217  -4.136 -11.915  1.00  0.00     0.031 C 
ATOM     66  C   UNL     1       8.482  -4.872 -11.231  1.00  0.00     0.037 A 
BRANCH  53  67
ATOM     67  C   UNL     1      12.011  -6.003  -6.283  1.00  0.00     0.064 A 
ATOM     68  C   UNL     1      12.213  -7.205  -5.588  1.00  0.00     0.173 A 
ATOM     69  C   UNL     1      13.121  -5.169  -6.486  1.00  0.00     0.173 A 
ATOM     70  F   UNL     1      11.182  -8.031  -5.353  1.00  0.00    -0.203 F 
ATOM     71  C   UNL     1      13.469  -7.543  -5.091  1.00  0.00     0.198 A 
ATOM     72  C   UNL     1      14.383  -5.527  -6.018  1.00  0.00     0.198 A 
ATOM     73  F   UNL     1      12.986  -4.009  -7.145  1.00  0.00    -0.203 F 
ATOM     74  F   UNL     1      13.627  -8.670  -4.383  1.00  0.00    -0.200 F 
ATOM     75  C   UNL     1      14.554  -6.708  -5.313  1.00  0.00     0.200 A 
ATOM     76  F   UNL     1      15.432  -4.725  -6.246  1.00  0.00    -0.200 F 
ATOM     77  F   UNL     1      15.764  -7.039  -4.840  1.00  0.00    -0.200 F 
ENDBRANCH  53  67
BRANCH  54  78
ATOM     78  C   UNL     1       2.937  -3.225  -9.422  1.00  0.00     0.064 A 
ATOM     79  C   UNL     1       2.121  -4.079 -10.176  1.00  0.00     0.173 A 
ATOM     80  C   UNL     1       2.461  -1.931  -9.164  1.00  0.00     0.173 A 
ATOM     81  F   UNL     1       2.541  -5.318 -10.473  1.00  0.00    -0.203 F 
ATOM     82  C   UNL     1       0.891  -3.649 -10.672  1.00  0.00     0.198 A 
ATOM     83  C   UNL     1       1.217  -1.513  -9.631  1.00  0.00     0.198 A 
ATOM     84  F   UNL     1       3.204  -1.072  -8.450  1.00  0.00    -0.203 F 
ATOM     85  F   UNL     1       0.155  -4.469 -11.435  1.00  0.00    -0.200 F 
ATOM     86  C   UNL     1       0.437  -2.369 -10.393  1.00  0.00     0.200 A 
ATOM     87  F   UNL     1       0.777  -0.280  -9.348  1.00  0.00    -0.200 F 
ATOM     88  F   UNL     1      -0.747  -1.958 -10.867  1.00  0.00    -0.200 F 
ENDBRANCH  54  78
BRANCH  66  89
ATOM     89  C   UNL     1       8.848  -4.985 -12.685  1.00  0.00     0.064 A 
ATOM     90  C   UNL     1       8.986  -3.856 -13.506  1.00  0.00     0.173 A 
ATOM     91  C   UNL     1       9.112  -6.242 -13.252  1.00  0.00     0.173 A 
ATOM     92  F   UNL     1       8.734  -2.631 -13.019  1.00  0.00    -0.203 F 
ATOM     93  C   UNL     1       9.345  -3.983 -14.846  1.00  0.00     0.198 A 
ATOM     94  C   UNL     1       9.506  -6.363 -14.582  1.00  0.00     0.198 A 
ATOM     95  F   UNL     1       9.006  -7.355 -12.511  1.00  0.00    -0.203 F 
ATOM     96  F   UNL     1       9.418  -2.895 -15.625  1.00  0.00    -0.200 F 
ATOM     97  C   UNL     1       9.613  -5.235 -15.380  1.00  0.00     0.200 A 
ATOM     98  F   UNL     1       9.784  -7.572 -15.090  1.00  0.00    -0.200 F 
ATOM     99  F   UNL     1       9.969  -5.354 -16.667  1.00  0.00    -0.200 F 
ENDBRANCH  66  89
ENDBRANCH  40  41
ENDBRANCH  33  35
ENDBRANCH  32  33
ENDBRANCH  31  32
ENDBRANCH  30  31
ENDBRANCH  29  30
ENDBRANCH  28  29
ENDBRANCH  27  28
ENDBRANCH  26  27
ENDBRANCH   1  26
TORSDOF 23
