REMARK SMILES CC(C)[NH2+][C@]1(C(=O)OCCOCCOCCOCCOC(=O)c2ccc(-c3c4nc(c(-c5c(F)c(F)c(F)c(F)c5F)c5ccc([nH]5)c(-c5c(F)c(F)c(F)c(F)c5F)c5nc(c(-c6c(F)c(F)c(F)c(F)c6F)c6ccc3[nH]6)C=C5)C=C4)cc2)CCC[C@H]([N@H+](C)C2CCCCC2)C1
REMARK SMILES IDX 14 1 13 2 12 3 11 4 10 5 9 6 8 7 6 8 7 9 5 10 86 11 98 12
REMARK SMILES IDX 87 13 89 14 88 15 4 16 2 19 1 20 3 21 90 22 91 23 92 25
REMARK SMILES IDX 93 26 97 27 94 28 96 29 95 30 15 31 16 32 17 33 18 34 19 35
REMARK SMILES IDX 20 36 21 37 22 38 23 39 24 40 85 41 25 42 84 43 26 44 27 45
REMARK SMILES IDX 28 46 78 47 29 48 83 49 77 50 79 51 30 52 82 53 76 54 75 55
REMARK SMILES IDX 31 57 63 58 43 59 62 60 44 61 47 62 61 63 80 64 45 65 46 66
REMARK SMILES IDX 60 68 81 69 48 70 32 71 33 72 41 73 34 74 35 75 39 76 42 77
REMARK SMILES IDX 36 78 37 79 40 80 38 81 64 82 65 83 73 84 66 85 67 86 71 87
REMARK SMILES IDX 74 88 68 89 69 90 72 91 70 92 49 93 50 94 58 95 51 96 52 97
REMARK SMILES IDX 56 98 59 99 53 100 54 101 57 102 55 103
REMARK H PARENT 4 17 4 18 90 24 79 56 47 67
REMARK Flexibility Score: inf
ROOT
ATOM      1  O   UNL     1       2.422  -1.008  -1.044  1.00  0.00    -0.377 OA
ENDROOT
BRANCH   1   2
ATOM      2  C   UNL     1       1.130  -0.537  -1.400  1.00  0.00     0.188 C 
BRANCH   2   3
ATOM      3  C   UNL     1       0.516   0.815  -0.983  1.00  0.00     0.188 C 
BRANCH   3   4
ATOM      4  O   UNL     1       0.806   1.116   0.368  1.00  0.00    -0.376 OA
BRANCH   4   5
ATOM      5  C   UNL     1      -0.276   1.082   1.288  1.00  0.00     0.202 C 
BRANCH   5   6
ATOM      6  C   UNL     1      -0.942  -0.284   1.571  1.00  0.00     0.261 C 
BRANCH   6   7
ATOM      7  O   UNL     1      -1.510  -0.917   0.404  1.00  0.00    -0.459 OA
BRANCH   7   8
ATOM      8  C   UNL     1      -2.846  -1.319   0.200  1.00  0.00     0.368 C 
ATOM      9  O   UNL     1      -3.777  -1.072   0.940  1.00  0.00    -0.245 OA
BRANCH   8  10
ATOM     10  C   UNL     1      -2.786  -2.203  -1.182  1.00  0.00     0.200 C 
ATOM     11  C   UNL     1      -2.197  -3.527  -0.562  1.00  0.00     0.081 C 
ATOM     12  C   UNL     1      -3.889  -2.679  -2.183  1.00  0.00     0.146 C 
ATOM     13  C   UNL     1      -2.133  -4.850  -1.356  1.00  0.00     0.013 C 
ATOM     14  C   UNL     1      -3.391  -3.800  -3.409  1.00  0.00     0.190 C 
ATOM     15  C   UNL     1      -2.965  -5.053  -2.628  1.00  0.00     0.065 C 
BRANCH  10  16
ATOM     16  N   UNL     1      -2.080  -1.154  -1.948  1.00  0.00    -0.330 N 
ATOM     17  H   UNL     1      -2.738  -0.390  -2.105  1.00  0.00     0.347 HD
ATOM     18  H   UNL     1      -1.269  -0.907  -1.382  1.00  0.00     0.347 HD
BRANCH  16  19
ATOM     19  C   UNL     1      -1.557  -1.532  -3.205  1.00  0.00     0.176 C 
ATOM     20  C   UNL     1      -1.313  -0.315  -4.112  1.00  0.00     0.075 C 
ATOM     21  C   UNL     1      -0.502  -2.626  -2.881  1.00  0.00     0.075 C 
ENDBRANCH  16  19
ENDBRANCH  10  16
BRANCH  14  22
ATOM     22  N   UNL     1      -2.806  -3.483  -4.956  1.00  0.00    -0.332 N 
ATOM     23  C   UNL     1      -3.841  -3.982  -5.880  1.00  0.00     0.333 C 
ATOM     24  H   UNL     1      -2.600  -2.493  -4.820  1.00  0.00     0.348 HD
BRANCH  22  25
ATOM     25  C   UNL     1      -1.368  -3.804  -5.583  1.00  0.00     0.184 C 
ATOM     26  C   UNL     1      -1.275  -3.958  -7.185  1.00  0.00     0.065 C 
ATOM     27  C   UNL     1      -0.167  -2.760  -5.560  1.00  0.00     0.065 C 
ATOM     28  C   UNL     1       0.162  -4.259  -7.789  1.00  0.00     0.006 C 
ATOM     29  C   UNL     1       1.180  -3.471  -5.666  1.00  0.00     0.006 C 
ATOM     30  C   UNL     1       1.408  -3.630  -7.139  1.00  0.00     0.000 C 
ENDBRANCH  22  25
ENDBRANCH  14  22
ENDBRANCH   8  10
ENDBRANCH   7   8
ENDBRANCH   6   7
ENDBRANCH   5   6
ENDBRANCH   4   5
ENDBRANCH   3   4
ENDBRANCH   2   3
ENDBRANCH   1   2
BRANCH   1  31
ATOM     31  C   UNL     1       3.162  -0.205  -0.156  1.00  0.00     0.188 C 
BRANCH  31  32
ATOM     32  C   UNL     1       3.667   1.092  -0.805  1.00  0.00     0.188 C 
BRANCH  32  33
ATOM     33  O   UNL     1       3.002   1.379  -2.026  1.00  0.00    -0.376 OA
BRANCH  33  34
ATOM     34  C   UNL     1       3.672   1.222  -3.261  1.00  0.00     0.202 C 
BRANCH  34  35
ATOM     35  C   UNL     1       4.267  -0.133  -3.677  1.00  0.00     0.261 C 
BRANCH  35  36
ATOM     36  O   UNL     1       4.867  -0.928  -2.654  1.00  0.00    -0.460 OA
BRANCH  36  37
ATOM     37  C   UNL     1       6.077  -0.535  -2.191  1.00  0.00     0.338 C 
ATOM     38  O   UNL     1       6.715   0.433  -2.507  1.00  0.00    -0.246 OA
BRANCH  37  39
ATOM     39  C   UNL     1       6.397  -1.452  -1.074  1.00  0.00     0.060 A 
ATOM     40  C   UNL     1       6.481  -0.945   0.230  1.00  0.00     0.016 A 
ATOM     41  C   UNL     1       6.558  -2.815  -1.323  1.00  0.00     0.016 A 
ATOM     42  C   UNL     1       6.703  -1.809   1.301  1.00  0.00     0.010 A 
ATOM     43  C   UNL     1       6.839  -3.671  -0.261  1.00  0.00     0.010 A 
ATOM     44  C   UNL     1       6.932  -3.166   1.049  1.00  0.00    -0.014 A 
BRANCH  44  45
ATOM     45  C   UNL     1       7.553  -4.017   2.085  1.00  0.00     0.031 A 
ATOM     46  C   UNL     1       9.051  -4.106   2.078  1.00  0.00     0.074 A 
ATOM     47  C   UNL     1       6.822  -4.719   2.965  1.00  0.00     0.049 A 
ATOM     48  N   UNL     1       9.842  -4.914   2.729  1.00  0.00    -0.248 NA
ATOM     49  C   UNL     1       9.751  -3.155   1.195  1.00  0.00     0.031 C 
ATOM     50  C   UNL     1       5.370  -4.656   3.107  1.00  0.00     0.029 A 
ATOM     51  N   UNL     1       7.214  -5.652   3.892  1.00  0.00    -0.354 N 
ATOM     52  C   UNL     1      11.127  -4.580   2.324  1.00  0.00     0.074 A 
ATOM     53  C   UNL     1      11.013  -3.516   1.353  1.00  0.00     0.031 C 
ATOM     54  C   UNL     1       4.988  -5.537   4.049  1.00  0.00     0.029 A 
ATOM     55  C   UNL     1       6.164  -6.259   4.535  1.00  0.00     0.049 A 
ATOM     56  H   UNL     1       8.157  -5.864   4.079  1.00  0.00     0.167 HD
ATOM     57  C   UNL     1      12.300  -5.117   2.729  1.00  0.00     0.037 A 
ATOM     58  C   UNL     1       6.163  -7.307   5.383  1.00  0.00     0.037 A 
ATOM     59  C   UNL     1      12.397  -6.189   3.679  1.00  0.00     0.049 A 
ATOM     60  C   UNL     1       7.478  -7.964   5.737  1.00  0.00     0.074 A 
ATOM     61  C   UNL     1      13.531  -6.824   4.150  1.00  0.00     0.029 A 
ATOM     62  N   UNL     1      11.310  -6.790   4.298  1.00  0.00    -0.354 N 
ATOM     63  N   UNL     1       8.693  -7.653   5.353  1.00  0.00    -0.248 NA
ATOM     64  C   UNL     1       7.419  -9.124   6.640  1.00  0.00     0.031 C 
ATOM     65  C   UNL     1      13.127  -7.848   5.011  1.00  0.00     0.029 A 
ATOM     66  C   UNL     1      11.747  -7.801   5.135  1.00  0.00     0.049 A 
ATOM     67  H   UNL     1      10.369  -6.535   4.161  1.00  0.00     0.167 HD
ATOM     68  C   UNL     1       9.542  -8.538   6.006  1.00  0.00     0.074 A 
ATOM     69  C   UNL     1       8.704  -9.405   6.807  1.00  0.00     0.031 C 
ATOM     70  C   UNL     1      10.894  -8.622   5.956  1.00  0.00     0.037 A 
BRANCH  57  71
ATOM     71  C   UNL     1      13.556  -4.577   2.115  1.00  0.00     0.064 A 
ATOM     72  C   UNL     1      14.015  -3.280   2.394  1.00  0.00     0.173 A 
ATOM     73  C   UNL     1      14.321  -5.372   1.249  1.00  0.00     0.173 A 
ATOM     74  F   UNL     1      13.309  -2.471   3.198  1.00  0.00    -0.203 F 
ATOM     75  C   UNL     1      15.180  -2.792   1.808  1.00  0.00     0.198 A 
ATOM     76  C   UNL     1      15.504  -4.894   0.694  1.00  0.00     0.198 A 
ATOM     77  F   UNL     1      13.925  -6.618   0.946  1.00  0.00    -0.203 F 
ATOM     78  F   UNL     1      15.570  -1.533   2.046  1.00  0.00    -0.200 F 
ATOM     79  C   UNL     1      15.928  -3.602   0.967  1.00  0.00     0.200 A 
ATOM     80  F   UNL     1      16.232  -5.682  -0.109  1.00  0.00    -0.200 F 
ATOM     81  F   UNL     1      17.055  -3.135   0.412  1.00  0.00    -0.200 F 
ENDBRANCH  57  71
BRANCH  58  82
ATOM     82  C   UNL     1       4.886  -7.823   5.945  1.00  0.00     0.064 A 
ATOM     83  C   UNL     1       4.622  -7.748   7.320  1.00  0.00     0.173 A 
ATOM     84  C   UNL     1       3.924  -8.443   5.133  1.00  0.00     0.173 A 
ATOM     85  F   UNL     1       5.520  -7.188   8.144  1.00  0.00    -0.203 F 
ATOM     86  C   UNL     1       3.462  -8.297   7.864  1.00  0.00     0.198 A 
ATOM     87  C   UNL     1       2.749  -8.963   5.674  1.00  0.00     0.198 A 
ATOM     88  F   UNL     1       4.125  -8.547   3.811  1.00  0.00    -0.203 F 
ATOM     89  F   UNL     1       3.267  -8.266   9.190  1.00  0.00    -0.200 F 
ATOM     90  C   UNL     1       2.525  -8.900   7.040  1.00  0.00     0.200 A 
ATOM     91  F   UNL     1       1.840  -9.534   4.872  1.00  0.00    -0.200 F 
ATOM     92  F   UNL     1       1.412  -9.433   7.564  1.00  0.00    -0.200 F 
ENDBRANCH  58  82
BRANCH  70  93
ATOM     93  C   UNL     1      11.572  -9.618   6.852  1.00  0.00     0.064 A 
ATOM     94  C   UNL     1      11.525 -10.997   6.607  1.00  0.00     0.173 A 
ATOM     95  C   UNL     1      12.362  -9.167   7.923  1.00  0.00     0.173 A 
ATOM     96  F   UNL     1      10.777 -11.480   5.604  1.00  0.00    -0.203 F 
ATOM     97  C   UNL     1      12.233 -11.889   7.410  1.00  0.00     0.198 A 
ATOM     98  C   UNL     1      13.095 -10.057   8.700  1.00  0.00     0.198 A 
ATOM     99  F   UNL     1      12.449  -7.855   8.193  1.00  0.00    -0.203 F 
ATOM    100  F   UNL     1      12.147 -13.207   7.180  1.00  0.00    -0.200 F 
ATOM    101  C   UNL     1      13.026 -11.418   8.446  1.00  0.00     0.200 A 
ATOM    102  F   UNL     1      13.877  -9.598   9.687  1.00  0.00    -0.200 F 
ATOM    103  F   UNL     1      13.726 -12.277   9.200  1.00  0.00    -0.200 F 
ENDBRANCH  70  93
ENDBRANCH  44  45
ENDBRANCH  37  39
ENDBRANCH  36  37
ENDBRANCH  35  36
ENDBRANCH  34  35
ENDBRANCH  33  34
ENDBRANCH  32  33
ENDBRANCH  31  32
ENDBRANCH   1  31
TORSDOF 24
