REMARK SMILES Cc1nc2sc3c(c2c2nc(CCC(=O)OCCOCCOCCOCCOC(=O)c4ccc(-c5c6nc(c(-c7c(F)c(F)c(F)c(F)c7F)c7ccc([nH]7)c(-c7c(F)c(F)c(F)c(F)c7F)c7nc(c(-c8c(F)c(F)c(F)c(F)c8F)c8ccc5[nH]8)C=C7)C=C6)cc4)nn12)[C@@H](C)CCC3
REMARK SMILES IDX 22 1 21 2 20 3 19 4 18 5 17 6 16 7 14 8 15 9 13 10 12 11
REMARK SMILES IDX 11 12 1 13 2 14 3 15 95 16 4 17 9 18 94 19 5 20 8 21 10 22
REMARK SMILES IDX 6 23 7 24 100 25 96 26 99 27 97 28 98 29 23 30 24 31 25 32
REMARK SMILES IDX 26 33 27 34 28 35 29 36 30 37 31 38 32 39 93 40 33 41 92 42
REMARK SMILES IDX 34 43 35 44 36 45 86 46 37 47 91 48 85 49 87 50 38 51 90 52
REMARK SMILES IDX 84 53 83 54 39 56 71 57 51 58 70 59 52 60 55 61 69 62 88 63
REMARK SMILES IDX 53 64 54 65 68 67 89 68 56 69 40 70 41 71 49 72 42 73 43 74
REMARK SMILES IDX 47 75 50 76 44 77 45 78 48 79 46 80 72 81 73 82 81 83 74 84
REMARK SMILES IDX 75 85 79 86 82 87 76 88 77 89 80 90 78 91 57 92 58 93 66 94
REMARK SMILES IDX 59 95 60 96 64 97 67 98 61 99 62 100 65 101 63 102
REMARK H PARENT 87 55 55 66
REMARK Flexibility Score: inf
ROOT
ATOM      1  O   UNL     1       3.923   6.395   0.475  1.00  0.00    -0.377 OA
ENDROOT
BRANCH   1   2
ATOM      2  C   UNL     1       4.403   6.961  -0.725  1.00  0.00     0.188 C 
BRANCH   2   3
ATOM      3  C   UNL     1       3.703   8.039  -1.568  1.00  0.00     0.188 C 
BRANCH   3   4
ATOM      4  O   UNL     1       2.760   8.890  -0.958  1.00  0.00    -0.376 OA
BRANCH   4   5
ATOM      5  C   UNL     1       1.371   8.754  -1.254  1.00  0.00     0.202 C 
BRANCH   5   6
ATOM      6  C   UNL     1       0.916   7.973  -2.491  1.00  0.00     0.261 C 
BRANCH   6   7
ATOM      7  O   UNL     1       1.303   6.577  -2.445  1.00  0.00    -0.463 OA
BRANCH   7   8
ATOM      8  C   UNL     1       1.707   6.060  -3.630  1.00  0.00     0.306 C 
ATOM      9  O   UNL     1       1.733   6.701  -4.678  1.00  0.00    -0.252 OA
BRANCH   8  10
ATOM     10  C   UNL     1       2.113   4.605  -3.618  1.00  0.00     0.131 C 
BRANCH  10  11
ATOM     11  C   UNL     1       2.688   3.963  -2.368  1.00  0.00     0.091 C 
BRANCH  11  12
ATOM     12  C   UNL     1       1.715   3.487  -1.352  1.00  0.00     0.152 A 
ATOM     13  C   UNL     1       0.694  -0.208   0.179  1.00  0.00     0.090 C 
ATOM     14  C   UNL     1       0.198   1.121   0.655  1.00  0.00     0.131 A 
ATOM     15  N   UNL     1      -0.645   1.247   1.646  1.00  0.00    -0.222 NA
ATOM     16  N   UNL     1       0.707   2.220  -0.045  1.00  0.00    -0.199 N 
ATOM     17  C   UNL     1      -1.026   2.534   1.947  1.00  0.00     0.129 A 
ATOM     18  C   UNL     1       0.377   3.511   0.266  1.00  0.00     0.168 A 
ATOM     19  N   UNL     1       1.552   2.178  -1.096  1.00  0.00    -0.150 NA
ATOM     20  S   UNL     1      -2.172   2.849   3.173  1.00  0.00    -0.120 S 
ATOM     21  C   UNL     1      -0.607   3.719   1.354  1.00  0.00     0.060 A 
ATOM     22  N   UNL     1       1.023   4.335  -0.521  1.00  0.00    -0.211 NA
ATOM     23  C   UNL     1      -2.111   4.528   2.889  1.00  0.00     0.011 A 
ATOM     24  C   UNL     1      -1.232   4.890   1.879  1.00  0.00    -0.018 A 
ATOM     25  C   UNL     1      -2.975   5.477   3.660  1.00  0.00     0.047 C 
ATOM     26  C   UNL     1      -1.039   6.338   1.485  1.00  0.00     0.018 C 
ATOM     27  C   UNL     1      -2.369   6.882   3.621  1.00  0.00     0.006 C 
ATOM     28  C   UNL     1      -1.173   6.561  -0.018  1.00  0.00     0.013 C 
ATOM     29  C   UNL     1      -2.045   7.287   2.183  1.00  0.00     0.008 C 
ENDBRANCH  11  12
ENDBRANCH  10  11
ENDBRANCH   8  10
ENDBRANCH   7   8
ENDBRANCH   6   7
ENDBRANCH   5   6
ENDBRANCH   4   5
ENDBRANCH   3   4
ENDBRANCH   2   3
ENDBRANCH   1   2
BRANCH   1  30
ATOM     30  C   UNL     1       2.812   6.938   1.145  1.00  0.00     0.188 C 
BRANCH  30  31
ATOM     31  C   UNL     1       2.924   8.283   1.891  1.00  0.00     0.188 C 
BRANCH  31  32
ATOM     32  O   UNL     1       4.038   9.148   1.821  1.00  0.00    -0.376 OA
BRANCH  32  33
ATOM     33  C   UNL     1       5.394   8.754   1.760  1.00  0.00     0.202 C 
BRANCH  33  34
ATOM     34  C   UNL     1       5.944   7.473   2.386  1.00  0.00     0.261 C 
BRANCH  34  35
ATOM     35  O   UNL     1       5.002   6.678   3.065  1.00  0.00    -0.460 OA
BRANCH  35  36
ATOM     36  C   UNL     1       4.564   7.212   4.216  1.00  0.00     0.338 C 
ATOM     37  O   UNL     1       4.782   8.323   4.660  1.00  0.00    -0.246 OA
BRANCH  36  38
ATOM     38  C   UNL     1       3.882   6.149   4.955  1.00  0.00     0.060 A 
ATOM     39  C   UNL     1       3.219   6.550   6.113  1.00  0.00     0.016 A 
ATOM     40  C   UNL     1       4.282   4.824   4.724  1.00  0.00     0.016 A 
ATOM     41  C   UNL     1       3.217   5.682   7.174  1.00  0.00     0.010 A 
ATOM     42  C   UNL     1       4.313   3.971   5.793  1.00  0.00     0.010 A 
ATOM     43  C   UNL     1       3.872   4.456   7.021  1.00  0.00    -0.014 A 
BRANCH  43  44
ATOM     44  C   UNL     1       4.076   3.657   8.204  1.00  0.00     0.031 A 
ATOM     45  C   UNL     1       2.880   2.883   8.582  1.00  0.00     0.074 A 
ATOM     46  C   UNL     1       5.283   3.594   8.795  1.00  0.00     0.049 A 
ATOM     47  N   UNL     1       2.184   2.979   9.664  1.00  0.00    -0.248 NA
ATOM     48  C   UNL     1       2.288   2.012   7.552  1.00  0.00     0.031 C 
ATOM     49  C   UNL     1       6.559   4.119   8.299  1.00  0.00     0.029 A 
ATOM     50  N   UNL     1       5.641   2.944   9.931  1.00  0.00    -0.354 N 
ATOM     51  C   UNL     1       1.170   2.039   9.526  1.00  0.00     0.074 A 
ATOM     52  C   UNL     1       1.163   1.626   8.150  1.00  0.00     0.031 C 
ATOM     53  C   UNL     1       7.570   3.571   9.011  1.00  0.00     0.029 A 
ATOM     54  C   UNL     1       7.008   2.755  10.073  1.00  0.00     0.049 A 
ATOM     55  H   UNL     1       4.986   2.633  10.598  1.00  0.00     0.167 HD
ATOM     56  C   UNL     1       0.600   1.467  10.617  1.00  0.00     0.037 A 
ATOM     57  C   UNL     1       7.598   1.895  10.941  1.00  0.00     0.037 A 
ATOM     58  C   UNL     1       0.802   2.266  11.794  1.00  0.00     0.049 A 
ATOM     59  C   UNL     1       6.591   1.570  11.987  1.00  0.00     0.074 A 
ATOM     60  C   UNL     1       0.425   3.541  12.168  1.00  0.00     0.029 A 
ATOM     61  N   UNL     1       1.808   1.898  12.652  1.00  0.00    -0.354 N 
ATOM     62  N   UNL     1       6.140   2.427  12.862  1.00  0.00    -0.248 NA
ATOM     63  C   UNL     1       5.754   0.396  11.780  1.00  0.00     0.031 C 
ATOM     64  C   UNL     1       1.511   4.040  12.942  1.00  0.00     0.029 A 
ATOM     65  C   UNL     1       2.473   3.033  13.039  1.00  0.00     0.049 A 
ATOM     66  H   UNL     1       2.017   0.980  12.938  1.00  0.00     0.167 HD
ATOM     67  C   UNL     1       4.794   2.118  13.003  1.00  0.00     0.074 A 
ATOM     68  C   UNL     1       4.638   0.803  12.391  1.00  0.00     0.031 C 
ATOM     69  C   UNL     1       3.886   3.080  13.341  1.00  0.00     0.037 A 
BRANCH  56  70
ATOM     70  C   UNL     1       0.200   0.017  10.665  1.00  0.00     0.064 A 
ATOM     71  C   UNL     1      -0.537  -0.453  11.766  1.00  0.00     0.173 A 
ATOM     72  C   UNL     1       0.743  -0.981   9.823  1.00  0.00     0.173 A 
ATOM     73  F   UNL     1      -1.062   0.406  12.653  1.00  0.00    -0.203 F 
ATOM     74  C   UNL     1      -0.674  -1.817  12.030  1.00  0.00     0.198 A 
ATOM     75  C   UNL     1       0.551  -2.340  10.055  1.00  0.00     0.198 A 
ATOM     76  F   UNL     1       1.577  -0.695   8.816  1.00  0.00    -0.203 F 
ATOM     77  F   UNL     1      -1.279  -2.217  13.157  1.00  0.00    -0.200 F 
ATOM     78  C   UNL     1      -0.133  -2.759  11.174  1.00  0.00     0.200 A 
ATOM     79  F   UNL     1       1.107  -3.234   9.225  1.00  0.00    -0.200 F 
ATOM     80  F   UNL     1      -0.220  -4.066  11.453  1.00  0.00    -0.200 F 
ENDBRANCH  56  70
BRANCH  57  81
ATOM     81  C   UNL     1       8.817   1.074  10.719  1.00  0.00     0.064 A 
ATOM     82  C   UNL     1       9.434   0.399  11.786  1.00  0.00     0.173 A 
ATOM     83  C   UNL     1       9.249   0.715   9.426  1.00  0.00     0.173 A 
ATOM     84  F   UNL     1       9.051   0.642  13.048  1.00  0.00    -0.203 F 
ATOM     85  C   UNL     1      10.402  -0.589  11.571  1.00  0.00     0.198 A 
ATOM     86  C   UNL     1      10.223  -0.261   9.213  1.00  0.00     0.198 A 
ATOM     87  F   UNL     1       8.670   1.230   8.333  1.00  0.00    -0.203 F 
ATOM     88  F   UNL     1      10.917  -1.258  12.612  1.00  0.00    -0.200 F 
ATOM     89  C   UNL     1      10.789  -0.924  10.285  1.00  0.00     0.200 A 
ATOM     90  F   UNL     1      10.562  -0.599   7.961  1.00  0.00    -0.200 F 
ATOM     91  F   UNL     1      11.672  -1.910  10.075  1.00  0.00    -0.200 F 
ENDBRANCH  57  81
BRANCH  69  92
ATOM     92  C   UNL     1       4.410   4.400  13.836  1.00  0.00     0.064 A 
ATOM     93  C   UNL     1       5.134   5.301  13.036  1.00  0.00     0.173 A 
ATOM     94  C   UNL     1       3.987   4.849  15.095  1.00  0.00     0.173 A 
ATOM     95  F   UNL     1       5.495   4.979  11.788  1.00  0.00    -0.203 F 
ATOM     96  C   UNL     1       5.434   6.586  13.488  1.00  0.00     0.198 A 
ATOM     97  C   UNL     1       4.255   6.144  15.527  1.00  0.00     0.198 A 
ATOM     98  F   UNL     1       3.248   4.048  15.878  1.00  0.00    -0.203 F 
ATOM     99  F   UNL     1       6.121   7.431  12.704  1.00  0.00    -0.200 F 
ATOM    100  C   UNL     1       4.981   7.011  14.726  1.00  0.00     0.200 A 
ATOM    101  F   UNL     1       3.770   6.567  16.702  1.00  0.00    -0.200 F 
ATOM    102  F   UNL     1       5.214   8.266  15.133  1.00  0.00    -0.200 F 
ENDBRANCH  69  92
ENDBRANCH  43  44
ENDBRANCH  36  38
ENDBRANCH  35  36
ENDBRANCH  34  35
ENDBRANCH  33  34
ENDBRANCH  32  33
ENDBRANCH  31  32
ENDBRANCH  30  31
ENDBRANCH   1  30
TORSDOF 22
