REMARK SMILES Cc1ccc(C)c(NC(=O)/C=C/C(=O)OCCOCCOCCOCCOC(=O)c2ccc(-c3c4nc(c(-c5c(F)c(F)c(F)c(F)c5F)c5ccc([nH]5)c(-c5c(F)c(F)c(F)c(F)c5F)c5nc(c(-c6c(F)c(F)c(F)c(F)c6F)c6ccc3[nH]6)C=C5)C=C4)cc2)c1
REMARK SMILES IDX 21 1 20 2 19 3 18 4 17 5 16 6 15 7 13 8 14 9 12 10 11 11
REMARK SMILES IDX 9 12 8 13 10 15 7 16 1 17 2 18 3 19 93 20 4 21 5 22 6 23
REMARK SMILES IDX 22 24 23 25 24 26 25 27 26 28 27 29 28 30 29 31 30 32 31 33
REMARK SMILES IDX 92 34 32 35 91 36 33 37 34 38 35 39 85 40 36 41 90 42 84 43
REMARK SMILES IDX 86 44 37 45 89 46 83 47 82 48 38 50 70 51 50 52 69 53 51 54
REMARK SMILES IDX 54 55 68 56 87 57 52 58 53 59 67 61 88 62 55 63 39 64 40 65
REMARK SMILES IDX 48 66 41 67 42 68 46 69 49 70 43 71 44 72 47 73 45 74 71 75
REMARK SMILES IDX 72 76 80 77 73 78 74 79 78 80 81 81 75 82 76 83 79 84 77 85
REMARK SMILES IDX 56 86 57 87 65 88 58 89 59 90 63 91 66 92 60 93 61 94 64 95
REMARK SMILES IDX 62 96
REMARK H PARENT 8 14 86 49 54 60
REMARK Flexibility Score: inf
ROOT
ATOM      1  O   UNL     1      -6.741   0.361  -3.684  1.00  0.00    -0.377 OA
ENDROOT
BRANCH   1   2
ATOM      2  C   UNL     1      -5.555   0.284  -2.917  1.00  0.00     0.188 C 
BRANCH   2   3
ATOM      3  C   UNL     1      -5.276  -0.893  -1.963  1.00  0.00     0.188 C 
BRANCH   3   4
ATOM      4  O   UNL     1      -6.321  -1.767  -1.595  1.00  0.00    -0.376 OA
BRANCH   4   5
ATOM      5  C   UNL     1      -7.130  -1.428  -0.481  1.00  0.00     0.202 C 
BRANCH   5   6
ATOM      6  C   UNL     1      -6.391  -0.915   0.758  1.00  0.00     0.261 C 
BRANCH   6   7
ATOM      7  O   UNL     1      -5.759   0.366   0.504  1.00  0.00    -0.460 OA
BRANCH   7   8
ATOM      8  C   UNL     1      -4.927   0.744   1.505  1.00  0.00     0.331 C 
ATOM      9  O   UNL     1      -4.994   0.291   2.640  1.00  0.00    -0.247 OA
BRANCH   8  10
ATOM     10  C   UNL     1      -3.814   1.647   1.081  1.00  0.00     0.099 C 
ATOM     11  C   UNL     1      -3.492   2.081  -0.152  1.00  0.00     0.079 C 
BRANCH  11  12
ATOM     12  C   UNL     1      -2.318   2.965  -0.401  1.00  0.00     0.248 C 
ATOM     13  N   UNL     1      -1.112   2.630  -0.972  1.00  0.00    -0.322 N 
ATOM     14  H   UNL     1      -0.533   3.426  -0.990  1.00  0.00     0.170 HD
ATOM     15  O   UNL     1      -2.431   4.129   0.003  1.00  0.00    -0.270 OA
BRANCH  13  16
ATOM     16  C   UNL     1      -0.407   1.526  -1.548  1.00  0.00     0.044 A 
ATOM     17  C   UNL     1       3.315   0.434  -1.360  1.00  0.00     0.044 C 
ATOM     18  C   UNL     1       1.841   0.444  -1.638  1.00  0.00    -0.049 A 
ATOM     19  C   UNL     1       1.259  -0.755  -1.994  1.00  0.00     0.004 A 
ATOM     20  C   UNL     1       1.012   1.582  -1.465  1.00  0.00     0.029 A 
ATOM     21  C   UNL     1      -0.080  -0.757  -2.317  1.00  0.00     0.006 A 
ATOM     22  C   UNL     1      -0.920   0.363  -2.108  1.00  0.00    -0.027 A 
ATOM     23  C   UNL     1      -2.308   0.175  -2.576  1.00  0.00     0.046 C 
ENDBRANCH  13  16
ENDBRANCH  11  12
ENDBRANCH   8  10
ENDBRANCH   7   8
ENDBRANCH   6   7
ENDBRANCH   5   6
ENDBRANCH   4   5
ENDBRANCH   3   4
ENDBRANCH   2   3
ENDBRANCH   1   2
BRANCH   1  24
ATOM     24  C   UNL     1      -7.273  -0.846  -4.204  1.00  0.00     0.188 C 
BRANCH  24  25
ATOM     25  C   UNL     1      -6.364  -1.705  -5.092  1.00  0.00     0.188 C 
BRANCH  25  26
ATOM     26  O   UNL     1      -5.072  -1.913  -4.539  1.00  0.00    -0.376 OA
BRANCH  26  27
ATOM     27  C   UNL     1      -3.999  -1.966  -5.465  1.00  0.00     0.202 C 
BRANCH  27  28
ATOM     28  C   UNL     1      -4.090  -3.154  -6.426  1.00  0.00     0.261 C 
BRANCH  28  29
ATOM     29  O   UNL     1      -3.978  -4.465  -5.825  1.00  0.00    -0.460 OA
BRANCH  29  30
ATOM     30  C   UNL     1      -4.772  -4.746  -4.759  1.00  0.00     0.338 C 
ATOM     31  O   UNL     1      -5.911  -5.185  -4.840  1.00  0.00    -0.246 OA
BRANCH  30  32
ATOM     32  C   UNL     1      -4.043  -4.477  -3.489  1.00  0.00     0.060 A 
ATOM     33  C   UNL     1      -4.742  -4.311  -2.293  1.00  0.00     0.016 A 
ATOM     34  C   UNL     1      -2.662  -4.268  -3.507  1.00  0.00     0.016 A 
ATOM     35  C   UNL     1      -4.077  -3.812  -1.159  1.00  0.00     0.010 A 
ATOM     36  C   UNL     1      -2.014  -3.754  -2.386  1.00  0.00     0.010 A 
ATOM     37  C   UNL     1      -2.717  -3.452  -1.211  1.00  0.00    -0.014 A 
BRANCH  37  38
ATOM     38  C   UNL     1      -1.919  -3.323   0.037  1.00  0.00     0.031 A 
ATOM     39  C   UNL     1      -1.927  -4.643   0.671  1.00  0.00     0.074 A 
ATOM     40  C   UNL     1      -1.335  -2.282   0.700  1.00  0.00     0.049 A 
ATOM     41  N   UNL     1      -2.615  -4.857   1.742  1.00  0.00    -0.248 NA
ATOM     42  C   UNL     1      -1.454  -5.862  -0.003  1.00  0.00     0.031 C 
ATOM     43  C   UNL     1      -1.613  -0.881   0.476  1.00  0.00     0.029 A 
ATOM     44  N   UNL     1      -0.374  -2.197   1.714  1.00  0.00    -0.354 N 
ATOM     45  C   UNL     1      -2.285  -6.139   2.096  1.00  0.00     0.074 A 
ATOM     46  C   UNL     1      -1.797  -6.785   0.901  1.00  0.00     0.031 C 
ATOM     47  C   UNL     1      -0.697  -0.096   1.087  1.00  0.00     0.029 A 
ATOM     48  C   UNL     1       0.218  -0.914   1.847  1.00  0.00     0.049 A 
ATOM     49  H   UNL     1      -0.130  -2.961   2.285  1.00  0.00     0.167 HD
ATOM     50  C   UNL     1      -1.897  -6.283   3.386  1.00  0.00     0.037 A 
ATOM     51  C   UNL     1       1.232  -0.453   2.649  1.00  0.00     0.037 A 
ATOM     52  C   UNL     1      -2.516  -5.305   4.256  1.00  0.00     0.049 A 
ATOM     53  C   UNL     1       0.915  -1.042   3.961  1.00  0.00     0.074 A 
ATOM     54  C   UNL     1      -3.805  -5.001   4.648  1.00  0.00     0.029 A 
ATOM     55  N   UNL     1      -1.770  -4.185   4.502  1.00  0.00    -0.354 N 
ATOM     56  N   UNL     1      -0.023  -0.571   4.732  1.00  0.00    -0.248 NA
ATOM     57  C   UNL     1       1.455  -2.345   4.324  1.00  0.00     0.031 C 
ATOM     58  C   UNL     1      -3.791  -3.670   5.163  1.00  0.00     0.029 A 
ATOM     59  C   UNL     1      -2.489  -3.192   5.119  1.00  0.00     0.049 A 
ATOM     60  H   UNL     1      -0.820  -4.101   4.262  1.00  0.00     0.167 HD
ATOM     61  C   UNL     1      -0.537  -1.717   5.290  1.00  0.00     0.074 A 
ATOM     62  C   UNL     1       0.526  -2.708   5.206  1.00  0.00     0.031 C 
ATOM     63  C   UNL     1      -1.884  -1.900   5.354  1.00  0.00     0.037 A 
BRANCH  50  64
ATOM     64  C   UNL     1      -0.546  -6.869   3.676  1.00  0.00     0.064 A 
ATOM     65  C   UNL     1      -0.292  -7.407   4.939  1.00  0.00     0.173 A 
ATOM     66  C   UNL     1       0.581  -6.686   2.838  1.00  0.00     0.173 A 
ATOM     67  F   UNL     1      -1.281  -7.509   5.839  1.00  0.00    -0.203 F 
ATOM     68  C   UNL     1       1.000  -7.773   5.321  1.00  0.00     0.198 A 
ATOM     69  C   UNL     1       1.850  -7.125   3.187  1.00  0.00     0.198 A 
ATOM     70  F   UNL     1       0.524  -5.954   1.718  1.00  0.00    -0.203 F 
ATOM     71  F   UNL     1       1.225  -8.193   6.572  1.00  0.00    -0.200 F 
ATOM     72  C   UNL     1       2.063  -7.656   4.438  1.00  0.00     0.200 A 
ATOM     73  F   UNL     1       2.868  -6.949   2.333  1.00  0.00    -0.200 F 
ATOM     74  F   UNL     1       3.303  -7.990   4.814  1.00  0.00    -0.200 F 
ENDBRANCH  50  64
BRANCH  51  75
ATOM     75  C   UNL     1       2.263   0.648   2.624  1.00  0.00     0.064 A 
ATOM     76  C   UNL     1       3.414   0.521   3.441  1.00  0.00     0.173 A 
ATOM     77  C   UNL     1       2.329   1.698   1.708  1.00  0.00     0.173 A 
ATOM     78  F   UNL     1       3.439  -0.360   4.450  1.00  0.00    -0.203 F 
ATOM     79  C   UNL     1       4.594   1.244   3.217  1.00  0.00     0.198 A 
ATOM     80  C   UNL     1       3.529   2.387   1.435  1.00  0.00     0.198 A 
ATOM     81  F   UNL     1       1.227   2.101   1.075  1.00  0.00    -0.203 F 
ATOM     82  F   UNL     1       5.665   1.031   3.995  1.00  0.00    -0.200 F 
ATOM     83  C   UNL     1       4.675   2.125   2.162  1.00  0.00     0.200 A 
ATOM     84  F   UNL     1       3.585   3.259   0.416  1.00  0.00    -0.200 F 
ATOM     85  F   UNL     1       5.840   2.710   1.849  1.00  0.00    -0.200 F 
ENDBRANCH  51  75
BRANCH  63  86
ATOM     86  C   UNL     1      -2.740  -0.698   5.607  1.00  0.00     0.064 A 
ATOM     87  C   UNL     1      -2.880   0.408   4.756  1.00  0.00     0.173 A 
ATOM     88  C   UNL     1      -3.477  -0.684   6.801  1.00  0.00     0.173 A 
ATOM     89  F   UNL     1      -2.224   0.471   3.589  1.00  0.00    -0.203 F 
ATOM     90  C   UNL     1      -3.730   1.469   5.086  1.00  0.00     0.198 A 
ATOM     91  C   UNL     1      -4.342   0.360   7.114  1.00  0.00     0.198 A 
ATOM     92  F   UNL     1      -3.359  -1.698   7.673  1.00  0.00    -0.203 F 
ATOM     93  F   UNL     1      -3.845   2.522   4.261  1.00  0.00    -0.200 F 
ATOM     94  C   UNL     1      -4.473   1.435   6.254  1.00  0.00     0.200 A 
ATOM     95  F   UNL     1      -5.045   0.320   8.254  1.00  0.00    -0.200 F 
ATOM     96  F   UNL     1      -5.310   2.438   6.554  1.00  0.00    -0.200 F 
ENDBRANCH  63  86
ENDBRANCH  37  38
ENDBRANCH  30  32
ENDBRANCH  29  30
ENDBRANCH  28  29
ENDBRANCH  27  28
ENDBRANCH  26  27
ENDBRANCH  25  26
ENDBRANCH  24  25
ENDBRANCH   1  24
TORSDOF 22
