REMARK SMILES O=C(OCCOCCOCCOCCOC(=O)c1ccc(-c2c3nc(c(-c4c(F)c(F)c(F)c(F)c4F)c4ccc([nH]4)c(-c4c(F)c(F)c(F)c(F)c4F)c4nc(c(-c5c(F)c(F)c(F)c(F)c5F)c5ccc2[nH]5)C=C4)C=C3)cc1)C1=Cc2cc(Cl)cc(Cl)c2O[C@@H]1C(F)(F)F
REMARK SMILES IDX 10 1 9 2 8 3 7 4 6 5 5 6 4 7 3 8 2 9 1 10 81 11 82 12 92 13
REMARK SMILES IDX 83 14 91 15 84 16 90 17 85 18 88 19 86 20 87 21 89 22 93 23
REMARK SMILES IDX 94 24 95 25 96 26 11 27 12 28 13 29 14 30 15 31 16 32 17 33
REMARK SMILES IDX 18 34 19 35 80 36 20 37 79 38 21 39 22 40 23 41 73 42 24 43
REMARK SMILES IDX 78 44 72 45 74 46 25 47 77 48 71 49 70 50 26 52 58 53 38 54
REMARK SMILES IDX 57 55 39 56 42 57 56 58 75 59 40 60 41 61 55 63 76 64 43 65
REMARK SMILES IDX 27 66 28 67 36 68 29 69 30 70 34 71 37 72 31 73 32 74 35 75
REMARK SMILES IDX 33 76 59 77 60 78 68 79 61 80 62 81 66 82 69 83 63 84 64 85
REMARK SMILES IDX 67 86 65 87 44 88 45 89 53 90 46 91 47 92 51 93 54 94 48 95
REMARK SMILES IDX 49 96 52 97 50 98
REMARK H PARENT 74 51 42 62
REMARK Flexibility Score: inf
ROOT
ATOM      1  C   UNL     1       4.302   2.937   2.038  1.00  0.00     0.188 C 
ENDROOT
BRANCH   1   2
ATOM      2  O   UNL     1       2.958   3.180   2.385  1.00  0.00    -0.377 OA
BRANCH   2   3
ATOM      3  C   UNL     1       2.065   2.321   1.710  1.00  0.00     0.188 C 
BRANCH   3   4
ATOM      4  C   UNL     1       2.237   0.831   2.031  1.00  0.00     0.188 C 
BRANCH   4   5
ATOM      5  O   UNL     1       3.500   0.124   1.870  1.00  0.00    -0.376 OA
BRANCH   5   6
ATOM      6  C   UNL     1       4.224  -0.636   0.636  1.00  0.00     0.202 C 
BRANCH   6   7
ATOM      7  C   UNL     1       3.526  -0.949  -1.404  1.00  0.00     0.261 C 
BRANCH   7   8
ATOM      8  O   UNL     1       2.764  -2.184  -1.924  1.00  0.00    -0.460 OA
BRANCH   8   9
ATOM      9  C   UNL     1       3.040  -3.300  -1.239  1.00  0.00     0.338 C 
ATOM     10  O   UNL     1       2.562  -4.401  -1.321  1.00  0.00    -0.246 OA
BRANCH   9  11
ATOM     11  C   UNL     1       3.782  -2.638  -0.195  1.00  0.00     0.087 C 
ATOM     12  C   UNL     1       5.156  -2.294  -0.641  1.00  0.00     0.027 C 
ATOM     13  C   UNL     1       2.408  -1.351   0.256  1.00  0.00     0.316 C 
ATOM     14  C   UNL     1       5.697  -0.603  -1.003  1.00  0.00     0.020 A 
ATOM     15  O   UNL     1       2.944   0.449  -0.227  1.00  0.00    -0.474 OA
ATOM     16  C   UNL     1       6.961  -0.390  -1.485  1.00  0.00     0.032 A 
ATOM     17  C   UNL     1       4.615   0.749  -0.902  1.00  0.00     0.146 A 
ATOM     18  C   UNL     1       7.252   0.942  -1.838  1.00  0.00     0.043 A 
ATOM     19  C   UNL     1       4.987   2.002  -1.318  1.00  0.00     0.085 A 
ATOM     20  Cl  UNL     1       8.846   1.255  -2.451  1.00  0.00    -0.084 Cl
ATOM     21  C   UNL     1       6.330   2.066  -1.763  1.00  0.00     0.045 A 
ATOM     22  Cl  UNL     1       3.980   3.371  -1.397  1.00  0.00    -0.080 Cl
BRANCH  13  23
ATOM     23  C   UNL     1       1.970  -1.983   1.678  1.00  0.00     0.430 C 
ATOM     24  F   UNL     1       0.981  -1.361   2.343  1.00  0.00    -0.167 F 
ATOM     25  F   UNL     1       1.470  -3.228   1.412  1.00  0.00    -0.167 F 
ATOM     26  F   UNL     1       2.990  -2.205   2.539  1.00  0.00    -0.167 F 
ENDBRANCH  13  23
ENDBRANCH   9  11
ENDBRANCH   8   9
ENDBRANCH   7   8
ENDBRANCH   6   7
ENDBRANCH   5   6
ENDBRANCH   4   5
ENDBRANCH   3   4
ENDBRANCH   2   3
ENDBRANCH   1   2
BRANCH   1  27
ATOM     27  C   UNL     1       5.229   2.534   3.187  1.00  0.00     0.188 C 
BRANCH  27  28
ATOM     28  O   UNL     1       4.741   1.999   4.406  1.00  0.00    -0.376 OA
BRANCH  28  29
ATOM     29  C   UNL     1       3.536   2.467   4.990  1.00  0.00     0.202 C 
BRANCH  29  30
ATOM     30  C   UNL     1       3.378   3.939   5.400  1.00  0.00     0.261 C 
BRANCH  30  31
ATOM     31  O   UNL     1       3.564   4.894   4.346  1.00  0.00    -0.460 OA
BRANCH  31  32
ATOM     32  C   UNL     1       4.792   5.451   4.269  1.00  0.00     0.338 C 
ATOM     33  O   UNL     1       5.727   5.291   5.035  1.00  0.00    -0.246 OA
BRANCH  32  34
ATOM     34  C   UNL     1       4.922   6.183   2.991  1.00  0.00     0.060 A 
ATOM     35  C   UNL     1       6.079   5.977   2.221  1.00  0.00     0.016 A 
ATOM     36  C   UNL     1       3.944   7.084   2.571  1.00  0.00     0.016 A 
ATOM     37  C   UNL     1       6.284   6.701   1.049  1.00  0.00     0.010 A 
ATOM     38  C   UNL     1       4.169   7.842   1.421  1.00  0.00     0.010 A 
ATOM     39  C   UNL     1       5.359   7.685   0.686  1.00  0.00    -0.014 A 
BRANCH  39  40
ATOM     40  C   UNL     1       5.753   8.750  -0.262  1.00  0.00     0.031 A 
ATOM     41  C   UNL     1       6.297  10.022   0.322  1.00  0.00     0.074 A 
ATOM     42  C   UNL     1       5.593   8.618  -1.587  1.00  0.00     0.049 A 
ATOM     43  N   UNL     1       6.537  11.171  -0.253  1.00  0.00    -0.248 NA
ATOM     44  C   UNL     1       6.592   9.993   1.764  1.00  0.00     0.031 C 
ATOM     45  C   UNL     1       5.130   7.414  -2.266  1.00  0.00     0.029 A 
ATOM     46  N   UNL     1       5.772   9.534  -2.593  1.00  0.00    -0.354 N 
ATOM     47  C   UNL     1       6.978  12.009   0.763  1.00  0.00     0.074 A 
ATOM     48  C   UNL     1       6.954  11.245   1.990  1.00  0.00     0.031 C 
ATOM     49  C   UNL     1       5.019   7.676  -3.580  1.00  0.00     0.029 A 
ATOM     50  C   UNL     1       5.356   9.080  -3.818  1.00  0.00     0.049 A 
ATOM     51  H   UNL     1       6.161  10.428  -2.449  1.00  0.00     0.167 HD
ATOM     52  C   UNL     1       7.360  13.305   0.678  1.00  0.00     0.037 A 
ATOM     53  C   UNL     1       5.216   9.742  -4.984  1.00  0.00     0.037 A 
ATOM     54  C   UNL     1       7.362  14.055  -0.548  1.00  0.00     0.049 A 
ATOM     55  C   UNL     1       5.574  11.206  -5.050  1.00  0.00     0.074 A 
ATOM     56  C   UNL     1       7.750  15.365  -0.758  1.00  0.00     0.029 A 
ATOM     57  N   UNL     1       6.934  13.561  -1.773  1.00  0.00    -0.354 N 
ATOM     58  N   UNL     1       6.005  11.998  -4.096  1.00  0.00    -0.248 NA
ATOM     59  C   UNL     1       5.428  11.868  -6.354  1.00  0.00     0.031 C 
ATOM     60  C   UNL     1       7.487  15.686  -2.093  1.00  0.00     0.029 A 
ATOM     61  C   UNL     1       7.016  14.552  -2.737  1.00  0.00     0.049 A 
ATOM     62  H   UNL     1       6.620  12.642  -1.933  1.00  0.00     0.167 HD
ATOM     63  C   UNL     1       6.215  13.237  -4.689  1.00  0.00     0.074 A 
ATOM     64  C   UNL     1       5.860  13.093  -6.086  1.00  0.00     0.031 C 
ATOM     65  C   UNL     1       6.670  14.386  -4.128  1.00  0.00     0.037 A 
BRANCH  52  66
ATOM     66  C   UNL     1       7.737  13.995   1.959  1.00  0.00     0.064 A 
ATOM     67  C   UNL     1       8.873  13.631   2.699  1.00  0.00     0.173 A 
ATOM     68  C   UNL     1       6.929  15.024   2.467  1.00  0.00     0.173 A 
ATOM     69  F   UNL     1       9.672  12.642   2.269  1.00  0.00    -0.203 F 
ATOM     70  C   UNL     1       9.155  14.233   3.923  1.00  0.00     0.198 A 
ATOM     71  C   UNL     1       7.238  15.653   3.670  1.00  0.00     0.198 A 
ATOM     72  F   UNL     1       5.833  15.417   1.801  1.00  0.00    -0.203 F 
ATOM     73  F   UNL     1      10.199  13.812   4.650  1.00  0.00    -0.200 F 
ATOM     74  C   UNL     1       8.341  15.247   4.404  1.00  0.00     0.200 A 
ATOM     75  F   UNL     1       6.458  16.644   4.125  1.00  0.00    -0.200 F 
ATOM     76  F   UNL     1       8.611  15.823   5.584  1.00  0.00    -0.200 F 
ENDBRANCH  52  66
BRANCH  53  77
ATOM     77  C   UNL     1       4.688   9.022  -6.171  1.00  0.00     0.064 A 
ATOM     78  C   UNL     1       5.512   8.729  -7.265  1.00  0.00     0.173 A 
ATOM     79  C   UNL     1       3.356   8.582  -6.221  1.00  0.00     0.173 A 
ATOM     80  F   UNL     1       6.786   9.150  -7.275  1.00  0.00    -0.203 F 
ATOM     81  C   UNL     1       5.026   8.024  -8.364  1.00  0.00     0.198 A 
ATOM     82  C   UNL     1       2.879   7.853  -7.307  1.00  0.00     0.198 A 
ATOM     83  F   UNL     1       2.525   8.838  -5.200  1.00  0.00    -0.203 F 
ATOM     84  F   UNL     1       5.828   7.781  -9.410  1.00  0.00    -0.200 F 
ATOM     85  C   UNL     1       3.713   7.577  -8.380  1.00  0.00     0.200 A 
ATOM     86  F   UNL     1       1.615   7.408  -7.310  1.00  0.00    -0.200 F 
ATOM     87  F   UNL     1       3.252   6.881  -9.428  1.00  0.00    -0.200 F 
ENDBRANCH  53  77
BRANCH  65  88
ATOM     88  C   UNL     1       6.877  15.572  -5.029  1.00  0.00     0.064 A 
ATOM     89  C   UNL     1       5.805  16.295  -5.570  1.00  0.00     0.173 A 
ATOM     90  C   UNL     1       8.178  16.038  -5.284  1.00  0.00     0.173 A 
ATOM     91  F   UNL     1       4.543  15.887  -5.367  1.00  0.00    -0.203 F 
ATOM     92  C   UNL     1       6.028  17.432  -6.345  1.00  0.00     0.198 A 
ATOM     93  C   UNL     1       8.395  17.193  -6.029  1.00  0.00     0.198 A 
ATOM     94  F   UNL     1       9.239  15.388  -4.782  1.00  0.00    -0.203 F 
ATOM     95  F   UNL     1       4.990  18.086  -6.884  1.00  0.00    -0.200 F 
ATOM     96  C   UNL     1       7.320  17.886  -6.563  1.00  0.00     0.200 A 
ATOM     97  F   UNL     1       9.643  17.640  -6.220  1.00  0.00    -0.200 F 
ATOM     98  F   UNL     1       7.530  18.991  -7.292  1.00  0.00    -0.200 F 
ENDBRANCH  65  88
ENDBRANCH  39  40
ENDBRANCH  32  34
ENDBRANCH  31  32
ENDBRANCH  30  31
ENDBRANCH  29  30
ENDBRANCH  28  29
ENDBRANCH  27  28
ENDBRANCH   1  27
TORSDOF 21
