REMARK SMILES Cc1ccc(/[NH+]=C2/S[C@@H](CC(=O)Nc3ccc(C(=O)OCCOCCOCCOCCOC(=O)c4ccc(-c5c6nc(c(-c7c(F)c(F)c(F)c(F)c7F)c7ccc([nH]7)c(-c7c(F)c(F)c(F)c(F)c7F)c7nc(c(-c8c(F)c(F)c(F)c(F)c8F)c8ccc5[nH]8)C=C7)C=C6)cc4)cc3)C(=O)N2C)cc1
REMARK SMILES IDX 25 1 24 2 23 3 22 4 21 5 20 6 18 7 19 8 17 9 14 10 15 11
REMARK SMILES IDX 99 12 16 13 98 14 13 15 11 16 12 17 10 19 9 20 6 21 7 22
REMARK SMILES IDX 8 24 102 25 100 26 103 27 101 28 5 29 1 30 2 31 3 32 105 33
REMARK SMILES IDX 4 34 104 35 26 36 27 37 28 38 29 39 30 40 31 41 32 42 33 43
REMARK SMILES IDX 34 44 35 45 36 46 97 47 37 48 96 49 38 50 39 51 40 52 90 53
REMARK SMILES IDX 41 54 95 55 89 56 91 57 42 58 94 59 88 60 87 61 43 63 75 64
REMARK SMILES IDX 55 65 74 66 56 67 59 68 73 69 92 70 57 71 58 72 72 74 93 75
REMARK SMILES IDX 60 76 44 77 45 78 53 79 46 80 47 81 51 82 54 83 48 84 49 85
REMARK SMILES IDX 52 86 50 87 76 88 77 89 85 90 78 91 79 92 83 93 86 94 80 95
REMARK SMILES IDX 81 96 84 97 82 98 61 99 62 100 70 101 63 102 64 103 68 104
REMARK SMILES IDX 71 105 65 106 66 107 69 108 67 109
REMARK H PARENT 13 18 6 23 91 62 59 73
REMARK Flexibility Score: inf
ROOT
ATOM      1  C   UNL     1      -1.662   6.861   0.003  1.00  0.00     0.188 C 
ENDROOT
BRANCH   1   2
ATOM      2  C   UNL     1      -2.411   7.095   1.313  1.00  0.00     0.188 C 
BRANCH   2   3
ATOM      3  O   UNL     1      -1.730   7.896   2.282  1.00  0.00    -0.376 OA
BRANCH   3   4
ATOM      4  C   UNL     1      -1.544   7.250   3.534  1.00  0.00     0.202 C 
BRANCH   4   5
ATOM      5  C   UNL     1      -2.761   6.990   4.412  1.00  0.00     0.261 C 
BRANCH   5   6
ATOM      6  O   UNL     1      -3.820   6.379   3.700  1.00  0.00    -0.460 OA
BRANCH   6   7
ATOM      7  C   UNL     1      -4.897   7.147   3.497  1.00  0.00     0.338 C 
ATOM      8  O   UNL     1      -5.176   8.207   4.047  1.00  0.00    -0.246 OA
BRANCH   7   9
ATOM      9  C   UNL     1      -5.534   6.620   2.283  1.00  0.00     0.060 A 
ATOM     10  C   UNL     1      -6.487   5.742  -0.197  1.00  0.00     0.041 A 
ATOM     11  C   UNL     1      -5.955   4.832   0.714  1.00  0.00     0.027 A 
ATOM     12  C   UNL     1      -6.427   7.112   0.107  1.00  0.00     0.027 A 
ATOM     13  C   UNL     1      -5.506   5.260   1.963  1.00  0.00     0.018 A 
ATOM     14  C   UNL     1      -5.968   7.551   1.345  1.00  0.00     0.018 A 
BRANCH  10  15
ATOM     15  N   UNL     1      -7.122   5.418  -1.406  1.00  0.00    -0.326 N 
ATOM     16  C   UNL     1      -7.566   4.269  -1.982  1.00  0.00     0.226 C 
ATOM     17  O   UNL     1      -8.164   4.365  -3.060  1.00  0.00    -0.275 OA
ATOM     18  H   UNL     1      -7.285   6.209  -1.969  1.00  0.00     0.169 HD
BRANCH  16  19
ATOM     19  C   UNL     1      -7.374   2.901  -1.376  1.00  0.00     0.128 C 
BRANCH  19  20
ATOM     20  C   UNL     1      -6.202   2.167  -2.023  1.00  0.00     0.183 C 
ATOM     21  N   UNL     1      -3.297  -0.084  -1.051  1.00  0.00    -0.235 N 
ATOM     22  C   UNL     1      -4.026   0.953  -1.269  1.00  0.00     0.319 C 
ATOM     23  H   UNL     1      -3.821  -0.866  -0.761  1.00  0.00     0.313 HD
ATOM     24  S   UNL     1      -5.763   0.671  -1.099  1.00  0.00    -0.022 SA
ATOM     25  N   UNL     1      -3.823   2.265  -1.587  1.00  0.00    -0.193 N 
ATOM     26  C   UNL     1      -4.910   2.953  -2.107  1.00  0.00     0.324 C 
ATOM     27  C   UNL     1      -2.644   3.065  -1.353  1.00  0.00     0.301 C 
ATOM     28  O   UNL     1      -4.827   4.062  -2.626  1.00  0.00    -0.245 OA
BRANCH  21  29
ATOM     29  C   UNL     1      -1.929  -0.349  -1.133  1.00  0.00     0.125 A 
ATOM     30  C   UNL     1       2.300  -1.301  -0.834  1.00  0.00     0.044 C 
ATOM     31  C   UNL     1       0.825  -1.082  -1.041  1.00  0.00    -0.051 A 
ATOM     32  C   UNL     1      -0.099  -1.705  -0.202  1.00  0.00     0.008 A 
ATOM     33  C   UNL     1       0.342  -0.192  -2.015  1.00  0.00     0.008 A 
ATOM     34  C   UNL     1      -1.450  -1.333  -0.251  1.00  0.00     0.052 A 
ATOM     35  C   UNL     1      -1.027   0.160  -2.068  1.00  0.00     0.052 A 
ENDBRANCH  21  29
ENDBRANCH  19  20
ENDBRANCH  16  19
ENDBRANCH  10  15
ENDBRANCH   7   9
ENDBRANCH   6   7
ENDBRANCH   5   6
ENDBRANCH   4   5
ENDBRANCH   3   4
ENDBRANCH   2   3
ENDBRANCH   1   2
BRANCH   1  36
ATOM     36  O   UNL     1      -1.067   5.566  -0.112  1.00  0.00    -0.377 OA
BRANCH  36  37
ATOM     37  C   UNL     1       0.153   5.392   0.581  1.00  0.00     0.188 C 
BRANCH  37  38
ATOM     38  C   UNL     1       1.277   6.304   0.203  1.00  0.00     0.188 C 
BRANCH  38  39
ATOM     39  O   UNL     1       1.149   7.449   1.036  1.00  0.00    -0.376 OA
BRANCH  39  40
ATOM     40  C   UNL     1       1.735   8.623   0.501  1.00  0.00     0.202 C 
BRANCH  40  41
ATOM     41  C   UNL     1       3.213   8.428   0.139  1.00  0.00     0.261 C 
BRANCH  41  42
ATOM     42  O   UNL     1       3.961   8.163   1.349  1.00  0.00    -0.460 OA
BRANCH  42  43
ATOM     43  C   UNL     1       4.383   6.879   1.530  1.00  0.00     0.338 C 
ATOM     44  O   UNL     1       5.005   6.224   0.712  1.00  0.00    -0.246 OA
BRANCH  43  45
ATOM     45  C   UNL     1       3.725   6.292   2.741  1.00  0.00     0.060 A 
ATOM     46  C   UNL     1       3.773   4.911   2.996  1.00  0.00     0.016 A 
ATOM     47  C   UNL     1       2.801   7.061   3.429  1.00  0.00     0.016 A 
ATOM     48  C   UNL     1       2.763   4.290   3.764  1.00  0.00     0.010 A 
ATOM     49  C   UNL     1       1.768   6.428   4.093  1.00  0.00     0.010 A 
ATOM     50  C   UNL     1       1.677   5.033   4.208  1.00  0.00    -0.014 A 
BRANCH  50  51
ATOM     51  C   UNL     1       0.378   4.519   4.724  1.00  0.00     0.031 A 
ATOM     52  C   UNL     1      -0.108   5.046   6.028  1.00  0.00     0.074 A 
ATOM     53  C   UNL     1      -0.497   3.936   3.856  1.00  0.00     0.049 A 
ATOM     54  N   UNL     1      -1.268   4.811   6.529  1.00  0.00    -0.248 NA
ATOM     55  C   UNL     1       0.665   5.950   6.873  1.00  0.00     0.031 C 
ATOM     56  C   UNL     1      -1.971   3.822   3.843  1.00  0.00     0.029 A 
ATOM     57  N   UNL     1      -0.177   3.228   2.705  1.00  0.00    -0.354 N 
ATOM     58  C   UNL     1      -1.548   5.786   7.473  1.00  0.00     0.074 A 
ATOM     59  C   UNL     1      -0.264   6.384   7.734  1.00  0.00     0.031 C 
ATOM     60  C   UNL     1      -2.368   2.890   2.954  1.00  0.00     0.029 A 
ATOM     61  C   UNL     1      -1.157   2.228   2.563  1.00  0.00     0.049 A 
ATOM     62  H   UNL     1       0.587   3.393   2.106  1.00  0.00     0.167 HD
ATOM     63  C   UNL     1      -2.868   6.045   7.765  1.00  0.00     0.037 A 
ATOM     64  C   UNL     1      -0.768   0.949   2.795  1.00  0.00     0.037 A 
ATOM     65  C   UNL     1      -3.757   5.047   7.106  1.00  0.00     0.049 A 
ATOM     66  C   UNL     1      -1.531   0.509   4.045  1.00  0.00     0.074 A 
ATOM     67  C   UNL     1      -4.907   5.077   6.334  1.00  0.00     0.029 A 
ATOM     68  N   UNL     1      -3.345   3.712   7.072  1.00  0.00    -0.354 N 
ATOM     69  N   UNL     1      -1.985   1.348   4.960  1.00  0.00    -0.248 NA
ATOM     70  C   UNL     1      -2.079  -0.826   4.242  1.00  0.00     0.031 C 
ATOM     71  C   UNL     1      -5.134   3.764   5.805  1.00  0.00     0.029 A 
ATOM     72  C   UNL     1      -4.143   2.919   6.284  1.00  0.00     0.049 A 
ATOM     73  H   UNL     1      -2.562   3.374   7.564  1.00  0.00     0.167 HD
ATOM     74  C   UNL     1      -3.034   0.782   5.644  1.00  0.00     0.074 A 
ATOM     75  C   UNL     1      -2.926  -0.625   5.273  1.00  0.00     0.031 C 
ATOM     76  C   UNL     1      -3.987   1.472   6.366  1.00  0.00     0.037 A 
BRANCH  63  77
ATOM     77  C   UNL     1      -3.421   7.295   8.485  1.00  0.00     0.064 A 
ATOM     78  C   UNL     1      -4.812   7.441   8.727  1.00  0.00     0.173 A 
ATOM     79  C   UNL     1      -2.668   8.415   8.907  1.00  0.00     0.173 A 
ATOM     80  F   UNL     1      -5.676   6.455   8.454  1.00  0.00    -0.203 F 
ATOM     81  C   UNL     1      -5.386   8.598   9.281  1.00  0.00     0.198 A 
ATOM     82  C   UNL     1      -3.235   9.549   9.514  1.00  0.00     0.198 A 
ATOM     83  F   UNL     1      -1.349   8.495   8.734  1.00  0.00    -0.203 F 
ATOM     84  F   UNL     1      -6.716   8.679   9.426  1.00  0.00    -0.200 F 
ATOM     85  C   UNL     1      -4.596   9.650   9.686  1.00  0.00     0.200 A 
ATOM     86  F   UNL     1      -2.439  10.549   9.922  1.00  0.00    -0.200 F 
ATOM     87  F   UNL     1      -5.136  10.743  10.243  1.00  0.00    -0.200 F 
ENDBRANCH  63  77
BRANCH  64  88
ATOM     88  C   UNL     1       0.622   0.825   2.181  1.00  0.00     0.064 A 
ATOM     89  C   UNL     1       0.711   1.359   0.853  1.00  0.00     0.173 A 
ATOM     90  C   UNL     1       1.844   0.762   2.845  1.00  0.00     0.173 A 
ATOM     91  F   UNL     1      -0.423   1.583   0.183  1.00  0.00    -0.203 F 
ATOM     92  C   UNL     1       1.853   1.921   0.288  1.00  0.00     0.198 A 
ATOM     93  C   UNL     1       3.024   1.288   2.251  1.00  0.00     0.198 A 
ATOM     94  F   UNL     1       1.902   0.357   4.119  1.00  0.00    -0.203 F 
ATOM     95  F   UNL     1       1.776   2.564  -0.889  1.00  0.00    -0.200 F 
ATOM     96  C   UNL     1       3.015   1.909   1.005  1.00  0.00     0.200 A 
ATOM     97  F   UNL     1       4.160   1.335   2.964  1.00  0.00    -0.200 F 
ATOM     98  F   UNL     1       4.092   2.558   0.539  1.00  0.00    -0.200 F 
ENDBRANCH  64  88
BRANCH  76  99
ATOM     99  C   UNL     1      -4.837   0.824   7.429  1.00  0.00     0.064 A 
ATOM    100  C   UNL     1      -5.425  -0.428   7.308  1.00  0.00     0.173 A 
ATOM    101  C   UNL     1      -5.009   1.470   8.683  1.00  0.00     0.173 A 
ATOM    102  F   UNL     1      -5.574  -1.005   6.107  1.00  0.00    -0.203 F 
ATOM    103  C   UNL     1      -5.888  -1.109   8.433  1.00  0.00     0.198 A 
ATOM    104  C   UNL     1      -5.531   0.819   9.787  1.00  0.00     0.198 A 
ATOM    105  F   UNL     1      -4.653   2.742   8.902  1.00  0.00    -0.203 F 
ATOM    106  F   UNL     1      -6.295  -2.379   8.311  1.00  0.00    -0.200 F 
ATOM    107  C   UNL     1      -5.902  -0.499   9.677  1.00  0.00     0.200 A 
ATOM    108  F   UNL     1      -5.620   1.466  10.957  1.00  0.00    -0.200 F 
ATOM    109  F   UNL     1      -6.282  -1.177  10.767  1.00  0.00    -0.200 F 
ENDBRANCH  76  99
ENDBRANCH  50  51
ENDBRANCH  43  45
ENDBRANCH  42  43
ENDBRANCH  41  42
ENDBRANCH  40  41
ENDBRANCH  39  40
ENDBRANCH  38  39
ENDBRANCH  37  38
ENDBRANCH  36  37
ENDBRANCH   1  36
TORSDOF 24
