REMARK SMILES Cc1cc(N2N=C(C(=O)OCCOCCOCCOCCOC(=O)c3ccc(-c4c5nc(c(-c6c(F)c(F)c(F)c(F)c6F)c6ccc([nH]6)c(-c6c(F)c(F)c(F)c(F)c6F)c6nc(c(-c7c(F)c(F)c(F)c(F)c7F)c7ccc4[nH]7)C=C6)C=C5)cc3)C[C@H]2c2ccccc2)c([N+](=O)[O-])cc1C
REMARK SMILES IDX 16 1 15 2 14 3 13 4 12 5 11 6 10 7 8 8 9 9 7 10 5 11 6 12
REMARK SMILES IDX 89 13 88 14 4 15 1 16 2 17 3 18 101 19 100 20 102 21 96 22
REMARK SMILES IDX 97 23 98 24 99 25 90 26 91 27 95 28 92 29 94 30 93 31 17 32
REMARK SMILES IDX 18 33 19 34 20 35 21 36 22 37 23 38 24 39 25 40 26 41 87 42
REMARK SMILES IDX 27 43 86 44 28 45 29 46 30 47 80 48 31 49 85 50 79 51 81 52
REMARK SMILES IDX 32 53 84 54 78 55 77 56 33 58 65 59 45 60 64 61 46 62 49 63
REMARK SMILES IDX 63 64 82 65 47 66 48 67 62 69 83 70 50 71 34 72 35 73 43 74
REMARK SMILES IDX 36 75 37 76 41 77 44 78 38 79 39 80 42 81 40 82 66 83 67 84
REMARK SMILES IDX 75 85 68 86 69 87 73 88 76 89 70 90 71 91 74 92 72 93 51 94
REMARK SMILES IDX 52 95 60 96 53 97 54 98 58 99 61 100 55 101 56 102 59 103
REMARK SMILES IDX 57 104
REMARK H PARENT 81 57 49 68
REMARK Flexibility Score: inf
ROOT
ATOM      1  O   UNL     1      -8.139   1.165   0.477  1.00  0.00    -0.377 OA
ENDROOT
BRANCH   1   2
ATOM      2  C   UNL     1      -7.105   0.322   0.967  1.00  0.00     0.188 C 
BRANCH   2   3
ATOM      3  C   UNL     1      -6.891   0.408   2.488  1.00  0.00     0.188 C 
BRANCH   3   4
ATOM      4  O   UNL     1      -8.046   0.849   3.180  1.00  0.00    -0.376 OA
BRANCH   4   5
ATOM      5  C   UNL     1      -8.207   2.209   3.542  1.00  0.00     0.202 C 
BRANCH   5   6
ATOM      6  C   UNL     1      -7.824   3.390   2.629  1.00  0.00     0.261 C 
BRANCH   6   7
ATOM      7  O   UNL     1      -6.789   3.148   1.679  1.00  0.00    -0.459 OA
BRANCH   7   8
ATOM      8  C   UNL     1      -5.527   3.380   2.059  1.00  0.00     0.354 C 
ATOM      9  O   UNL     1      -5.138   3.886   3.092  1.00  0.00    -0.245 OA
BRANCH   8  10
ATOM     10  C   UNL     1      -4.614   2.776   1.020  1.00  0.00     0.148 C 
ATOM     11  N   UNL     1      -3.006   1.732   0.144  1.00  0.00    -0.250 N 
ATOM     12  N   UNL     1      -3.592   2.038   1.334  1.00  0.00    -0.169 NA
ATOM     13  C   UNL     1      -3.506   2.559  -0.974  1.00  0.00     0.144 C 
ATOM     14  C   UNL     1      -4.904   2.912  -0.449  1.00  0.00     0.098 C 
BRANCH  11  15
ATOM     15  C   UNL     1      -1.896   0.905   0.123  1.00  0.00     0.138 A 
ATOM     16  C   UNL     1       1.871   1.499   0.239  1.00  0.00     0.045 C 
ATOM     17  C   UNL     1       0.570   0.746   0.189  1.00  0.00    -0.046 A 
ATOM     18  C   UNL     1      -0.626   1.480   0.283  1.00  0.00     0.039 A 
ATOM     19  C   UNL     1       0.509  -0.647   0.036  1.00  0.00    -0.041 A 
ATOM     20  C   UNL     1      -0.752  -1.259  -0.048  1.00  0.00     0.091 A 
ATOM     21  C   UNL     1       1.732  -1.522  -0.011  1.00  0.00     0.045 C 
ATOM     22  C   UNL     1      -1.935  -0.490  -0.021  1.00  0.00     0.294 A 
BRANCH  22  23
ATOM     23  N   UNL     1      -3.203  -1.209  -0.149  1.00  0.00     0.065 N 
ATOM     24  O   UNL     1      -3.253  -2.360   0.316  1.00  0.00    -0.258 OA
ATOM     25  O   UNL     1      -4.131  -0.674  -0.774  1.00  0.00    -0.258 OA
ENDBRANCH  22  23
ENDBRANCH  11  15
BRANCH  13  26
ATOM     26  C   UNL     1      -2.629   3.783  -1.254  1.00  0.00    -0.023 A 
ATOM     27  C   UNL     1      -2.966   5.088  -0.851  1.00  0.00     0.006 A 
ATOM     28  C   UNL     1      -1.416   3.613  -1.944  1.00  0.00     0.006 A 
ATOM     29  C   UNL     1      -2.123   6.171  -1.111  1.00  0.00     0.000 A 
ATOM     30  C   UNL     1      -0.549   4.688  -2.160  1.00  0.00     0.000 A 
ATOM     31  C   UNL     1      -0.906   5.967  -1.747  1.00  0.00     0.000 A 
ENDBRANCH  13  26
ENDBRANCH   8  10
ENDBRANCH   7   8
ENDBRANCH   6   7
ENDBRANCH   5   6
ENDBRANCH   4   5
ENDBRANCH   3   4
ENDBRANCH   2   3
ENDBRANCH   1   2
BRANCH   1  32
ATOM     32  C   UNL     1      -9.494   0.731   0.621  1.00  0.00     0.188 C 
BRANCH  32  33
ATOM     33  C   UNL     1      -9.897  -0.452   1.536  1.00  0.00     0.188 C 
BRANCH  33  34
ATOM     34  O   UNL     1      -8.950  -1.503   1.605  1.00  0.00    -0.376 OA
BRANCH  34  35
ATOM     35  C   UNL     1      -9.182  -2.683   0.856  1.00  0.00     0.202 C 
BRANCH  35  36
ATOM     36  C   UNL     1      -9.217  -2.550  -0.674  1.00  0.00     0.261 C 
BRANCH  36  37
ATOM     37  O   UNL     1     -10.172  -1.616  -1.204  1.00  0.00    -0.460 OA
BRANCH  37  38
ATOM     38  C   UNL     1     -11.480  -1.862  -0.988  1.00  0.00     0.338 C 
ATOM     39  O   UNL     1     -11.970  -2.818  -0.410  1.00  0.00    -0.246 OA
BRANCH  38  40
ATOM     40  C   UNL     1     -12.233  -0.665  -1.418  1.00  0.00     0.060 A 
ATOM     41  C   UNL     1     -12.977   0.051  -0.471  1.00  0.00     0.016 A 
ATOM     42  C   UNL     1     -12.187  -0.241  -2.748  1.00  0.00     0.016 A 
ATOM     43  C   UNL     1     -13.695   1.185  -0.859  1.00  0.00     0.010 A 
ATOM     44  C   UNL     1     -12.923   0.881  -3.138  1.00  0.00     0.010 A 
ATOM     45  C   UNL     1     -13.700   1.587  -2.201  1.00  0.00    -0.014 A 
BRANCH  45  46
ATOM     46  C   UNL     1     -14.626   2.651  -2.660  1.00  0.00     0.031 A 
ATOM     47  C   UNL     1     -15.912   2.251  -3.328  1.00  0.00     0.074 A 
ATOM     48  C   UNL     1     -14.330   3.953  -2.491  1.00  0.00     0.049 A 
ATOM     49  N   UNL     1     -16.833   3.000  -3.879  1.00  0.00    -0.248 NA
ATOM     50  C   UNL     1     -16.195   0.808  -3.386  1.00  0.00     0.031 C 
ATOM     51  C   UNL     1     -13.135   4.468  -1.828  1.00  0.00     0.029 A 
ATOM     52  N   UNL     1     -15.011   5.080  -2.884  1.00  0.00    -0.354 N 
ATOM     53  C   UNL     1     -17.796   2.121  -4.358  1.00  0.00     0.074 A 
ATOM     54  C   UNL     1     -17.337   0.783  -4.056  1.00  0.00     0.031 C 
ATOM     55  C   UNL     1     -13.155   5.811  -1.878  1.00  0.00     0.029 A 
ATOM     56  C   UNL     1     -14.343   6.248  -2.611  1.00  0.00     0.049 A 
ATOM     57  H   UNL     1     -15.894   5.052  -3.320  1.00  0.00     0.167 HD
ATOM     58  C   UNL     1     -18.959   2.407  -4.989  1.00  0.00     0.037 A 
ATOM     59  C   UNL     1     -14.640   7.520  -2.945  1.00  0.00     0.037 A 
ATOM     60  C   UNL     1     -19.413   3.741  -5.286  1.00  0.00     0.049 A 
ATOM     61  C   UNL     1     -15.906   7.806  -3.717  1.00  0.00     0.074 A 
ATOM     62  C   UNL     1     -20.596   4.134  -5.887  1.00  0.00     0.029 A 
ATOM     63  N   UNL     1     -18.696   4.898  -5.020  1.00  0.00    -0.354 N 
ATOM     64  N   UNL     1     -16.833   6.975  -4.129  1.00  0.00    -0.248 NA
ATOM     65  C   UNL     1     -16.165   9.209  -4.072  1.00  0.00     0.031 C 
ATOM     66  C   UNL     1     -20.564   5.523  -6.047  1.00  0.00     0.029 A 
ATOM     67  C   UNL     1     -19.393   6.003  -5.483  1.00  0.00     0.049 A 
ATOM     68  H   UNL     1     -17.822   4.929  -4.568  1.00  0.00     0.167 HD
ATOM     69  C   UNL     1     -17.791   7.753  -4.766  1.00  0.00     0.074 A 
ATOM     70  C   UNL     1     -17.345   9.126  -4.668  1.00  0.00     0.031 C 
ATOM     71  C   UNL     1     -18.937   7.366  -5.380  1.00  0.00     0.037 A 
BRANCH  58  72
ATOM     72  C   UNL     1     -19.812   1.255  -5.437  1.00  0.00     0.064 A 
ATOM     73  C   UNL     1     -20.501   0.443  -4.524  1.00  0.00     0.173 A 
ATOM     74  C   UNL     1     -19.979   0.991  -6.805  1.00  0.00     0.173 A 
ATOM     75  F   UNL     1     -20.367   0.644  -3.205  1.00  0.00    -0.203 F 
ATOM     76  C   UNL     1     -21.306  -0.606  -4.965  1.00  0.00     0.198 A 
ATOM     77  C   UNL     1     -20.810  -0.036  -7.242  1.00  0.00     0.198 A 
ATOM     78  F   UNL     1     -19.346   1.740  -7.721  1.00  0.00    -0.203 F 
ATOM     79  F   UNL     1     -21.919  -1.397  -4.074  1.00  0.00    -0.200 F 
ATOM     80  C   UNL     1     -21.467  -0.838  -6.322  1.00  0.00     0.200 A 
ATOM     81  F   UNL     1     -20.976  -0.249  -8.555  1.00  0.00    -0.200 F 
ATOM     82  F   UNL     1     -22.252  -1.839  -6.744  1.00  0.00    -0.200 F 
ENDBRANCH  58  72
BRANCH  59  83
ATOM     83  C   UNL     1     -13.709   8.623  -2.586  1.00  0.00     0.064 A 
ATOM     84  C   UNL     1     -14.082   9.624  -1.678  1.00  0.00     0.173 A 
ATOM     85  C   UNL     1     -12.437   8.719  -3.171  1.00  0.00     0.173 A 
ATOM     86  F   UNL     1     -15.298   9.595  -1.112  1.00  0.00    -0.203 F 
ATOM     87  C   UNL     1     -13.230  10.688  -1.386  1.00  0.00     0.198 A 
ATOM     88  C   UNL     1     -11.572   9.764  -2.853  1.00  0.00     0.198 A 
ATOM     89  F   UNL     1     -12.030   7.792  -4.051  1.00  0.00    -0.203 F 
ATOM     90  F   UNL     1     -13.635  11.661  -0.558  1.00  0.00    -0.200 F 
ATOM     91  C   UNL     1     -11.973  10.754  -1.969  1.00  0.00     0.200 A 
ATOM     92  F   UNL     1     -10.354   9.815  -3.408  1.00  0.00    -0.200 F 
ATOM     93  F   UNL     1     -11.153  11.775  -1.687  1.00  0.00    -0.200 F 
ENDBRANCH  59  83
BRANCH  71  94
ATOM     94  C   UNL     1     -19.805   8.441  -5.974  1.00  0.00     0.064 A 
ATOM     95  C   UNL     1     -19.418   9.154  -7.118  1.00  0.00     0.173 A 
ATOM     96  C   UNL     1     -21.062   8.728  -5.418  1.00  0.00     0.173 A 
ATOM     97  F   UNL     1     -18.221   8.928  -7.681  1.00  0.00    -0.203 F 
ATOM     98  C   UNL     1     -20.243  10.133  -7.667  1.00  0.00     0.198 A 
ATOM     99  C   UNL     1     -21.900   9.682  -5.991  1.00  0.00     0.198 A 
ATOM    100  F   UNL     1     -21.487   8.070  -4.329  1.00  0.00    -0.203 F 
ATOM    101  F   UNL     1     -19.829  10.836  -8.729  1.00  0.00    -0.200 F 
ATOM    102  C   UNL     1     -21.487  10.389  -7.109  1.00  0.00     0.200 A 
ATOM    103  F   UNL     1     -23.108   9.915  -5.460  1.00  0.00    -0.200 F 
ATOM    104  F   UNL     1     -22.284  11.323  -7.645  1.00  0.00    -0.200 F 
ENDBRANCH  71  94
ENDBRANCH  45  46
ENDBRANCH  38  40
ENDBRANCH  37  38
ENDBRANCH  36  37
ENDBRANCH  35  36
ENDBRANCH  34  35
ENDBRANCH  33  34
ENDBRANCH  32  33
ENDBRANCH   1  32
TORSDOF 23
