REMARK SMILES CCc1cc(OCC(=O)OCCOCCOCCOCCOC(=O)c2ccc(-c3c4nc(c(-c5c(F)c(F)c(F)c(F)c5F)c5ccc([nH]5)c(-c5c(F)c(F)c(F)c(F)c5F)c5nc(c(-c6c(F)c(F)c(F)c(F)c6F)c6ccc3[nH]6)C=C5)C=C4)cc2)nc(Nc2ccc(C)c(F)c2)n1
REMARK SMILES IDX 15 1 14 2 13 3 12 4 11 5 10 6 8 7 9 8 7 9 6 10 5 11 3 12
REMARK SMILES IDX 4 13 99 14 89 15 88 16 2 17 1 18 90 19 91 21 92 22 98 23
REMARK SMILES IDX 93 24 96 25 94 26 97 27 95 28 16 29 17 30 18 31 19 32 20 33
REMARK SMILES IDX 21 34 22 35 23 36 24 37 25 38 26 39 87 40 27 41 86 42 28 43
REMARK SMILES IDX 29 44 30 45 80 46 31 47 85 48 79 49 81 50 32 51 84 52 78 53
REMARK SMILES IDX 77 54 33 56 65 57 45 58 64 59 46 60 49 61 63 62 82 63 47 64
REMARK SMILES IDX 48 65 62 67 83 68 50 69 34 70 35 71 43 72 36 73 37 74 41 75
REMARK SMILES IDX 44 76 38 77 39 78 42 79 40 80 66 81 67 82 75 83 68 84 69 85
REMARK SMILES IDX 73 86 76 87 70 88 71 89 74 90 72 91 51 92 52 93 60 94 53 95
REMARK SMILES IDX 54 96 58 97 61 98 55 99 56 100 59 101 57 102
REMARK H PARENT 90 20 81 55 49 66
REMARK Flexibility Score: inf
ROOT
ATOM      1  C   UNL     1       3.854  -2.193   1.819  1.00  0.00     0.188 C 
ENDROOT
BRANCH   1   2
ATOM      2  C   UNL     1       3.646  -0.716   1.402  1.00  0.00     0.188 C 
BRANCH   2   3
ATOM      3  O   UNL     1       4.801  -0.025   0.984  1.00  0.00    -0.376 OA
BRANCH   3   4
ATOM      4  C   UNL     1       5.662   0.607   1.907  1.00  0.00     0.202 C 
BRANCH   4   5
ATOM      5  C   UNL     1       5.739   0.232   3.400  1.00  0.00     0.261 C 
BRANCH   5   6
ATOM      6  O   UNL     1       4.606  -0.434   3.988  1.00  0.00    -0.461 OA
BRANCH   6   7
ATOM      7  C   UNL     1       3.581   0.315   4.462  1.00  0.00     0.344 C 
ATOM      8  O   UNL     1       3.591   1.540   4.493  1.00  0.00    -0.248 OA
BRANCH   7   9
ATOM      9  C   UNL     1       2.386  -0.538   4.965  1.00  0.00     0.353 C 
BRANCH   9  10
ATOM     10  O   UNL     1       2.179  -1.883   4.551  1.00  0.00    -0.466 OA
BRANCH  10  11
ATOM     11  C   UNL     1       1.223  -2.238   3.630  1.00  0.00     0.218 A 
ATOM     12  C   UNL     1      -0.068  -1.929   1.692  1.00  0.00     0.050 A 
ATOM     13  C   UNL     1       0.602  -1.363   2.764  1.00  0.00     0.092 A 
ATOM     14  N   UNL     1      -0.191  -3.267   1.556  1.00  0.00    -0.218 NA
ATOM     15  C   UNL     1       0.388  -4.065   2.464  1.00  0.00     0.230 A 
ATOM     16  N   UNL     1       1.102  -3.582   3.498  1.00  0.00    -0.177 NA
BRANCH  12  17
ATOM     17  C   UNL     1      -0.698  -1.123   0.581  1.00  0.00     0.053 C 
ATOM     18  C   UNL     1      -0.006   0.177   0.186  1.00  0.00     0.011 C 
ENDBRANCH  12  17
BRANCH  15  19
ATOM     19  N   UNL     1       0.330  -5.460   2.302  1.00  0.00    -0.324 N 
ATOM     20  H   UNL     1       0.584  -6.002   3.084  1.00  0.00     0.170 HD
BRANCH  19  21
ATOM     21  C   UNL     1      -0.050  -6.168   1.149  1.00  0.00     0.044 A 
ATOM     22  C   UNL     1      -1.373  -6.573   0.945  1.00  0.00     0.026 A 
ATOM     23  C   UNL     1       0.889  -6.507   0.175  1.00  0.00     0.065 A 
ATOM     24  C   UNL     1      -1.765  -7.198  -0.252  1.00  0.00     0.008 A 
ATOM     25  C   UNL     1       0.492  -7.088  -1.032  1.00  0.00     0.128 A 
ATOM     26  C   UNL     1      -0.842  -7.406  -1.282  1.00  0.00    -0.015 A 
ATOM     27  F   UNL     1       1.420  -7.310  -1.975  1.00  0.00    -0.207 F 
ATOM     28  C   UNL     1      -1.272  -7.972  -2.603  1.00  0.00     0.047 C 
ENDBRANCH  19  21
ENDBRANCH  15  19
ENDBRANCH  10  11
ENDBRANCH   9  10
ENDBRANCH   7   9
ENDBRANCH   6   7
ENDBRANCH   5   6
ENDBRANCH   4   5
ENDBRANCH   3   4
ENDBRANCH   2   3
ENDBRANCH   1   2
BRANCH   1  29
ATOM     29  O   UNL     1       4.653  -3.116   1.096  1.00  0.00    -0.377 OA
BRANCH  29  30
ATOM     30  C   UNL     1       5.672  -2.595   0.276  1.00  0.00     0.188 C 
BRANCH  30  31
ATOM     31  C   UNL     1       5.169  -2.213  -1.125  1.00  0.00     0.188 C 
BRANCH  31  32
ATOM     32  O   UNL     1       3.849  -1.700  -1.129  1.00  0.00    -0.376 OA
BRANCH  32  33
ATOM     33  C   UNL     1       2.787  -2.505  -1.619  1.00  0.00     0.202 C 
BRANCH  33  34
ATOM     34  C   UNL     1       2.503  -3.902  -1.051  1.00  0.00     0.261 C 
BRANCH  34  35
ATOM     35  O   UNL     1       3.621  -4.739  -0.754  1.00  0.00    -0.460 OA
BRANCH  35  36
ATOM     36  C   UNL     1       4.261  -5.334  -1.769  1.00  0.00     0.338 C 
ATOM     37  O   UNL     1       4.009  -5.255  -2.964  1.00  0.00    -0.246 OA
BRANCH  36  38
ATOM     38  C   UNL     1       5.495  -5.901  -1.198  1.00  0.00     0.060 A 
ATOM     39  C   UNL     1       6.715  -5.379  -1.644  1.00  0.00     0.016 A 
ATOM     40  C   UNL     1       5.459  -6.874  -0.193  1.00  0.00     0.016 A 
ATOM     41  C   UNL     1       7.905  -5.827  -1.089  1.00  0.00     0.010 A 
ATOM     42  C   UNL     1       6.659  -7.359   0.333  1.00  0.00     0.010 A 
ATOM     43  C   UNL     1       7.883  -6.852  -0.136  1.00  0.00    -0.014 A 
BRANCH  43  44
ATOM     44  C   UNL     1       9.154  -7.545   0.153  1.00  0.00     0.031 A 
ATOM     45  C   UNL     1       9.491  -8.742  -0.689  1.00  0.00     0.074 A 
ATOM     46  C   UNL     1      10.016  -7.063   1.065  1.00  0.00     0.049 A 
ATOM     47  N   UNL     1      10.556  -9.498  -0.671  1.00  0.00    -0.248 NA
ATOM     48  C   UNL     1       8.492  -9.135  -1.700  1.00  0.00     0.031 C 
ATOM     49  C   UNL     1       9.801  -5.874   1.887  1.00  0.00     0.029 A 
ATOM     50  N   UNL     1      11.252  -7.518   1.446  1.00  0.00    -0.354 N 
ATOM     51  C   UNL     1      10.350 -10.454  -1.657  1.00  0.00     0.074 A 
ATOM     52  C   UNL     1       9.057 -10.200  -2.246  1.00  0.00     0.031 C 
ATOM     53  C   UNL     1      10.867  -5.700   2.688  1.00  0.00     0.029 A 
ATOM     54  C   UNL     1      11.822  -6.781   2.455  1.00  0.00     0.049 A 
ATOM     55  H   UNL     1      11.689  -8.299   1.036  1.00  0.00     0.167 HD
ATOM     56  C   UNL     1      11.177 -11.454  -2.034  1.00  0.00     0.037 A 
ATOM     57  C   UNL     1      12.974  -6.986   3.123  1.00  0.00     0.037 A 
ATOM     58  C   UNL     1      12.464 -11.689  -1.441  1.00  0.00     0.049 A 
ATOM     59  C   UNL     1      13.840  -8.158   2.724  1.00  0.00     0.074 A 
ATOM     60  C   UNL     1      13.395 -12.659  -1.761  1.00  0.00     0.029 A 
ATOM     61  N   UNL     1      12.992 -10.949  -0.393  1.00  0.00    -0.354 N 
ATOM     62  N   UNL     1      13.662  -9.034   1.764  1.00  0.00    -0.248 NA
ATOM     63  C   UNL     1      15.072  -8.366   3.498  1.00  0.00     0.031 C 
ATOM     64  C   UNL     1      14.458 -12.550  -0.861  1.00  0.00     0.029 A 
ATOM     65  C   UNL     1      14.223 -11.466  -0.029  1.00  0.00     0.049 A 
ATOM     66  H   UNL     1      12.557 -10.173   0.028  1.00  0.00     0.167 HD
ATOM     67  C   UNL     1      14.771  -9.870   1.795  1.00  0.00     0.074 A 
ATOM     68  C   UNL     1      15.626  -9.384   2.857  1.00  0.00     0.031 C 
ATOM     69  C   UNL     1      15.060 -10.945   1.020  1.00  0.00     0.037 A 
BRANCH  56  70
ATOM     70  C   UNL     1      10.705 -12.395  -3.102  1.00  0.00     0.064 A 
ATOM     71  C   UNL     1      10.619 -12.011  -4.448  1.00  0.00     0.173 A 
ATOM     72  C   UNL     1      10.396 -13.725  -2.776  1.00  0.00     0.173 A 
ATOM     73  F   UNL     1      10.882 -10.746  -4.808  1.00  0.00    -0.203 F 
ATOM     74  C   UNL     1      10.239 -12.925  -5.428  1.00  0.00     0.198 A 
ATOM     75  C   UNL     1      10.045 -14.642  -3.761  1.00  0.00     0.198 A 
ATOM     76  F   UNL     1      10.457 -14.139  -1.501  1.00  0.00    -0.203 F 
ATOM     77  F   UNL     1      10.137 -12.532  -6.705  1.00  0.00    -0.200 F 
ATOM     78  C   UNL     1       9.966 -14.241  -5.086  1.00  0.00     0.200 A 
ATOM     79  F   UNL     1       9.793 -15.915  -3.429  1.00  0.00    -0.200 F 
ATOM     80  F   UNL     1       9.625 -15.125  -6.034  1.00  0.00    -0.200 F 
ENDBRANCH  56  70
BRANCH  57  81
ATOM     81  C   UNL     1      13.366  -6.104   4.257  1.00  0.00     0.064 A 
ATOM     82  C   UNL     1      14.537  -5.333   4.215  1.00  0.00     0.173 A 
ATOM     83  C   UNL     1      12.611  -6.069   5.440  1.00  0.00     0.173 A 
ATOM     84  F   UNL     1      15.307  -5.345   3.117  1.00  0.00    -0.203 F 
ATOM     85  C   UNL     1      14.960  -4.600   5.323  1.00  0.00     0.198 A 
ATOM     86  C   UNL     1      13.015  -5.306   6.534  1.00  0.00     0.198 A 
ATOM     87  F   UNL     1      11.482  -6.786   5.540  1.00  0.00    -0.203 F 
ATOM     88  F   UNL     1      16.123  -3.936   5.280  1.00  0.00    -0.200 F 
ATOM     89  C   UNL     1      14.197  -4.585   6.481  1.00  0.00     0.200 A 
ATOM     90  F   UNL     1      12.266  -5.284   7.645  1.00  0.00    -0.200 F 
ATOM     91  F   UNL     1      14.610  -3.891   7.550  1.00  0.00    -0.200 F 
ENDBRANCH  57  81
BRANCH  69  92
ATOM     92  C   UNL     1      16.375 -11.631   1.255  1.00  0.00     0.064 A 
ATOM     93  C   UNL     1      16.621 -12.383   2.413  1.00  0.00     0.173 A 
ATOM     94  C   UNL     1      17.384 -11.574   0.281  1.00  0.00     0.173 A 
ATOM     95  F   UNL     1      15.693 -12.460   3.379  1.00  0.00    -0.203 F 
ATOM     96  C   UNL     1      17.842 -13.024   2.601  1.00  0.00     0.198 A 
ATOM     97  C   UNL     1      18.587 -12.249   0.455  1.00  0.00     0.198 A 
ATOM     98  F   UNL     1      17.193 -10.879  -0.851  1.00  0.00    -0.203 F 
ATOM     99  F   UNL     1      18.078 -13.689   3.741  1.00  0.00    -0.200 F 
ATOM    100  C   UNL     1      18.820 -12.965   1.619  1.00  0.00     0.200 A 
ATOM    101  F   UNL     1      19.522 -12.208  -0.505  1.00  0.00    -0.200 F 
ATOM    102  F   UNL     1      19.990 -13.592   1.798  1.00  0.00    -0.200 F 
ENDBRANCH  69  92
ENDBRANCH  43  44
ENDBRANCH  36  38
ENDBRANCH  35  36
ENDBRANCH  34  35
ENDBRANCH  33  34
ENDBRANCH  32  33
ENDBRANCH  31  32
ENDBRANCH  30  31
ENDBRANCH  29  30
ENDBRANCH   1  29
TORSDOF 25
