REMARK SMILES Cc1cccc(Cl)c1Nc1ccccc1CC(=O)OCCOCCOCCOCCOC(=O)c1ccc(-c2c3nc(c(-c4c(F)c(F)c(F)c(F)c4F)c4ccc([nH]4)c(-c4c(F)c(F)c(F)c(F)c4F)c4nc(c(-c5c(F)c(F)c(F)c(F)c5F)c5ccc2[nH]5)C=C4)C=C3)cc1
REMARK SMILES IDX 24 1 23 2 22 3 21 4 20 5 19 6 17 7 18 8 16 9 15 10 10 11
REMARK SMILES IDX 11 12 12 13 14 14 13 15 9 16 8 18 1 19 2 20 3 21 4 22 6 23
REMARK SMILES IDX 5 24 7 25 25 26 26 27 27 28 28 29 29 30 30 31 31 32 32 33
REMARK SMILES IDX 33 34 34 35 35 36 96 37 36 38 95 39 37 40 38 41 39 42 89 43
REMARK SMILES IDX 40 44 94 45 88 46 90 47 41 48 93 49 87 50 86 51 42 53 74 54
REMARK SMILES IDX 54 55 73 56 55 57 58 58 72 59 91 60 56 61 57 62 71 64 92 65
REMARK SMILES IDX 59 66 43 67 44 68 52 69 45 70 46 71 50 72 53 73 47 74 48 75
REMARK SMILES IDX 51 76 49 77 75 78 76 79 84 80 77 81 78 82 82 83 85 84 79 85
REMARK SMILES IDX 80 86 83 87 81 88 60 89 61 90 69 91 62 92 63 93 67 94 70 95
REMARK SMILES IDX 64 96 65 97 68 98 66 99
REMARK H PARENT 9 17 90 52 58 63
REMARK Flexibility Score: inf
ROOT
ATOM      1  C   UNL     1       3.269   3.717  -3.431  1.00  0.00     0.188 C 
ENDROOT
BRANCH   1   2
ATOM      2  C   UNL     1       3.501   2.511  -4.371  1.00  0.00     0.188 C 
BRANCH   2   3
ATOM      3  O   UNL     1       2.762   2.362  -5.583  1.00  0.00    -0.376 OA
BRANCH   3   4
ATOM      4  C   UNL     1       1.591   3.133  -5.786  1.00  0.00     0.202 C 
BRANCH   4   5
ATOM      5  C   UNL     1       0.412   2.904  -4.816  1.00  0.00     0.261 C 
BRANCH   5   6
ATOM      6  O   UNL     1       0.774   2.559  -3.458  1.00  0.00    -0.463 OA
BRANCH   6   7
ATOM      7  C   UNL     1       0.721   1.249  -3.123  1.00  0.00     0.310 C 
ATOM      8  O   UNL     1       0.206   0.397  -3.848  1.00  0.00    -0.252 OA
BRANCH   7   9
ATOM      9  C   UNL     1       1.464   0.834  -1.861  1.00  0.00     0.160 C 
BRANCH   9  10
ATOM     10  C   UNL     1       1.956   1.814  -0.795  1.00  0.00    -0.013 A 
ATOM     11  C   UNL     1       1.134   2.417   0.181  1.00  0.00     0.042 A 
ATOM     12  C   UNL     1       1.681   3.390   1.048  1.00  0.00     0.026 A 
ATOM     13  C   UNL     1       3.042   3.683   1.048  1.00  0.00     0.002 A 
ATOM     14  C   UNL     1       3.347   2.065  -0.711  1.00  0.00     0.006 A 
ATOM     15  C   UNL     1       3.883   2.986   0.194  1.00  0.00     0.000 A 
BRANCH  11  16
ATOM     16  N   UNL     1      -0.153   1.948   0.509  1.00  0.00    -0.354 N 
ATOM     17  H   UNL     1      -0.820   2.647   0.700  1.00  0.00     0.167 HD
BRANCH  16  18
ATOM     18  C   UNL     1      -0.626   0.616   0.604  1.00  0.00     0.060 A 
ATOM     19  C   UNL     1      -2.923   1.483  -0.062  1.00  0.00     0.046 C 
ATOM     20  C   UNL     1      -1.952   0.361   0.190  1.00  0.00    -0.026 A 
ATOM     21  C   UNL     1      -2.361  -0.960  -0.055  1.00  0.00     0.005 A 
ATOM     22  C   UNL     1      -1.488  -2.029   0.139  1.00  0.00     0.002 A 
ATOM     23  C   UNL     1       0.198  -0.493   0.926  1.00  0.00     0.064 A 
ATOM     24  C   UNL     1      -0.220  -1.799   0.658  1.00  0.00     0.023 A 
ATOM     25  Cl  UNL     1       1.749  -0.340   1.690  1.00  0.00    -0.082 Cl
ENDBRANCH  16  18
ENDBRANCH  11  16
ENDBRANCH   9  10
ENDBRANCH   7   9
ENDBRANCH   6   7
ENDBRANCH   5   6
ENDBRANCH   4   5
ENDBRANCH   3   4
ENDBRANCH   2   3
ENDBRANCH   1   2
BRANCH   1  26
ATOM     26  O   UNL     1       2.696   4.845  -4.064  1.00  0.00    -0.377 OA
BRANCH  26  27
ATOM     27  C   UNL     1       3.575   5.927  -4.268  1.00  0.00     0.188 C 
BRANCH  27  28
ATOM     28  C   UNL     1       4.859   5.587  -5.038  1.00  0.00     0.188 C 
BRANCH  28  29
ATOM     29  O   UNL     1       5.593   4.526  -4.439  1.00  0.00    -0.376 OA
BRANCH  29  30
ATOM     30  C   UNL     1       6.750   4.818  -3.677  1.00  0.00     0.202 C 
BRANCH  30  31
ATOM     31  C   UNL     1       6.581   5.501  -2.309  1.00  0.00     0.261 C 
BRANCH  31  32
ATOM     32  O   UNL     1       5.711   6.638  -2.245  1.00  0.00    -0.460 OA
BRANCH  32  33
ATOM     33  C   UNL     1       6.094   7.758  -2.900  1.00  0.00     0.338 C 
ATOM     34  O   UNL     1       7.109   7.924  -3.533  1.00  0.00    -0.246 OA
BRANCH  33  35
ATOM     35  C   UNL     1       4.943   8.697  -2.876  1.00  0.00     0.060 A 
ATOM     36  C   UNL     1       4.384   9.101  -4.095  1.00  0.00     0.016 A 
ATOM     37  C   UNL     1       4.394   9.136  -1.668  1.00  0.00     0.016 A 
ATOM     38  C   UNL     1       3.285   9.960  -4.112  1.00  0.00     0.010 A 
ATOM     39  C   UNL     1       3.317  10.029  -1.687  1.00  0.00     0.010 A 
ATOM     40  C   UNL     1       2.778  10.467  -2.910  1.00  0.00    -0.014 A 
BRANCH  40  41
ATOM     41  C   UNL     1       1.853  11.625  -2.943  1.00  0.00     0.031 A 
ATOM     42  C   UNL     1       2.449  13.001  -2.825  1.00  0.00     0.074 A 
ATOM     43  C   UNL     1       0.527  11.471  -3.105  1.00  0.00     0.049 A 
ATOM     44  N   UNL     1       1.859  14.167  -2.788  1.00  0.00    -0.248 NA
ATOM     45  C   UNL     1       3.917  13.065  -2.736  1.00  0.00     0.031 C 
ATOM     46  C   UNL     1      -0.161  10.196  -3.282  1.00  0.00     0.029 A 
ATOM     47  N   UNL     1      -0.478  12.406  -3.138  1.00  0.00    -0.354 N 
ATOM     48  C   UNL     1       2.881  15.100  -2.668  1.00  0.00     0.074 A 
ATOM     49  C   UNL     1       4.125  14.366  -2.604  1.00  0.00     0.031 C 
ATOM     50  C   UNL     1      -1.482  10.427  -3.390  1.00  0.00     0.029 A 
ATOM     51  C   UNL     1      -1.733  11.862  -3.256  1.00  0.00     0.049 A 
ATOM     52  H   UNL     1      -0.314  13.376  -3.082  1.00  0.00     0.167 HD
ATOM     53  C   UNL     1       2.791  16.450  -2.622  1.00  0.00     0.037 A 
ATOM     54  C   UNL     1      -2.942  12.457  -3.233  1.00  0.00     0.037 A 
ATOM     55  C   UNL     1       1.550  17.175  -2.673  1.00  0.00     0.049 A 
ATOM     56  C   UNL     1      -3.022  13.958  -3.089  1.00  0.00     0.074 A 
ATOM     57  C   UNL     1       1.348  18.543  -2.641  1.00  0.00     0.029 A 
ATOM     58  N   UNL     1       0.296  16.586  -2.754  1.00  0.00    -0.354 N 
ATOM     59  N   UNL     1      -2.053  14.838  -3.000  1.00  0.00    -0.248 NA
ATOM     60  C   UNL     1      -4.368  14.550  -3.046  1.00  0.00     0.031 C 
ATOM     61  C   UNL     1      -0.030  18.780  -2.637  1.00  0.00     0.029 A 
ATOM     62  C   UNL     1      -0.686  17.564  -2.741  1.00  0.00     0.049 A 
ATOM     63  H   UNL     1       0.129  15.618  -2.812  1.00  0.00     0.167 HD
ATOM     64  C   UNL     1      -2.667  16.082  -2.929  1.00  0.00     0.074 A 
ATOM     65  C   UNL     1      -4.094  15.846  -2.995  1.00  0.00     0.031 C 
ATOM     66  C   UNL     1      -2.103  17.311  -2.821  1.00  0.00     0.037 A 
BRANCH  53  67
ATOM     67  C   UNL     1       4.068  17.224  -2.472  1.00  0.00     0.064 A 
ATOM     68  C   UNL     1       5.017  17.297  -3.504  1.00  0.00     0.173 A 
ATOM     69  C   UNL     1       4.337  17.922  -1.285  1.00  0.00     0.173 A 
ATOM     70  F   UNL     1       4.817  16.633  -4.652  1.00  0.00    -0.203 F 
ATOM     71  C   UNL     1       6.199  18.015  -3.341  1.00  0.00     0.198 A 
ATOM     72  C   UNL     1       5.503  18.667  -1.138  1.00  0.00     0.198 A 
ATOM     73  F   UNL     1       3.464  17.886  -0.266  1.00  0.00    -0.203 F 
ATOM     74  F   UNL     1       7.115  18.025  -4.319  1.00  0.00    -0.200 F 
ATOM     75  C   UNL     1       6.437  18.706  -2.163  1.00  0.00     0.200 A 
ATOM     76  F   UNL     1       5.726  19.344  -0.003  1.00  0.00    -0.200 F 
ATOM     77  F   UNL     1       7.572  19.403  -2.010  1.00  0.00    -0.200 F 
ENDBRANCH  53  67
BRANCH  54  78
ATOM     78  C   UNL     1      -4.181  11.639  -3.330  1.00  0.00     0.064 A 
ATOM     79  C   UNL     1      -5.037  11.745  -4.436  1.00  0.00     0.173 A 
ATOM     80  C   UNL     1      -4.554  10.760  -2.302  1.00  0.00     0.173 A 
ATOM     81  F   UNL     1      -4.741  12.592  -5.432  1.00  0.00    -0.203 F 
ATOM     82  C   UNL     1      -6.226  11.021  -4.499  1.00  0.00     0.198 A 
ATOM     83  C   UNL     1      -5.728  10.012  -2.382  1.00  0.00     0.198 A 
ATOM     84  F   UNL     1      -3.777  10.624  -1.218  1.00  0.00    -0.203 F 
ATOM     85  F   UNL     1      -7.052  11.184  -5.542  1.00  0.00    -0.200 F 
ATOM     86  C   UNL     1      -6.568  10.150  -3.475  1.00  0.00     0.200 A 
ATOM     87  F   UNL     1      -6.047   9.163  -1.395  1.00  0.00    -0.200 F 
ATOM     88  F   UNL     1      -7.711   9.454  -3.537  1.00  0.00    -0.200 F 
ENDBRANCH  54  78
BRANCH  66  89
ATOM     89  C   UNL     1      -3.021  18.502  -2.821  1.00  0.00     0.064 A 
ATOM     90  C   UNL     1      -3.866  18.788  -1.739  1.00  0.00     0.173 A 
ATOM     91  C   UNL     1      -3.014  19.398  -3.902  1.00  0.00     0.173 A 
ATOM     92  F   UNL     1      -3.919  17.959  -0.685  1.00  0.00    -0.203 F 
ATOM     93  C   UNL     1      -4.691  19.910  -1.752  1.00  0.00     0.198 A 
ATOM     94  C   UNL     1      -3.813  20.538  -3.895  1.00  0.00     0.198 A 
ATOM     95  F   UNL     1      -2.217  19.179  -4.958  1.00  0.00    -0.203 F 
ATOM     96  F   UNL     1      -5.529  20.135  -0.730  1.00  0.00    -0.200 F 
ATOM     97  C   UNL     1      -4.658  20.788  -2.825  1.00  0.00     0.200 A 
ATOM     98  F   UNL     1      -3.764  21.395  -4.924  1.00  0.00    -0.200 F 
ATOM     99  F   UNL     1      -5.444  21.873  -2.830  1.00  0.00    -0.200 F 
ENDBRANCH  66  89
ENDBRANCH  40  41
ENDBRANCH  33  35
ENDBRANCH  32  33
ENDBRANCH  31  32
ENDBRANCH  30  31
ENDBRANCH  29  30
ENDBRANCH  28  29
ENDBRANCH  27  28
ENDBRANCH  26  27
ENDBRANCH   1  26
TORSDOF 23
