REMARK SMILES CC1=C(CC(=O)OCCOCCOCCOCCOC(=O)c2ccc(-c3c4nc(c(-c5c(F)c(F)c(F)c(F)c5F)c5ccc([nH]5)c(-c5c(F)c(F)c(F)c(F)c5F)c5nc(c(-c6c(F)c(F)c(F)c(F)c6F)c6ccc3[nH]6)C=C5)C=C4)cc2)c2cc(F)ccc2/C1=C\c1cccc(OCc2ccccc2)c1
REMARK SMILES IDX 11 1 10 2 9 3 8 4 7 5 5 6 6 7 4 8 3 9 1 10 2 11 92 12 85 13
REMARK SMILES IDX 91 14 93 15 86 16 90 17 87 18 89 19 88 20 94 21 95 22 107 23
REMARK SMILES IDX 96 24 98 25 97 26 99 27 100 28 101 29 102 30 106 31 103 32
REMARK SMILES IDX 105 33 104 34 12 35 13 36 14 37 15 38 16 39 17 40 18 41
REMARK SMILES IDX 19 42 20 43 21 44 22 45 23 46 84 47 24 48 83 49 25 50 26 51
REMARK SMILES IDX 27 52 77 53 28 54 82 55 76 56 78 57 29 58 81 59 75 60 74 61
REMARK SMILES IDX 30 63 62 64 42 65 61 66 43 67 46 68 60 69 79 70 44 71 45 72
REMARK SMILES IDX 59 74 80 75 47 76 31 77 32 78 40 79 33 80 34 81 38 82 41 83
REMARK SMILES IDX 35 84 36 85 39 86 37 87 63 88 64 89 72 90 65 91 66 92 70 93
REMARK SMILES IDX 73 94 67 95 68 96 71 97 69 98 48 99 49 100 57 101 50 102
REMARK SMILES IDX 51 103 55 104 58 105 52 106 53 107 56 108 54 109
REMARK H PARENT 78 62 46 73
REMARK Flexibility Score: inf
ROOT
ATOM      1  C   UNL     1       0.140  -0.359   5.866  1.00  0.00     0.188 C 
ENDROOT
BRANCH   1   2
ATOM      2  O   UNL     1       1.128  -1.214   6.398  1.00  0.00    -0.376 OA
BRANCH   2   3
ATOM      3  C   UNL     1       1.426  -2.413   5.714  1.00  0.00     0.202 C 
BRANCH   3   4
ATOM      4  C   UNL     1       1.656  -2.434   4.190  1.00  0.00     0.261 C 
BRANCH   4   5
ATOM      5  O   UNL     1       0.882  -1.530   3.376  1.00  0.00    -0.463 OA
BRANCH   5   6
ATOM      6  C   UNL     1      -0.285  -1.971   2.853  1.00  0.00     0.310 C 
ATOM      7  O   UNL     1      -0.738  -3.092   3.067  1.00  0.00    -0.252 OA
BRANCH   6   8
ATOM      8  C   UNL     1      -1.029  -0.948   1.970  1.00  0.00     0.159 C 
BRANCH   8   9
ATOM      9  C   UNL     1      -0.499   0.442   1.733  1.00  0.00    -0.025 C 
ATOM     10  C   UNL     1       1.223   0.021  -0.101  1.00  0.00     0.045 C 
ATOM     11  C   UNL     1       0.448   0.860   0.858  1.00  0.00    -0.039 C 
ATOM     12  C   UNL     1       0.625   2.322   0.956  1.00  0.00    -0.014 C 
ATOM     13  C   UNL     1      -1.037   1.657   2.396  1.00  0.00    -0.011 A 
ATOM     14  C   UNL     1      -0.329   2.798   1.969  1.00  0.00    -0.010 A 
ATOM     15  C   UNL     1       1.498   3.050   0.232  1.00  0.00     0.017 C 
ATOM     16  C   UNL     1      -2.032   1.780   3.360  1.00  0.00     0.048 A 
ATOM     17  C   UNL     1      -0.580   4.051   2.521  1.00  0.00     0.012 A 
ATOM     18  C   UNL     1      -2.275   3.040   3.908  1.00  0.00     0.123 A 
ATOM     19  C   UNL     1      -1.562   4.168   3.503  1.00  0.00     0.040 A 
ATOM     20  F   UNL     1      -3.188   3.167   4.880  1.00  0.00    -0.207 F 
BRANCH  15  21
ATOM     21  C   UNL     1       1.672   4.507   0.291  1.00  0.00    -0.021 A 
ATOM     22  C   UNL     1       2.632   5.073   1.135  1.00  0.00     0.008 A 
ATOM     23  C   UNL     1       0.837   5.341  -0.468  1.00  0.00     0.054 A 
ATOM     24  C   UNL     1       2.744   6.461   1.228  1.00  0.00     0.004 A 
ATOM     25  C   UNL     1       0.962   6.729  -0.402  1.00  0.00     0.120 A 
ATOM     26  C   UNL     1       1.912   7.281   0.462  1.00  0.00     0.046 A 
BRANCH  25  27
ATOM     27  O   UNL     1       0.231   7.645  -1.109  1.00  0.00    -0.489 OA
BRANCH  27  28
ATOM     28  C   UNL     1      -0.690   7.180  -2.103  1.00  0.00     0.265 C 
BRANCH  28  29
ATOM     29  C   UNL     1       0.001   6.691  -3.356  1.00  0.00    -0.011 A 
ATOM     30  C   UNL     1       0.841   7.546  -4.082  1.00  0.00     0.007 A 
ATOM     31  C   UNL     1      -0.165   5.370  -3.796  1.00  0.00     0.007 A 
ATOM     32  C   UNL     1       1.526   7.078  -5.205  1.00  0.00     0.000 A 
ATOM     33  C   UNL     1       0.536   4.898  -4.906  1.00  0.00     0.000 A 
ATOM     34  C   UNL     1       1.383   5.751  -5.608  1.00  0.00     0.000 A 
ENDBRANCH  28  29
ENDBRANCH  27  28
ENDBRANCH  25  27
ENDBRANCH  15  21
ENDBRANCH   8   9
ENDBRANCH   6   8
ENDBRANCH   5   6
ENDBRANCH   4   5
ENDBRANCH   3   4
ENDBRANCH   2   3
ENDBRANCH   1   2
BRANCH   1  35
ATOM     35  C   UNL     1       0.725   0.821   5.066  1.00  0.00     0.188 C 
BRANCH  35  36
ATOM     36  O   UNL     1       2.077   1.247   5.169  1.00  0.00    -0.377 OA
BRANCH  36  37
ATOM     37  C   UNL     1       2.816   0.912   6.322  1.00  0.00     0.188 C 
BRANCH  37  38
ATOM     38  C   UNL     1       2.243   1.350   7.678  1.00  0.00     0.188 C 
BRANCH  38  39
ATOM     39  O   UNL     1       0.885   1.772   7.631  1.00  0.00    -0.376 OA
BRANCH  39  40
ATOM     40  C   UNL     1       0.644   3.163   7.810  1.00  0.00     0.202 C 
BRANCH  40  41
ATOM     41  C   UNL     1       1.006   4.074   6.628  1.00  0.00     0.261 C 
BRANCH  41  42
ATOM     42  O   UNL     1       2.370   4.026   6.194  1.00  0.00    -0.460 OA
BRANCH  42  43
ATOM     43  C   UNL     1       3.326   4.412   7.061  1.00  0.00     0.338 C 
ATOM     44  O   UNL     1       3.181   4.828   8.197  1.00  0.00    -0.246 OA
BRANCH  43  45
ATOM     45  C   UNL     1       4.616   4.050   6.444  1.00  0.00     0.060 A 
ATOM     46  C   UNL     1       4.920   4.480   5.149  1.00  0.00     0.016 A 
ATOM     47  C   UNL     1       5.490   3.208   7.143  1.00  0.00     0.016 A 
ATOM     48  C   UNL     1       6.112   4.073   4.553  1.00  0.00     0.010 A 
ATOM     49  C   UNL     1       6.670   2.781   6.535  1.00  0.00     0.010 A 
ATOM     50  C   UNL     1       6.997   3.231   5.247  1.00  0.00    -0.014 A 
BRANCH  50  51
ATOM     51  C   UNL     1       8.359   3.001   4.719  1.00  0.00     0.031 A 
ATOM     52  C   UNL     1       8.736   1.755   3.986  1.00  0.00     0.074 A 
ATOM     53  C   UNL     1       9.268   3.966   4.946  1.00  0.00     0.049 A 
ATOM     54  N   UNL     1       9.880   1.449   3.426  1.00  0.00    -0.248 NA
ATOM     55  C   UNL     1       7.707   0.715   3.869  1.00  0.00     0.031 C 
ATOM     56  C   UNL     1       8.995   5.209   5.670  1.00  0.00     0.029 A 
ATOM     57  N   UNL     1      10.587   4.062   4.595  1.00  0.00    -0.354 N 
ATOM     58  C   UNL     1       9.704   0.194   2.864  1.00  0.00     0.074 A 
ATOM     59  C   UNL     1       8.358  -0.229   3.199  1.00  0.00     0.031 C 
ATOM     60  C   UNL     1      10.106   5.957   5.686  1.00  0.00     0.029 A 
ATOM     61  C   UNL     1      11.171   5.235   4.997  1.00  0.00     0.049 A 
ATOM     62  H   UNL     1      11.068   3.358   4.103  1.00  0.00     0.167 HD
ATOM     63  C   UNL     1      10.585  -0.522   2.122  1.00  0.00     0.037 A 
ATOM     64  C   UNL     1      12.426   5.686   4.822  1.00  0.00     0.037 A 
ATOM     65  C   UNL     1      11.934  -0.099   1.833  1.00  0.00     0.049 A 
ATOM     66  C   UNL     1      13.401   4.842   4.058  1.00  0.00     0.074 A 
ATOM     67  C   UNL     1      12.901  -0.743   1.079  1.00  0.00     0.029 A 
ATOM     68  N   UNL     1      12.516   1.074   2.301  1.00  0.00    -0.354 N 
ATOM     69  N   UNL     1      13.210   3.684   3.475  1.00  0.00    -0.248 NA
ATOM     70  C   UNL     1      14.764   5.369   3.923  1.00  0.00     0.031 C 
ATOM     71  C   UNL     1      14.079   0.011   1.135  1.00  0.00     0.029 A 
ATOM     72  C   UNL     1      13.835   1.155   1.877  1.00  0.00     0.049 A 
ATOM     73  H   UNL     1      12.058   1.749   2.853  1.00  0.00     0.167 HD
ATOM     74  C   UNL     1      14.420   3.348   2.888  1.00  0.00     0.074 A 
ATOM     75  C   UNL     1      15.335   4.436   3.172  1.00  0.00     0.031 C 
ATOM     76  C   UNL     1      14.740   2.238   2.179  1.00  0.00     0.037 A 
BRANCH  63  77
ATOM     77  C   UNL     1      10.118  -1.837   1.564  1.00  0.00     0.064 A 
ATOM     78  C   UNL     1       9.155  -1.895   0.544  1.00  0.00     0.173 A 
ATOM     79  C   UNL     1      10.674  -3.048   2.004  1.00  0.00     0.173 A 
ATOM     80  F   UNL     1       8.589  -0.768   0.085  1.00  0.00    -0.203 F 
ATOM     81  C   UNL     1       8.747  -3.114   0.007  1.00  0.00     0.198 A 
ATOM     82  C   UNL     1      10.285  -4.264   1.445  1.00  0.00     0.198 A 
ATOM     83  F   UNL     1      11.608  -3.054   2.967  1.00  0.00    -0.203 F 
ATOM     84  F   UNL     1       7.794  -3.144  -0.935  1.00  0.00    -0.200 F 
ATOM     85  C   UNL     1       9.317  -4.297   0.453  1.00  0.00     0.200 A 
ATOM     86  F   UNL     1      10.849  -5.405   1.865  1.00  0.00    -0.200 F 
ATOM     87  F   UNL     1       8.929  -5.468  -0.070  1.00  0.00    -0.200 F 
ENDBRANCH  63  77
BRANCH  64  88
ATOM     88  C   UNL     1      12.782   7.033   5.330  1.00  0.00     0.064 A 
ATOM     89  C   UNL     1      12.957   8.101   4.441  1.00  0.00     0.173 A 
ATOM     90  C   UNL     1      12.869   7.300   6.704  1.00  0.00     0.173 A 
ATOM     91  F   UNL     1      12.892   7.890   3.119  1.00  0.00    -0.203 F 
ATOM     92  C   UNL     1      13.202   9.390   4.909  1.00  0.00     0.198 A 
ATOM     93  C   UNL     1      13.089   8.593   7.171  1.00  0.00     0.198 A 
ATOM     94  F   UNL     1      12.694   6.310   7.593  1.00  0.00    -0.203 F 
ATOM     95  F   UNL     1      13.379  10.393   4.039  1.00  0.00    -0.200 F 
ATOM     96  C   UNL     1      13.257   9.636   6.273  1.00  0.00     0.200 A 
ATOM     97  F   UNL     1      13.120   8.831   8.489  1.00  0.00    -0.200 F 
ATOM     98  F   UNL     1      13.468  10.881   6.722  1.00  0.00    -0.200 F 
ENDBRANCH  64  88
BRANCH  76  99
ATOM     99  C   UNL     1      16.144   2.141   1.655  1.00  0.00     0.064 A 
ATOM    100  C   UNL     1      17.230   1.900   2.509  1.00  0.00     0.173 A 
ATOM    101  C   UNL     1      16.400   2.236   0.278  1.00  0.00     0.173 A 
ATOM    102  F   UNL     1      17.040   1.819   3.835  1.00  0.00    -0.203 F 
ATOM    103  C   UNL     1      18.522   1.773   2.007  1.00  0.00     0.198 A 
ATOM    104  C   UNL     1      17.689   2.078  -0.224  1.00  0.00     0.198 A 
ATOM    105  F   UNL     1      15.396   2.462  -0.583  1.00  0.00    -0.203 F 
ATOM    106  F   UNL     1      19.549   1.583   2.846  1.00  0.00    -0.200 F 
ATOM    107  C   UNL     1      18.749   1.852   0.641  1.00  0.00     0.200 A 
ATOM    108  F   UNL     1      17.905   2.141  -1.545  1.00  0.00    -0.200 F 
ATOM    109  F   UNL     1      19.992   1.715   0.158  1.00  0.00    -0.200 F 
ENDBRANCH  76  99
ENDBRANCH  50  51
ENDBRANCH  43  45
ENDBRANCH  42  43
ENDBRANCH  41  42
ENDBRANCH  40  41
ENDBRANCH  39  40
ENDBRANCH  38  39
ENDBRANCH  37  38
ENDBRANCH  36  37
ENDBRANCH  35  36
ENDBRANCH   1  35
TORSDOF 25
