REMARK SMILES CC[N@H+](CC(C)(C)C(=O)OCCOCCOCCOCCOC(=O)c1ccc(-c2c3nc(c(-c4c(F)c(F)c(F)c(F)c4F)c4ccc([nH]4)c(-c4c(F)c(F)c(F)c(F)c4F)c4nc(c(-c5c(F)c(F)c(F)c(F)c5F)c5ccc2[nH]5)C=C4)C=C3)cc1)[C@H]1CC[NH2+]C1
REMARK SMILES IDX 15 1 14 2 13 3 12 4 11 5 10 6 8 7 9 8 5 9 6 10 7 11 4 12
REMARK SMILES IDX 3 13 2 15 1 16 88 17 89 18 92 19 90 20 91 21 16 24 17 25
REMARK SMILES IDX 18 26 19 27 20 28 21 29 22 30 23 31 24 32 25 33 26 34 87 35
REMARK SMILES IDX 27 36 86 37 28 38 29 39 30 40 80 41 31 42 85 43 79 44 81 45
REMARK SMILES IDX 32 46 84 47 78 48 77 49 33 51 65 52 45 53 64 54 46 55 49 56
REMARK SMILES IDX 63 57 82 58 47 59 48 60 62 62 83 63 50 64 34 65 35 66 43 67
REMARK SMILES IDX 36 68 37 69 41 70 44 71 38 72 39 73 42 74 40 75 66 76 67 77
REMARK SMILES IDX 75 78 68 79 69 80 73 81 76 82 70 83 71 84 74 85 72 86 51 87
REMARK SMILES IDX 52 88 60 89 53 90 54 91 58 92 61 93 55 94 56 95 59 96 57 97
REMARK H PARENT 3 14 91 22 91 23 81 50 49 61
REMARK Flexibility Score: inf
ROOT
ATOM      1  C   UNL     1       0.621   3.761   4.943  1.00  0.00     0.188 C 
ENDROOT
BRANCH   1   2
ATOM      2  C   UNL     1       0.157   2.422   4.345  1.00  0.00     0.188 C 
BRANCH   2   3
ATOM      3  O   UNL     1      -0.252   1.446   5.294  1.00  0.00    -0.376 OA
BRANCH   3   4
ATOM      4  C   UNL     1       0.647   0.361   5.511  1.00  0.00     0.202 C 
BRANCH   4   5
ATOM      5  C   UNL     1       2.036   0.725   6.050  1.00  0.00     0.261 C 
BRANCH   5   6
ATOM      6  O   UNL     1       2.670   1.726   5.233  1.00  0.00    -0.463 OA
BRANCH   6   7
ATOM      7  C   UNL     1       3.735   1.379   4.476  1.00  0.00     0.317 C 
ATOM      8  O   UNL     1       4.218   0.253   4.469  1.00  0.00    -0.251 OA
BRANCH   7   9
ATOM      9  C   UNL     1       4.237   2.561   3.626  1.00  0.00     0.111 C 
ATOM     10  C   UNL     1       5.684   2.237   3.216  1.00  0.00     0.029 C 
ATOM     11  C   UNL     1       4.289   3.853   4.499  1.00  0.00     0.029 C 
BRANCH   9  12
ATOM     12  C   UNL     1       3.375   2.858   2.343  1.00  0.00     0.280 C 
BRANCH  12  13
ATOM     13  N   UNL     1       3.250   1.847   1.253  1.00  0.00    -0.327 N 
ATOM     14  H   UNL     1       4.184   1.469   1.093  1.00  0.00     0.348 HD
BRANCH  13  15
ATOM     15  C   UNL     1       2.332   0.757   1.671  1.00  0.00     0.259 C 
ATOM     16  C   UNL     1       2.014  -0.368   0.693  1.00  0.00     0.071 C 
ENDBRANCH  13  15
BRANCH  13  17
ATOM     17  C   UNL     1       2.805   2.434  -0.046  1.00  0.00     0.245 C 
ATOM     18  C   UNL     1       3.313   3.830  -0.436  1.00  0.00     0.132 C 
ATOM     19  C   UNL     1       3.245   1.598  -1.278  1.00  0.00     0.326 C 
ATOM     20  C   UNL     1       3.189   3.832  -1.947  1.00  0.00     0.267 C 
ATOM     21  N   UNL     1       3.709   2.520  -2.332  1.00  0.00    -0.341 N 
ATOM     22  H   UNL     1       4.728   2.536  -2.369  1.00  0.00     0.346 HD
ATOM     23  H   UNL     1       3.385   2.237  -3.256  1.00  0.00     0.346 HD
ENDBRANCH  13  17
ENDBRANCH  12  13
ENDBRANCH   9  12
ENDBRANCH   7   9
ENDBRANCH   6   7
ENDBRANCH   5   6
ENDBRANCH   4   5
ENDBRANCH   3   4
ENDBRANCH   2   3
ENDBRANCH   1   2
BRANCH   1  24
ATOM     24  O   UNL     1       0.920   3.799   6.326  1.00  0.00    -0.377 OA
BRANCH  24  25
ATOM     25  C   UNL     1      -0.079   3.391   7.253  1.00  0.00     0.188 C 
BRANCH  25  26
ATOM     26  C   UNL     1      -1.577   3.363   6.867  1.00  0.00     0.188 C 
BRANCH  26  27
ATOM     27  O   UNL     1      -1.920   4.097   5.703  1.00  0.00    -0.376 OA
BRANCH  27  28
ATOM     28  C   UNL     1      -2.491   5.383   5.894  1.00  0.00     0.202 C 
BRANCH  28  29
ATOM     29  C   UNL     1      -1.584   6.444   6.537  1.00  0.00     0.261 C 
BRANCH  29  30
ATOM     30  O   UNL     1      -1.103   6.145   7.859  1.00  0.00    -0.460 OA
BRANCH  30  31
ATOM     31  C   UNL     1      -2.013   5.917   8.828  1.00  0.00     0.338 C 
ATOM     32  O   UNL     1      -3.229   5.991   8.737  1.00  0.00    -0.246 OA
BRANCH  31  33
ATOM     33  C   UNL     1      -1.299   5.349   9.990  1.00  0.00     0.060 A 
ATOM     34  C   UNL     1      -1.652   4.072  10.448  1.00  0.00     0.016 A 
ATOM     35  C   UNL     1      -0.268   6.063  10.605  1.00  0.00     0.016 A 
ATOM     36  C   UNL     1      -0.999   3.520  11.550  1.00  0.00     0.010 A 
ATOM     37  C   UNL     1       0.364   5.522  11.727  1.00  0.00     0.010 A 
ATOM     38  C   UNL     1      -0.026   4.266  12.226  1.00  0.00    -0.014 A 
BRANCH  38  39
ATOM     39  C   UNL     1       0.400   3.849  13.583  1.00  0.00     0.031 A 
ATOM     40  C   UNL     1      -0.307   4.466  14.759  1.00  0.00     0.074 A 
ATOM     41  C   UNL     1       1.363   2.933  13.776  1.00  0.00     0.049 A 
ATOM     42  N   UNL     1      -0.092   4.311  16.040  1.00  0.00    -0.248 NA
ATOM     43  C   UNL     1      -1.409   5.390  14.442  1.00  0.00     0.031 C 
ATOM     44  C   UNL     1       2.085   2.227  12.722  1.00  0.00     0.029 A 
ATOM     45  N   UNL     1       1.904   2.447  14.941  1.00  0.00    -0.354 N 
ATOM     46  C   UNL     1      -1.024   5.120  16.677  1.00  0.00     0.074 A 
ATOM     47  C   UNL     1      -1.784   5.790  15.646  1.00  0.00     0.031 C 
ATOM     48  C   UNL     1       2.987   1.406  13.288  1.00  0.00     0.029 A 
ATOM     49  C   UNL     1       2.928   1.554  14.742  1.00  0.00     0.049 A 
ATOM     50  H   UNL     1       1.588   2.714  15.835  1.00  0.00     0.167 HD
ATOM     51  C   UNL     1      -1.234   5.282  18.004  1.00  0.00     0.037 A 
ATOM     52  C   UNL     1       3.737   0.950  15.635  1.00  0.00     0.037 A 
ATOM     53  C   UNL     1      -0.472   4.620  19.028  1.00  0.00     0.049 A 
ATOM     54  C   UNL     1       3.541   1.215  17.108  1.00  0.00     0.074 A 
ATOM     55  C   UNL     1      -0.610   4.710  20.401  1.00  0.00     0.029 A 
ATOM     56  N   UNL     1       0.583   3.752  18.787  1.00  0.00    -0.354 N 
ATOM     57  N   UNL     1       2.645   1.962  17.707  1.00  0.00    -0.248 NA
ATOM     58  C   UNL     1       4.471   0.547  18.031  1.00  0.00     0.031 C 
ATOM     59  C   UNL     1       0.399   3.943  20.992  1.00  0.00     0.029 A 
ATOM     60  C   UNL     1       1.124   3.321  19.987  1.00  0.00     0.049 A 
ATOM     61  H   UNL     1       0.900   3.482  17.895  1.00  0.00     0.167 HD
ATOM     62  C   UNL     1       2.880   1.828  19.070  1.00  0.00     0.074 A 
ATOM     63  C   UNL     1       3.996   0.918  19.212  1.00  0.00     0.031 C 
ATOM     64  C   UNL     1       2.229   2.405  20.112  1.00  0.00     0.037 A 
BRANCH  51  65
ATOM     65  C   UNL     1      -2.311   6.242  18.420  1.00  0.00     0.064 A 
ATOM     66  C   UNL     1      -3.671   5.964  18.215  1.00  0.00     0.173 A 
ATOM     67  C   UNL     1      -1.977   7.451  19.049  1.00  0.00     0.173 A 
ATOM     68  F   UNL     1      -4.044   4.831  17.601  1.00  0.00    -0.203 F 
ATOM     69  C   UNL     1      -4.654   6.874  18.597  1.00  0.00     0.198 A 
ATOM     70  C   UNL     1      -2.963   8.343  19.460  1.00  0.00     0.198 A 
ATOM     71  F   UNL     1      -0.692   7.767  19.269  1.00  0.00    -0.203 F 
ATOM     72  F   UNL     1      -5.943   6.612  18.341  1.00  0.00    -0.200 F 
ATOM     73  C   UNL     1      -4.300   8.058  19.226  1.00  0.00     0.200 A 
ATOM     74  F   UNL     1      -2.620   9.481  20.078  1.00  0.00    -0.200 F 
ATOM     75  F   UNL     1      -5.247   8.929  19.599  1.00  0.00    -0.200 F 
ENDBRANCH  51  65
BRANCH  52  76
ATOM     76  C   UNL     1       4.819   0.043  15.168  1.00  0.00     0.064 A 
ATOM     77  C   UNL     1       4.787  -1.331  15.450  1.00  0.00     0.173 A 
ATOM     78  C   UNL     1       5.925   0.534  14.459  1.00  0.00     0.173 A 
ATOM     79  F   UNL     1       3.766  -1.846  16.151  1.00  0.00    -0.203 F 
ATOM     80  C   UNL     1       5.827  -2.172  15.058  1.00  0.00     0.198 A 
ATOM     81  C   UNL     1       6.949  -0.313  14.040  1.00  0.00     0.198 A 
ATOM     82  F   UNL     1       6.011   1.841  14.168  1.00  0.00    -0.203 F 
ATOM     83  F   UNL     1       5.795  -3.470  15.388  1.00  0.00    -0.200 F 
ATOM     84  C   UNL     1       6.904  -1.664  14.348  1.00  0.00     0.200 A 
ATOM     85  F   UNL     1       7.983   0.181  13.346  1.00  0.00    -0.200 F 
ATOM     86  F   UNL     1       7.903  -2.473  13.971  1.00  0.00    -0.200 F 
ENDBRANCH  52  76
BRANCH  64  87
ATOM     87  C   UNL     1       2.673   2.034  21.500  1.00  0.00     0.064 A 
ATOM     88  C   UNL     1       3.901   2.462  22.025  1.00  0.00     0.173 A 
ATOM     89  C   UNL     1       1.832   1.278  22.332  1.00  0.00     0.173 A 
ATOM     90  F   UNL     1       4.746   3.178  21.268  1.00  0.00    -0.203 F 
ATOM     91  C   UNL     1       4.283   2.122  23.320  1.00  0.00     0.198 A 
ATOM     92  C   UNL     1       2.202   0.970  23.638  1.00  0.00     0.198 A 
ATOM     93  F   UNL     1       0.641   0.852  21.884  1.00  0.00    -0.203 F 
ATOM     94  F   UNL     1       5.484   2.498  23.783  1.00  0.00    -0.200 F 
ATOM     95  C   UNL     1       3.431   1.384  24.128  1.00  0.00     0.200 A 
ATOM     96  F   UNL     1       1.369   0.273  24.422  1.00  0.00    -0.200 F 
ATOM     97  F   UNL     1       3.797   1.066  25.378  1.00  0.00    -0.200 F 
ENDBRANCH  64  87
ENDBRANCH  38  39
ENDBRANCH  31  33
ENDBRANCH  30  31
ENDBRANCH  29  30
ENDBRANCH  28  29
ENDBRANCH  27  28
ENDBRANCH  26  27
ENDBRANCH  25  26
ENDBRANCH  24  25
ENDBRANCH   1  24
TORSDOF 24
