REMARK SMILES Cc1ccc(C(=O)OCCOCCOCCOCCOC(=O)c2ccc(-c3c4nc(c(-c5c(F)c(F)c(F)c(F)c5F)c5ccc([nH]5)c(-c5c(F)c(F)c(F)c(F)c5F)c5nc(c(-c6c(F)c(F)c(F)c(F)c6F)c6ccc3[nH]6)C=C5)C=C4)cc2)cc1/[NH+]=C1\NCCS1
REMARK SMILES IDX 15 1 14 2 13 3 12 4 11 5 10 6 9 7 8 8 6 9 7 10 5 11 1 12
REMARK SMILES IDX 2 13 3 14 87 15 4 16 86 17 88 18 89 19 90 21 93 22 91 23
REMARK SMILES IDX 92 25 16 26 17 27 18 28 19 29 20 30 21 31 22 32 23 33 24 34
REMARK SMILES IDX 85 35 25 36 84 37 26 38 27 39 28 40 78 41 29 42 83 43 77 44
REMARK SMILES IDX 79 45 30 46 82 47 76 48 75 49 31 51 63 52 43 53 62 54 44 55
REMARK SMILES IDX 47 56 61 57 80 58 45 59 46 60 60 62 81 63 48 64 32 65 33 66
REMARK SMILES IDX 41 67 34 68 35 69 39 70 42 71 36 72 37 73 40 74 38 75 64 76
REMARK SMILES IDX 65 77 73 78 66 79 67 80 71 81 74 82 68 83 69 84 72 85 70 86
REMARK SMILES IDX 49 87 50 88 58 89 51 90 52 91 56 92 59 93 53 94 54 95 57 96
REMARK SMILES IDX 55 97
REMARK H PARENT 88 20 90 24 79 50 47 61
REMARK Flexibility Score: inf
ROOT
ATOM      1  C   UNL     1      -3.402   2.857  -5.229  1.00  0.00     0.188 C 
ENDROOT
BRANCH   1   2
ATOM      2  O   UNL     1      -2.318   2.033  -4.847  1.00  0.00    -0.377 OA
BRANCH   2   3
ATOM      3  C   UNL     1      -2.454   1.553  -3.514  1.00  0.00     0.188 C 
BRANCH   3   4
ATOM      4  C   UNL     1      -3.870   1.051  -3.045  1.00  0.00     0.188 C 
BRANCH   4   5
ATOM      5  O   UNL     1      -4.920   1.952  -2.348  1.00  0.00    -0.376 OA
BRANCH   5   6
ATOM      6  C   UNL     1      -5.812   1.726  -0.982  1.00  0.00     0.202 C 
BRANCH   6   7
ATOM      7  C   UNL     1      -5.711   0.885   0.675  1.00  0.00     0.261 C 
BRANCH   7   8
ATOM      8  O   UNL     1      -4.507  -0.289   1.416  1.00  0.00    -0.460 OA
BRANCH   8   9
ATOM      9  C   UNL     1      -3.316  -1.343   1.142  1.00  0.00     0.338 C 
ATOM     10  O   UNL     1      -3.531  -2.528   1.447  1.00  0.00    -0.246 OA
BRANCH   9  11
ATOM     11  C   UNL     1      -1.717  -1.194   0.608  1.00  0.00     0.064 A 
ATOM     12  C   UNL     1       2.681  -0.916   0.319  1.00  0.00     0.049 C 
ATOM     13  C   UNL     1       1.185  -1.020   0.350  1.00  0.00    -0.004 A 
ATOM     14  C   UNL     1       0.537  -2.194   0.772  1.00  0.00     0.008 A 
ATOM     15  C   UNL     1       0.394   0.039  -0.055  1.00  0.00     0.129 A 
ATOM     16  C   UNL     1      -0.871  -2.257   0.946  1.00  0.00     0.016 A 
ATOM     17  C   UNL     1      -1.002  -0.146  -0.051  1.00  0.00     0.067 A 
BRANCH  15  18
ATOM     18  N   UNL     1       0.868   1.365  -0.137  1.00  0.00    -0.235 N 
ATOM     19  C   UNL     1       1.576   1.836  -1.094  1.00  0.00     0.309 C 
ATOM     20  H   UNL     1       0.635   1.977   0.598  1.00  0.00     0.313 HD
ATOM     21  N   UNL     1       2.022   1.302  -2.261  1.00  0.00    -0.268 N 
ATOM     22  S   UNL     1       2.168   3.500  -0.938  1.00  0.00    -0.035 SA
ATOM     23  C   UNL     1       2.785   2.172  -3.132  1.00  0.00     0.246 C 
ATOM     24  H   UNL     1       1.835   0.367  -2.503  1.00  0.00     0.305 HD
ATOM     25  C   UNL     1       3.408   3.248  -2.244  1.00  0.00     0.128 C 
ENDBRANCH  15  18
ENDBRANCH   9  11
ENDBRANCH   8   9
ENDBRANCH   7   8
ENDBRANCH   6   7
ENDBRANCH   5   6
ENDBRANCH   4   5
ENDBRANCH   3   4
ENDBRANCH   2   3
ENDBRANCH   1   2
BRANCH   1  26
ATOM     26  C   UNL     1      -4.388   2.095  -6.121  1.00  0.00     0.188 C 
BRANCH  26  27
ATOM     27  O   UNL     1      -4.459   0.719  -5.788  1.00  0.00    -0.376 OA
BRANCH  27  28
ATOM     28  C   UNL     1      -3.849  -0.213  -6.664  1.00  0.00     0.202 C 
BRANCH  28  29
ATOM     29  C   UNL     1      -4.906  -0.670  -7.671  1.00  0.00     0.261 C 
BRANCH  29  30
ATOM     30  O   UNL     1      -5.944  -1.423  -6.993  1.00  0.00    -0.460 OA
BRANCH  30  31
ATOM     31  C   UNL     1      -6.803  -0.698  -6.248  1.00  0.00     0.338 C 
ATOM     32  O   UNL     1      -7.467   0.276  -6.670  1.00  0.00    -0.246 OA
BRANCH  31  33
ATOM     33  C   UNL     1      -6.662  -1.052  -4.808  1.00  0.00     0.060 A 
ATOM     34  C   UNL     1      -7.310  -0.309  -3.832  1.00  0.00     0.016 A 
ATOM     35  C   UNL     1      -5.658  -1.942  -4.399  1.00  0.00     0.016 A 
ATOM     36  C   UNL     1      -6.806  -0.332  -2.522  1.00  0.00     0.010 A 
ATOM     37  C   UNL     1      -5.038  -1.782  -3.150  1.00  0.00     0.010 A 
ATOM     38  C   UNL     1      -5.508  -0.830  -2.235  1.00  0.00    -0.014 A 
BRANCH  38  39
ATOM     39  C   UNL     1      -4.651  -0.519  -0.879  1.00  0.00     0.031 A 
ATOM     40  C   UNL     1      -5.602  -1.747   0.025  1.00  0.00     0.074 A 
ATOM     41  C   UNL     1      -3.667   0.736  -0.354  1.00  0.00     0.049 A 
ATOM     42  N   UNL     1      -6.304  -1.565   1.131  1.00  0.00    -0.248 NA
ATOM     43  C   UNL     1      -5.907  -3.106  -0.481  1.00  0.00     0.031 C 
ATOM     44  C   UNL     1      -2.918   1.148   1.113  1.00  0.00     0.029 A 
ATOM     45  N   UNL     1      -3.349   2.158  -0.792  1.00  0.00    -0.354 N 
ATOM     46  C   UNL     1      -6.439  -2.783   1.726  1.00  0.00     0.074 A 
ATOM     47  C   UNL     1      -6.535  -3.651   0.574  1.00  0.00     0.031 C 
ATOM     48  C   UNL     1      -2.493   2.402   1.247  1.00  0.00     0.029 A 
ATOM     49  C   UNL     1      -3.185   3.111   0.254  1.00  0.00     0.049 A 
ATOM     50  H   UNL     1      -3.262   2.405  -1.741  1.00  0.00     0.167 HD
ATOM     51  C   UNL     1      -6.037  -2.998   3.031  1.00  0.00     0.037 A 
ATOM     52  C   UNL     1      -3.977   4.178   0.615  1.00  0.00     0.037 A 
ATOM     53  C   UNL     1      -5.441  -1.793   3.715  1.00  0.00     0.049 A 
ATOM     54  C   UNL     1      -4.523   3.979   2.071  1.00  0.00     0.074 A 
ATOM     55  C   UNL     1      -4.133  -1.538   4.129  1.00  0.00     0.029 A 
ATOM     56  N   UNL     1      -6.081  -0.540   3.820  1.00  0.00    -0.354 N 
ATOM     57  N   UNL     1      -4.693   2.802   2.631  1.00  0.00    -0.248 NA
ATOM     58  C   UNL     1      -4.886   5.046   2.994  1.00  0.00     0.031 C 
ATOM     59  C   UNL     1      -3.970  -0.160   4.416  1.00  0.00     0.029 A 
ATOM     60  C   UNL     1      -5.192   0.466   4.247  1.00  0.00     0.049 A 
ATOM     61  H   UNL     1      -7.032  -0.388   3.620  1.00  0.00     0.167 HD
ATOM     62  C   UNL     1      -5.227   2.904   3.888  1.00  0.00     0.074 A 
ATOM     63  C   UNL     1      -5.265   4.349   4.087  1.00  0.00     0.031 C 
ATOM     64  C   UNL     1      -5.604   1.820   4.654  1.00  0.00     0.037 A 
BRANCH  51  65
ATOM     65  C   UNL     1      -5.710  -4.448   3.464  1.00  0.00     0.064 A 
ATOM     66  C   UNL     1      -4.706  -4.768   4.402  1.00  0.00     0.173 A 
ATOM     67  C   UNL     1      -6.323  -5.583   2.894  1.00  0.00     0.173 A 
ATOM     68  F   UNL     1      -4.218  -3.858   5.254  1.00  0.00    -0.203 F 
ATOM     69  C   UNL     1      -4.199  -6.065   4.559  1.00  0.00     0.198 A 
ATOM     70  C   UNL     1      -5.793  -6.875   3.009  1.00  0.00     0.198 A 
ATOM     71  F   UNL     1      -7.500  -5.482   2.258  1.00  0.00    -0.203 F 
ATOM     72  F   UNL     1      -3.216  -6.294   5.443  1.00  0.00    -0.200 F 
ATOM     73  C   UNL     1      -4.705  -7.111   3.819  1.00  0.00     0.200 A 
ATOM     74  F   UNL     1      -6.354  -7.889   2.335  1.00  0.00    -0.200 F 
ATOM     75  F   UNL     1      -4.195  -8.344   3.938  1.00  0.00    -0.200 F 
ENDBRANCH  51  65
BRANCH  52  76
ATOM     76  C   UNL     1      -4.688   4.926  -0.477  1.00  0.00     0.064 A 
ATOM     77  C   UNL     1      -3.954   5.319  -1.615  1.00  0.00     0.173 A 
ATOM     78  C   UNL     1      -6.087   5.005  -0.580  1.00  0.00     0.173 A 
ATOM     79  F   UNL     1      -2.613   5.346  -1.573  1.00  0.00    -0.203 F 
ATOM     80  C   UNL     1      -4.576   5.588  -2.836  1.00  0.00     0.198 A 
ATOM     81  C   UNL     1      -6.708   5.242  -1.815  1.00  0.00     0.198 A 
ATOM     82  F   UNL     1      -6.859   4.652   0.458  1.00  0.00    -0.203 F 
ATOM     83  F   UNL     1      -3.834   5.844  -3.924  1.00  0.00    -0.200 F 
ATOM     84  C   UNL     1      -5.951   5.495  -2.948  1.00  0.00     0.200 A 
ATOM     85  F   UNL     1      -8.039   5.118  -1.925  1.00  0.00    -0.200 F 
ATOM     86  F   UNL     1      -6.538   5.612  -4.148  1.00  0.00    -0.200 F 
ENDBRANCH  52  76
BRANCH  64  87
ATOM     87  C   UNL     1      -6.270   1.919   6.015  1.00  0.00     0.064 A 
ATOM     88  C   UNL     1      -7.186   2.921   6.358  1.00  0.00     0.173 A 
ATOM     89  C   UNL     1      -6.092   0.899   6.989  1.00  0.00     0.173 A 
ATOM     90  F   UNL     1      -7.522   3.881   5.486  1.00  0.00    -0.203 F 
ATOM     91  C   UNL     1      -7.832   2.936   7.598  1.00  0.00     0.198 A 
ATOM     92  C   UNL     1      -6.787   0.882   8.196  1.00  0.00     0.198 A 
ATOM     93  F   UNL     1      -5.247  -0.123   6.804  1.00  0.00    -0.203 F 
ATOM     94  F   UNL     1      -8.662   3.944   7.898  1.00  0.00    -0.200 F 
ATOM     95  C   UNL     1      -7.645   1.911   8.508  1.00  0.00     0.200 A 
ATOM     96  F   UNL     1      -6.625  -0.144   9.044  1.00  0.00    -0.200 F 
ATOM     97  F   UNL     1      -8.305   1.907   9.674  1.00  0.00    -0.200 F 
ENDBRANCH  64  87
ENDBRANCH  38  39
ENDBRANCH  31  33
ENDBRANCH  30  31
ENDBRANCH  29  30
ENDBRANCH  28  29
ENDBRANCH  27  28
ENDBRANCH  26  27
ENDBRANCH   1  26
TORSDOF 21
