REMARK SMILES C[C@@H](C(=O)OCCOCCOCCOCCOC(=O)c1ccc(-c2c3nc(c(-c4c(F)c(F)c(F)c(F)c4F)c4ccc([nH]4)c(-c4c(F)c(F)c(F)c(F)c4F)c4nc(c(-c5c(F)c(F)c(F)c(F)c5F)c5ccc2[nH]5)C=C4)C=C3)cc1)N1C(=O)c2nccnc2C1=O
REMARK SMILES IDX 12 1 11 2 10 3 9 4 8 5 7 6 6 7 5 8 3 9 4 10 2 11 1 12 83 13
REMARK SMILES IDX 84 14 92 15 85 16 86 17 91 18 93 19 87 20 90 21 88 22 89 23
REMARK SMILES IDX 13 24 14 25 15 26 16 27 17 28 18 29 19 30 20 31 21 32 82 33
REMARK SMILES IDX 22 34 81 35 23 36 24 37 25 38 75 39 26 40 80 41 74 42 76 43
REMARK SMILES IDX 27 44 79 45 73 46 72 47 28 49 60 50 40 51 59 52 41 53 44 54
REMARK SMILES IDX 58 55 77 56 42 57 43 58 57 60 78 61 45 62 29 63 30 64 38 65
REMARK SMILES IDX 31 66 32 67 36 68 39 69 33 70 34 71 37 72 35 73 61 74 62 75
REMARK SMILES IDX 70 76 63 77 64 78 68 79 71 80 65 81 66 82 69 83 67 84 46 85
REMARK SMILES IDX 47 86 55 87 48 88 49 89 53 90 56 91 50 92 51 93 54 94 52 95
REMARK H PARENT 76 48 44 59
REMARK Flexibility Score: inf
ROOT
ATOM      1  C   UNL     1       2.900   4.009   0.678  1.00  0.00     0.188 C 
ENDROOT
BRANCH   1   2
ATOM      2  O   UNL     1       2.337   2.769   1.077  1.00  0.00    -0.377 OA
BRANCH   2   3
ATOM      3  C   UNL     1       0.957   2.600   0.810  1.00  0.00     0.188 C 
BRANCH   3   4
ATOM      4  C   UNL     1       0.026   2.897   2.001  1.00  0.00     0.188 C 
BRANCH   4   5
ATOM      5  O   UNL     1       0.538   3.345   3.249  1.00  0.00    -0.376 OA
BRANCH   5   6
ATOM      6  C   UNL     1       1.802   2.920   3.726  1.00  0.00     0.202 C 
BRANCH   6   7
ATOM      7  C   UNL     1       2.217   1.435   3.762  1.00  0.00     0.261 C 
BRANCH   7   8
ATOM      8  O   UNL     1       1.807   0.584   2.678  1.00  0.00    -0.462 OA
BRANCH   8   9
ATOM      9  C   UNL     1       0.638  -0.073   2.868  1.00  0.00     0.329 C 
ATOM     10  O   UNL     1      -0.050   0.048   3.878  1.00  0.00    -0.250 OA
BRANCH   9  11
ATOM     11  C   UNL     1       0.252  -1.022   1.713  1.00  0.00     0.201 C 
ATOM     12  C   UNL     1       0.987  -0.922   0.375  1.00  0.00     0.044 C 
BRANCH  11  13
ATOM     13  N   UNL     1      -1.212  -0.952   1.596  1.00  0.00    -0.257 N 
ATOM     14  C   UNL     1      -1.947  -0.015   0.907  1.00  0.00     0.282 C 
ATOM     15  C   UNL     1      -2.024  -1.722   2.393  1.00  0.00     0.282 C 
ATOM     16  O   UNL     1      -1.560   0.861   0.160  1.00  0.00    -0.267 OA
ATOM     17  C   UNL     1      -3.348  -0.237   1.268  1.00  0.00     0.160 A 
ATOM     18  C   UNL     1      -3.390  -1.256   2.181  1.00  0.00     0.160 A 
ATOM     19  O   UNL     1      -1.689  -2.630   3.137  1.00  0.00    -0.267 OA
ATOM     20  N   UNL     1      -4.434   0.412   0.802  1.00  0.00    -0.247 NA
ATOM     21  N   UNL     1      -4.522  -1.732   2.733  1.00  0.00    -0.247 NA
ATOM     22  C   UNL     1      -5.591  -0.051   1.346  1.00  0.00     0.132 A 
ATOM     23  C   UNL     1      -5.633  -1.089   2.288  1.00  0.00     0.132 A 
ENDBRANCH  11  13
ENDBRANCH   9  11
ENDBRANCH   8   9
ENDBRANCH   7   8
ENDBRANCH   6   7
ENDBRANCH   5   6
ENDBRANCH   4   5
ENDBRANCH   3   4
ENDBRANCH   2   3
ENDBRANCH   1   2
BRANCH   1  24
ATOM     24  C   UNL     1       2.064   5.280   0.927  1.00  0.00     0.188 C 
BRANCH  24  25
ATOM     25  O   UNL     1       0.746   5.212   0.402  1.00  0.00    -0.376 OA
BRANCH  25  26
ATOM     26  C   UNL     1       0.467   5.791  -0.863  1.00  0.00     0.202 C 
BRANCH  26  27
ATOM     27  C   UNL     1       1.123   5.166  -2.106  1.00  0.00     0.261 C 
BRANCH  27  28
ATOM     28  O   UNL     1       2.557   5.087  -2.107  1.00  0.00    -0.460 OA
BRANCH  28  29
ATOM     29  C   UNL     1       3.256   6.234  -1.978  1.00  0.00     0.338 C 
ATOM     30  O   UNL     1       2.812   7.366  -1.929  1.00  0.00    -0.246 OA
BRANCH  29  31
ATOM     31  C   UNL     1       4.663   5.873  -1.694  1.00  0.00     0.060 A 
ATOM     32  C   UNL     1       5.250   6.329  -0.506  1.00  0.00     0.016 A 
ATOM     33  C   UNL     1       5.396   5.088  -2.587  1.00  0.00     0.016 A 
ATOM     34  C   UNL     1       6.585   6.035  -0.226  1.00  0.00     0.010 A 
ATOM     35  C   UNL     1       6.741   4.816  -2.318  1.00  0.00     0.010 A 
ATOM     36  C   UNL     1       7.351   5.321  -1.155  1.00  0.00    -0.014 A 
BRANCH  36  37
ATOM     37  C   UNL     1       8.828   5.287  -1.015  1.00  0.00     0.031 A 
ATOM     38  C   UNL     1       9.639   6.270  -1.816  1.00  0.00     0.074 A 
ATOM     39  C   UNL     1       9.438   4.429  -0.180  1.00  0.00     0.049 A 
ATOM     40  N   UNL     1      10.937   6.404  -1.907  1.00  0.00    -0.248 NA
ATOM     41  C   UNL     1       8.876   7.232  -2.629  1.00  0.00     0.031 C 
ATOM     42  C   UNL     1       8.763   3.469   0.688  1.00  0.00     0.029 A 
ATOM     43  N   UNL     1      10.774   4.228   0.067  1.00  0.00    -0.354 N 
ATOM     44  C   UNL     1      11.145   7.453  -2.794  1.00  0.00     0.074 A 
ATOM     45  C   UNL     1       9.843   7.902  -3.236  1.00  0.00     0.031 C 
ATOM     46  C   UNL     1       9.690   2.769   1.366  1.00  0.00     0.029 A 
ATOM     47  C   UNL     1      11.022   3.207   0.951  1.00  0.00     0.049 A 
ATOM     48  H   UNL     1      11.487   4.764  -0.350  1.00  0.00     0.167 HD
ATOM     49  C   UNL     1      12.317   7.997  -3.198  1.00  0.00     0.037 A 
ATOM     50  C   UNL     1      12.193   2.673   1.355  1.00  0.00     0.037 A 
ATOM     51  C   UNL     1      13.610   7.548  -2.754  1.00  0.00     0.049 A 
ATOM     52  C   UNL     1      13.486   3.242   0.823  1.00  0.00     0.074 A 
ATOM     53  C   UNL     1      14.857   8.047  -3.087  1.00  0.00     0.029 A 
ATOM     54  N   UNL     1      13.822   6.484  -1.889  1.00  0.00    -0.354 N 
ATOM     55  N   UNL     1      13.677   4.250   0.006  1.00  0.00    -0.248 NA
ATOM     56  C   UNL     1      14.728   2.596   1.272  1.00  0.00     0.031 C 
ATOM     57  C   UNL     1      15.825   7.242  -2.479  1.00  0.00     0.029 A 
ATOM     58  C   UNL     1      15.181   6.289  -1.706  1.00  0.00     0.049 A 
ATOM     59  H   UNL     1      13.112   5.947  -1.468  1.00  0.00     0.167 HD
ATOM     60  C   UNL     1      15.055   4.383  -0.125  1.00  0.00     0.074 A 
ATOM     61  C   UNL     1      15.652   3.359   0.706  1.00  0.00     0.031 C 
ATOM     62  C   UNL     1      15.762   5.273  -0.864  1.00  0.00     0.037 A 
BRANCH  49  63
ATOM     63  C   UNL     1      12.257   9.114  -4.201  1.00  0.00     0.064 A 
ATOM     64  C   UNL     1      11.758  10.383  -3.872  1.00  0.00     0.173 A 
ATOM     65  C   UNL     1      12.739   8.917  -5.504  1.00  0.00     0.173 A 
ATOM     66  F   UNL     1      11.271  10.621  -2.645  1.00  0.00    -0.203 F 
ATOM     67  C   UNL     1      11.719  11.405  -4.818  1.00  0.00     0.198 A 
ATOM     68  C   UNL     1      12.731   9.950  -6.437  1.00  0.00     0.198 A 
ATOM     69  F   UNL     1      13.229   7.723  -5.872  1.00  0.00    -0.203 F 
ATOM     70  F   UNL     1      11.190  12.594  -4.497  1.00  0.00    -0.200 F 
ATOM     71  C   UNL     1      12.213  11.190  -6.096  1.00  0.00     0.200 A 
ATOM     72  F   UNL     1      13.223   9.744  -7.667  1.00  0.00    -0.200 F 
ATOM     73  F   UNL     1      12.184  12.177  -7.003  1.00  0.00    -0.200 F 
ENDBRANCH  49  63
BRANCH  50  74
ATOM     74  C   UNL     1      12.206   1.526   2.303  1.00  0.00     0.064 A 
ATOM     75  C   UNL     1      12.744   1.658   3.592  1.00  0.00     0.173 A 
ATOM     76  C   UNL     1      11.718   0.265   1.929  1.00  0.00     0.173 A 
ATOM     77  F   UNL     1      13.250   2.834   3.989  1.00  0.00    -0.203 F 
ATOM     78  C   UNL     1      12.815   0.568   4.458  1.00  0.00     0.198 A 
ATOM     79  C   UNL     1      11.758  -0.815   2.808  1.00  0.00     0.198 A 
ATOM     80  F   UNL     1      11.198   0.081   0.707  1.00  0.00    -0.203 F 
ATOM     81  F   UNL     1      13.388   0.709   5.662  1.00  0.00    -0.200 F 
ATOM     82  C   UNL     1      12.317  -0.665   4.068  1.00  0.00     0.200 A 
ATOM     83  F   UNL     1      11.264  -2.002   2.431  1.00  0.00    -0.200 F 
ATOM     84  F   UNL     1      12.386  -1.712   4.902  1.00  0.00    -0.200 F 
ENDBRANCH  50  74
BRANCH  62  85
ATOM     85  C   UNL     1      17.263   5.220  -0.771  1.00  0.00     0.064 A 
ATOM     86  C   UNL     1      18.004   4.159  -1.311  1.00  0.00     0.173 A 
ATOM     87  C   UNL     1      17.971   6.273  -0.170  1.00  0.00     0.173 A 
ATOM     88  F   UNL     1      17.378   3.121  -1.887  1.00  0.00    -0.203 F 
ATOM     89  C   UNL     1      19.394   4.139  -1.225  1.00  0.00     0.198 A 
ATOM     90  C   UNL     1      19.362   6.268  -0.119  1.00  0.00     0.198 A 
ATOM     91  F   UNL     1      17.313   7.319   0.354  1.00  0.00    -0.203 F 
ATOM     92  F   UNL     1      20.078   3.088  -1.699  1.00  0.00    -0.200 F 
ATOM     93  C   UNL     1      20.072   5.197  -0.638  1.00  0.00     0.200 A 
ATOM     94  F   UNL     1      20.015   7.301   0.431  1.00  0.00    -0.200 F 
ATOM     95  F   UNL     1      21.410   5.180  -0.566  1.00  0.00    -0.200 F 
ENDBRANCH  62  85
ENDBRANCH  36  37
ENDBRANCH  29  31
ENDBRANCH  28  29
ENDBRANCH  27  28
ENDBRANCH  26  27
ENDBRANCH  25  26
ENDBRANCH  24  25
ENDBRANCH   1  24
TORSDOF 21
