REMARK SMILES O=C(OCCOCCOCCOCCOC(=O)c1cncc(Oc2cc(F)ccc2F)n1)c1ccc(-c2c3nc(c(-c4c(F)c(F)c(F)c(F)c4F)c4ccc([nH]4)c(-c4c(F)c(F)c(F)c(F)c4F)c4nc(c(-c5c(F)c(F)c(F)c(F)c5F)c5ccc2[nH]5)C=C4)C=C3)cc1
REMARK SMILES IDX 9 1 8 2 7 3 6 4 5 5 4 6 3 7 2 8 1 9 33 10 34 11 95 12 35 13
REMARK SMILES IDX 94 14 36 15 37 16 38 17 88 18 39 19 93 20 87 21 89 22 40 23
REMARK SMILES IDX 92 24 86 25 85 26 41 28 73 29 53 30 72 31 54 32 57 33 71 34
REMARK SMILES IDX 90 35 55 36 56 37 70 39 91 40 58 41 42 42 43 43 51 44 44 45
REMARK SMILES IDX 45 46 49 47 52 48 46 49 47 50 50 51 48 52 74 53 75 54 83 55
REMARK SMILES IDX 76 56 77 57 81 58 84 59 78 60 79 61 82 62 80 63 59 64 60 65
REMARK SMILES IDX 68 66 61 67 62 68 66 69 69 70 63 71 64 72 67 73 65 74 10 75
REMARK SMILES IDX 11 76 12 77 13 78 14 79 15 80 16 81 17 82 18 83 19 84 32 85
REMARK SMILES IDX 20 86 22 87 21 88 23 89 24 90 25 91 30 92 26 93 29 94 31 95
REMARK SMILES IDX 27 96 28 97
REMARK H PARENT 89 27 57 38
REMARK Flexibility Score: inf
ROOT
ATOM      1  O   UNL     1       2.874   1.446  -3.834  1.00  0.00    -0.377 OA
ENDROOT
BRANCH   1   2
ATOM      2  C   UNL     1       2.048   1.281  -2.679  1.00  0.00     0.188 C 
BRANCH   2   3
ATOM      3  C   UNL     1       2.422   0.106  -1.773  1.00  0.00     0.188 C 
BRANCH   3   4
ATOM      4  O   UNL     1       3.671   0.356  -1.133  1.00  0.00    -0.376 OA
BRANCH   4   5
ATOM      5  C   UNL     1       4.500  -0.767  -0.856  1.00  0.00     0.202 C 
BRANCH   5   6
ATOM      6  C   UNL     1       3.947  -1.780   0.146  1.00  0.00     0.261 C 
BRANCH   6   7
ATOM      7  O   UNL     1       2.558  -1.599   0.479  1.00  0.00    -0.460 OA
BRANCH   7   8
ATOM      8  C   UNL     1       2.004  -0.834   1.449  1.00  0.00     0.338 C 
ATOM      9  O   UNL     1       0.801  -0.935   1.679  1.00  0.00    -0.246 OA
BRANCH   8  10
ATOM     10  C   UNL     1       2.797   0.095   2.295  1.00  0.00     0.060 A 
ATOM     11  C   UNL     1       3.830   0.895   1.821  1.00  0.00     0.016 A 
ATOM     12  C   UNL     1       2.409   0.248   3.633  1.00  0.00     0.016 A 
ATOM     13  C   UNL     1       4.598   1.671   2.672  1.00  0.00     0.010 A 
ATOM     14  C   UNL     1       3.113   1.108   4.483  1.00  0.00     0.010 A 
ATOM     15  C   UNL     1       4.258   1.769   4.016  1.00  0.00    -0.014 A 
BRANCH  15  16
ATOM     16  C   UNL     1       5.223   2.405   4.935  1.00  0.00     0.031 A 
ATOM     17  C   UNL     1       5.923   1.521   5.926  1.00  0.00     0.074 A 
ATOM     18  C   UNL     1       5.576   3.695   4.776  1.00  0.00     0.049 A 
ATOM     19  N   UNL     1       6.728   1.842   6.902  1.00  0.00    -0.248 NA
ATOM     20  C   UNL     1       5.684   0.071   5.801  1.00  0.00     0.031 C 
ATOM     21  C   UNL     1       5.054   4.593   3.744  1.00  0.00     0.029 A 
ATOM     22  N   UNL     1       6.492   4.462   5.448  1.00  0.00    -0.354 N 
ATOM     23  C   UNL     1       7.034   0.646   7.539  1.00  0.00     0.074 A 
ATOM     24  C   UNL     1       6.335  -0.409   6.848  1.00  0.00     0.031 C 
ATOM     25  C   UNL     1       5.697   5.769   3.817  1.00  0.00     0.029 A 
ATOM     26  C   UNL     1       6.602   5.742   4.959  1.00  0.00     0.049 A 
ATOM     27  H   UNL     1       7.020   4.128   6.209  1.00  0.00     0.167 HD
ATOM     28  C   UNL     1       7.835   0.459   8.611  1.00  0.00     0.037 A 
ATOM     29  C   UNL     1       7.327   6.780   5.417  1.00  0.00     0.037 A 
ATOM     30  C   UNL     1       8.566   1.524   9.236  1.00  0.00     0.049 A 
ATOM     31  C   UNL     1       8.157   6.563   6.655  1.00  0.00     0.074 A 
ATOM     32  C   UNL     1       9.372   1.480  10.355  1.00  0.00     0.029 A 
ATOM     33  N   UNL     1       8.589   2.831   8.765  1.00  0.00    -0.354 N 
ATOM     34  N   UNL     1       8.360   5.453   7.326  1.00  0.00    -0.248 NA
ATOM     35  C   UNL     1       8.829   7.739   7.221  1.00  0.00     0.031 C 
ATOM     36  C   UNL     1       9.859   2.771  10.582  1.00  0.00     0.029 A 
ATOM     37  C   UNL     1       9.389   3.609   9.581  1.00  0.00     0.049 A 
ATOM     38  H   UNL     1       8.108   3.155   7.970  1.00  0.00     0.167 HD
ATOM     39  C   UNL     1       9.181   5.793   8.391  1.00  0.00     0.074 A 
ATOM     40  C   UNL     1       9.462   7.210   8.260  1.00  0.00     0.031 C 
ATOM     41  C   UNL     1       9.649   5.014   9.396  1.00  0.00     0.037 A 
BRANCH  28  42
ATOM     42  C   UNL     1       7.910  -0.920   9.190  1.00  0.00     0.064 A 
ATOM     43  C   UNL     1       7.272  -1.204  10.408  1.00  0.00     0.173 A 
ATOM     44  C   UNL     1       8.603  -1.960   8.554  1.00  0.00     0.173 A 
ATOM     45  F   UNL     1       6.587  -0.246  11.050  1.00  0.00    -0.203 F 
ATOM     46  C   UNL     1       7.333  -2.475  10.971  1.00  0.00     0.198 A 
ATOM     47  C   UNL     1       8.641  -3.238   9.108  1.00  0.00     0.198 A 
ATOM     48  F   UNL     1       9.202  -1.749   7.372  1.00  0.00    -0.203 F 
ATOM     49  F   UNL     1       6.728  -2.717  12.142  1.00  0.00    -0.200 F 
ATOM     50  C   UNL     1       8.013  -3.492  10.319  1.00  0.00     0.200 A 
ATOM     51  F   UNL     1       9.269  -4.229   8.461  1.00  0.00    -0.200 F 
ATOM     52  F   UNL     1       8.053  -4.721  10.852  1.00  0.00    -0.200 F 
ENDBRANCH  28  42
BRANCH  29  53
ATOM     53  C   UNL     1       7.251   8.107   4.745  1.00  0.00     0.064 A 
ATOM     54  C   UNL     1       6.050   8.835   4.700  1.00  0.00     0.173 A 
ATOM     55  C   UNL     1       8.373   8.676   4.126  1.00  0.00     0.173 A 
ATOM     56  F   UNL     1       4.945   8.346   5.282  1.00  0.00    -0.203 F 
ATOM     57  C   UNL     1       5.967  10.059   4.038  1.00  0.00     0.198 A 
ATOM     58  C   UNL     1       8.297   9.918   3.493  1.00  0.00     0.198 A 
ATOM     59  F   UNL     1       9.552   8.039   4.160  1.00  0.00    -0.203 F 
ATOM     60  F   UNL     1       4.796  10.708   3.979  1.00  0.00    -0.200 F 
ATOM     61  C   UNL     1       7.092  10.603   3.441  1.00  0.00     0.200 A 
ATOM     62  F   UNL     1       9.394  10.455   2.942  1.00  0.00    -0.200 F 
ATOM     63  F   UNL     1       7.018  11.789   2.822  1.00  0.00    -0.200 F 
ENDBRANCH  29  53
BRANCH  41  64
ATOM     64  C   UNL     1      10.518   5.669  10.423  1.00  0.00     0.064 A 
ATOM     65  C   UNL     1      11.890   5.387  10.472  1.00  0.00     0.173 A 
ATOM     66  C   UNL     1       9.967   6.477  11.427  1.00  0.00     0.173 A 
ATOM     67  F   UNL     1      12.454   4.608   9.537  1.00  0.00    -0.203 F 
ATOM     68  C   UNL     1      12.678   5.873  11.509  1.00  0.00     0.198 A 
ATOM     69  C   UNL     1      10.764   6.982  12.447  1.00  0.00     0.198 A 
ATOM     70  F   UNL     1       8.660   6.778  11.410  1.00  0.00    -0.203 F 
ATOM     71  F   UNL     1      13.979   5.555  11.564  1.00  0.00    -0.200 F 
ATOM     72  C   UNL     1      12.115   6.669  12.495  1.00  0.00     0.200 A 
ATOM     73  F   UNL     1      10.224   7.766  13.390  1.00  0.00    -0.200 F 
ATOM     74  F   UNL     1      12.875   7.133  13.496  1.00  0.00    -0.200 F 
ENDBRANCH  41  64
ENDBRANCH  15  16
ENDBRANCH   8  10
ENDBRANCH   7   8
ENDBRANCH   6   7
ENDBRANCH   5   6
ENDBRANCH   4   5
ENDBRANCH   3   4
ENDBRANCH   2   3
ENDBRANCH   1   2
BRANCH   1  75
ATOM     75  C   UNL     1       4.278   1.363  -3.614  1.00  0.00     0.188 C 
BRANCH  75  76
ATOM     76  C   UNL     1       4.954   2.436  -2.733  1.00  0.00     0.188 C 
BRANCH  76  77
ATOM     77  O   UNL     1       4.044   3.205  -1.957  1.00  0.00    -0.376 OA
BRANCH  77  78
ATOM     78  C   UNL     1       3.918   4.572  -2.334  1.00  0.00     0.202 C 
BRANCH  78  79
ATOM     79  C   UNL     1       3.253   4.864  -3.691  1.00  0.00     0.261 C 
BRANCH  79  80
ATOM     80  O   UNL     1       3.744   4.099  -4.803  1.00  0.00    -0.458 OA
BRANCH  80  81
ATOM     81  C   UNL     1       4.953   4.423  -5.336  1.00  0.00     0.358 C 
ATOM     82  O   UNL     1       5.646   5.362  -5.029  1.00  0.00    -0.244 OA
BRANCH  81  83
ATOM     83  C   UNL     1       5.326   3.291  -6.236  1.00  0.00     0.170 A 
ATOM     84  C   UNL     1       4.422   2.864  -7.203  1.00  0.00     0.147 A 
ATOM     85  N   UNL     1       6.474   2.602  -5.940  1.00  0.00    -0.203 NA
ATOM     86  N   UNL     1       4.628   1.747  -7.947  1.00  0.00    -0.257 NA
ATOM     87  C   UNL     1       6.652   1.468  -6.664  1.00  0.00     0.238 A 
ATOM     88  C   UNL     1       5.761   1.064  -7.654  1.00  0.00     0.179 A 
BRANCH  87  89
ATOM     89  O   UNL     1       7.782   0.684  -6.492  1.00  0.00    -0.434 OA
BRANCH  89  90
ATOM     90  C   UNL     1       8.223   0.459  -5.210  1.00  0.00     0.168 A 
ATOM     91  C   UNL     1       7.480  -0.281  -4.288  1.00  0.00     0.089 A 
ATOM     92  C   UNL     1       9.541   0.806  -4.908  1.00  0.00     0.166 A 
ATOM     93  C   UNL     1       8.062  -0.631  -3.068  1.00  0.00     0.127 A 
ATOM     94  C   UNL     1      10.118   0.451  -3.688  1.00  0.00     0.046 A 
ATOM     95  F   UNL     1      10.289   1.451  -5.813  1.00  0.00    -0.203 F 
ATOM     96  F   UNL     1       7.359  -1.355  -2.187  1.00  0.00    -0.207 F 
ATOM     97  C   UNL     1       9.372  -0.273  -2.760  1.00  0.00     0.042 A 
ENDBRANCH  89  90
ENDBRANCH  87  89
ENDBRANCH  81  83
ENDBRANCH  80  81
ENDBRANCH  79  80
ENDBRANCH  78  79
ENDBRANCH  77  78
ENDBRANCH  76  77
ENDBRANCH  75  76
ENDBRANCH   1  75
TORSDOF 22
