REMARK SMILES C[C@@H](C(=O)OCCOCCOCCOCCOC(=O)c1ccc(-c2c3nc(c(-c4c(F)c(F)c(F)c(F)c4F)c4ccc([nH]4)c(-c4c(F)c(F)c(F)c(F)c4F)c4nc(c(-c5c(F)c(F)c(F)c(F)c5F)c5ccc2[nH]5)C=C4)C=C3)cc1)c1ccc2c3cc(Cl)ccc3n(C(=O)c3cocn3)c2c1
REMARK SMILES IDX 10 1 9 2 8 3 7 4 6 5 5 6 3 7 4 8 2 9 1 10 83 11 84 12 103 13
REMARK SMILES IDX 85 14 102 15 86 16 94 17 87 18 93 19 88 20 92 21 89 22 91 23
REMARK SMILES IDX 90 24 95 25 96 26 97 27 98 28 101 29 99 30 100 31 11 32
REMARK SMILES IDX 12 33 13 34 14 35 15 36 16 37 17 38 18 39 19 40 20 41 21 42
REMARK SMILES IDX 82 43 22 44 81 45 23 46 24 47 25 48 75 49 26 50 80 51 74 52
REMARK SMILES IDX 76 53 27 54 79 55 73 56 72 57 28 59 60 60 40 61 59 62 41 63
REMARK SMILES IDX 44 64 58 65 77 66 42 67 43 68 57 70 78 71 45 72 29 73 30 74
REMARK SMILES IDX 38 75 31 76 32 77 36 78 39 79 33 80 34 81 37 82 35 83 61 84
REMARK SMILES IDX 62 85 70 86 63 87 64 88 68 89 71 90 65 91 66 92 69 93 67 94
REMARK SMILES IDX 46 95 47 96 55 97 48 98 49 99 53 100 56 101 50 102 51 103
REMARK SMILES IDX 54 104 52 105
REMARK H PARENT 76 58 44 69
REMARK Flexibility Score: inf
ROOT
ATOM      1  C   UNL     1       1.055  -2.922  -0.175  1.00  0.00     0.188 C 
ENDROOT
BRANCH   1   2
ATOM      2  C   UNL     1       0.702  -3.755  -1.420  1.00  0.00     0.188 C 
BRANCH   2   3
ATOM      3  O   UNL     1       1.837  -4.343  -2.047  1.00  0.00    -0.376 OA
BRANCH   3   4
ATOM      4  C   UNL     1       2.175  -3.781  -3.304  1.00  0.00     0.202 C 
BRANCH   4   5
ATOM      5  C   UNL     1       2.819  -2.389  -3.256  1.00  0.00     0.261 C 
BRANCH   5   6
ATOM      6  O   UNL     1       2.153  -1.391  -2.458  1.00  0.00    -0.463 OA
BRANCH   6   7
ATOM      7  C   UNL     1       1.051  -0.781  -2.963  1.00  0.00     0.313 C 
ATOM      8  O   UNL     1       0.540  -1.098  -4.032  1.00  0.00    -0.252 OA
BRANCH   7   9
ATOM      9  C   UNL     1       0.546   0.375  -2.073  1.00  0.00     0.126 C 
ATOM     10  C   UNL     1       1.315   0.644  -0.770  1.00  0.00     0.025 C 
BRANCH   9  11
ATOM     11  C   UNL     1      -0.963   0.343  -1.815  1.00  0.00    -0.032 A 
ATOM     12  C   UNL     1      -1.694   1.530  -1.851  1.00  0.00     0.005 A 
ATOM     13  C   UNL     1      -1.646  -0.846  -1.511  1.00  0.00     0.032 A 
ATOM     14  C   UNL     1      -3.091   1.518  -1.742  1.00  0.00     0.011 A 
ATOM     15  C   UNL     1      -3.046  -0.857  -1.336  1.00  0.00     0.058 A 
ATOM     16  C   UNL     1      -3.778   0.302  -1.539  1.00  0.00     0.008 A 
ATOM     17  N   UNL     1      -3.931  -1.898  -0.994  1.00  0.00    -0.274 N 
ATOM     18  C   UNL     1      -5.149  -0.062  -1.515  1.00  0.00     0.009 A 
ATOM     19  C   UNL     1      -5.242  -1.403  -1.110  1.00  0.00     0.057 A 
ATOM     20  C   UNL     1      -6.320   0.674  -1.792  1.00  0.00     0.031 A 
ATOM     21  C   UNL     1      -6.506  -1.965  -0.833  1.00  0.00     0.029 A 
ATOM     22  C   UNL     1      -7.563   0.081  -1.604  1.00  0.00     0.041 A 
ATOM     23  C   UNL     1      -7.657  -1.209  -1.102  1.00  0.00     0.023 A 
ATOM     24  Cl  UNL     1      -8.988   0.972  -1.973  1.00  0.00    -0.084 Cl
BRANCH  17  25
ATOM     25  C   UNL     1      -3.497  -3.185  -0.555  1.00  0.00     0.284 C 
ATOM     26  O   UNL     1      -2.374  -3.214  -0.049  1.00  0.00    -0.266 OA
BRANCH  25  27
ATOM     27  C   UNL     1      -4.237  -4.441  -0.676  1.00  0.00     0.167 A 
ATOM     28  C   UNL     1      -5.161  -4.834  -1.622  1.00  0.00     0.231 A 
ATOM     29  N   UNL     1      -3.953  -5.539   0.132  1.00  0.00    -0.211 NA
ATOM     30  O   UNL     1      -5.465  -6.149  -1.414  1.00  0.00    -0.451 OA
ATOM     31  C   UNL     1      -4.687  -6.508  -0.359  1.00  0.00     0.308 A 
ENDBRANCH  25  27
ENDBRANCH  17  25
ENDBRANCH   9  11
ENDBRANCH   7   9
ENDBRANCH   6   7
ENDBRANCH   5   6
ENDBRANCH   4   5
ENDBRANCH   3   4
ENDBRANCH   2   3
ENDBRANCH   1   2
BRANCH   1  32
ATOM     32  O   UNL     1       2.412  -2.886   0.237  1.00  0.00    -0.377 OA
BRANCH  32  33
ATOM     33  C   UNL     1       3.104  -4.120   0.384  1.00  0.00     0.188 C 
BRANCH  33  34
ATOM     34  C   UNL     1       2.324  -5.434   0.619  1.00  0.00     0.188 C 
BRANCH  34  35
ATOM     35  O   UNL     1       0.990  -5.273   1.067  1.00  0.00    -0.376 OA
BRANCH  35  36
ATOM     36  C   UNL     1       0.715  -5.453   2.446  1.00  0.00     0.202 C 
BRANCH  36  37
ATOM     37  C   UNL     1       1.356  -4.447   3.410  1.00  0.00     0.261 C 
BRANCH  37  38
ATOM     38  O   UNL     1       2.792  -4.388   3.387  1.00  0.00    -0.460 OA
BRANCH  38  39
ATOM     39  C   UNL     1       3.477  -5.518   3.662  1.00  0.00     0.338 C 
ATOM     40  O   UNL     1       3.028  -6.598   4.002  1.00  0.00    -0.246 OA
BRANCH  39  41
ATOM     41  C   UNL     1       4.882  -5.281   3.271  1.00  0.00     0.060 A 
ATOM     42  C   UNL     1       5.461  -6.097   2.288  1.00  0.00     0.016 A 
ATOM     43  C   UNL     1       5.605  -4.230   3.838  1.00  0.00     0.016 A 
ATOM     44  C   UNL     1       6.777  -5.878   1.887  1.00  0.00     0.010 A 
ATOM     45  C   UNL     1       6.935  -4.033   3.461  1.00  0.00     0.010 A 
ATOM     46  C   UNL     1       7.534  -4.877   2.509  1.00  0.00    -0.014 A 
BRANCH  46  47
ATOM     47  C   UNL     1       9.006  -4.875   2.350  1.00  0.00     0.031 A 
ATOM     48  C   UNL     1       9.819  -5.609   3.380  1.00  0.00     0.074 A 
ATOM     49  C   UNL     1       9.606  -4.264   1.315  1.00  0.00     0.049 A 
ATOM     50  N   UNL     1      11.117  -5.719   3.497  1.00  0.00    -0.248 NA
ATOM     51  C   UNL     1       9.058  -6.314   4.426  1.00  0.00     0.031 C 
ATOM     52  C   UNL     1       8.922  -3.567   0.230  1.00  0.00     0.029 A 
ATOM     53  N   UNL     1      10.940  -4.129   1.019  1.00  0.00    -0.354 N 
ATOM     54  C   UNL     1      11.325  -6.495   4.629  1.00  0.00     0.074 A 
ATOM     55  C   UNL     1      10.026  -6.807   5.181  1.00  0.00     0.031 C 
ATOM     56  C   UNL     1       9.844  -3.065  -0.612  1.00  0.00     0.029 A 
ATOM     57  C   UNL     1      11.180  -3.377  -0.105  1.00  0.00     0.049 A 
ATOM     58  H   UNL     1      11.656  -4.533   1.560  1.00  0.00     0.167 HD
ATOM     59  C   UNL     1      12.497  -6.916   5.157  1.00  0.00     0.037 A 
ATOM     60  C   UNL     1      12.348  -2.972  -0.641  1.00  0.00     0.037 A 
ATOM     61  C   UNL     1      13.787  -6.599   4.607  1.00  0.00     0.049 A 
ATOM     62  C   UNL     1      13.643  -3.384   0.016  1.00  0.00     0.074 A 
ATOM     63  C   UNL     1      15.036  -6.990   5.055  1.00  0.00     0.029 A 
ATOM     64  N   UNL     1      13.992  -5.802   3.490  1.00  0.00    -0.354 N 
ATOM     65  N   UNL     1      13.837  -4.141   1.069  1.00  0.00    -0.248 NA
ATOM     66  C   UNL     1      14.884  -2.883  -0.593  1.00  0.00     0.031 C 
ATOM     67  C   UNL     1      15.999  -6.379   4.246  1.00  0.00     0.029 A 
ATOM     68  C   UNL     1      15.350  -5.662   3.254  1.00  0.00     0.049 A 
ATOM     69  H   UNL     1      13.279  -5.396   2.947  1.00  0.00     0.167 HD
ATOM     70  C   UNL     1      15.214  -4.237   1.227  1.00  0.00     0.074 A 
ATOM     71  C   UNL     1      15.809  -3.468   0.154  1.00  0.00     0.031 C 
ATOM     72  C   UNL     1      15.924  -4.902   2.172  1.00  0.00     0.037 A 
BRANCH  59  73
ATOM     73  C   UNL     1      12.435  -7.730   6.416  1.00  0.00     0.064 A 
ATOM     74  C   UNL     1      11.944  -9.044   6.426  1.00  0.00     0.173 A 
ATOM     75  C   UNL     1      12.892  -7.191   7.628  1.00  0.00     0.173 A 
ATOM     76  F   UNL     1      11.477  -9.600   5.298  1.00  0.00    -0.203 F 
ATOM     77  C   UNL     1      11.889  -9.779   7.608  1.00  0.00     0.198 A 
ATOM     78  C   UNL     1      12.866  -7.940   8.801  1.00  0.00     0.198 A 
ATOM     79  F   UNL     1      13.371  -5.939   7.674  1.00  0.00    -0.203 F 
ATOM     80  F   UNL     1      11.368 -11.014   7.604  1.00  0.00    -0.200 F 
ATOM     81  C   UNL     1      12.357  -9.229   8.792  1.00  0.00     0.200 A 
ATOM     82  F   UNL     1      13.329  -7.411   9.942  1.00  0.00    -0.200 F 
ATOM     83  F   UNL     1      12.310  -9.940   9.927  1.00  0.00    -0.200 F 
ENDBRANCH  59  73
BRANCH  60  84
ATOM     84  C   UNL     1      12.357  -2.119  -1.860  1.00  0.00     0.064 A 
ATOM     85  C   UNL     1      12.867  -2.598  -3.075  1.00  0.00     0.173 A 
ATOM     86  C   UNL     1      11.886  -0.798  -1.828  1.00  0.00     0.173 A 
ATOM     87  F   UNL     1      13.356  -3.845  -3.151  1.00  0.00    -0.203 F 
ATOM     88  C   UNL     1      12.925  -1.783  -4.204  1.00  0.00     0.198 A 
ATOM     89  C   UNL     1      11.916   0.006  -2.965  1.00  0.00     0.198 A 
ATOM     90  F   UNL     1      11.394  -0.287  -0.690  1.00  0.00    -0.203 F 
ATOM     91  F   UNL     1      13.467  -2.249  -5.337  1.00  0.00    -0.200 F 
ATOM     92  C   UNL     1      12.444  -0.483  -4.150  1.00  0.00     0.200 A 
ATOM     93  F   UNL     1      11.442   1.258  -2.911  1.00  0.00    -0.200 F 
ATOM     94  F   UNL     1      12.500   0.300  -5.236  1.00  0.00    -0.200 F 
ENDBRANCH  60  84
BRANCH  72  95
ATOM     95  C   UNL     1      17.422  -4.871   2.066  1.00  0.00     0.064 A 
ATOM     96  C   UNL     1      18.161  -3.709   2.333  1.00  0.00     0.173 A 
ATOM     97  C   UNL     1      18.132  -6.038   1.740  1.00  0.00     0.173 A 
ATOM     98  F   UNL     1      17.531  -2.564   2.637  1.00  0.00    -0.203 F 
ATOM     99  C   UNL     1      19.551  -3.709   2.250  1.00  0.00     0.198 A 
ATOM    100  C   UNL     1      19.523  -6.044   1.692  1.00  0.00     0.198 A 
ATOM    101  F   UNL     1      17.476  -7.180   1.486  1.00  0.00    -0.203 F 
ATOM    102  F   UNL     1      20.233  -2.575   2.460  1.00  0.00    -0.200 F 
ATOM    103  C   UNL     1      20.231  -4.878   1.939  1.00  0.00     0.200 A 
ATOM    104  F   UNL     1      20.178  -7.178   1.410  1.00  0.00    -0.200 F 
ATOM    105  F   UNL     1      21.569  -4.878   1.870  1.00  0.00    -0.200 F 
ENDBRANCH  72  95
ENDBRANCH  46  47
ENDBRANCH  39  41
ENDBRANCH  38  39
ENDBRANCH  37  38
ENDBRANCH  36  37
ENDBRANCH  35  36
ENDBRANCH  34  35
ENDBRANCH  33  34
ENDBRANCH  32  33
ENDBRANCH   1  32
TORSDOF 23
