REMARK SMILES CCNC(=O)NC(=O)[C@@H](C)[NH2+][C@](C)(CC)C(=O)OCCOCCOCCOCCOC(=O)c1ccc(-c2c3nc(c(-c4c(F)c(F)c(F)c(F)c4F)c4ccc([nH]4)c(-c4c(F)c(F)c(F)c(F)c4F)c4nc(c(-c5c(F)c(F)c(F)c(F)c5F)c5ccc2[nH]5)C=C4)C=C3)cc1
REMARK SMILES IDX 23 1 22 2 21 3 20 4 19 5 18 6 16 7 17 8 12 9 13 10 11 11
REMARK SMILES IDX 9 14 10 15 7 16 3 17 4 18 5 20 6 21 8 23 2 24 1 25 14 26
REMARK SMILES IDX 15 27 24 28 25 29 26 30 27 31 28 32 29 33 30 34 31 35 32 36
REMARK SMILES IDX 33 37 34 38 95 39 35 40 94 41 36 42 37 43 38 44 88 45 39 46
REMARK SMILES IDX 93 47 87 48 89 49 40 50 92 51 86 52 85 53 41 55 73 56 53 57
REMARK SMILES IDX 72 58 54 59 57 60 71 61 90 62 55 63 56 64 70 66 91 67 58 68
REMARK SMILES IDX 42 69 43 70 51 71 44 72 45 73 49 74 52 75 46 76 47 77 50 78
REMARK SMILES IDX 48 79 74 80 75 81 83 82 76 83 77 84 81 85 84 86 78 87 79 88
REMARK SMILES IDX 82 89 80 90 59 91 60 92 68 93 61 94 62 95 66 96 69 97 63 98
REMARK SMILES IDX 64 99 67 100 65 101
REMARK H PARENT 11 12 11 13 3 19 6 22 89 54 57 65
REMARK Flexibility Score: inf
ROOT
ATOM      1  C   UNL     1      -1.012  -1.504   4.959  1.00  0.00     0.188 C 
ENDROOT
BRANCH   1   2
ATOM      2  C   UNL     1      -2.232  -2.115   4.262  1.00  0.00     0.188 C 
BRANCH   2   3
ATOM      3  O   UNL     1      -2.166  -3.314   3.492  1.00  0.00    -0.376 OA
BRANCH   3   4
ATOM      4  C   UNL     1      -0.989  -4.094   3.368  1.00  0.00     0.202 C 
BRANCH   4   5
ATOM      5  C   UNL     1       0.103  -3.622   2.391  1.00  0.00     0.261 C 
BRANCH   5   6
ATOM      6  O   UNL     1       0.818  -2.405   2.679  1.00  0.00    -0.459 OA
BRANCH   6   7
ATOM      7  C   UNL     1       0.194  -1.272   2.263  1.00  0.00     0.367 C 
ATOM      8  O   UNL     1      -0.958  -1.257   1.838  1.00  0.00    -0.245 OA
BRANCH   7   9
ATOM      9  C   UNL     1       1.090   0.007   2.247  1.00  0.00     0.191 C 
ATOM     10  C   UNL     1       0.147   1.212   2.433  1.00  0.00     0.092 C 
BRANCH   9  11
ATOM     11  N   UNL     1       1.741  -0.130   0.929  1.00  0.00    -0.322 N 
ATOM     12  H   UNL     1       2.706  -0.388   1.138  1.00  0.00     0.347 HD
ATOM     13  H   UNL     1       1.073  -0.757   0.481  1.00  0.00     0.347 HD
BRANCH  11  14
ATOM     14  C   UNL     1       1.841   0.886  -0.107  1.00  0.00     0.270 C 
ATOM     15  C   UNL     1       0.648   1.688  -0.654  1.00  0.00     0.086 C 
BRANCH  14  16
ATOM     16  C   UNL     1       2.475   0.207  -1.347  1.00  0.00     0.285 C 
ATOM     17  N   UNL     1       0.182  -2.212  -1.024  1.00  0.00    -0.338 N 
ATOM     18  C   UNL     1       1.513  -2.171  -1.258  1.00  0.00     0.321 C 
ATOM     19  H   UNL     1      -0.162  -3.091  -0.745  1.00  0.00     0.165 HD
ATOM     20  O   UNL     1       2.166  -3.208  -1.130  1.00  0.00    -0.248 OA
ATOM     21  N   UNL     1       2.100  -1.054  -1.798  1.00  0.00    -0.273 N 
ATOM     22  H   UNL     1       2.310  -1.178  -2.752  1.00  0.00     0.175 HD
ATOM     23  O   UNL     1       3.350   0.802  -1.990  1.00  0.00    -0.268 OA
BRANCH  17  24
ATOM     24  C   UNL     1      -0.813  -1.171  -1.119  1.00  0.00     0.114 C 
ATOM     25  C   UNL     1      -2.217  -1.608  -0.728  1.00  0.00     0.027 C 
ENDBRANCH  17  24
ENDBRANCH  14  16
ENDBRANCH  11  14
ENDBRANCH   9  11
BRANCH   9  26
ATOM     26  C   UNL     1       2.220   0.064   3.329  1.00  0.00     0.077 C 
ATOM     27  C   UNL     1       1.864   0.461   4.768  1.00  0.00     0.011 C 
ENDBRANCH   9  26
ENDBRANCH   7   9
ENDBRANCH   6   7
ENDBRANCH   5   6
ENDBRANCH   4   5
ENDBRANCH   3   4
ENDBRANCH   2   3
ENDBRANCH   1   2
BRANCH   1  28
ATOM     28  O   UNL     1       0.032  -2.401   5.270  1.00  0.00    -0.377 OA
BRANCH  28  29
ATOM     29  C   UNL     1      -0.046  -3.155   6.468  1.00  0.00     0.188 C 
BRANCH  29  30
ATOM     30  C   UNL     1      -1.397  -3.234   7.186  1.00  0.00     0.188 C 
BRANCH  30  31
ATOM     31  O   UNL     1      -1.983  -1.966   7.413  1.00  0.00    -0.376 OA
BRANCH  31  32
ATOM     32  C   UNL     1      -1.661  -1.189   8.552  1.00  0.00     0.202 C 
BRANCH  32  33
ATOM     33  C   UNL     1      -0.213  -0.929   9.009  1.00  0.00     0.261 C 
BRANCH  33  34
ATOM     34  O   UNL     1       0.702  -2.028   9.102  1.00  0.00    -0.460 OA
BRANCH  34  35
ATOM     35  C   UNL     1       0.371  -3.103   9.846  1.00  0.00     0.338 C 
ATOM     36  O   UNL     1      -0.618  -3.248  10.529  1.00  0.00    -0.246 OA
BRANCH  35  37
ATOM     37  C   UNL     1       1.346  -4.173   9.514  1.00  0.00     0.060 A 
ATOM     38  C   UNL     1       0.875  -5.402   9.031  1.00  0.00     0.016 A 
ATOM     39  C   UNL     1       2.718  -3.961   9.676  1.00  0.00     0.016 A 
ATOM     40  C   UNL     1       1.768  -6.439   8.763  1.00  0.00     0.010 A 
ATOM     41  C   UNL     1       3.610  -5.008   9.432  1.00  0.00     0.010 A 
ATOM     42  C   UNL     1       3.133  -6.265   9.018  1.00  0.00    -0.014 A 
BRANCH  42  43
ATOM     43  C   UNL     1       4.026  -7.447   9.080  1.00  0.00     0.031 A 
ATOM     44  C   UNL     1       4.327  -8.033  10.433  1.00  0.00     0.074 A 
ATOM     45  C   UNL     1       4.543  -7.999   7.970  1.00  0.00     0.049 A 
ATOM     46  N   UNL     1       5.131  -9.012  10.760  1.00  0.00    -0.248 NA
ATOM     47  C   UNL     1       3.627  -7.423  11.576  1.00  0.00     0.031 C 
ATOM     48  C   UNL     1       4.284  -7.552   6.604  1.00  0.00     0.029 A 
ATOM     49  N   UNL     1       5.408  -9.055   7.824  1.00  0.00    -0.354 N 
ATOM     50  C   UNL     1       5.041  -9.126  12.142  1.00  0.00     0.074 A 
ATOM     51  C   UNL     1       4.133  -8.097  12.597  1.00  0.00     0.031 C 
ATOM     52  C   UNL     1       4.991  -8.319   5.755  1.00  0.00     0.029 A 
ATOM     53  C   UNL     1       5.779  -9.284   6.521  1.00  0.00     0.049 A 
ATOM     54  H   UNL     1       5.732  -9.596   8.579  1.00  0.00     0.167 HD
ATOM     55  C   UNL     1       5.657 -10.015  12.957  1.00  0.00     0.037 A 
ATOM     56  C   UNL     1       6.675 -10.154   6.016  1.00  0.00     0.037 A 
ATOM     57  C   UNL     1       6.561 -11.034  12.496  1.00  0.00     0.049 A 
ATOM     58  C   UNL     1       7.412 -11.080   6.953  1.00  0.00     0.074 A 
ATOM     59  C   UNL     1       7.226 -11.996  13.235  1.00  0.00     0.029 A 
ATOM     60  N   UNL     1       6.936 -11.216  11.172  1.00  0.00    -0.354 N 
ATOM     61  N   UNL     1       7.308 -11.199   8.255  1.00  0.00    -0.248 NA
ATOM     62  C   UNL     1       8.389 -11.995   6.347  1.00  0.00     0.031 C 
ATOM     63  C   UNL     1       8.053 -12.717  12.368  1.00  0.00     0.029 A 
ATOM     64  C   UNL     1       7.848 -12.254  11.078  1.00  0.00     0.049 A 
ATOM     65  H   UNL     1       6.603 -10.685  10.413  1.00  0.00     0.167 HD
ATOM     66  C   UNL     1       8.177 -12.221   8.618  1.00  0.00     0.074 A 
ATOM     67  C   UNL     1       8.790 -12.698   7.397  1.00  0.00     0.031 C 
ATOM     68  C   UNL     1       8.442 -12.722   9.851  1.00  0.00     0.037 A 
BRANCH  55  69
ATOM     69  C   UNL     1       5.399  -9.899  14.432  1.00  0.00     0.064 A 
ATOM     70  C   UNL     1       4.151 -10.207  14.994  1.00  0.00     0.173 A 
ATOM     71  C   UNL     1       6.427  -9.499  15.300  1.00  0.00     0.173 A 
ATOM     72  F   UNL     1       3.128 -10.578  14.208  1.00  0.00    -0.203 F 
ATOM     73  C   UNL     1       3.933 -10.090  16.365  1.00  0.00     0.198 A 
ATOM     74  C   UNL     1       6.216  -9.418  16.674  1.00  0.00     0.198 A 
ATOM     75  F   UNL     1       7.641  -9.194  14.817  1.00  0.00    -0.203 F 
ATOM     76  F   UNL     1       2.717 -10.337  16.872  1.00  0.00    -0.200 F 
ATOM     77  C   UNL     1       4.968  -9.704  17.204  1.00  0.00     0.200 A 
ATOM     78  F   UNL     1       7.221  -9.058  17.484  1.00  0.00    -0.200 F 
ATOM     79  F   UNL     1       4.759  -9.601  18.524  1.00  0.00    -0.200 F 
ENDBRANCH  55  69
BRANCH  56  80
ATOM     80  C   UNL     1       6.943 -10.184   4.553  1.00  0.00     0.064 A 
ATOM     81  C   UNL     1       6.603 -11.300   3.776  1.00  0.00     0.173 A 
ATOM     82  C   UNL     1       7.568  -9.107   3.905  1.00  0.00     0.173 A 
ATOM     83  F   UNL     1       6.029 -12.366   4.353  1.00  0.00    -0.203 F 
ATOM     84  C   UNL     1       6.897 -11.348   2.415  1.00  0.00     0.198 A 
ATOM     85  C   UNL     1       7.832  -9.142   2.538  1.00  0.00     0.198 A 
ATOM     86  F   UNL     1       7.918  -8.016   4.601  1.00  0.00    -0.203 F 
ATOM     87  F   UNL     1       6.612 -12.450   1.709  1.00  0.00    -0.200 F 
ATOM     88  C   UNL     1       7.505 -10.267   1.795  1.00  0.00     0.200 A 
ATOM     89  F   UNL     1       8.409  -8.090   1.942  1.00  0.00    -0.200 F 
ATOM     90  F   UNL     1       7.787 -10.313   0.486  1.00  0.00    -0.200 F 
ENDBRANCH  56  80
BRANCH  68  91
ATOM     91  C   UNL     1       9.401 -13.877   9.939  1.00  0.00     0.064 A 
ATOM     92  C   UNL     1      10.774 -13.722   9.693  1.00  0.00     0.173 A 
ATOM     93  C   UNL     1       8.944 -15.149  10.320  1.00  0.00     0.173 A 
ATOM     94  F   UNL     1      11.262 -12.531   9.315  1.00  0.00    -0.203 F 
ATOM     95  C   UNL     1      11.646 -14.803   9.794  1.00  0.00     0.198 A 
ATOM     96  C   UNL     1       9.824 -16.218  10.456  1.00  0.00     0.198 A 
ATOM     97  F   UNL     1       7.643 -15.350  10.578  1.00  0.00    -0.203 F 
ATOM     98  F   UNL     1      12.944 -14.644   9.501  1.00  0.00    -0.200 F 
ATOM     99  C   UNL     1      11.172 -16.047  10.184  1.00  0.00     0.200 A 
ATOM    100  F   UNL     1       9.367 -17.414  10.852  1.00  0.00    -0.200 F 
ATOM    101  F   UNL     1      12.015 -17.084  10.291  1.00  0.00    -0.200 F 
ENDBRANCH  68  91
ENDBRANCH  42  43
ENDBRANCH  35  37
ENDBRANCH  34  35
ENDBRANCH  33  34
ENDBRANCH  32  33
ENDBRANCH  31  32
ENDBRANCH  30  31
ENDBRANCH  29  30
ENDBRANCH  28  29
ENDBRANCH   1  28
TORSDOF 25
