REMARK SMILES O=C(COc1cc(-c2ccccc2)nc(Nc2ccccc2Br)n1)OCCOCCOCCOCCOC(=O)c1ccc(-c2c3nc(c(-c4c(F)c(F)c(F)c(F)c4F)c4ccc([nH]4)c(-c4c(F)c(F)c(F)c(F)c4F)c4nc(c(-c5c(F)c(F)c(F)c(F)c5F)c5ccc2[nH]5)C=C4)C=C3)cc1
REMARK SMILES IDX 30 1 29 2 28 3 27 4 26 5 25 6 2 7 1 8 3 9 4 10 5 11 6 12
REMARK SMILES IDX 24 13 7 14 15 15 14 16 8 17 9 18 13 19 10 20 12 21 11 22
REMARK SMILES IDX 16 23 17 25 18 26 22 27 19 28 21 29 23 30 20 31 31 32 32 33
REMARK SMILES IDX 33 34 34 35 35 36 36 37 37 38 38 39 39 40 40 41 41 42 102 43
REMARK SMILES IDX 42 44 101 45 43 46 44 47 45 48 95 49 46 50 100 51 94 52
REMARK SMILES IDX 96 53 47 54 99 55 93 56 92 57 48 59 80 60 60 61 79 62 61 63
REMARK SMILES IDX 64 64 78 65 97 66 62 67 63 68 77 70 98 71 65 72 49 73 50 74
REMARK SMILES IDX 58 75 51 76 52 77 56 78 59 79 53 80 54 81 57 82 55 83 81 84
REMARK SMILES IDX 82 85 90 86 83 87 84 88 88 89 91 90 85 91 86 92 89 93 87 94
REMARK SMILES IDX 66 95 67 96 75 97 68 98 69 99 73 100 76 101 70 102 71 103
REMARK SMILES IDX 74 104 72 105
REMARK H PARENT 16 24 96 58 64 69
REMARK Flexibility Score: inf
ROOT
ATOM      1  C   UNL     1       2.254  -0.526  -2.378  1.00  0.00     0.188 C 
ENDROOT
BRANCH   1   2
ATOM      2  C   UNL     1       2.957   0.770  -1.948  1.00  0.00     0.188 C 
BRANCH   2   3
ATOM      3  O   UNL     1       4.330   0.668  -1.617  1.00  0.00    -0.376 OA
BRANCH   3   4
ATOM      4  C   UNL     1       4.883   0.243  -0.391  1.00  0.00     0.202 C 
BRANCH   4   5
ATOM      5  C   UNL     1       4.182  -0.790   0.492  1.00  0.00     0.261 C 
BRANCH   5   6
ATOM      6  O   UNL     1       2.757  -0.664   0.655  1.00  0.00    -0.461 OA
BRANCH   6   7
ATOM      7  C   UNL     1       2.076   0.466   0.952  1.00  0.00     0.344 C 
ATOM      8  O   UNL     1       0.850   0.469   0.885  1.00  0.00    -0.248 OA
BRANCH   7   9
ATOM      9  C   UNL     1       2.866   1.712   1.329  1.00  0.00     0.353 C 
BRANCH   9  10
ATOM     10  O   UNL     1       4.000   1.416   2.142  1.00  0.00    -0.466 OA
BRANCH  10  11
ATOM     11  C   UNL     1       3.567   1.368   3.430  1.00  0.00     0.219 A 
ATOM     12  C   UNL     1       2.817   0.319   3.862  1.00  0.00     0.097 A 
ATOM     13  N   UNL     1       3.738   2.495   4.088  1.00  0.00    -0.177 NA
ATOM     14  C   UNL     1       2.042   0.576   4.965  1.00  0.00     0.080 A 
ATOM     15  C   UNL     1       3.062   2.637   5.224  1.00  0.00     0.231 A 
ATOM     16  N   UNL     1       2.176   1.725   5.680  1.00  0.00    -0.212 NA
BRANCH  14  17
ATOM     17  C   UNL     1       0.910  -0.338   5.228  1.00  0.00     0.000 A 
ATOM     18  C   UNL     1      -0.382   0.156   5.465  1.00  0.00     0.010 A 
ATOM     19  C   UNL     1       1.048  -1.734   5.053  1.00  0.00     0.010 A 
ATOM     20  C   UNL     1      -1.487  -0.704   5.507  1.00  0.00     0.001 A 
ATOM     21  C   UNL     1      -0.054  -2.592   5.085  1.00  0.00     0.001 A 
ATOM     22  C   UNL     1      -1.323  -2.075   5.312  1.00  0.00     0.000 A 
ENDBRANCH  14  17
BRANCH  15  23
ATOM     23  N   UNL     1       3.342   3.792   5.960  1.00  0.00    -0.323 N 
ATOM     24  H   UNL     1       2.840   3.947   6.792  1.00  0.00     0.170 HD
BRANCH  23  25
ATOM     25  C   UNL     1       4.306   4.750   5.573  1.00  0.00     0.055 A 
ATOM     26  C   UNL     1       5.541   4.774   6.242  1.00  0.00     0.027 A 
ATOM     27  C   UNL     1       4.169   5.562   4.424  1.00  0.00     0.041 A 
ATOM     28  C   UNL     1       6.595   5.579   5.791  1.00  0.00     0.002 A 
ATOM     29  C   UNL     1       5.222   6.374   3.980  1.00  0.00     0.018 A 
ATOM     30  Br  UNL     1       2.544   5.648   3.432  1.00  0.00    -0.049 Br
ATOM     31  C   UNL     1       6.435   6.380   4.663  1.00  0.00     0.001 A 
ENDBRANCH  23  25
ENDBRANCH  15  23
ENDBRANCH  10  11
ENDBRANCH   9  10
ENDBRANCH   7   9
ENDBRANCH   6   7
ENDBRANCH   5   6
ENDBRANCH   4   5
ENDBRANCH   3   4
ENDBRANCH   2   3
ENDBRANCH   1   2
BRANCH   1  32
ATOM     32  O   UNL     1       2.892  -1.280  -3.402  1.00  0.00    -0.377 OA
BRANCH  32  33
ATOM     33  C   UNL     1       4.254  -1.585  -3.159  1.00  0.00     0.188 C 
BRANCH  33  34
ATOM     34  C   UNL     1       5.250  -0.644  -3.867  1.00  0.00     0.188 C 
BRANCH  34  35
ATOM     35  O   UNL     1       4.824   0.584  -4.423  1.00  0.00    -0.376 OA
BRANCH  35  36
ATOM     36  C   UNL     1       3.727   0.691  -5.312  1.00  0.00     0.202 C 
BRANCH  36  37
ATOM     37  C   UNL     1       3.220  -0.408  -6.263  1.00  0.00     0.261 C 
BRANCH  37  38
ATOM     38  O   UNL     1       3.606  -1.754  -6.006  1.00  0.00    -0.460 OA
BRANCH  38  39
ATOM     39  C   UNL     1       4.752  -2.160  -6.585  1.00  0.00     0.338 C 
ATOM     40  O   UNL     1       5.490  -1.517  -7.314  1.00  0.00    -0.246 OA
BRANCH  39  41
ATOM     41  C   UNL     1       5.091  -3.474  -6.006  1.00  0.00     0.060 A 
ATOM     42  C   UNL     1       6.327  -3.622  -5.361  1.00  0.00     0.016 A 
ATOM     43  C   UNL     1       4.183  -4.535  -6.060  1.00  0.00     0.016 A 
ATOM     44  C   UNL     1       6.673  -4.838  -4.787  1.00  0.00     0.010 A 
ATOM     45  C   UNL     1       4.550  -5.771  -5.529  1.00  0.00     0.010 A 
ATOM     46  C   UNL     1       5.811  -5.931  -4.926  1.00  0.00    -0.014 A 
BRANCH  46  47
ATOM     47  C   UNL     1       6.345  -7.288  -4.691  1.00  0.00     0.031 A 
ATOM     48  C   UNL     1       6.900  -8.027  -5.875  1.00  0.00     0.074 A 
ATOM     49  C   UNL     1       6.372  -7.831  -3.463  1.00  0.00     0.049 A 
ATOM     50  N   UNL     1       7.375  -9.242  -5.951  1.00  0.00    -0.248 NA
ATOM     51  C   UNL     1       6.918  -7.291  -7.151  1.00  0.00     0.031 C 
ATOM     52  C   UNL     1       5.918  -7.179  -2.239  1.00  0.00     0.029 A 
ATOM     53  N   UNL     1       6.798  -9.068  -3.053  1.00  0.00    -0.354 N 
ATOM     54  C   UNL     1       7.737  -9.417  -7.280  1.00  0.00     0.074 A 
ATOM     55  C   UNL     1       7.402  -8.199  -7.982  1.00  0.00     0.031 C 
ATOM     56  C   UNL     1       6.071  -8.033  -1.211  1.00  0.00     0.029 A 
ATOM     57  C   UNL     1       6.598  -9.300  -1.716  1.00  0.00     0.049 A 
ATOM     58  H   UNL     1       7.206  -9.727  -3.660  1.00  0.00     0.167 HD
ATOM     59  C   UNL     1       8.305 -10.499  -7.860  1.00  0.00     0.037 A 
ATOM     60  C   UNL     1       6.794 -10.423  -0.998  1.00  0.00     0.037 A 
ATOM     61  C   UNL     1       8.626 -11.709  -7.154  1.00  0.00     0.049 A 
ATOM     62  C   UNL     1       7.345 -11.648  -1.687  1.00  0.00     0.074 A 
ATOM     63  C   UNL     1       9.210 -12.863  -7.641  1.00  0.00     0.029 A 
ATOM     64  N   UNL     1       8.376 -11.923  -5.805  1.00  0.00    -0.354 N 
ATOM     65  N   UNL     1       7.704 -11.806  -2.938  1.00  0.00    -0.248 NA
ATOM     66  C   UNL     1       7.519 -12.850  -0.860  1.00  0.00     0.031 C 
ATOM     67  C   UNL     1       9.254 -13.799  -6.604  1.00  0.00     0.029 A 
ATOM     68  C   UNL     1       8.766 -13.203  -5.451  1.00  0.00     0.049 A 
ATOM     69  H   UNL     1       7.980 -11.262  -5.192  1.00  0.00     0.167 HD
ATOM     70  C   UNL     1       8.179 -13.108  -3.040  1.00  0.00     0.074 A 
ATOM     71  C   UNL     1       8.072 -13.693  -1.720  1.00  0.00     0.031 C 
ATOM     72  C   UNL     1       8.663 -13.762  -4.126  1.00  0.00     0.037 A 
BRANCH  59  73
ATOM     73  C   UNL     1       8.573 -10.433  -9.335  1.00  0.00     0.064 A 
ATOM     74  C   UNL     1       9.560  -9.593  -9.874  1.00  0.00     0.173 A 
ATOM     75  C   UNL     1       7.844 -11.239 -10.222  1.00  0.00     0.173 A 
ATOM     76  F   UNL     1      10.272  -8.787  -9.072  1.00  0.00    -0.203 F 
ATOM     77  C   UNL     1       9.787  -9.543 -11.247  1.00  0.00     0.198 A 
ATOM     78  C   UNL     1       8.097 -11.213 -11.590  1.00  0.00     0.198 A 
ATOM     79  F   UNL     1       6.888 -12.059  -9.760  1.00  0.00    -0.203 F 
ATOM     80  F   UNL     1      10.697  -8.694 -11.743  1.00  0.00    -0.200 F 
ATOM     81  C   UNL     1       9.062 -10.359 -12.102  1.00  0.00     0.200 A 
ATOM     82  F   UNL     1       7.405 -12.012 -12.413  1.00  0.00    -0.200 F 
ATOM     83  F   UNL     1       9.289 -10.318 -13.423  1.00  0.00    -0.200 F 
ENDBRANCH  59  73
BRANCH  60  84
ATOM     84  C   UNL     1       6.453 -10.452   0.449  1.00  0.00     0.064 A 
ATOM     85  C   UNL     1       7.447 -10.604   1.426  1.00  0.00     0.173 A 
ATOM     86  C   UNL     1       5.122 -10.357   0.885  1.00  0.00     0.173 A 
ATOM     87  F   UNL     1       8.731 -10.724   1.061  1.00  0.00    -0.203 F 
ATOM     88  C   UNL     1       7.122 -10.683   2.779  1.00  0.00     0.198 A 
ATOM     89  C   UNL     1       4.801 -10.402   2.240  1.00  0.00     0.198 A 
ATOM     90  F   UNL     1       4.131 -10.211  -0.007  1.00  0.00    -0.203 F 
ATOM     91  F   UNL     1       8.087 -10.883   3.687  1.00  0.00    -0.200 F 
ATOM     92  C   UNL     1       5.800 -10.576   3.185  1.00  0.00     0.200 A 
ATOM     93  F   UNL     1       3.525 -10.282   2.628  1.00  0.00    -0.200 F 
ATOM     94  F   UNL     1       5.489 -10.648   4.487  1.00  0.00    -0.200 F 
ENDBRANCH  60  84
BRANCH  72  95
ATOM     95  C   UNL     1       9.165 -15.164  -3.926  1.00  0.00     0.064 A 
ATOM     96  C   UNL     1       8.298 -16.233  -3.661  1.00  0.00     0.173 A 
ATOM     97  C   UNL     1      10.535 -15.448  -4.055  1.00  0.00     0.173 A 
ATOM     98  F   UNL     1       6.982 -16.015  -3.517  1.00  0.00    -0.203 F 
ATOM     99  C   UNL     1       8.785 -17.528  -3.502  1.00  0.00     0.198 A 
ATOM    100  C   UNL     1      11.014 -16.749  -3.933  1.00  0.00     0.198 A 
ATOM    101  F   UNL     1      11.408 -14.464  -4.319  1.00  0.00    -0.203 F 
ATOM    102  F   UNL     1       7.944 -18.525  -3.196  1.00  0.00    -0.200 F 
ATOM    103  C   UNL     1      10.140 -17.786  -3.647  1.00  0.00     0.200 A 
ATOM    104  F   UNL     1      12.321 -16.998  -4.093  1.00  0.00    -0.200 F 
ATOM    105  F   UNL     1      10.605 -19.035  -3.506  1.00  0.00    -0.200 F 
ENDBRANCH  72  95
ENDBRANCH  46  47
ENDBRANCH  39  41
ENDBRANCH  38  39
ENDBRANCH  37  38
ENDBRANCH  36  37
ENDBRANCH  35  36
ENDBRANCH  34  35
ENDBRANCH  33  34
ENDBRANCH  32  33
ENDBRANCH   1  32
TORSDOF 25
