REMARK SMILES C[C@H]1[C@H](C(=O)OCCOCCOCCOCCOC(=O)c2ccc(-c3c4nc(c(-c5c(F)c(F)c(F)c(F)c5F)c5ccc([nH]5)c(-c5c(F)c(F)c(F)c(F)c5F)c5nc(c(-c6c(F)c(F)c(F)c(F)c6F)c6ccc3[nH]6)C=C5)C=C4)cc2)CC[N@@H+]1Cc1ccc(Br)cc1F
REMARK SMILES IDX 12 1 11 2 10 3 9 4 8 5 7 6 6 7 4 8 5 9 3 10 1 11 2 12 86 13
REMARK SMILES IDX 84 14 85 15 87 17 88 18 89 19 94 20 90 21 93 22 95 23 91 24
REMARK SMILES IDX 92 25 13 26 14 27 15 28 16 29 17 30 18 31 19 32 20 33 21 34
REMARK SMILES IDX 22 35 83 36 23 37 82 38 24 39 25 40 26 41 76 42 27 43 81 44
REMARK SMILES IDX 75 45 77 46 28 47 80 48 74 49 73 50 29 52 61 53 41 54 60 55
REMARK SMILES IDX 42 56 45 57 59 58 78 59 43 60 44 61 58 63 79 64 46 65 30 66
REMARK SMILES IDX 31 67 39 68 32 69 33 70 37 71 40 72 34 73 35 74 38 75 36 76
REMARK SMILES IDX 62 77 63 78 71 79 64 80 65 81 69 82 72 83 66 84 67 85 70 86
REMARK SMILES IDX 68 87 47 88 48 89 56 90 49 91 50 92 54 93 57 94 51 95 52 96
REMARK SMILES IDX 55 97 53 98
REMARK H PARENT 86 16 77 51 45 62
REMARK Flexibility Score: inf
ROOT
ATOM      1  O   UNL     1       2.832   1.696   3.016  1.00  0.00    -0.377 OA
ENDROOT
BRANCH   1   2
ATOM      2  C   UNL     1       1.940   2.085   2.005  1.00  0.00     0.188 C 
BRANCH   2   3
ATOM      3  C   UNL     1       1.775   3.546   1.573  1.00  0.00     0.188 C 
BRANCH   3   4
ATOM      4  O   UNL     1       1.183   4.481   2.453  1.00  0.00    -0.376 OA
BRANCH   4   5
ATOM      5  C   UNL     1      -0.033   4.267   3.142  1.00  0.00     0.202 C 
BRANCH   5   6
ATOM      6  C   UNL     1      -1.207   3.404   2.641  1.00  0.00     0.261 C 
BRANCH   6   7
ATOM      7  O   UNL     1      -0.900   2.247   1.847  1.00  0.00    -0.463 OA
BRANCH   7   8
ATOM      8  C   UNL     1      -1.127   2.354   0.519  1.00  0.00     0.315 C 
ATOM      9  O   UNL     1      -1.623   3.351   0.001  1.00  0.00    -0.252 OA
BRANCH   8  10
ATOM     10  C   UNL     1      -0.735   1.144  -0.323  1.00  0.00     0.162 C 
ATOM     11  C   UNL     1       1.397  -0.163  -0.728  1.00  0.00     0.076 C 
ATOM     12  C   UNL     1       0.177   0.017   0.200  1.00  0.00     0.195 C 
ATOM     13  N   UNL     1      -0.578  -1.234   0.130  1.00  0.00    -0.328 N 
ATOM     14  C   UNL     1      -2.005   0.442  -0.781  1.00  0.00     0.083 C 
ATOM     15  C   UNL     1      -1.673  -1.038  -0.805  1.00  0.00     0.263 C 
ATOM     16  H   UNL     1       0.028  -1.968  -0.237  1.00  0.00     0.348 HD
BRANCH  13  17
ATOM     17  C   UNL     1      -0.894  -1.885   1.406  1.00  0.00     0.302 C 
BRANCH  17  18
ATOM     18  C   UNL     1      -1.518  -1.057   2.507  1.00  0.00     0.042 A 
ATOM     19  C   UNL     1      -0.772  -0.697   3.645  1.00  0.00     0.014 A 
ATOM     20  C   UNL     1      -2.857  -0.666   2.452  1.00  0.00     0.133 A 
ATOM     21  C   UNL     1      -1.353   0.052   4.673  1.00  0.00     0.016 A 
ATOM     22  C   UNL     1      -3.438   0.107   3.454  1.00  0.00     0.055 A 
ATOM     23  F   UNL     1      -3.626  -1.042   1.422  1.00  0.00    -0.206 F 
ATOM     24  C   UNL     1      -2.681   0.459   4.566  1.00  0.00     0.020 A 
ATOM     25  Br  UNL     1      -3.458   1.503   5.937  1.00  0.00    -0.051 Br
ENDBRANCH  17  18
ENDBRANCH  13  17
ENDBRANCH   8  10
ENDBRANCH   7   8
ENDBRANCH   6   7
ENDBRANCH   5   6
ENDBRANCH   4   5
ENDBRANCH   3   4
ENDBRANCH   2   3
ENDBRANCH   1   2
BRANCH   1  26
ATOM     26  C   UNL     1       2.592   2.306   4.262  1.00  0.00     0.188 C 
BRANCH  26  27
ATOM     27  C   UNL     1       3.554   3.467   4.476  1.00  0.00     0.188 C 
BRANCH  27  28
ATOM     28  O   UNL     1       4.376   3.825   3.384  1.00  0.00    -0.376 OA
BRANCH  28  29
ATOM     29  C   UNL     1       5.273   2.925   2.747  1.00  0.00     0.202 C 
BRANCH  29  30
ATOM     30  C   UNL     1       5.617   1.462   3.133  1.00  0.00     0.261 C 
BRANCH  30  31
ATOM     31  O   UNL     1       5.056   0.875   4.306  1.00  0.00    -0.460 OA
BRANCH  31  32
ATOM     32  C   UNL     1       5.617   1.208   5.480  1.00  0.00     0.338 C 
ATOM     33  O   UNL     1       6.556   1.963   5.668  1.00  0.00    -0.246 OA
BRANCH  32  34
ATOM     34  C   UNL     1       4.768   0.642   6.549  1.00  0.00     0.060 A 
ATOM     35  C   UNL     1       4.200   1.525   7.475  1.00  0.00     0.016 A 
ATOM     36  C   UNL     1       4.529  -0.734   6.639  1.00  0.00     0.016 A 
ATOM     37  C   UNL     1       3.442   1.034   8.530  1.00  0.00     0.010 A 
ATOM     38  C   UNL     1       3.795  -1.231   7.721  1.00  0.00     0.010 A 
ATOM     39  C   UNL     1       3.297  -0.349   8.696  1.00  0.00    -0.014 A 
BRANCH  39  40
ATOM     40  C   UNL     1       2.876  -0.842  10.028  1.00  0.00     0.031 A 
ATOM     41  C   UNL     1       3.955  -1.215  11.009  1.00  0.00     0.074 A 
ATOM     42  C   UNL     1       1.584  -0.858  10.395  1.00  0.00     0.049 A 
ATOM     43  N   UNL     1       3.854  -1.612  12.251  1.00  0.00    -0.248 NA
ATOM     44  C   UNL     1       5.342  -1.119  10.521  1.00  0.00     0.031 C 
ATOM     45  C   UNL     1       0.459  -0.465   9.550  1.00  0.00     0.029 A 
ATOM     46  N   UNL     1       1.007  -1.209  11.589  1.00  0.00    -0.354 N 
ATOM     47  C   UNL     1       5.157  -1.812  12.688  1.00  0.00     0.074 A 
ATOM     48  C   UNL     1       6.031  -1.536  11.571  1.00  0.00     0.031 C 
ATOM     49  C   UNL     1      -0.679  -0.601  10.253  1.00  0.00     0.029 A 
ATOM     50  C   UNL     1      -0.362  -1.111  11.586  1.00  0.00     0.049 A 
ATOM     51  H   UNL     1       1.525  -1.504  12.372  1.00  0.00     0.167 HD
ATOM     52  C   UNL     1       5.589  -2.179  13.918  1.00  0.00     0.037 A 
ATOM     53  C   UNL     1      -1.251  -1.413  12.552  1.00  0.00     0.037 A 
ATOM     54  C   UNL     1       4.716  -2.457  15.026  1.00  0.00     0.049 A 
ATOM     55  C   UNL     1      -0.748  -1.896  13.891  1.00  0.00     0.074 A 
ATOM     56  C   UNL     1       5.049  -2.834  16.314  1.00  0.00     0.029 A 
ATOM     57  N   UNL     1       3.330  -2.398  14.971  1.00  0.00    -0.354 N 
ATOM     58  N   UNL     1       0.486  -2.061  14.306  1.00  0.00    -0.248 NA
ATOM     59  C   UNL     1      -1.765  -2.222  14.900  1.00  0.00     0.031 C 
ATOM     60  C   UNL     1       3.864  -3.063  17.021  1.00  0.00     0.029 A 
ATOM     61  C   UNL     1       2.793  -2.758  16.196  1.00  0.00     0.049 A 
ATOM     62  H   UNL     1       2.807  -2.138  14.179  1.00  0.00     0.167 HD
ATOM     63  C   UNL     1       0.394  -2.474  15.630  1.00  0.00     0.074 A 
ATOM     64  C   UNL     1      -1.017  -2.516  15.953  1.00  0.00     0.031 C 
ATOM     65  C   UNL     1       1.385  -2.788  16.502  1.00  0.00     0.037 A 
BRANCH  52  66
ATOM     66  C   UNL     1       7.070  -2.335  14.112  1.00  0.00     0.064 A 
ATOM     67  C   UNL     1       7.941  -1.234  14.103  1.00  0.00     0.173 A 
ATOM     68  C   UNL     1       7.625  -3.606  14.327  1.00  0.00     0.173 A 
ATOM     69  F   UNL     1       7.466   0.001  13.881  1.00  0.00    -0.203 F 
ATOM     70  C   UNL     1       9.313  -1.404  14.272  1.00  0.00     0.198 A 
ATOM     71  C   UNL     1       8.992  -3.768  14.531  1.00  0.00     0.198 A 
ATOM     72  F   UNL     1       6.838  -4.693  14.345  1.00  0.00    -0.203 F 
ATOM     73  F   UNL     1      10.131  -0.345  14.203  1.00  0.00    -0.200 F 
ATOM     74  C   UNL     1       9.836  -2.669  14.494  1.00  0.00     0.200 A 
ATOM     75  F   UNL     1       9.493  -4.990  14.758  1.00  0.00    -0.200 F 
ATOM     76  F   UNL     1      11.156  -2.830  14.665  1.00  0.00    -0.200 F 
ENDBRANCH  52  66
BRANCH  53  77
ATOM     77  C   UNL     1      -2.710  -1.275  12.294  1.00  0.00     0.064 A 
ATOM     78  C   UNL     1      -3.486  -0.334  12.984  1.00  0.00     0.173 A 
ATOM     79  C   UNL     1      -3.364  -2.109  11.375  1.00  0.00     0.173 A 
ATOM     80  F   UNL     1      -2.913   0.471  13.892  1.00  0.00    -0.203 F 
ATOM     81  C   UNL     1      -4.863  -0.249  12.784  1.00  0.00     0.198 A 
ATOM     82  C   UNL     1      -4.734  -2.002  11.151  1.00  0.00     0.198 A 
ATOM     83  F   UNL     1      -2.669  -3.029  10.689  1.00  0.00    -0.203 F 
ATOM     84  F   UNL     1      -5.590   0.620  13.499  1.00  0.00    -0.200 F 
ATOM     85  C   UNL     1      -5.485  -1.079  11.864  1.00  0.00     0.200 A 
ATOM     86  F   UNL     1      -5.328  -2.797  10.251  1.00  0.00    -0.200 F 
ATOM     87  F   UNL     1      -6.809  -0.999  11.672  1.00  0.00    -0.200 F 
ENDBRANCH  53  77
BRANCH  65  88
ATOM     88  C   UNL     1       0.981  -3.155  17.904  1.00  0.00     0.064 A 
ATOM     89  C   UNL     1       0.294  -4.344  18.193  1.00  0.00     0.173 A 
ATOM     90  C   UNL     1       1.306  -2.310  18.978  1.00  0.00     0.173 A 
ATOM     91  F   UNL     1      -0.049  -5.183  17.205  1.00  0.00    -0.203 F 
ATOM     92  C   UNL     1      -0.091  -4.650  19.496  1.00  0.00     0.198 A 
ATOM     93  C   UNL     1       0.955  -2.639  20.284  1.00  0.00     0.198 A 
ATOM     94  F   UNL     1       1.974  -1.167  18.762  1.00  0.00    -0.203 F 
ATOM     95  F   UNL     1      -0.806  -5.758  19.738  1.00  0.00    -0.200 F 
ATOM     96  C   UNL     1       0.245  -3.802  20.541  1.00  0.00     0.200 A 
ATOM     97  F   UNL     1       1.299  -1.828  21.293  1.00  0.00    -0.200 F 
ATOM     98  F   UNL     1      -0.125  -4.100  21.794  1.00  0.00    -0.200 F 
ENDBRANCH  65  88
ENDBRANCH  39  40
ENDBRANCH  32  34
ENDBRANCH  31  32
ENDBRANCH  30  31
ENDBRANCH  29  30
ENDBRANCH  28  29
ENDBRANCH  27  28
ENDBRANCH  26  27
ENDBRANCH   1  26
TORSDOF 22
