REMARK SMILES C[NH+]1CCN(c2nc3c(cc2F)c(=O)c(C(=O)OCCOCCOCCOCCOC(=O)c2ccc(-c4c5nc(c(-c6c(F)c(F)c(F)c(F)c6F)c6ccc([nH]6)c(-c6c(F)c(F)c(F)c(F)c6F)c6nc(c(-c7c(F)c(F)c(F)c(F)c7F)c7ccc4[nH]7)C=C6)C=C5)cc2)cn3-c2ccc(F)cc2F)CC1
REMARK SMILES IDX 25 1 24 2 23 3 22 4 21 5 20 6 19 7 18 8 16 9 17 10 15 11
REMARK SMILES IDX 6 12 7 13 11 14 8 15 10 16 12 17 9 18 97 19 13 20 96 21
REMARK SMILES IDX 14 22 5 23 1 24 2 25 3 26 107 27 4 29 106 30 98 31 99 32
REMARK SMILES IDX 104 33 100 34 103 35 105 36 101 37 102 38 26 39 27 40 28 41
REMARK SMILES IDX 29 42 30 43 31 44 32 45 33 46 34 47 95 48 35 49 94 50 36 51
REMARK SMILES IDX 37 52 38 53 88 54 39 55 93 56 87 57 89 58 40 59 92 60 86 61
REMARK SMILES IDX 85 62 41 64 73 65 53 66 72 67 54 68 57 69 71 70 90 71 55 72
REMARK SMILES IDX 56 73 70 75 91 76 58 77 42 78 43 79 51 80 44 81 45 82 49 83
REMARK SMILES IDX 52 84 46 85 47 86 50 87 48 88 74 89 75 90 83 91 76 92 77 93
REMARK SMILES IDX 81 94 84 95 78 96 79 97 82 98 80 99 59 100 60 101 68 102
REMARK SMILES IDX 61 103 62 104 66 105 69 106 63 107 64 108 67 109 65 110
REMARK H PARENT 2 28 89 63 57 74
REMARK Flexibility Score: inf
ROOT
ATOM      1  C   UNL     1      -9.918   2.217   5.745  1.00  0.00     0.188 C 
ENDROOT
BRANCH   1   2
ATOM      2  O   UNL     1      -8.820   2.067   4.855  1.00  0.00    -0.377 OA
BRANCH   2   3
ATOM      3  C   UNL     1      -8.974   2.393   3.480  1.00  0.00     0.188 C 
BRANCH   3   4
ATOM      4  C   UNL     1     -10.311   2.132   2.744  1.00  0.00     0.188 C 
BRANCH   4   5
ATOM      5  O   UNL     1     -11.360   1.662   3.575  1.00  0.00    -0.376 OA
BRANCH   5   6
ATOM      6  C   UNL     1     -11.868   0.358   3.371  1.00  0.00     0.202 C 
BRANCH   6   7
ATOM      7  C   UNL     1     -10.927  -0.812   3.675  1.00  0.00     0.261 C 
BRANCH   7   8
ATOM      8  O   UNL     1      -9.590  -0.643   3.202  1.00  0.00    -0.459 OA
BRANCH   8   9
ATOM      9  C   UNL     1      -9.364  -0.831   1.886  1.00  0.00     0.343 C 
ATOM     10  O   UNL     1     -10.202  -1.107   1.042  1.00  0.00    -0.246 OA
BRANCH   9  11
ATOM     11  C   UNL     1      -7.969  -0.463   1.587  1.00  0.00     0.124 A 
ATOM     12  C   UNL     1      -2.991  -0.053   0.934  1.00  0.00     0.167 A 
ATOM     13  N   UNL     1      -4.054   0.522   0.321  1.00  0.00    -0.209 NA
ATOM     14  C   UNL     1      -3.139  -0.771   2.129  1.00  0.00     0.166 A 
ATOM     15  C   UNL     1      -5.301   0.287   0.816  1.00  0.00     0.151 A 
ATOM     16  C   UNL     1      -4.386  -0.956   2.682  1.00  0.00     0.059 A 
ATOM     17  F   UNL     1      -2.074  -1.315   2.740  1.00  0.00    -0.203 F 
ATOM     18  C   UNL     1      -5.483  -0.458   1.991  1.00  0.00     0.069 A 
ATOM     19  N   UNL     1      -6.461   0.743   0.102  1.00  0.00    -0.297 N 
ATOM     20  C   UNL     1      -6.833  -0.819   2.458  1.00  0.00     0.205 A 
ATOM     21  C   UNL     1      -7.713   0.298   0.511  1.00  0.00     0.113 A 
ATOM     22  O   UNL     1      -6.969  -1.459   3.494  1.00  0.00    -0.288 OA
BRANCH  12  23
ATOM     23  N   UNL     1      -1.756   0.012   0.340  1.00  0.00    -0.343 N 
ATOM     24  C   UNL     1       2.437   0.096   0.058  1.00  0.00     0.332 C 
ATOM     25  N   UNL     1       1.035   0.054  -0.355  1.00  0.00    -0.334 N 
ATOM     26  C   UNL     1       0.315   1.271   0.105  1.00  0.00     0.283 C 
ATOM     27  C   UNL     1       0.387  -1.158   0.201  1.00  0.00     0.283 C 
ATOM     28  H   UNL     1       0.996   0.023  -1.374  1.00  0.00     0.347 HD
ATOM     29  C   UNL     1      -1.210   1.245  -0.204  1.00  0.00     0.179 C 
ATOM     30  C   UNL     1      -1.119  -1.221  -0.115  1.00  0.00     0.179 C 
ENDBRANCH  12  23
BRANCH  19  31
ATOM     31  C   UNL     1      -6.353   1.480  -1.112  1.00  0.00     0.083 A 
ATOM     32  C   UNL     1      -5.953   0.829  -2.290  1.00  0.00     0.033 A 
ATOM     33  C   UNL     1      -6.669   2.848  -1.177  1.00  0.00     0.150 A 
ATOM     34  C   UNL     1      -5.881   1.528  -3.495  1.00  0.00     0.041 A 
ATOM     35  C   UNL     1      -6.585   3.554  -2.374  1.00  0.00     0.080 A 
ATOM     36  F   UNL     1      -7.065   3.499  -0.072  1.00  0.00    -0.205 F 
ATOM     37  C   UNL     1      -6.195   2.883  -3.525  1.00  0.00     0.126 A 
ATOM     38  F   UNL     1      -6.123   3.547  -4.685  1.00  0.00    -0.207 F 
ENDBRANCH  19  31
ENDBRANCH   9  11
ENDBRANCH   8   9
ENDBRANCH   7   8
ENDBRANCH   6   7
ENDBRANCH   5   6
ENDBRANCH   4   5
ENDBRANCH   3   4
ENDBRANCH   2   3
ENDBRANCH   1   2
BRANCH   1  39
ATOM     39  C   UNL     1     -10.863   3.434   5.604  1.00  0.00     0.188 C 
BRANCH  39  40
ATOM     40  O   UNL     1     -10.499   4.325   4.564  1.00  0.00    -0.376 OA
BRANCH  40  41
ATOM     41  C   UNL     1      -9.932   5.566   4.944  1.00  0.00     0.202 C 
BRANCH  41  42
ATOM     42  C   UNL     1      -8.619   5.539   5.740  1.00  0.00     0.261 C 
BRANCH  42  43
ATOM     43  O   UNL     1      -8.585   4.692   6.899  1.00  0.00    -0.460 OA
BRANCH  43  44
ATOM     44  C   UNL     1      -9.325   5.048   7.970  1.00  0.00     0.338 C 
ATOM     45  O   UNL     1     -10.054   6.019   8.082  1.00  0.00    -0.246 OA
BRANCH  44  46
ATOM     46  C   UNL     1      -9.225   3.943   8.945  1.00  0.00     0.060 A 
ATOM     47  C   UNL     1     -10.339   3.127   9.185  1.00  0.00     0.016 A 
ATOM     48  C   UNL     1      -8.014   3.696   9.595  1.00  0.00     0.016 A 
ATOM     49  C   UNL     1     -10.242   2.058  10.075  1.00  0.00     0.010 A 
ATOM     50  C   UNL     1      -7.929   2.651  10.518  1.00  0.00     0.010 A 
ATOM     51  C   UNL     1      -9.049   1.842  10.778  1.00  0.00    -0.014 A 
BRANCH  51  52
ATOM     52  C   UNL     1      -9.052   0.930  11.945  1.00  0.00     0.031 A 
ATOM     53  C   UNL     1      -9.403   1.514  13.285  1.00  0.00     0.074 A 
ATOM     54  C   UNL     1      -8.775  -0.380  11.823  1.00  0.00     0.049 A 
ATOM     55  N   UNL     1      -9.461   0.934  14.455  1.00  0.00    -0.248 NA
ATOM     56  C   UNL     1      -9.739   2.949  13.308  1.00  0.00     0.031 C 
ATOM     57  C   UNL     1      -8.459  -1.067  10.573  1.00  0.00     0.029 A 
ATOM     58  N   UNL     1      -8.711  -1.367  12.777  1.00  0.00    -0.354 N 
ATOM     59  C   UNL     1      -9.846   1.927  15.345  1.00  0.00     0.074 A 
ATOM     60  C   UNL     1      -9.982   3.153  14.593  1.00  0.00     0.031 C 
ATOM     61  C   UNL     1      -8.215  -2.363  10.839  1.00  0.00     0.029 A 
ATOM     62  C   UNL     1      -8.333  -2.591  12.280  1.00  0.00     0.049 A 
ATOM     63  H   UNL     1      -8.916  -1.212  13.727  1.00  0.00     0.167 HD
ATOM     64  C   UNL     1     -10.076   1.820  16.673  1.00  0.00     0.037 A 
ATOM     65  C   UNL     1      -8.091  -3.752  12.923  1.00  0.00     0.037 A 
ATOM     66  C   UNL     1      -9.936   0.601  17.421  1.00  0.00     0.049 A 
ATOM     67  C   UNL     1      -8.277  -3.821  14.421  1.00  0.00     0.074 A 
ATOM     68  C   UNL     1     -10.169   0.391  18.768  1.00  0.00     0.029 A 
ATOM     69  N   UNL     1      -9.519  -0.609  16.889  1.00  0.00    -0.354 N 
ATOM     70  N   UNL     1      -8.688  -2.890  15.249  1.00  0.00    -0.248 NA
ATOM     71  C   UNL     1      -7.970  -5.103  15.074  1.00  0.00     0.031 C 
ATOM     72  C   UNL     1      -9.833  -0.931  19.065  1.00  0.00     0.029 A 
ATOM     73  C   UNL     1      -9.454  -1.562  17.891  1.00  0.00     0.049 A 
ATOM     74  H   UNL     1      -9.300  -0.766  15.942  1.00  0.00     0.167 HD
ATOM     75  C   UNL     1      -8.716  -3.480  16.507  1.00  0.00     0.074 A 
ATOM     76  C   UNL     1      -8.298  -4.854  16.335  1.00  0.00     0.031 C 
ATOM     77  C   UNL     1      -9.053  -2.931  17.700  1.00  0.00     0.037 A 
BRANCH  64  78
ATOM     78  C   UNL     1     -10.496   3.048  17.419  1.00  0.00     0.064 A 
ATOM     79  C   UNL     1     -11.794   3.564  17.304  1.00  0.00     0.173 A 
ATOM     80  C   UNL     1      -9.628   3.644  18.346  1.00  0.00     0.173 A 
ATOM     81  F   UNL     1     -12.655   3.038  16.419  1.00  0.00    -0.203 F 
ATOM     82  C   UNL     1     -12.211   4.629  18.097  1.00  0.00     0.198 A 
ATOM     83  C   UNL     1     -10.056   4.691  19.155  1.00  0.00     0.198 A 
ATOM     84  F   UNL     1      -8.375   3.185  18.491  1.00  0.00    -0.203 F 
ATOM     85  F   UNL     1     -13.453   5.115  17.965  1.00  0.00    -0.200 F 
ATOM     86  C   UNL     1     -11.348   5.180  19.033  1.00  0.00     0.200 A 
ATOM     87  F   UNL     1      -9.225   5.213  20.068  1.00  0.00    -0.200 F 
ATOM     88  F   UNL     1     -11.763   6.182  19.820  1.00  0.00    -0.200 F 
ENDBRANCH  64  78
BRANCH  65  89
ATOM     89  C   UNL     1      -7.626  -4.947  12.166  1.00  0.00     0.064 A 
ATOM     90  C   UNL     1      -8.418  -6.100  12.069  1.00  0.00     0.173 A 
ATOM     91  C   UNL     1      -6.361  -4.976  11.559  1.00  0.00     0.173 A 
ATOM     92  F   UNL     1      -9.623  -6.137  12.658  1.00  0.00    -0.203 F 
ATOM     93  C   UNL     1      -7.953  -7.242  11.418  1.00  0.00     0.198 A 
ATOM     94  C   UNL     1      -5.911  -6.106  10.880  1.00  0.00     0.198 A 
ATOM     95  F   UNL     1      -5.558  -3.904  11.629  1.00  0.00    -0.203 F 
ATOM     96  F   UNL     1      -8.707  -8.350  11.394  1.00  0.00    -0.200 F 
ATOM     97  C   UNL     1      -6.702  -7.242  10.819  1.00  0.00     0.200 A 
ATOM     98  F   UNL     1      -4.704  -6.099  10.297  1.00  0.00    -0.200 F 
ATOM     99  F   UNL     1      -6.255  -8.341  10.196  1.00  0.00    -0.200 F 
ENDBRANCH  65  89
BRANCH  77 100
ATOM    100  C   UNL     1      -9.017  -3.809  18.918  1.00  0.00     0.064 A 
ATOM    101  C   UNL     1      -7.806  -4.233  19.482  1.00  0.00     0.173 A 
ATOM    102  C   UNL     1     -10.206  -4.146  19.586  1.00  0.00     0.173 A 
ATOM    103  F   UNL     1      -6.643  -3.945  18.878  1.00  0.00    -0.203 F 
ATOM    104  C   UNL     1      -7.785  -4.973  20.661  1.00  0.00     0.198 A 
ATOM    105  C   UNL     1     -10.180  -4.855  20.783  1.00  0.00     0.198 A 
ATOM    106  F   UNL     1     -11.392  -3.752  19.097  1.00  0.00    -0.203 F 
ATOM    107  F   UNL     1      -6.617  -5.395  21.165  1.00  0.00    -0.200 F 
ATOM    108  C   UNL     1      -8.970  -5.272  21.317  1.00  0.00     0.200 A 
ATOM    109  F   UNL     1     -11.324  -5.123  21.427  1.00  0.00    -0.200 F 
ATOM    110  F   UNL     1      -8.946  -5.962  22.466  1.00  0.00    -0.200 F 
ENDBRANCH  77 100
ENDBRANCH  51  52
ENDBRANCH  44  46
ENDBRANCH  43  44
ENDBRANCH  42  43
ENDBRANCH  41  42
ENDBRANCH  40  41
ENDBRANCH  39  40
ENDBRANCH   1  39
TORSDOF 22
