REMARK SMILES C[C@@H](C(=O)OCCOCCOCCOCCOC(=O)c1ccc(-c2c3nc(c(-c4c(F)c(F)c(F)c(F)c4F)c4ccc([nH]4)c(-c4c(F)c(F)c(F)c(F)c4F)c4nc(c(-c5c(F)c(F)c(F)c(F)c5F)c5ccc2[nH]5)C=C4)C=C3)cc1)c1ccccc1-c1ccn(C(F)F)c(=O)c1
REMARK SMILES IDX 10 1 9 2 8 3 7 4 6 5 5 6 3 7 4 8 2 9 1 10 83 11 84 12 88 13
REMARK SMILES IDX 85 14 87 15 86 16 89 17 90 18 98 19 91 20 96 21 92 22 97 23
REMARK SMILES IDX 93 24 94 25 95 26 11 27 12 28 13 29 14 30 15 31 16 32 17 33
REMARK SMILES IDX 18 34 19 35 20 36 21 37 82 38 22 39 81 40 23 41 24 42 25 43
REMARK SMILES IDX 75 44 26 45 80 46 74 47 76 48 27 49 79 50 73 51 72 52 28 54
REMARK SMILES IDX 60 55 40 56 59 57 41 58 44 59 58 60 77 61 42 62 43 63 57 65
REMARK SMILES IDX 78 66 45 67 29 68 30 69 38 70 31 71 32 72 36 73 39 74 33 75
REMARK SMILES IDX 34 76 37 77 35 78 61 79 62 80 70 81 63 82 64 83 68 84 71 85
REMARK SMILES IDX 65 86 66 87 69 88 67 89 46 90 47 91 55 92 48 93 49 94 53 95
REMARK SMILES IDX 56 96 50 97 51 98 54 99 52 100
REMARK H PARENT 76 53 44 64
REMARK Flexibility Score: inf
ROOT
ATOM      1  C   UNL     1       0.799   0.414   2.775  1.00  0.00     0.188 C 
ENDROOT
BRANCH   1   2
ATOM      2  C   UNL     1       0.225  -0.665   3.702  1.00  0.00     0.188 C 
BRANCH   2   3
ATOM      3  O   UNL     1       1.185  -1.188   4.604  1.00  0.00    -0.376 OA
BRANCH   3   4
ATOM      4  C   UNL     1       1.891  -2.372   4.285  1.00  0.00     0.202 C 
BRANCH   4   5
ATOM      5  C   UNL     1       2.757  -2.486   3.004  1.00  0.00     0.261 C 
BRANCH   5   6
ATOM      6  O   UNL     1       2.230  -2.022   1.746  1.00  0.00    -0.463 OA
BRANCH   6   7
ATOM      7  C   UNL     1       1.047  -2.568   1.398  1.00  0.00     0.313 C 
ATOM      8  O   UNL     1       0.494  -3.372   2.137  1.00  0.00    -0.252 OA
BRANCH   7   9
ATOM      9  C   UNL     1       0.486  -2.116   0.035  1.00  0.00     0.127 C 
ATOM     10  C   UNL     1       1.233  -0.940  -0.621  1.00  0.00     0.025 C 
BRANCH   9  11
ATOM     11  C   UNL     1      -1.054  -1.972   0.113  1.00  0.00    -0.026 A 
ATOM     12  C   UNL     1      -1.665  -0.707   0.236  1.00  0.00     0.005 A 
ATOM     13  C   UNL     1      -1.896  -3.122   0.183  1.00  0.00    -0.014 A 
ATOM     14  C   UNL     1      -3.034  -0.581   0.486  1.00  0.00     0.000 A 
ATOM     15  C   UNL     1      -3.265  -2.978   0.453  1.00  0.00     0.009 A 
ATOM     16  C   UNL     1      -3.829  -1.714   0.613  1.00  0.00     0.001 A 
BRANCH  13  17
ATOM     17  C   UNL     1      -1.364  -4.492  -0.007  1.00  0.00    -0.011 A 
ATOM     18  C   UNL     1      -0.890  -5.317   1.086  1.00  0.00     0.027 A 
ATOM     19  C   UNL     1      -1.160  -4.906  -1.268  1.00  0.00     0.080 A 
ATOM     20  C   UNL     1       0.043  -6.247   0.859  1.00  0.00     0.095 A 
ATOM     21  C   UNL     1      -0.287  -6.085  -1.532  1.00  0.00     0.255 A 
ATOM     22  N   UNL     1       0.406  -6.571  -0.434  1.00  0.00    -0.258 N 
ATOM     23  O   UNL     1      -0.173  -6.483  -2.686  1.00  0.00    -0.269 OA
BRANCH  22  24
ATOM     24  C   UNL     1       1.457  -7.524  -0.671  1.00  0.00     0.451 C 
ATOM     25  F   UNL     1       0.948  -8.741  -0.974  1.00  0.00    -0.185 F 
ATOM     26  F   UNL     1       2.261  -7.136  -1.693  1.00  0.00    -0.185 F 
ENDBRANCH  22  24
ENDBRANCH  13  17
ENDBRANCH   9  11
ENDBRANCH   7   9
ENDBRANCH   6   7
ENDBRANCH   5   6
ENDBRANCH   4   5
ENDBRANCH   3   4
ENDBRANCH   2   3
ENDBRANCH   1   2
BRANCH   1  27
ATOM     27  O   UNL     1       2.207   0.561   2.763  1.00  0.00    -0.377 OA
BRANCH  27  28
ATOM     28  C   UNL     1       2.877   0.937   3.963  1.00  0.00     0.188 C 
BRANCH  28  29
ATOM     29  C   UNL     1       2.109   1.332   5.248  1.00  0.00     0.188 C 
BRANCH  29  30
ATOM     30  O   UNL     1       0.781   1.781   5.043  1.00  0.00    -0.376 OA
BRANCH  30  31
ATOM     31  C   UNL     1       0.528   3.173   5.059  1.00  0.00     0.202 C 
BRANCH  31  32
ATOM     32  C   UNL     1       1.195   4.016   3.962  1.00  0.00     0.261 C 
BRANCH  32  33
ATOM     33  O   UNL     1       2.626   3.932   3.882  1.00  0.00    -0.460 OA
BRANCH  33  34
ATOM     34  C   UNL     1       3.337   4.303   4.967  1.00  0.00     0.338 C 
ATOM     35  O   UNL     1       2.907   4.760   6.013  1.00  0.00    -0.246 OA
BRANCH  34  36
ATOM     36  C   UNL     1       4.733   3.865   4.760  1.00  0.00     0.060 A 
ATOM     37  C   UNL     1       5.308   2.967   5.671  1.00  0.00     0.016 A 
ATOM     38  C   UNL     1       5.461   4.316   3.656  1.00  0.00     0.016 A 
ATOM     39  C   UNL     1       6.627   2.550   5.504  1.00  0.00     0.010 A 
ATOM     40  C   UNL     1       6.792   3.923   3.507  1.00  0.00     0.010 A 
ATOM     41  C   UNL     1       7.391   3.070   4.452  1.00  0.00    -0.014 A 
BRANCH  41  42
ATOM     42  C   UNL     1       8.864   2.919   4.481  1.00  0.00     0.031 A 
ATOM     43  C   UNL     1       9.675   4.048   5.056  1.00  0.00     0.074 A 
ATOM     44  C   UNL     1       9.470   1.804   4.039  1.00  0.00     0.049 A 
ATOM     45  N   UNL     1      10.972   4.186   5.141  1.00  0.00    -0.248 NA
ATOM     46  C   UNL     1       8.911   5.179   5.608  1.00  0.00     0.031 C 
ATOM     47  C   UNL     1       8.790   0.625   3.510  1.00  0.00     0.029 A 
ATOM     48  N   UNL     1      10.804   1.491   3.958  1.00  0.00    -0.354 N 
ATOM     49  C   UNL     1      11.178   5.417   5.749  1.00  0.00     0.074 A 
ATOM     50  C   UNL     1       9.877   6.004   5.979  1.00  0.00     0.031 C 
ATOM     51  C   UNL     1       9.714  -0.280   3.141  1.00  0.00     0.029 A 
ATOM     52  C   UNL     1      11.048   0.273   3.374  1.00  0.00     0.049 A 
ATOM     53  H   UNL     1      11.518   2.084   4.288  1.00  0.00     0.167 HD
ATOM     54  C   UNL     1      12.349   6.003   6.093  1.00  0.00     0.037 A 
ATOM     55  C   UNL     1      12.217  -0.309   3.041  1.00  0.00     0.037 A 
ATOM     56  C   UNL     1      13.642   5.419   5.853  1.00  0.00     0.049 A 
ATOM     57  C   UNL     1      13.511   0.402   3.354  1.00  0.00     0.074 A 
ATOM     58  C   UNL     1      14.889   5.926   6.166  1.00  0.00     0.029 A 
ATOM     59  N   UNL     1      13.851   4.198   5.227  1.00  0.00    -0.354 N 
ATOM     60  N   UNL     1      13.702   1.558   3.945  1.00  0.00    -0.248 NA
ATOM     61  C   UNL     1      14.753  -0.275   2.955  1.00  0.00     0.031 C 
ATOM     62  C   UNL     1      15.855   5.043   5.675  1.00  0.00     0.029 A 
ATOM     63  C   UNL     1      15.209   3.949   5.119  1.00  0.00     0.049 A 
ATOM     64  H   UNL     1      13.139   3.597   4.908  1.00  0.00     0.167 HD
ATOM     65  C   UNL     1      15.080   1.729   4.018  1.00  0.00     0.074 A 
ATOM     66  C   UNL     1      15.677   0.552   3.424  1.00  0.00     0.031 C 
ATOM     67  C   UNL     1      15.787   2.766   4.533  1.00  0.00     0.037 A 
BRANCH  54  68
ATOM     68  C   UNL     1      12.282   7.359   6.733  1.00  0.00     0.064 A 
ATOM     69  C   UNL     1      11.772   7.544   8.027  1.00  0.00     0.173 A 
ATOM     70  C   UNL     1      12.753   8.490   6.048  1.00  0.00     0.173 A 
ATOM     71  F   UNL     1      11.292   6.500   8.720  1.00  0.00    -0.203 F 
ATOM     72  C   UNL     1      11.707   8.812   8.599  1.00  0.00     0.198 A 
ATOM     73  C   UNL     1      12.719   9.751   6.636  1.00  0.00     0.198 A 
ATOM     74  F   UNL     1      13.251   8.371   4.808  1.00  0.00    -0.203 F 
ATOM     75  F   UNL     1      11.164   8.972   9.813  1.00  0.00    -0.200 F 
ATOM     76  C   UNL     1      12.189   9.913   7.906  1.00  0.00     0.200 A 
ATOM     77  F   UNL     1      13.197  10.812   5.970  1.00  0.00    -0.200 F 
ATOM     78  F   UNL     1      12.133  11.132   8.460  1.00  0.00    -0.200 F 
ENDBRANCH  54  68
BRANCH  55  79
ATOM     79  C   UNL     1      12.223  -1.628   2.353  1.00  0.00     0.064 A 
ATOM     80  C   UNL     1      12.742  -2.772   2.976  1.00  0.00     0.173 A 
ATOM     81  C   UNL     1      11.734  -1.766   1.045  1.00  0.00     0.173 A 
ATOM     82  F   UNL     1      13.246  -2.688   4.216  1.00  0.00    -0.203 F 
ATOM     83  C   UNL     1      12.790  -3.996   2.311  1.00  0.00     0.198 A 
ATOM     84  C   UNL     1      11.752  -2.998   0.393  1.00  0.00     0.198 A 
ATOM     85  F   UNL     1      11.230  -0.704   0.400  1.00  0.00    -0.203 F 
ATOM     86  F   UNL     1      13.339  -5.060   2.912  1.00  0.00    -0.200 F 
ATOM     87  C   UNL     1      12.289  -4.109   1.023  1.00  0.00     0.200 A 
ATOM     88  F   UNL     1      11.254  -3.105  -0.846  1.00  0.00    -0.200 F 
ATOM     89  F   UNL     1      12.332  -5.288   0.386  1.00  0.00    -0.200 F 
ENDBRANCH  55  79
BRANCH  67  90
ATOM     90  C   UNL     1      17.287   2.658   4.522  1.00  0.00     0.064 A 
ATOM     91  C   UNL     1      18.028   2.728   3.333  1.00  0.00     0.173 A 
ATOM     92  C   UNL     1      17.995   2.529   5.728  1.00  0.00     0.173 A 
ATOM     93  F   UNL     1      17.401   2.840   2.152  1.00  0.00    -0.203 F 
ATOM     94  C   UNL     1      19.418   2.643   3.349  1.00  0.00     0.198 A 
ATOM     95  C   UNL     1      19.386   2.481   5.743  1.00  0.00     0.198 A 
ATOM     96  F   UNL     1      17.338   2.468   6.895  1.00  0.00    -0.203 F 
ATOM     97  F   UNL     1      20.101   2.658   2.196  1.00  0.00    -0.200 F 
ATOM     98  C   UNL     1      20.096   2.529   4.553  1.00  0.00     0.200 A 
ATOM     99  F   UNL     1      20.039   2.391   6.910  1.00  0.00    -0.200 F 
ATOM    100  F   UNL     1      21.434   2.457   4.567  1.00  0.00    -0.200 F 
ENDBRANCH  67  90
ENDBRANCH  41  42
ENDBRANCH  34  36
ENDBRANCH  33  34
ENDBRANCH  32  33
ENDBRANCH  31  32
ENDBRANCH  30  31
ENDBRANCH  29  30
ENDBRANCH  28  29
ENDBRANCH  27  28
ENDBRANCH   1  27
TORSDOF 23
