REMARK SMILES C[C@](NC(=O)c1ccc(Br)o1)(C(=O)OCCOCCOCCOCCOC(=O)c1ccc(-c2c3nc(c(-c4c(F)c(F)c(F)c(F)c4F)c4ccc([nH]4)c(-c4c(F)c(F)c(F)c(F)c4F)c4nc(c(-c5c(F)c(F)c(F)c(F)c5F)c5ccc2[nH]5)C=C4)C=C3)cc1)C(F)(F)F
REMARK SMILES IDX 20 1 19 2 18 3 17 4 16 5 15 6 14 7 12 8 13 9 2 10 1 11 92 12
REMARK SMILES IDX 93 13 94 14 95 15 3 16 4 17 5 19 6 20 7 21 11 22 8 23 9 24
REMARK SMILES IDX 10 25 21 26 22 27 23 28 24 29 25 30 26 31 27 32 28 33 29 34
REMARK SMILES IDX 30 35 91 36 31 37 90 38 32 39 33 40 34 41 84 42 35 43 89 44
REMARK SMILES IDX 83 45 85 46 36 47 88 48 82 49 81 50 37 52 69 53 49 54 68 55
REMARK SMILES IDX 50 56 53 57 67 58 86 59 51 60 52 61 66 63 87 64 54 65 38 66
REMARK SMILES IDX 39 67 47 68 40 69 41 70 45 71 48 72 42 73 43 74 46 75 44 76
REMARK SMILES IDX 70 77 71 78 79 79 72 80 73 81 77 82 80 83 74 84 75 85 78 86
REMARK SMILES IDX 76 87 55 88 56 89 64 90 57 91 58 92 62 93 65 94 59 95 60 96
REMARK SMILES IDX 63 97 61 98
REMARK H PARENT 3 18 85 51 53 62
REMARK Flexibility Score: inf
ROOT
ATOM      1  O   UNL     1      -2.100   0.225   0.778  1.00  0.00    -0.377 OA
ENDROOT
BRANCH   1   2
ATOM      2  C   UNL     1      -1.472   1.448   0.443  1.00  0.00     0.188 C 
BRANCH   2   3
ATOM      3  C   UNL     1      -2.180   2.254  -0.662  1.00  0.00     0.188 C 
BRANCH   3   4
ATOM      4  O   UNL     1      -3.483   1.907  -1.121  1.00  0.00    -0.376 OA
BRANCH   4   5
ATOM      5  C   UNL     1      -3.863   0.555  -1.335  1.00  0.00     0.202 C 
BRANCH   5   6
ATOM      6  C   UNL     1      -3.041  -0.324  -2.278  1.00  0.00     0.261 C 
BRANCH   6   7
ATOM      7  O   UNL     1      -1.653  -0.428  -1.934  1.00  0.00    -0.461 OA
BRANCH   7   8
ATOM      8  C   UNL     1      -0.774   0.152  -2.799  1.00  0.00     0.341 C 
ATOM      9  O   UNL     1      -1.111   0.813  -3.773  1.00  0.00    -0.249 OA
BRANCH   8  10
ATOM     10  C   UNL     1       0.674  -0.214  -2.468  1.00  0.00     0.231 C 
ATOM     11  C   UNL     1       1.149  -1.078  -3.641  1.00  0.00     0.058 C 
BRANCH  10  12
ATOM     12  C   UNL     1       1.435   1.125  -2.456  1.00  0.00     0.422 C 
ATOM     13  F   UNL     1       0.976   1.960  -1.494  1.00  0.00    -0.168 F 
ATOM     14  F   UNL     1       2.751   0.918  -2.190  1.00  0.00    -0.168 F 
ATOM     15  F   UNL     1       1.383   1.787  -3.630  1.00  0.00    -0.168 F 
ENDBRANCH  10  12
BRANCH  10  16
ATOM     16  N   UNL     1       0.749  -0.916  -1.140  1.00  0.00    -0.326 N 
ATOM     17  C   UNL     1       1.862  -1.425  -0.516  1.00  0.00     0.288 C 
ATOM     18  H   UNL     1      -0.103  -1.024  -0.659  1.00  0.00     0.165 HD
ATOM     19  O   UNL     1       2.021  -1.216   0.684  1.00  0.00    -0.266 OA
BRANCH  17  20
ATOM     20  C   UNL     1       2.706  -2.285  -1.297  1.00  0.00     0.192 A 
ATOM     21  C   UNL     1       3.972  -2.147  -1.829  1.00  0.00     0.057 A 
ATOM     22  O   UNL     1       2.204  -3.517  -1.614  1.00  0.00    -0.444 OA
ATOM     23  C   UNL     1       4.240  -3.350  -2.536  1.00  0.00     0.059 A 
ATOM     24  C   UNL     1       3.146  -4.162  -2.345  1.00  0.00     0.170 A 
ATOM     25  Br  UNL     1       2.951  -5.896  -3.001  1.00  0.00    -0.008 Br
ENDBRANCH  17  20
ENDBRANCH  10  16
ENDBRANCH   8  10
ENDBRANCH   7   8
ENDBRANCH   6   7
ENDBRANCH   5   6
ENDBRANCH   4   5
ENDBRANCH   3   4
ENDBRANCH   2   3
ENDBRANCH   1   2
BRANCH   1  26
ATOM     26  C   UNL     1      -2.846   0.246   1.996  1.00  0.00     0.188 C 
BRANCH  26  27
ATOM     27  C   UNL     1      -3.781   1.452   2.218  1.00  0.00     0.188 C 
BRANCH  27  28
ATOM     28  O   UNL     1      -3.072   2.682   2.374  1.00  0.00    -0.376 OA
BRANCH  28  29
ATOM     29  C   UNL     1      -2.881   3.145   3.709  1.00  0.00     0.202 C 
BRANCH  29  30
ATOM     30  C   UNL     1      -1.819   2.376   4.512  1.00  0.00     0.261 C 
BRANCH  30  31
ATOM     31  O   UNL     1      -2.165   1.017   4.835  1.00  0.00    -0.460 OA
BRANCH  31  32
ATOM     32  C   UNL     1      -3.314   0.813   5.511  1.00  0.00     0.338 C 
ATOM     33  O   UNL     1      -4.045   1.654   5.996  1.00  0.00    -0.246 OA
BRANCH  32  34
ATOM     34  C   UNL     1      -3.665  -0.617   5.402  1.00  0.00     0.060 A 
ATOM     35  C   UNL     1      -4.953  -0.948   4.963  1.00  0.00     0.016 A 
ATOM     36  C   UNL     1      -2.762  -1.615   5.778  1.00  0.00     0.016 A 
ATOM     37  C   UNL     1      -5.371  -2.277   4.978  1.00  0.00     0.010 A 
ATOM     38  C   UNL     1      -3.187  -2.946   5.810  1.00  0.00     0.010 A 
ATOM     39  C   UNL     1      -4.511  -3.270   5.467  1.00  0.00    -0.014 A 
BRANCH  39  40
ATOM     40  C   UNL     1      -5.089  -4.567   5.889  1.00  0.00     0.031 A 
ATOM     41  C   UNL     1      -5.557  -4.692   7.315  1.00  0.00     0.074 A 
ATOM     42  C   UNL     1      -5.240  -5.589   5.032  1.00  0.00     0.049 A 
ATOM     43  N   UNL     1      -6.126  -5.701   7.922  1.00  0.00    -0.248 NA
ATOM     44  C   UNL     1      -5.354  -3.511   8.171  1.00  0.00     0.031 C 
ATOM     45  C   UNL     1      -4.860  -5.577   3.623  1.00  0.00     0.029 A 
ATOM     46  N   UNL     1      -5.762  -6.842   5.234  1.00  0.00    -0.354 N 
ATOM     47  C   UNL     1      -6.347  -5.276   9.226  1.00  0.00     0.074 A 
ATOM     48  C   UNL     1      -5.824  -3.933   9.334  1.00  0.00     0.031 C 
ATOM     49  C   UNL     1      -5.162  -6.772   3.083  1.00  0.00     0.029 A 
ATOM     50  C   UNL     1      -5.738  -7.634   4.114  1.00  0.00     0.049 A 
ATOM     51  H   UNL     1      -6.120  -7.144   6.100  1.00  0.00     0.167 HD
ATOM     52  C   UNL     1      -6.944  -5.941  10.243  1.00  0.00     0.037 A 
ATOM     53  C   UNL     1      -6.135  -8.911   3.951  1.00  0.00     0.037 A 
ATOM     54  C   UNL     1      -7.456  -7.279  10.141  1.00  0.00     0.049 A 
ATOM     55  C   UNL     1      -6.738  -9.655   5.116  1.00  0.00     0.074 A 
ATOM     56  C   UNL     1      -8.086  -8.040  11.108  1.00  0.00     0.029 A 
ATOM     57  N   UNL     1      -7.382  -8.061   8.998  1.00  0.00    -0.354 N 
ATOM     58  N   UNL     1      -6.981  -9.235   6.334  1.00  0.00    -0.248 NA
ATOM     59  C   UNL     1      -7.129 -11.052   4.877  1.00  0.00     0.031 C 
ATOM     60  C   UNL     1      -8.355  -9.301  10.563  1.00  0.00     0.029 A 
ATOM     61  C   UNL     1      -7.937  -9.306   9.241  1.00  0.00     0.049 A 
ATOM     62  H   UNL     1      -6.994  -7.774   8.140  1.00  0.00     0.167 HD
ATOM     63  C   UNL     1      -7.586 -10.297   6.993  1.00  0.00     0.074 A 
ATOM     64  C   UNL     1      -7.675 -11.383   6.038  1.00  0.00     0.031 C 
ATOM     65  C   UNL     1      -8.033 -10.367   8.272  1.00  0.00     0.037 A 
BRANCH  52  66
ATOM     66  C   UNL     1      -7.036  -5.230  11.560  1.00  0.00     0.064 A 
ATOM     67  C   UNL     1      -7.909  -4.148  11.754  1.00  0.00     0.173 A 
ATOM     68  C   UNL     1      -6.232  -5.627  12.638  1.00  0.00     0.173 A 
ATOM     69  F   UNL     1      -8.683  -3.716  10.747  1.00  0.00    -0.203 F 
ATOM     70  C   UNL     1      -7.948  -3.470  12.969  1.00  0.00     0.198 A 
ATOM     71  C   UNL     1      -6.294  -4.964  13.860  1.00  0.00     0.198 A 
ATOM     72  F   UNL     1      -5.379  -6.654  12.503  1.00  0.00    -0.203 F 
ATOM     73  F   UNL     1      -8.747  -2.403  13.114  1.00  0.00    -0.200 F 
ATOM     74  C   UNL     1      -7.144  -3.881  14.022  1.00  0.00     0.200 A 
ATOM     75  F   UNL     1      -5.521  -5.366  14.878  1.00  0.00    -0.200 F 
ATOM     76  F   UNL     1      -7.180  -3.224  15.190  1.00  0.00    -0.200 F 
ENDBRANCH  52  66
BRANCH  53  77
ATOM     77  C   UNL     1      -5.996  -9.567   2.625  1.00  0.00     0.064 A 
ATOM     78  C   UNL     1      -7.124  -9.871   1.850  1.00  0.00     0.173 A 
ATOM     79  C   UNL     1      -4.738  -9.917   2.115  1.00  0.00     0.173 A 
ATOM     80  F   UNL     1      -8.350  -9.580   2.310  1.00  0.00    -0.203 F 
ATOM     81  C   UNL     1      -6.999 -10.513   0.620  1.00  0.00     0.198 A 
ATOM     82  C   UNL     1      -4.613 -10.537   0.873  1.00  0.00     0.198 A 
ATOM     83  F   UNL     1      -3.629  -9.652   2.821  1.00  0.00    -0.203 F 
ATOM     84  F   UNL     1      -8.095 -10.829  -0.083  1.00  0.00    -0.200 F 
ATOM     85  C   UNL     1      -5.744 -10.841   0.130  1.00  0.00     0.200 A 
ATOM     86  F   UNL     1      -3.398 -10.846   0.400  1.00  0.00    -0.200 F 
ATOM     87  F   UNL     1      -5.624 -11.456  -1.054  1.00  0.00    -0.200 F 
ENDBRANCH  53  77
BRANCH  65  88
ATOM     88  C   UNL     1      -8.707 -11.638   8.700  1.00  0.00     0.064 A 
ATOM     89  C   UNL     1      -7.986 -12.819   8.925  1.00  0.00     0.173 A 
ATOM     90  C   UNL     1     -10.091 -11.658   8.933  1.00  0.00     0.173 A 
ATOM     91  F   UNL     1      -6.663 -12.854   8.704  1.00  0.00    -0.203 F 
ATOM     92  C   UNL     1      -8.630 -13.981   9.343  1.00  0.00     0.198 A 
ATOM     93  C   UNL     1     -10.727 -12.813   9.378  1.00  0.00     0.198 A 
ATOM     94  F   UNL     1     -10.825 -10.552   8.741  1.00  0.00    -0.203 F 
ATOM     95  F   UNL     1      -7.928 -15.111   9.509  1.00  0.00    -0.200 F 
ATOM     96  C   UNL     1      -9.997 -13.975   9.576  1.00  0.00     0.200 A 
ATOM     97  F   UNL     1     -12.046 -12.802   9.615  1.00  0.00    -0.200 F 
ATOM     98  F   UNL     1     -10.613 -15.093   9.985  1.00  0.00    -0.200 F 
ENDBRANCH  65  88
ENDBRANCH  39  40
ENDBRANCH  32  34
ENDBRANCH  31  32
ENDBRANCH  30  31
ENDBRANCH  29  30
ENDBRANCH  28  29
ENDBRANCH  27  28
ENDBRANCH  26  27
ENDBRANCH   1  26
TORSDOF 23
