REMARK SMILES O=C(OCCOCCOCCOCCOC(=O)c1ccc(-c2c3nc(c(-c4c(F)c(F)c(F)c(F)c4F)c4ccc([nH]4)c(-c4c(F)c(F)c(F)c(F)c4F)c4nc(c(-c5c(F)c(F)c(F)c(F)c5F)c5ccc2[nH]5)C=C4)C=C3)cc1)C1=Cc2c(cc(Cl)c(Cl)c2Cl)O[C@H]1C(F)(F)F
REMARK SMILES IDX 10 1 9 2 8 3 7 4 6 5 5 6 4 7 3 8 2 9 1 10 81 11 82 12 93 13
REMARK SMILES IDX 83 14 92 15 84 16 90 17 85 18 88 19 91 20 86 21 89 22 87 23
REMARK SMILES IDX 94 24 95 25 96 26 97 27 11 28 12 29 13 30 14 31 15 32 16 33
REMARK SMILES IDX 17 34 18 35 19 36 80 37 20 38 79 39 21 40 22 41 23 42 73 43
REMARK SMILES IDX 24 44 78 45 72 46 74 47 25 48 77 49 71 50 70 51 26 53 58 54
REMARK SMILES IDX 38 55 57 56 39 57 42 58 56 59 75 60 40 61 41 62 55 64 76 65
REMARK SMILES IDX 43 66 27 67 28 68 36 69 29 70 30 71 34 72 37 73 31 74 32 75
REMARK SMILES IDX 35 76 33 77 59 78 60 79 68 80 61 81 62 82 66 83 69 84 63 85
REMARK SMILES IDX 64 86 67 87 65 88 44 89 45 90 53 91 46 92 47 93 51 94 54 95
REMARK SMILES IDX 48 96 49 97 52 98 50 99
REMARK H PARENT 74 52 42 63
REMARK Flexibility Score: inf
ROOT
ATOM      1  C   UNL     1       2.934  -4.029   1.087  1.00  0.00     0.188 C 
ENDROOT
BRANCH   1   2
ATOM      2  O   UNL     1       1.747  -4.327   0.359  1.00  0.00    -0.377 OA
BRANCH   2   3
ATOM      3  C   UNL     1       0.710  -3.360   0.314  1.00  0.00     0.188 C 
BRANCH   3   4
ATOM      4  C   UNL     1       1.033  -2.057  -0.422  1.00  0.00     0.188 C 
BRANCH   4   5
ATOM      5  O   UNL     1       2.251  -1.475   0.012  1.00  0.00    -0.376 OA
BRANCH   5   6
ATOM      6  C   UNL     1       2.191  -0.879   1.301  1.00  0.00     0.202 C 
BRANCH   6   7
ATOM      7  C   UNL     1       1.887   0.613   1.241  1.00  0.00     0.261 C 
BRANCH   7   8
ATOM      8  O   UNL     1       1.612   1.085  -0.099  1.00  0.00    -0.460 OA
BRANCH   8   9
ATOM      9  C   UNL     1       2.479   1.421  -1.085  1.00  0.00     0.338 C 
ATOM     10  O   UNL     1       2.045   1.874  -2.140  1.00  0.00    -0.246 OA
BRANCH   9  11
ATOM     11  C   UNL     1       3.945   1.408  -0.870  1.00  0.00     0.087 C 
ATOM     12  C   UNL     1       4.564   0.636   0.018  1.00  0.00     0.029 C 
ATOM     13  C   UNL     1       4.812   1.931  -2.003  1.00  0.00     0.316 C 
ATOM     14  C   UNL     1       5.925   0.876   0.411  1.00  0.00     0.038 A 
ATOM     15  O   UNL     1       6.256   1.992  -1.708  1.00  0.00    -0.475 OA
ATOM     16  C   UNL     1       6.730   1.510  -0.518  1.00  0.00     0.131 A 
ATOM     17  C   UNL     1       6.418   0.509   1.684  1.00  0.00     0.072 A 
ATOM     18  C   UNL     1       8.078   1.682  -0.222  1.00  0.00     0.069 A 
ATOM     19  C   UNL     1       7.774   0.660   1.974  1.00  0.00     0.079 A 
ATOM     20  Cl  UNL     1       5.322  -0.030   2.928  1.00  0.00    -0.082 Cl
ATOM     21  C   UNL     1       8.602   1.240   1.006  1.00  0.00     0.064 A 
ATOM     22  Cl  UNL     1       8.412   0.122   3.499  1.00  0.00    -0.081 Cl
ATOM     23  Cl  UNL     1      10.294   1.466   1.277  1.00  0.00    -0.083 Cl
BRANCH  13  24
ATOM     24  C   UNL     1       4.582   1.038  -3.268  1.00  0.00     0.430 C 
ATOM     25  F   UNL     1       3.991  -0.147  -2.965  1.00  0.00    -0.167 F 
ATOM     26  F   UNL     1       3.809   1.654  -4.190  1.00  0.00    -0.167 F 
ATOM     27  F   UNL     1       5.749   0.726  -3.884  1.00  0.00    -0.167 F 
ENDBRANCH  13  24
ENDBRANCH   9  11
ENDBRANCH   8   9
ENDBRANCH   7   8
ENDBRANCH   6   7
ENDBRANCH   5   6
ENDBRANCH   4   5
ENDBRANCH   3   4
ENDBRANCH   2   3
ENDBRANCH   1   2
BRANCH   1  28
ATOM     28  C   UNL     1       4.185  -3.817   0.201  1.00  0.00     0.188 C 
BRANCH  28  29
ATOM     29  O   UNL     1       4.511  -4.749  -0.833  1.00  0.00    -0.376 OA
BRANCH  29  30
ATOM     30  C   UNL     1       3.443  -5.447  -1.456  1.00  0.00     0.202 C 
BRANCH  30  31
ATOM     31  C   UNL     1       3.132  -6.793  -0.769  1.00  0.00     0.261 C 
BRANCH  31  32
ATOM     32  O   UNL     1       3.445  -6.836   0.640  1.00  0.00    -0.460 OA
BRANCH  32  33
ATOM     33  C   UNL     1       4.760  -7.013   0.947  1.00  0.00     0.338 C 
ATOM     34  O   UNL     1       5.645  -7.343   0.190  1.00  0.00    -0.246 OA
BRANCH  33  35
ATOM     35  C   UNL     1       5.013  -6.600   2.362  1.00  0.00     0.060 A 
ATOM     36  C   UNL     1       6.187  -5.883   2.635  1.00  0.00     0.016 A 
ATOM     37  C   UNL     1       4.137  -6.904   3.410  1.00  0.00     0.016 A 
ATOM     38  C   UNL     1       6.522  -5.533   3.950  1.00  0.00     0.010 A 
ATOM     39  C   UNL     1       4.474  -6.558   4.729  1.00  0.00     0.010 A 
ATOM     40  C   UNL     1       5.695  -5.915   5.015  1.00  0.00    -0.014 A 
BRANCH  40  41
ATOM     41  C   UNL     1       6.229  -5.891   6.409  1.00  0.00     0.031 A 
ATOM     42  C   UNL     1       6.788  -7.177   6.970  1.00  0.00     0.074 A 
ATOM     43  C   UNL     1       6.279  -4.773   7.158  1.00  0.00     0.049 A 
ATOM     44  N   UNL     1       7.281  -7.433   8.156  1.00  0.00    -0.248 NA
ATOM     45  C   UNL     1       6.788  -8.333   6.060  1.00  0.00     0.031 C 
ATOM     46  C   UNL     1       5.834  -3.448   6.737  1.00  0.00     0.029 A 
ATOM     47  N   UNL     1       6.731  -4.582   8.445  1.00  0.00    -0.354 N 
ATOM     48  C   UNL     1       7.641  -8.776   8.134  1.00  0.00     0.074 A 
ATOM     49  C   UNL     1       7.274  -9.291   6.833  1.00  0.00     0.031 C 
ATOM     50  C   UNL     1       6.028  -2.581   7.749  1.00  0.00     0.029 A 
ATOM     51  C   UNL     1       6.581  -3.294   8.902  1.00  0.00     0.049 A 
ATOM     52  H   UNL     1       7.127  -5.302   8.988  1.00  0.00     0.167 HD
ATOM     53  C   UNL     1       8.235  -9.517   9.100  1.00  0.00     0.037 A 
ATOM     54  C   UNL     1       6.840  -2.759  10.114  1.00  0.00     0.037 A 
ATOM     55  C   UNL     1       8.604  -9.017  10.398  1.00  0.00     0.049 A 
ATOM     56  C   UNL     1       7.418  -3.628  11.210  1.00  0.00     0.074 A 
ATOM     57  C   UNL     1       9.213  -9.693  11.441  1.00  0.00     0.029 A 
ATOM     58  N   UNL     1       8.389  -7.719  10.834  1.00  0.00    -0.354 N 
ATOM     59  N   UNL     1       7.768  -4.891  11.174  1.00  0.00    -0.248 NA
ATOM     60  C   UNL     1       7.639  -2.990  12.519  1.00  0.00     0.031 C 
ATOM     61  C   UNL     1       9.309  -8.822  12.530  1.00  0.00     0.029 A 
ATOM     62  C   UNL     1       8.827  -7.582  12.142  1.00  0.00     0.049 A 
ATOM     63  H   UNL     1       7.986  -7.000  10.295  1.00  0.00     0.167 HD
ATOM     64  C   UNL     1       8.280  -5.186  12.434  1.00  0.00     0.074 A 
ATOM     65  C   UNL     1       8.209  -3.967  13.209  1.00  0.00     0.031 C 
ATOM     66  C   UNL     1       8.766  -6.361  12.905  1.00  0.00     0.037 A 
BRANCH  53  67
ATOM     67  C   UNL     1       8.493 -10.966   8.798  1.00  0.00     0.064 A 
ATOM     68  C   UNL     1       9.457 -11.367   7.860  1.00  0.00     0.173 A 
ATOM     69  C   UNL     1       7.780 -11.968   9.474  1.00  0.00     0.173 A 
ATOM     70  F   UNL     1      10.156 -10.450   7.175  1.00  0.00    -0.203 F 
ATOM     71  C   UNL     1       9.673 -12.716   7.587  1.00  0.00     0.198 A 
ATOM     72  C   UNL     1       8.024 -13.315   9.225  1.00  0.00     0.198 A 
ATOM     73  F   UNL     1       6.850 -11.640  10.384  1.00  0.00    -0.203 F 
ATOM     74  F   UNL     1      10.558 -13.074   6.646  1.00  0.00    -0.200 F 
ATOM     75  C   UNL     1       8.963 -13.688   8.275  1.00  0.00     0.200 A 
ATOM     76  F   UNL     1       7.348 -14.253   9.902  1.00  0.00    -0.200 F 
ATOM     77  F   UNL     1       9.177 -14.986   8.017  1.00  0.00    -0.200 F 
ENDBRANCH  53  67
BRANCH  54  78
ATOM     78  C   UNL     1       6.540  -1.324  10.385  1.00  0.00     0.064 A 
ATOM     79  C   UNL     1       7.562  -0.406  10.671  1.00  0.00     0.173 A 
ATOM     80  C   UNL     1       5.219  -0.852  10.419  1.00  0.00     0.173 A 
ATOM     81  F   UNL     1       8.840  -0.811  10.690  1.00  0.00    -0.203 F 
ATOM     82  C   UNL     1       7.273   0.918  11.003  1.00  0.00     0.198 A 
ATOM     83  C   UNL     1       4.933   0.479  10.716  1.00  0.00     0.198 A 
ATOM     84  F   UNL     1       4.200  -1.687  10.165  1.00  0.00    -0.203 F 
ATOM     85  F   UNL     1       8.265   1.756  11.333  1.00  0.00    -0.200 F 
ATOM     86  C   UNL     1       5.959   1.361  11.018  1.00  0.00     0.200 A 
ATOM     87  F   UNL     1       3.663   0.905  10.720  1.00  0.00    -0.200 F 
ATOM     88  F   UNL     1       5.681   2.633  11.336  1.00  0.00    -0.200 F 
ENDBRANCH  54  78
BRANCH  66  89
ATOM     89  C   UNL     1       9.310  -6.385  14.308  1.00  0.00     0.064 A 
ATOM     90  C   UNL     1       8.478  -6.265  15.431  1.00  0.00     0.173 A 
ATOM     91  C   UNL     1      10.684  -6.577  14.531  1.00  0.00     0.173 A 
ATOM     92  F   UNL     1       7.160  -6.070  15.276  1.00  0.00    -0.203 F 
ATOM     93  C   UNL     1       9.003  -6.305  16.721  1.00  0.00     0.198 A 
ATOM     94  C   UNL     1      11.200  -6.652  15.823  1.00  0.00     0.198 A 
ATOM     95  F   UNL     1      11.526  -6.709  13.496  1.00  0.00    -0.203 F 
ATOM     96  F   UNL     1       8.194  -6.134  17.776  1.00  0.00    -0.200 F 
ATOM     97  C   UNL     1      10.361  -6.506  16.916  1.00  0.00     0.200 A 
ATOM     98  F   UNL     1      12.510  -6.867  16.008  1.00  0.00    -0.200 F 
ATOM     99  F   UNL     1      10.862  -6.553  18.158  1.00  0.00    -0.200 F 
ENDBRANCH  66  89
ENDBRANCH  40  41
ENDBRANCH  33  35
ENDBRANCH  32  33
ENDBRANCH  31  32
ENDBRANCH  30  31
ENDBRANCH  29  30
ENDBRANCH  28  29
ENDBRANCH   1  28
TORSDOF 21
