REMARK SMILES O=C(Nc1ccc2c(c1)[C@@H]1C=CC[C@@H]1[C@H](C(=O)OCCOCCOCCOCCOC(=O)c1ccc(-c3c4nc(c(-c5c(F)c(F)c(F)c(F)c5F)c5ccc([nH]5)c(-c5c(F)c(F)c(F)c(F)c5F)c5nc(c(-c6c(F)c(F)c(F)c(F)c6F)c6ccc3[nH]6)C=C5)C=C4)cc1)N2)c1ccccc1
REMARK SMILES IDX 24 1 23 2 22 3 21 4 20 5 19 6 18 7 16 8 17 9 15 10 4 11 5 12
REMARK SMILES IDX 9 13 6 14 8 15 7 16 10 17 96 18 11 19 14 20 12 22 13 23 3 24
REMARK SMILES IDX 1 25 2 26 97 28 98 29 102 30 99 31 101 32 100 33 25 34 26 35
REMARK SMILES IDX 27 36 28 37 29 38 30 39 31 40 32 41 33 42 34 43 95 44 35 45
REMARK SMILES IDX 94 46 36 47 37 48 38 49 88 50 39 51 93 52 87 53 89 54 40 55
REMARK SMILES IDX 92 56 86 57 85 58 41 60 73 61 53 62 72 63 54 64 57 65 71 66
REMARK SMILES IDX 90 67 55 68 56 69 70 71 91 72 58 73 42 74 43 75 51 76 44 77
REMARK SMILES IDX 45 78 49 79 52 80 46 81 47 82 50 83 48 84 74 85 75 86 83 87
REMARK SMILES IDX 76 88 77 89 81 90 84 91 78 92 79 93 82 94 80 95 59 96 60 97
REMARK SMILES IDX 68 98 61 99 62 100 66 101 69 102 63 103 64 104 67 105 65 106
REMARK H PARENT 96 21 3 27 89 59 57 70
REMARK Flexibility Score: inf
ROOT
ATOM      1  O   UNL     1      11.722  -2.161   0.302  1.00  0.00    -0.377 OA
ENDROOT
BRANCH   1   2
ATOM      2  C   UNL     1      11.746  -2.411  -1.091  1.00  0.00     0.188 C 
BRANCH   2   3
ATOM      3  C   UNL     1      12.674  -1.556  -1.958  1.00  0.00     0.188 C 
BRANCH   3   4
ATOM      4  O   UNL     1      13.831  -1.060  -1.332  1.00  0.00    -0.376 OA
BRANCH   4   5
ATOM      5  C   UNL     1      13.815   0.126  -0.559  1.00  0.00     0.202 C 
BRANCH   5   6
ATOM      6  C   UNL     1      12.578   0.955  -0.155  1.00  0.00     0.261 C 
BRANCH   6   7
ATOM      7  O   UNL     1      11.285   0.347  -0.221  1.00  0.00    -0.462 OA
BRANCH   7   8
ATOM      8  C   UNL     1      10.500   0.787  -1.228  1.00  0.00     0.328 C 
ATOM      9  O   UNL     1      10.868   1.607  -2.072  1.00  0.00    -0.250 OA
BRANCH   8  10
ATOM     10  C   UNL     1       9.074   0.222  -1.264  1.00  0.00     0.194 C 
ATOM     11  C   UNL     1       4.029   0.849  -1.163  1.00  0.00     0.041 A 
ATOM     12  C   UNL     1       4.576   2.072  -1.534  1.00  0.00     0.028 A 
ATOM     13  C   UNL     1       4.861  -0.259  -0.986  1.00  0.00     0.032 A 
ATOM     14  C   UNL     1       5.960   2.218  -1.571  1.00  0.00     0.028 A 
ATOM     15  C   UNL     1       6.253  -0.114  -0.985  1.00  0.00    -0.015 A 
ATOM     16  C   UNL     1       6.803   1.140  -1.284  1.00  0.00     0.039 A 
ATOM     17  C   UNL     1       7.147  -1.294  -0.667  1.00  0.00     0.050 C 
ATOM     18  N   UNL     1       8.163   1.361  -1.222  1.00  0.00    -0.372 N 
ATOM     19  C   UNL     1       6.790  -2.025   0.600  1.00  0.00    -0.023 C 
ATOM     20  C   UNL     1       8.603  -0.892  -0.338  1.00  0.00     0.038 C 
ATOM     21  H   UNL     1       8.515   2.277  -1.151  1.00  0.00     0.161 HD
ATOM     22  C   UNL     1       7.607  -1.701   1.612  1.00  0.00    -0.030 C 
ATOM     23  C   UNL     1       8.636  -0.695   1.180  1.00  0.00     0.034 C 
BRANCH  11  24
ATOM     24  N   UNL     1       2.651   0.802  -0.905  1.00  0.00    -0.322 N 
ATOM     25  O   UNL     1       0.747  -0.053  -0.023  1.00  0.00    -0.269 OA
ATOM     26  C   UNL     1       1.973   0.030   0.019  1.00  0.00     0.255 C 
ATOM     27  H   UNL     1       2.093   1.398  -1.455  1.00  0.00     0.170 HD
BRANCH  26  28
ATOM     28  C   UNL     1       2.704  -0.640   1.128  1.00  0.00     0.040 A 
ATOM     29  C   UNL     1       3.694   0.028   1.864  1.00  0.00     0.014 A 
ATOM     30  C   UNL     1       2.395  -1.970   1.424  1.00  0.00     0.014 A 
ATOM     31  C   UNL     1       4.424  -0.659   2.834  1.00  0.00     0.001 A 
ATOM     32  C   UNL     1       3.122  -2.651   2.403  1.00  0.00     0.001 A 
ATOM     33  C   UNL     1       4.143  -1.999   3.097  1.00  0.00     0.000 A 
ENDBRANCH  26  28
ENDBRANCH  11  24
ENDBRANCH   8  10
ENDBRANCH   7   8
ENDBRANCH   6   7
ENDBRANCH   5   6
ENDBRANCH   4   5
ENDBRANCH   3   4
ENDBRANCH   2   3
ENDBRANCH   1   2
BRANCH   1  34
ATOM     34  C   UNL     1      12.834  -2.536   1.111  1.00  0.00     0.188 C 
BRANCH  34  35
ATOM     35  C   UNL     1      13.993  -3.375   0.535  1.00  0.00     0.188 C 
BRANCH  35  36
ATOM     36  O   UNL     1      13.639  -4.232  -0.535  1.00  0.00    -0.376 OA
BRANCH  36  37
ATOM     37  C   UNL     1      13.294  -5.578  -0.240  1.00  0.00     0.202 C 
BRANCH  37  38
ATOM     38  C   UNL     1      12.088  -5.825   0.681  1.00  0.00     0.261 C 
BRANCH  38  39
ATOM     39  O   UNL     1      12.194  -5.311   2.020  1.00  0.00    -0.460 OA
BRANCH  39  40
ATOM     40  C   UNL     1      13.242  -5.720   2.766  1.00  0.00     0.338 C 
ATOM     41  O   UNL     1      14.091  -6.533   2.469  1.00  0.00    -0.246 OA
BRANCH  40  42
ATOM     42  C   UNL     1      13.301  -4.865   3.970  1.00  0.00     0.060 A 
ATOM     43  C   UNL     1      14.439  -4.075   4.176  1.00  0.00     0.016 A 
ATOM     44  C   UNL     1      12.263  -4.873   4.905  1.00  0.00     0.016 A 
ATOM     45  C   UNL     1      14.569  -3.335   5.348  1.00  0.00     0.010 A 
ATOM     46  C   UNL     1      12.404  -4.145   6.090  1.00  0.00     0.010 A 
ATOM     47  C   UNL     1      13.579  -3.412   6.337  1.00  0.00    -0.014 A 
BRANCH  47  48
ATOM     48  C   UNL     1      13.891  -2.920   7.701  1.00  0.00     0.031 A 
ATOM     49  C   UNL     1      14.361  -3.916   8.727  1.00  0.00     0.074 A 
ATOM     50  C   UNL     1      13.831  -1.613   8.007  1.00  0.00     0.049 A 
ATOM     51  N   UNL     1      14.720  -3.729   9.972  1.00  0.00    -0.248 NA
ATOM     52  C   UNL     1      14.439  -5.318   8.284  1.00  0.00     0.031 C 
ATOM     53  C   UNL     1      13.442  -0.547   7.088  1.00  0.00     0.029 A 
ATOM     54  N   UNL     1      14.106  -0.962   9.184  1.00  0.00    -0.354 N 
ATOM     55  C   UNL     1      15.063  -4.985  10.457  1.00  0.00     0.074 A 
ATOM     56  C   UNL     1      14.829  -5.932   9.390  1.00  0.00     0.031 C 
ATOM     57  C   UNL     1      13.508   0.630   7.735  1.00  0.00     0.029 A 
ATOM     58  C   UNL     1      13.913   0.395   9.120  1.00  0.00     0.049 A 
ATOM     59  H   UNL     1      14.413  -1.425   9.997  1.00  0.00     0.167 HD
ATOM     60  C   UNL     1      15.545  -5.319  11.679  1.00  0.00     0.037 A 
ATOM     61  C   UNL     1      14.040   1.335  10.078  1.00  0.00     0.037 A 
ATOM     62  C   UNL     1      15.769  -4.375  12.743  1.00  0.00     0.049 A 
ATOM     63  C   UNL     1      14.490   0.924  11.459  1.00  0.00     0.074 A 
ATOM     64  C   UNL     1      16.256  -4.609  14.017  1.00  0.00     0.029 A 
ATOM     65  N   UNL     1      15.506  -3.015  12.659  1.00  0.00    -0.354 N 
ATOM     66  N   UNL     1      14.837  -0.259  11.905  1.00  0.00    -0.248 NA
ATOM     67  C   UNL     1      14.572   1.989  12.469  1.00  0.00     0.031 C 
ATOM     68  C   UNL     1      16.227  -3.402  14.723  1.00  0.00     0.029 A 
ATOM     69  C   UNL     1      15.793  -2.402  13.868  1.00  0.00     0.049 A 
ATOM     70  H   UNL     1      15.166  -2.554  11.858  1.00  0.00     0.167 HD
ATOM     71  C   UNL     1      15.216  -0.075  13.229  1.00  0.00     0.074 A 
ATOM     72  C   UNL     1      15.069   1.338  13.510  1.00  0.00     0.031 C 
ATOM     73  C   UNL     1      15.651  -0.991  14.132  1.00  0.00     0.037 A 
BRANCH  60  74
ATOM     74  C   UNL     1      15.823  -6.773  11.935  1.00  0.00     0.064 A 
ATOM     75  C   UNL     1      16.863  -7.457  11.286  1.00  0.00     0.173 A 
ATOM     76  C   UNL     1      15.038  -7.494  12.848  1.00  0.00     0.173 A 
ATOM     77  F   UNL     1      17.635  -6.820  10.392  1.00  0.00    -0.203 F 
ATOM     78  C   UNL     1      17.081  -8.814  11.512  1.00  0.00     0.198 A 
ATOM     79  C   UNL     1      15.281  -8.842  13.098  1.00  0.00     0.198 A 
ATOM     80  F   UNL     1      14.031  -6.891  13.499  1.00  0.00    -0.203 F 
ATOM     81  F   UNL     1      18.038  -9.460  10.831  1.00  0.00    -0.200 F 
ATOM     82  C   UNL     1      16.294  -9.504  12.422  1.00  0.00     0.200 A 
ATOM     83  F   UNL     1      14.529  -9.503  13.989  1.00  0.00    -0.200 F 
ATOM     84  F   UNL     1      16.506 -10.809  12.639  1.00  0.00    -0.200 F 
ENDBRANCH  60  74
BRANCH  61  85
ATOM     85  C   UNL     1      13.745   2.760   9.773  1.00  0.00     0.064 A 
ATOM     86  C   UNL     1      14.758   3.730   9.796  1.00  0.00     0.173 A 
ATOM     87  C   UNL     1      12.441   3.190   9.485  1.00  0.00     0.173 A 
ATOM     88  F   UNL     1      16.018   3.376  10.092  1.00  0.00    -0.203 F 
ATOM     89  C   UNL     1      14.475   5.075   9.566  1.00  0.00     0.198 A 
ATOM     90  C   UNL     1      12.164   4.530   9.223  1.00  0.00     0.198 A 
ATOM     91  F   UNL     1      11.434   2.305   9.453  1.00  0.00    -0.203 F 
ATOM     92  F   UNL     1      15.453   5.987   9.650  1.00  0.00    -0.200 F 
ATOM     93  C   UNL     1      13.179   5.473   9.274  1.00  0.00     0.200 A 
ATOM     94  F   UNL     1      10.913   4.908   8.928  1.00  0.00    -0.200 F 
ATOM     95  F   UNL     1      12.907   6.766   9.052  1.00  0.00    -0.200 F 
ENDBRANCH  61  85
BRANCH  73  96
ATOM     96  C   UNL     1      16.053  -0.486  15.491  1.00  0.00     0.064 A 
ATOM     97  C   UNL     1      15.118   0.025  16.403  1.00  0.00     0.173 A 
ATOM     98  C   UNL     1      17.398  -0.533  15.893  1.00  0.00     0.173 A 
ATOM     99  F   UNL     1      13.821   0.104  16.068  1.00  0.00    -0.203 F 
ATOM    100  C   UNL     1      15.519   0.509  17.646  1.00  0.00     0.198 A 
ATOM    101  C   UNL     1      17.790  -0.086  17.151  1.00  0.00     0.198 A 
ATOM    102  F   UNL     1      18.335  -1.023  15.066  1.00  0.00    -0.203 F 
ATOM    103  F   UNL     1      14.616   1.056  18.473  1.00  0.00    -0.200 F 
ATOM    104  C   UNL     1      16.852   0.448  18.022  1.00  0.00     0.200 A 
ATOM    105  F   UNL     1      19.076  -0.164  17.519  1.00  0.00    -0.200 F 
ATOM    106  F   UNL     1      17.235   0.912  19.219  1.00  0.00    -0.200 F 
ENDBRANCH  73  96
ENDBRANCH  47  48
ENDBRANCH  40  42
ENDBRANCH  39  40
ENDBRANCH  38  39
ENDBRANCH  37  38
ENDBRANCH  36  37
ENDBRANCH  35  36
ENDBRANCH  34  35
ENDBRANCH   1  34
TORSDOF 22
