REMARK SMILES C[C@@H](C(=O)OCCOCCOCCOCCOC(=O)c1ccc(-c2c3nc(c(-c4c(F)c(F)c(F)c(F)c4F)c4ccc([nH]4)c(-c4c(F)c(F)c(F)c(F)c4F)c4nc(c(-c5c(F)c(F)c(F)c(F)c5F)c5ccc2[nH]5)C=C4)C=C3)cc1)c1ccc(C[C@@H]2CCC[C@@H]2O)cc1Br
REMARK SMILES IDX 10 1 9 2 8 3 7 4 6 5 5 6 3 7 4 8 2 9 1 10 83 11 84 12 95 13
REMARK SMILES IDX 85 14 94 15 96 16 86 17 87 18 88 19 89 20 92 21 90 22 91 23
REMARK SMILES IDX 93 24 11 26 12 27 13 28 14 29 15 30 16 31 17 32 18 33 19 34
REMARK SMILES IDX 20 35 21 36 82 37 22 38 81 39 23 40 24 41 25 42 75 43 26 44
REMARK SMILES IDX 80 45 74 46 76 47 27 48 79 49 73 50 72 51 28 53 60 54 40 55
REMARK SMILES IDX 59 56 41 57 44 58 58 59 77 60 42 61 43 62 57 64 78 65 45 66
REMARK SMILES IDX 29 67 30 68 38 69 31 70 32 71 36 72 39 73 33 74 34 75 37 76
REMARK SMILES IDX 35 77 61 78 62 79 70 80 63 81 64 82 68 83 71 84 65 85 66 86
REMARK SMILES IDX 69 87 67 88 46 89 47 90 55 91 48 92 49 93 53 94 56 95 50 96
REMARK SMILES IDX 51 97 54 98 52 99
REMARK H PARENT 93 25 76 52 44 63
REMARK Flexibility Score: inf
ROOT
ATOM      1  C   UNL     1      -8.099   4.193   5.037  1.00  0.00     0.188 C 
ENDROOT
BRANCH   1   2
ATOM      2  C   UNL     1      -8.795   4.731   3.775  1.00  0.00     0.188 C 
BRANCH   2   3
ATOM      3  O   UNL     1      -9.672   5.834   4.022  1.00  0.00    -0.376 OA
BRANCH   3   4
ATOM      4  C   UNL     1     -11.062   5.524   4.077  1.00  0.00     0.202 C 
BRANCH   4   5
ATOM      5  C   UNL     1     -11.487   4.655   5.260  1.00  0.00     0.261 C 
BRANCH   5   6
ATOM      6  O   UNL     1     -10.855   3.367   5.172  1.00  0.00    -0.463 OA
BRANCH   6   7
ATOM      7  C   UNL     1     -11.623   2.256   5.156  1.00  0.00     0.313 C 
ATOM      8  O   UNL     1     -12.847   2.248   5.183  1.00  0.00    -0.252 OA
BRANCH   7   9
ATOM      9  C   UNL     1     -10.765   1.000   5.193  1.00  0.00     0.127 C 
ATOM     10  C   UNL     1     -10.021   1.034   6.550  1.00  0.00     0.025 C 
BRANCH   9  11
ATOM     11  C   UNL     1      -9.851   0.691   3.993  1.00  0.00    -0.020 A 
ATOM     12  C   UNL     1      -8.784  -0.214   4.205  1.00  0.00     0.006 A 
ATOM     13  C   UNL     1     -10.031   1.118   2.664  1.00  0.00     0.022 A 
ATOM     14  C   UNL     1      -7.926  -0.635   3.178  1.00  0.00     0.004 A 
ATOM     15  C   UNL     1      -9.125   0.742   1.648  1.00  0.00     0.019 A 
ATOM     16  Br  UNL     1     -11.532   2.106   2.039  1.00  0.00    -0.050 Br
ATOM     17  C   UNL     1      -8.067  -0.144   1.885  1.00  0.00    -0.047 A 
BRANCH  17  18
ATOM     18  C   UNL     1      -7.230  -0.654   0.733  1.00  0.00     0.041 C 
BRANCH  18  19
ATOM     19  C   UNL     1      -5.714  -0.369   0.648  1.00  0.00     0.022 C 
ATOM     20  C   UNL     1      -4.860  -1.001   1.750  1.00  0.00     0.007 C 
ATOM     21  C   UNL     1      -5.272   1.095   0.668  1.00  0.00     0.117 C 
ATOM     22  C   UNL     1      -4.543   0.115   2.750  1.00  0.00     0.003 C 
ATOM     23  C   UNL     1      -5.069   1.411   2.141  1.00  0.00     0.032 C 
BRANCH  21  24
ATOM     24  O   UNL     1      -6.191   1.977   0.062  1.00  0.00    -0.393 OA
ATOM     25  H   UNL     1      -7.042   1.925   0.524  1.00  0.00     0.210 HD
ENDBRANCH  21  24
ENDBRANCH  18  19
ENDBRANCH  17  18
ENDBRANCH   9  11
ENDBRANCH   7   9
ENDBRANCH   6   7
ENDBRANCH   5   6
ENDBRANCH   4   5
ENDBRANCH   3   4
ENDBRANCH   2   3
ENDBRANCH   1   2
BRANCH   1  26
ATOM     26  O   UNL     1      -8.515   4.792   6.254  1.00  0.00    -0.377 OA
BRANCH  26  27
ATOM     27  C   UNL     1      -8.125   6.136   6.526  1.00  0.00     0.188 C 
BRANCH  27  28
ATOM     28  C   UNL     1      -7.380   7.000   5.486  1.00  0.00     0.188 C 
BRANCH  28  29
ATOM     29  O   UNL     1      -6.353   6.315   4.777  1.00  0.00    -0.376 OA
BRANCH  29  30
ATOM     30  C   UNL     1      -5.014   6.599   5.159  1.00  0.00     0.202 C 
BRANCH  30  31
ATOM     31  C   UNL     1      -4.587   5.912   6.461  1.00  0.00     0.261 C 
BRANCH  31  32
ATOM     32  O   UNL     1      -5.244   6.407   7.640  1.00  0.00    -0.460 OA
BRANCH  32  33
ATOM     33  C   UNL     1      -5.103   7.719   7.918  1.00  0.00     0.338 C 
ATOM     34  O   UNL     1      -4.403   8.532   7.341  1.00  0.00    -0.246 OA
BRANCH  33  35
ATOM     35  C   UNL     1      -6.095   8.070   8.951  1.00  0.00     0.060 A 
ATOM     36  C   UNL     1      -7.003   9.103   8.687  1.00  0.00     0.016 A 
ATOM     37  C   UNL     1      -6.113   7.397  10.175  1.00  0.00     0.016 A 
ATOM     38  C   UNL     1      -7.903   9.502   9.674  1.00  0.00     0.010 A 
ATOM     39  C   UNL     1      -7.002   7.809  11.168  1.00  0.00     0.010 A 
ATOM     40  C   UNL     1      -7.871   8.889  10.934  1.00  0.00    -0.014 A 
BRANCH  40  41
ATOM     41  C   UNL     1      -8.575   9.519  12.073  1.00  0.00     0.031 A 
ATOM     42  C   UNL     1      -7.809  10.493  12.924  1.00  0.00     0.074 A 
ATOM     43  C   UNL     1      -9.860   9.240  12.347  1.00  0.00     0.049 A 
ATOM     44  N   UNL     1      -8.188  11.143  13.994  1.00  0.00    -0.248 NA
ATOM     45  C   UNL     1      -6.423  10.768  12.511  1.00  0.00     0.031 C 
ATOM     46  C   UNL     1     -10.712   8.337  11.579  1.00  0.00     0.029 A 
ATOM     47  N   UNL     1     -10.666   9.687  13.363  1.00  0.00    -0.354 N 
ATOM     48  C   UNL     1      -7.092  11.904  14.377  1.00  0.00     0.074 A 
ATOM     49  C   UNL     1      -6.022  11.613  13.448  1.00  0.00     0.031 C 
ATOM     50  C   UNL     1     -11.923   8.283  12.161  1.00  0.00     0.029 A 
ATOM     51  C   UNL     1     -11.920   9.129  13.354  1.00  0.00     0.049 A 
ATOM     52  H   UNL     1     -10.373  10.346  14.033  1.00  0.00     0.167 HD
ATOM     53  C   UNL     1      -6.988  12.775  15.407  1.00  0.00     0.037 A 
ATOM     54  C   UNL     1     -12.937   9.275  14.226  1.00  0.00     0.037 A 
ATOM     55  C   UNL     1      -8.045  13.053  16.341  1.00  0.00     0.049 A 
ATOM     56  C   UNL     1     -12.773  10.196  15.408  1.00  0.00     0.074 A 
ATOM     57  C   UNL     1      -8.043  13.924  17.415  1.00  0.00     0.029 A 
ATOM     58  N   UNL     1      -9.294  12.450  16.314  1.00  0.00    -0.354 N 
ATOM     59  N   UNL     1     -11.746  10.938  15.747  1.00  0.00    -0.248 NA
ATOM     60  C   UNL     1     -13.915  10.301  16.329  1.00  0.00     0.031 C 
ATOM     61  C   UNL     1      -9.277  13.817  18.065  1.00  0.00     0.029 A 
ATOM     62  C   UNL     1     -10.063  12.914  17.368  1.00  0.00     0.049 A 
ATOM     63  H   UNL     1      -9.589  11.791  15.645  1.00  0.00     0.167 HD
ATOM     64  C   UNL     1     -12.125  11.615  16.899  1.00  0.00     0.074 A 
ATOM     65  C   UNL     1     -13.481  11.204  17.198  1.00  0.00     0.031 C 
ATOM     66  C   UNL     1     -11.415  12.499  17.643  1.00  0.00     0.037 A 
BRANCH  53  67
ATOM     67  C   UNL     1      -5.673  13.470  15.586  1.00  0.00     0.064 A 
ATOM     68  C   UNL     1      -5.252  14.481  14.708  1.00  0.00     0.173 A 
ATOM     69  C   UNL     1      -4.827  13.130  16.651  1.00  0.00     0.173 A 
ATOM     70  F   UNL     1      -6.017  14.827  13.662  1.00  0.00    -0.203 F 
ATOM     71  C   UNL     1      -4.021  15.107  14.877  1.00  0.00     0.198 A 
ATOM     72  C   UNL     1      -3.608  13.776  16.832  1.00  0.00     0.198 A 
ATOM     73  F   UNL     1      -5.184  12.168  17.517  1.00  0.00    -0.203 F 
ATOM     74  F   UNL     1      -3.617  16.037  13.999  1.00  0.00    -0.200 F 
ATOM     75  C   UNL     1      -3.203  14.759  15.941  1.00  0.00     0.200 A 
ATOM     76  F   UNL     1      -2.822  13.443  17.865  1.00  0.00    -0.200 F 
ATOM     77  F   UNL     1      -2.018  15.364  16.104  1.00  0.00    -0.200 F 
ENDBRANCH  53  67
BRANCH  54  78
ATOM     78  C   UNL     1     -14.201   8.523  14.022  1.00  0.00     0.064 A 
ATOM     79  C   UNL     1     -15.384   9.182  13.662  1.00  0.00     0.173 A 
ATOM     80  C   UNL     1     -14.257   7.134  14.205  1.00  0.00     0.173 A 
ATOM     81  F   UNL     1     -15.387  10.514  13.504  1.00  0.00    -0.203 F 
ATOM     82  C   UNL     1     -16.580   8.483  13.508  1.00  0.00     0.198 A 
ATOM     83  C   UNL     1     -15.447   6.432  14.027  1.00  0.00     0.198 A 
ATOM     84  F   UNL     1     -13.154   6.458  14.557  1.00  0.00    -0.203 F 
ATOM     85  F   UNL     1     -17.706   9.143  13.209  1.00  0.00    -0.200 F 
ATOM     86  C   UNL     1     -16.609   7.107  13.686  1.00  0.00     0.200 A 
ATOM     87  F   UNL     1     -15.470   5.102  14.195  1.00  0.00    -0.200 F 
ATOM     88  F   UNL     1     -17.759   6.435  13.540  1.00  0.00    -0.200 F 
ENDBRANCH  54  78
BRANCH  66  89
ATOM     89  C   UNL     1     -12.098  13.108  18.832  1.00  0.00     0.064 A 
ATOM     90  C   UNL     1     -12.328  12.373  20.004  1.00  0.00     0.173 A 
ATOM     91  C   UNL     1     -12.477  14.459  18.817  1.00  0.00     0.173 A 
ATOM     92  F   UNL     1     -11.995  11.075  20.063  1.00  0.00    -0.203 F 
ATOM     93  C   UNL     1     -12.932  12.964  21.111  1.00  0.00     0.198 A 
ATOM     94  C   UNL     1     -13.056  15.053  19.935  1.00  0.00     0.198 A 
ATOM     95  F   UNL     1     -12.271  15.207  17.723  1.00  0.00    -0.203 F 
ATOM     96  F   UNL     1     -13.178  12.233  22.207  1.00  0.00    -0.200 F 
ATOM     97  C   UNL     1     -13.288  14.305  21.078  1.00  0.00     0.200 A 
ATOM     98  F   UNL     1     -13.386  16.352  19.906  1.00  0.00    -0.200 F 
ATOM     99  F   UNL     1     -13.860  14.874  22.148  1.00  0.00    -0.200 F 
ENDBRANCH  66  89
ENDBRANCH  40  41
ENDBRANCH  33  35
ENDBRANCH  32  33
ENDBRANCH  31  32
ENDBRANCH  30  31
ENDBRANCH  29  30
ENDBRANCH  28  29
ENDBRANCH  27  28
ENDBRANCH  26  27
ENDBRANCH   1  26
TORSDOF 24
