REMARK SMILES C[NH2+][C@]1(C(=O)OCCOCCOCCOCCOC(=O)c2ccc(-c3c4nc(c(-c5c(F)c(F)c(F)c(F)c5F)c5ccc([nH]5)c(-c5c(F)c(F)c(F)c(F)c5F)c5nc(c(-c6c(F)c(F)c(F)c(F)c6F)c6ccc3[nH]6)C=C5)C=C4)cc2)CCC[C@@H](Sc2nncs2)C1
REMARK SMILES IDX 12 1 11 2 10 3 9 4 8 5 7 6 6 7 4 8 5 9 3 10 84 11 94 12
REMARK SMILES IDX 85 13 87 14 86 15 2 16 1 17 88 20 89 21 90 22 93 23 91 24
REMARK SMILES IDX 92 25 13 26 14 27 15 28 16 29 17 30 18 31 19 32 20 33 21 34
REMARK SMILES IDX 22 35 83 36 23 37 82 38 24 39 25 40 26 41 76 42 27 43 81 44
REMARK SMILES IDX 75 45 77 46 28 47 80 48 74 49 73 50 29 52 61 53 41 54 60 55
REMARK SMILES IDX 42 56 45 57 59 58 78 59 43 60 44 61 58 63 79 64 46 65 30 66
REMARK SMILES IDX 31 67 39 68 32 69 33 70 37 71 40 72 34 73 35 74 38 75 36 76
REMARK SMILES IDX 62 77 63 78 71 79 64 80 65 81 69 82 72 83 66 84 67 85 70 86
REMARK SMILES IDX 68 87 47 88 48 89 56 90 49 91 50 92 54 93 57 94 51 95 52 96
REMARK SMILES IDX 55 97 53 98
REMARK H PARENT 2 18 2 19 77 51 45 62
REMARK Flexibility Score: inf
ROOT
ATOM      1  O   UNL     1       1.478  -0.958   0.132  1.00  0.00    -0.377 OA
ENDROOT
BRANCH   1   2
ATOM      2  C   UNL     1       1.023  -0.558  -1.146  1.00  0.00     0.188 C 
BRANCH   2   3
ATOM      3  C   UNL     1       1.790   0.610  -1.780  1.00  0.00     0.188 C 
BRANCH   3   4
ATOM      4  O   UNL     1       3.131   0.826  -1.391  1.00  0.00    -0.376 OA
BRANCH   4   5
ATOM      5  C   UNL     1       3.493   1.288  -0.100  1.00  0.00     0.202 C 
BRANCH   5   6
ATOM      6  C   UNL     1       2.557   1.832   0.997  1.00  0.00     0.261 C 
BRANCH   6   7
ATOM      7  O   UNL     1       1.175   1.484   0.944  1.00  0.00    -0.459 OA
BRANCH   7   8
ATOM      8  C   UNL     1       0.361   2.429   0.417  1.00  0.00     0.368 C 
ATOM      9  O   UNL     1       0.763   3.520   0.021  1.00  0.00    -0.245 OA
BRANCH   8  10
ATOM     10  C   UNL     1      -1.139   1.988   0.345  1.00  0.00     0.195 C 
ATOM     11  C   UNL     1      -1.456   0.678   1.128  1.00  0.00     0.081 C 
ATOM     12  C   UNL     1      -1.876   3.127   1.073  1.00  0.00     0.096 C 
ATOM     13  C   UNL     1      -2.957   0.387   1.230  1.00  0.00     0.008 C 
ATOM     14  C   UNL     1      -3.368   2.892   1.286  1.00  0.00     0.061 C 
ATOM     15  C   UNL     1      -3.688   1.533   1.917  1.00  0.00     0.015 C 
BRANCH  10  16
ATOM     16  N   UNL     1      -1.542   1.783  -1.078  1.00  0.00    -0.335 N 
ATOM     17  C   UNL     1      -1.489   2.953  -1.943  1.00  0.00     0.331 C 
ATOM     18  H   UNL     1      -0.926   1.075  -1.476  1.00  0.00     0.347 HD
ATOM     19  H   UNL     1      -2.526   1.516  -1.044  1.00  0.00     0.347 HD
ENDBRANCH  10  16
BRANCH  14  20
ATOM     20  S   UNL     1      -4.124   4.261   2.255  1.00  0.00    -0.090 SA
BRANCH  20  21
ATOM     21  C   UNL     1      -3.292   4.129   3.791  1.00  0.00     0.174 A 
ATOM     22  N   UNL     1      -1.994   4.304   3.913  1.00  0.00    -0.132 NA
ATOM     23  S   UNL     1      -4.084   3.740   5.261  1.00  0.00    -0.094 S 
ATOM     24  N   UNL     1      -1.542   4.043   5.190  1.00  0.00    -0.146 NA
ATOM     25  C   UNL     1      -2.535   3.743   5.998  1.00  0.00     0.203 A 
ENDBRANCH  20  21
ENDBRANCH  14  20
ENDBRANCH   8  10
ENDBRANCH   7   8
ENDBRANCH   6   7
ENDBRANCH   5   6
ENDBRANCH   4   5
ENDBRANCH   3   4
ENDBRANCH   2   3
ENDBRANCH   1   2
BRANCH   1  26
ATOM     26  C   UNL     1       2.550  -1.886   0.213  1.00  0.00     0.188 C 
BRANCH  26  27
ATOM     27  C   UNL     1       3.445  -2.171  -1.011  1.00  0.00     0.188 C 
BRANCH  27  28
ATOM     28  O   UNL     1       2.765  -2.246  -2.252  1.00  0.00    -0.376 OA
BRANCH  28  29
ATOM     29  C   UNL     1       2.347  -3.510  -2.741  1.00  0.00     0.202 C 
BRANCH  29  30
ATOM     30  C   UNL     1       1.358  -4.329  -1.896  1.00  0.00     0.261 C 
BRANCH  30  31
ATOM     31  O   UNL     1       1.784  -4.684  -0.570  1.00  0.00    -0.460 OA
BRANCH  31  32
ATOM     32  C   UNL     1       2.940  -5.362  -0.432  1.00  0.00     0.338 C 
ATOM     33  O   UNL     1       3.659  -5.791  -1.319  1.00  0.00    -0.246 OA
BRANCH  32  34
ATOM     34  C   UNL     1       3.308  -5.335   0.998  1.00  0.00     0.060 A 
ATOM     35  C   UNL     1       4.520  -4.744   1.378  1.00  0.00     0.016 A 
ATOM     36  C   UNL     1       2.462  -5.894   1.959  1.00  0.00     0.016 A 
ATOM     37  C   UNL     1       4.912  -4.749   2.717  1.00  0.00     0.010 A 
ATOM     38  C   UNL     1       2.866  -5.920   3.296  1.00  0.00     0.010 A 
ATOM     39  C   UNL     1       4.110  -5.382   3.674  1.00  0.00    -0.014 A 
BRANCH  39  40
ATOM     40  C   UNL     1       4.664  -5.673   5.019  1.00  0.00     0.031 A 
ATOM     41  C   UNL     1       5.218  -7.047   5.276  1.00  0.00     0.074 A 
ATOM     42  C   UNL     1       4.700  -4.737   5.983  1.00  0.00     0.049 A 
ATOM     43  N   UNL     1       5.696  -7.562   6.380  1.00  0.00    -0.248 NA
ATOM     44  C   UNL     1       5.231  -7.968   4.127  1.00  0.00     0.031 C 
ATOM     45  C   UNL     1       4.242  -3.358   5.841  1.00  0.00     0.029 A 
ATOM     46  N   UNL     1       5.137  -4.818   7.283  1.00  0.00    -0.354 N 
ATOM     47  C   UNL     1       6.056  -8.865   6.060  1.00  0.00     0.074 A 
ATOM     48  C   UNL     1       5.710  -9.075   4.672  1.00  0.00     0.031 C 
ATOM     49  C   UNL     1       4.407  -2.723   7.015  1.00  0.00     0.029 A 
ATOM     50  C   UNL     1       4.946  -3.663   7.999  1.00  0.00     0.049 A 
ATOM     51  H   UNL     1       5.548  -5.627   7.664  1.00  0.00     0.167 HD
ATOM     52  C   UNL     1       6.633  -9.800   6.853  1.00  0.00     0.037 A 
ATOM     53  C   UNL     1       5.156  -3.406   9.305  1.00  0.00     0.037 A 
ATOM     54  C   UNL     1       6.971  -9.589   8.235  1.00  0.00     0.049 A 
ATOM     55  C   UNL     1       5.719  -4.492  10.190  1.00  0.00     0.074 A 
ATOM     56  C   UNL     1       7.567 -10.468   9.121  1.00  0.00     0.029 A 
ATOM     57  N   UNL     1       6.731  -8.415   8.935  1.00  0.00    -0.354 N 
ATOM     58  N   UNL     1       6.075  -5.716   9.880  1.00  0.00    -0.248 NA
ATOM     59  C   UNL     1       5.910  -4.158  11.609  1.00  0.00     0.031 C 
ATOM     60  C   UNL     1       7.629  -9.849  10.374  1.00  0.00     0.029 A 
ATOM     61  C   UNL     1       7.139  -8.559  10.252  1.00  0.00     0.049 A 
ATOM     62  H   UNL     1       6.330  -7.601   8.553  1.00  0.00     0.167 HD
ATOM     63  C   UNL     1       6.564  -6.283  11.052  1.00  0.00     0.074 A 
ATOM     64  C   UNL     1       6.470  -5.265  12.076  1.00  0.00     0.031 C 
ATOM     65  C   UNL     1       7.049  -7.532  11.260  1.00  0.00     0.037 A 
BRANCH  52  66
ATOM     66  C   UNL     1       6.902 -11.149   6.250  1.00  0.00     0.064 A 
ATOM     67  C   UNL     1       7.882 -11.339   5.264  1.00  0.00     0.173 A 
ATOM     68  C   UNL     1       6.185 -12.275   6.685  1.00  0.00     0.173 A 
ATOM     69  F   UNL     1       8.585 -10.295   4.801  1.00  0.00    -0.203 F 
ATOM     70  C   UNL     1       8.114 -12.599   4.717  1.00  0.00     0.198 A 
ATOM     71  C   UNL     1       6.444 -13.538   6.161  1.00  0.00     0.198 A 
ATOM     72  F   UNL     1       5.237 -12.151   7.627  1.00  0.00    -0.203 F 
ATOM     73  F   UNL     1       9.018 -12.746   3.738  1.00  0.00    -0.200 F 
ATOM     74  C   UNL     1       7.401 -13.698   5.171  1.00  0.00     0.200 A 
ATOM     75  F   UNL     1       5.764 -14.601   6.613  1.00  0.00    -0.200 F 
ATOM     76  F   UNL     1       7.631 -14.911   4.650  1.00  0.00    -0.200 F 
ENDBRANCH  52  66
BRANCH  53  77
ATOM     77  C   UNL     1       4.816  -2.072   9.868  1.00  0.00     0.064 A 
ATOM     78  C   UNL     1       5.811  -1.214  10.358  1.00  0.00     0.173 A 
ATOM     79  C   UNL     1       3.484  -1.639   9.957  1.00  0.00     0.173 A 
ATOM     80  F   UNL     1       7.097  -1.593  10.323  1.00  0.00    -0.203 F 
ATOM     81  C   UNL     1       5.486   0.012  10.935  1.00  0.00     0.198 A 
ATOM     82  C   UNL     1       3.163  -0.398  10.503  1.00  0.00     0.198 A 
ATOM     83  F   UNL     1       2.491  -2.422   9.508  1.00  0.00    -0.203 F 
ATOM     84  F   UNL     1       6.453   0.785  11.448  1.00  0.00    -0.200 F 
ATOM     85  C   UNL     1       4.163   0.422  11.002  1.00  0.00     0.200 A 
ATOM     86  F   UNL     1       1.884  -0.002  10.554  1.00  0.00    -0.200 F 
ATOM     87  F   UNL     1       3.851   1.601  11.556  1.00  0.00    -0.200 F 
ENDBRANCH  53  77
BRANCH  65  88
ATOM     88  C   UNL     1       7.562  -7.860  12.635  1.00  0.00     0.064 A 
ATOM     89  C   UNL     1       6.704  -7.996  13.736  1.00  0.00     0.173 A 
ATOM     90  C   UNL     1       8.933  -8.086  12.843  1.00  0.00     0.173 A 
ATOM     91  F   UNL     1       5.387  -7.779  13.596  1.00  0.00    -0.203 F 
ATOM     92  C   UNL     1       7.201  -8.315  14.997  1.00  0.00     0.198 A 
ATOM     93  C   UNL     1       9.421  -8.441  14.097  1.00  0.00     0.198 A 
ATOM     94  F   UNL     1       9.799  -7.980  11.823  1.00  0.00    -0.203 F 
ATOM     95  F   UNL     1       6.368  -8.386  16.045  1.00  0.00    -0.200 F 
ATOM     96  C   UNL     1       8.557  -8.546  15.175  1.00  0.00     0.200 A 
ATOM     97  F   UNL     1      10.729  -8.683  14.261  1.00  0.00    -0.200 F 
ATOM     98  F   UNL     1       9.031  -8.863  16.388  1.00  0.00    -0.200 F 
ENDBRANCH  65  88
ENDBRANCH  39  40
ENDBRANCH  32  34
ENDBRANCH  31  32
ENDBRANCH  30  31
ENDBRANCH  29  30
ENDBRANCH  28  29
ENDBRANCH  27  28
ENDBRANCH  26  27
ENDBRANCH   1  26
TORSDOF 23
