REMARK SMILES O=C(C[C@H]1CN(S(=O)(=O)N2CCCCC2)CCO1)OCCOCCOCCOCCOC(=O)c1ccc(-c2c3nc(c(-c4c(F)c(F)c(F)c(F)c4F)c4ccc([nH]4)c(-c4c(F)c(F)c(F)c(F)c4F)c4nc(c(-c5c(F)c(F)c(F)c(F)c5F)c5ccc2[nH]5)C=C4)C=C3)cc1
REMARK SMILES IDX 24 1 23 2 22 3 21 4 20 5 19 6 2 7 1 8 3 9 4 10 5 11 18 12
REMARK SMILES IDX 6 13 17 14 16 15 7 16 8 17 9 18 10 19 11 20 15 21 12 22
REMARK SMILES IDX 14 23 13 24 25 25 26 26 27 27 28 28 29 29 30 30 31 31 32 32
REMARK SMILES IDX 33 33 34 34 35 35 96 36 36 37 95 38 37 39 38 40 39 41 89 42
REMARK SMILES IDX 40 43 94 44 88 45 90 46 41 47 93 48 87 49 86 50 42 52 74 53
REMARK SMILES IDX 54 54 73 55 55 56 58 57 72 58 91 59 56 60 57 61 71 63 92 64
REMARK SMILES IDX 59 65 43 66 44 67 52 68 45 69 46 70 50 71 53 72 47 73 48 74
REMARK SMILES IDX 51 75 49 76 75 77 76 78 84 79 77 80 78 81 82 82 85 83 79 84
REMARK SMILES IDX 80 85 83 86 81 87 60 88 61 89 69 90 62 91 63 92 67 93 70 94
REMARK SMILES IDX 64 95 65 96 68 97 66 98
REMARK H PARENT 90 51 58 62
REMARK Flexibility Score: inf
ROOT
ATOM      1  C   UNL     1       7.422   3.349  -0.325  1.00  0.00     0.188 C 
ENDROOT
BRANCH   1   2
ATOM      2  C   UNL     1       6.393   2.274  -0.713  1.00  0.00     0.188 C 
BRANCH   2   3
ATOM      3  O   UNL     1       5.116   2.464  -1.317  1.00  0.00    -0.376 OA
BRANCH   3   4
ATOM      4  C   UNL     1       4.135   3.482  -1.225  1.00  0.00     0.202 C 
BRANCH   4   5
ATOM      5  C   UNL     1       3.757   4.247   0.045  1.00  0.00     0.261 C 
BRANCH   5   6
ATOM      6  O   UNL     1       4.758   4.266   1.039  1.00  0.00    -0.463 OA
BRANCH   6   7
ATOM      7  C   UNL     1       4.899   3.214   1.875  1.00  0.00     0.308 C 
ATOM      8  O   UNL     1       5.703   3.317   2.795  1.00  0.00    -0.252 OA
BRANCH   7   9
ATOM      9  C   UNL     1       4.146   1.937   1.545  1.00  0.00     0.156 C 
BRANCH   9  10
ATOM     10  C   UNL     1       3.045   1.444   2.453  1.00  0.00     0.144 C 
ATOM     11  C   UNL     1       3.369   0.057   3.011  1.00  0.00     0.136 C 
ATOM     12  O   UNL     1       2.625   2.337   3.473  1.00  0.00    -0.375 OA
ATOM     13  N   UNL     1       4.477   0.104   3.971  1.00  0.00    -0.184 NA
ATOM     14  C   UNL     1       3.524   2.423   4.581  1.00  0.00     0.177 C 
ATOM     15  C   UNL     1       4.198   1.114   5.045  1.00  0.00     0.132 C 
BRANCH  13  16
ATOM     16  S   UNL     1       6.096  -0.218   3.621  1.00  0.00     0.282 S 
ATOM     17  O   UNL     1       6.652   0.832   2.814  1.00  0.00    -0.195 OA
ATOM     18  O   UNL     1       6.714  -0.565   4.886  1.00  0.00    -0.195 OA
BRANCH  16  19
ATOM     19  N   UNL     1       6.085  -1.600   2.661  1.00  0.00    -0.189 NA
ATOM     20  C   UNL     1       5.755  -2.879   3.304  1.00  0.00     0.103 C 
ATOM     21  C   UNL     1       5.887  -1.489   1.196  1.00  0.00     0.103 C 
ATOM     22  C   UNL     1       6.369  -4.036   2.525  1.00  0.00     0.017 C 
ATOM     23  C   UNL     1       6.347  -2.725   0.426  1.00  0.00     0.017 C 
ATOM     24  C   UNL     1       5.886  -4.017   1.083  1.00  0.00     0.003 C 
ENDBRANCH  16  19
ENDBRANCH  13  16
ENDBRANCH   9  10
ENDBRANCH   7   9
ENDBRANCH   6   7
ENDBRANCH   5   6
ENDBRANCH   4   5
ENDBRANCH   3   4
ENDBRANCH   2   3
ENDBRANCH   1   2
BRANCH   1  25
ATOM     25  O   UNL     1       7.923   4.164  -1.369  1.00  0.00    -0.377 OA
BRANCH  25  26
ATOM     26  C   UNL     1       6.906   4.812  -2.096  1.00  0.00     0.188 C 
BRANCH  26  27
ATOM     27  C   UNL     1       6.563   4.111  -3.429  1.00  0.00     0.188 C 
BRANCH  27  28
ATOM     28  O   UNL     1       7.080   2.828  -3.732  1.00  0.00    -0.376 OA
BRANCH  28  29
ATOM     29  C   UNL     1       8.464   2.553  -3.578  1.00  0.00     0.202 C 
BRANCH  29  30
ATOM     30  C   UNL     1       9.574   3.558  -3.948  1.00  0.00     0.261 C 
BRANCH  30  31
ATOM     31  O   UNL     1       9.310   4.948  -3.727  1.00  0.00    -0.460 OA
BRANCH  31  32
ATOM     32  C   UNL     1       8.907   5.660  -4.806  1.00  0.00     0.338 C 
ATOM     33  O   UNL     1       8.776   5.264  -5.950  1.00  0.00    -0.246 OA
BRANCH  32  34
ATOM     34  C   UNL     1       8.399   6.967  -4.330  1.00  0.00     0.060 A 
ATOM     35  C   UNL     1       7.061   7.309  -4.595  1.00  0.00     0.016 A 
ATOM     36  C   UNL     1       9.211   7.822  -3.585  1.00  0.00     0.016 A 
ATOM     37  C   UNL     1       6.536   8.510  -4.129  1.00  0.00     0.010 A 
ATOM     38  C   UNL     1       8.703   9.054  -3.169  1.00  0.00     0.010 A 
ATOM     39  C   UNL     1       7.376   9.414  -3.471  1.00  0.00    -0.014 A 
BRANCH  39  40
ATOM     40  C   UNL     1       6.960  10.830  -3.378  1.00  0.00     0.031 A 
ATOM     41  C   UNL     1       7.380  11.742  -4.498  1.00  0.00     0.074 A 
ATOM     42  C   UNL     1       6.215  11.291  -2.361  1.00  0.00     0.049 A 
ATOM     43  N   UNL     1       7.211  13.031  -4.633  1.00  0.00    -0.248 NA
ATOM     44  C   UNL     1       8.093  11.107  -5.620  1.00  0.00     0.031 C 
ATOM     45  C   UNL     1       5.700  10.488  -1.255  1.00  0.00     0.029 A 
ATOM     46  N   UNL     1       5.775  12.562  -2.092  1.00  0.00    -0.354 N 
ATOM     47  C   UNL     1       7.806  13.359  -5.844  1.00  0.00     0.074 A 
ATOM     48  C   UNL     1       8.363  12.145  -6.394  1.00  0.00     0.031 C 
ATOM     49  C   UNL     1       5.029  11.293  -0.411  1.00  0.00     0.029 A 
ATOM     50  C   UNL     1       5.102  12.669  -0.901  1.00  0.00     0.049 A 
ATOM     51  H   UNL     1       5.927  13.325  -2.696  1.00  0.00     0.167 HD
ATOM     52  C   UNL     1       7.877  14.568  -6.446  1.00  0.00     0.037 A 
ATOM     53  C   UNL     1       4.631  13.764  -0.271  1.00  0.00     0.037 A 
ATOM     54  C   UNL     1       7.330  15.774  -5.887  1.00  0.00     0.049 A 
ATOM     55  C   UNL     1       4.803  15.117  -0.920  1.00  0.00     0.074 A 
ATOM     56  C   UNL     1       7.340  17.051  -6.417  1.00  0.00     0.029 A 
ATOM     57  N   UNL     1       6.685  15.851  -4.661  1.00  0.00    -0.354 N 
ATOM     58  N   UNL     1       5.348  15.423  -2.074  1.00  0.00    -0.248 NA
ATOM     59  C   UNL     1       4.292  16.278  -0.177  1.00  0.00     0.031 C 
ATOM     60  C   UNL     1       6.758  17.913  -5.482  1.00  0.00     0.029 A 
ATOM     61  C   UNL     1       6.319  17.161  -4.403  1.00  0.00     0.049 A 
ATOM     62  H   UNL     1       6.514  15.087  -4.064  1.00  0.00     0.167 HD
ATOM     63  C   UNL     1       5.213  16.800  -2.210  1.00  0.00     0.074 A 
ATOM     64  C   UNL     1       4.523  17.268  -1.026  1.00  0.00     0.031 C 
ATOM     65  C   UNL     1       5.620  17.605  -3.223  1.00  0.00     0.037 A 
BRANCH  52  66
ATOM     66  C   UNL     1       8.607  14.648  -7.755  1.00  0.00     0.064 A 
ATOM     67  C   UNL     1       8.098  14.065  -8.925  1.00  0.00     0.173 A 
ATOM     68  C   UNL     1       9.828  15.335  -7.842  1.00  0.00     0.173 A 
ATOM     69  F   UNL     1       6.946  13.378  -8.893  1.00  0.00    -0.203 F 
ATOM     70  C   UNL     1       8.797  14.145 -10.128  1.00  0.00     0.198 A 
ATOM     71  C   UNL     1      10.505  15.443  -9.052  1.00  0.00     0.198 A 
ATOM     72  F   UNL     1      10.360  15.908  -6.752  1.00  0.00    -0.203 F 
ATOM     73  F   UNL     1       8.318  13.535 -11.221  1.00  0.00    -0.200 F 
ATOM     74  C   UNL     1       9.994  14.841 -10.192  1.00  0.00     0.200 A 
ATOM     75  F   UNL     1      11.656  16.127  -9.115  1.00  0.00    -0.200 F 
ATOM     76  F   UNL     1      10.660  14.927 -11.352  1.00  0.00    -0.200 F 
ENDBRANCH  52  66
BRANCH  53  77
ATOM     77  C   UNL     1       3.970  13.638   1.056  1.00  0.00     0.064 A 
ATOM     78  C   UNL     1       2.611  13.938   1.220  1.00  0.00     0.173 A 
ATOM     79  C   UNL     1       4.691  13.248   2.194  1.00  0.00     0.173 A 
ATOM     80  F   UNL     1       1.883  14.342   0.168  1.00  0.00    -0.203 F 
ATOM     81  C   UNL     1       2.004  13.875   2.473  1.00  0.00     0.198 A 
ATOM     82  C   UNL     1       4.077  13.153   3.441  1.00  0.00     0.198 A 
ATOM     83  F   UNL     1       5.996  12.955   2.096  1.00  0.00    -0.203 F 
ATOM     84  F   UNL     1       0.717  14.222   2.610  1.00  0.00    -0.200 F 
ATOM     85  C   UNL     1       2.736  13.477   3.582  1.00  0.00     0.200 A 
ATOM     86  F   UNL     1       4.785  12.757   4.507  1.00  0.00    -0.200 F 
ATOM     87  F   UNL     1       2.152  13.416   4.786  1.00  0.00    -0.200 F 
ENDBRANCH  53  77
BRANCH  65  88
ATOM     88  C   UNL     1       5.285  19.067  -3.127  1.00  0.00     0.064 A 
ATOM     89  C   UNL     1       5.905  19.912  -2.196  1.00  0.00     0.173 A 
ATOM     90  C   UNL     1       4.363  19.640  -4.019  1.00  0.00     0.173 A 
ATOM     91  F   UNL     1       6.785  19.415  -1.314  1.00  0.00    -0.203 F 
ATOM     92  C   UNL     1       5.593  21.269  -2.141  1.00  0.00     0.198 A 
ATOM     93  C   UNL     1       4.082  21.003  -3.986  1.00  0.00     0.198 A 
ATOM     94  F   UNL     1       3.749  18.880  -4.938  1.00  0.00    -0.203 F 
ATOM     95  F   UNL     1       6.159  22.046  -1.207  1.00  0.00    -0.200 F 
ATOM     96  C   UNL     1       4.690  21.814  -3.041  1.00  0.00     0.200 A 
ATOM     97  F   UNL     1       3.224  21.530  -4.870  1.00  0.00    -0.200 F 
ATOM     98  F   UNL     1       4.399  23.121  -2.993  1.00  0.00    -0.200 F 
ENDBRANCH  65  88
ENDBRANCH  39  40
ENDBRANCH  32  34
ENDBRANCH  31  32
ENDBRANCH  30  31
ENDBRANCH  29  30
ENDBRANCH  28  29
ENDBRANCH  27  28
ENDBRANCH  26  27
ENDBRANCH  25  26
ENDBRANCH   1  25
TORSDOF 23
