REMARK SMILES Cc1nc(-c2ccc3c(c2)CCN3S(=O)(=O)c2ccc(F)c(C(=O)OCCOCCOCCOCCOC(=O)c3ccc(-c4c5nc(c(-c6c(F)c(F)c(F)c(F)c6F)c6ccc([nH]6)c(-c6c(F)c(F)c(F)c(F)c6F)c6nc(c(-c7c(F)c(F)c(F)c(F)c7F)c7ccc4[nH]7)C=C6)C=C5)cc3)c2)cs1
REMARK SMILES IDX 30 1 29 2 28 3 27 4 26 5 25 6 23 7 24 8 22 9 17 10 18 11
REMARK SMILES IDX 103 12 19 13 20 14 21 15 14 16 15 17 16 18 13 19 5 20 6 21
REMARK SMILES IDX 10 22 7 23 9 24 8 25 11 26 12 27 4 28 1 29 2 30 3 31 105 32
REMARK SMILES IDX 104 33 31 34 32 35 33 36 34 37 35 38 36 39 37 40 38 41 39 42
REMARK SMILES IDX 40 43 41 44 102 45 42 46 101 47 43 48 44 49 45 50 95 51
REMARK SMILES IDX 46 52 100 53 94 54 96 55 47 56 99 57 93 58 92 59 48 61 80 62
REMARK SMILES IDX 60 63 79 64 61 65 64 66 78 67 97 68 62 69 63 70 77 72 98 73
REMARK SMILES IDX 65 74 49 75 50 76 58 77 51 78 52 79 56 80 59 81 53 82 54 83
REMARK SMILES IDX 57 84 55 85 81 86 82 87 90 88 83 89 84 90 88 91 91 92 85 93
REMARK SMILES IDX 86 94 89 95 87 96 66 97 67 98 75 99 68 100 69 101 73 102
REMARK SMILES IDX 76 103 70 104 71 105 74 106 72 107
REMARK H PARENT 96 60 64 71
REMARK Flexibility Score: inf
ROOT
ATOM      1  C   UNL     1       2.215 -10.119  -4.912  1.00  0.00     0.188 C 
ENDROOT
BRANCH   1   2
ATOM      2  C   UNL     1       1.567 -10.827  -3.703  1.00  0.00     0.188 C 
BRANCH   2   3
ATOM      3  O   UNL     1       0.389 -11.540  -4.035  1.00  0.00    -0.376 OA
BRANCH   3   4
ATOM      4  C   UNL     1      -0.869 -11.058  -3.602  1.00  0.00     0.202 C 
BRANCH   4   5
ATOM      5  C   UNL     1      -1.312  -9.631  -3.956  1.00  0.00     0.261 C 
BRANCH   5   6
ATOM      6  O   UNL     1      -0.276  -8.649  -3.980  1.00  0.00    -0.460 OA
BRANCH   6   7
ATOM      7  C   UNL     1       0.088  -8.084  -2.811  1.00  0.00     0.341 C 
ATOM      8  O   UNL     1      -0.381  -8.304  -1.710  1.00  0.00    -0.246 OA
BRANCH   7   9
ATOM      9  C   UNL     1       1.337  -7.337  -3.056  1.00  0.00     0.097 A 
ATOM     10  C   UNL     1       3.602  -6.806  -2.418  1.00  0.00     0.089 A 
ATOM     11  C   UNL     1       3.760  -6.042  -3.586  1.00  0.00     0.025 A 
ATOM     12  C   UNL     1       2.410  -7.495  -2.163  1.00  0.00     0.041 A 
ATOM     13  C   UNL     1       2.689  -5.897  -4.466  1.00  0.00     0.041 A 
ATOM     14  C   UNL     1       1.478  -6.527  -4.189  1.00  0.00     0.137 A 
ATOM     15  F   UNL     1       0.451  -6.320  -5.025  1.00  0.00    -0.206 F 
BRANCH  10  16
ATOM     16  S   UNL     1       4.881  -6.751  -1.188  1.00  0.00     0.264 S 
ATOM     17  O   UNL     1       6.002  -6.039  -1.770  1.00  0.00    -0.201 OA
ATOM     18  O   UNL     1       5.056  -8.105  -0.702  1.00  0.00    -0.201 OA
BRANCH  16  19
ATOM     19  N   UNL     1       4.270  -5.812   0.098  1.00  0.00    -0.266 N 
ATOM     20  C   UNL     1       2.074  -2.216   0.123  1.00  0.00     0.001 A 
ATOM     21  C   UNL     1       1.756  -3.168  -0.850  1.00  0.00     0.012 A 
ATOM     22  C   UNL     1       3.122  -2.467   1.018  1.00  0.00     0.016 A 
ATOM     23  C   UNL     1       2.466  -4.358  -0.938  1.00  0.00     0.028 A 
ATOM     24  C   UNL     1       3.829  -3.667   0.900  1.00  0.00    -0.021 A 
ATOM     25  C   UNL     1       3.538  -4.593  -0.102  1.00  0.00     0.055 A 
ATOM     26  C   UNL     1       4.827  -4.230   1.863  1.00  0.00     0.060 C 
ATOM     27  C   UNL     1       5.327  -5.484   1.125  1.00  0.00     0.140 C 
BRANCH  20  28
ATOM     28  C   UNL     1       1.202  -1.062   0.209  1.00  0.00     0.081 A 
ATOM     29  C   UNL     1      -2.247   0.104   0.024  1.00  0.00     0.079 C 
ATOM     30  C   UNL     1      -0.772  -0.066   0.119  1.00  0.00     0.090 A 
ATOM     31  N   UNL     1      -0.170  -1.232   0.114  1.00  0.00    -0.242 NA
ATOM     32  S   UNL     1       0.270   1.297   0.223  1.00  0.00    -0.127 S 
ATOM     33  C   UNL     1       1.630   0.246   0.270  1.00  0.00     0.095 A 
ENDBRANCH  20  28
ENDBRANCH  16  19
ENDBRANCH  10  16
ENDBRANCH   7   9
ENDBRANCH   6   7
ENDBRANCH   5   6
ENDBRANCH   4   5
ENDBRANCH   3   4
ENDBRANCH   2   3
ENDBRANCH   1   2
BRANCH   1  34
ATOM     34  O   UNL     1       1.447  -9.966  -6.096  1.00  0.00    -0.377 OA
BRANCH  34  35
ATOM     35  C   UNL     1       0.837 -11.110  -6.692  1.00  0.00     0.188 C 
BRANCH  35  36
ATOM     36  C   UNL     1       1.324 -12.551  -6.398  1.00  0.00     0.188 C 
BRANCH  36  37
ATOM     37  O   UNL     1       2.545 -12.639  -5.686  1.00  0.00    -0.376 OA
BRANCH  37  38
ATOM     38  C   UNL     1       3.705 -13.032  -6.394  1.00  0.00     0.202 C 
BRANCH  38  39
ATOM     39  C   UNL     1       4.174 -12.121  -7.536  1.00  0.00     0.261 C 
BRANCH  39  40
ATOM     40  O   UNL     1       3.193 -11.799  -8.533  1.00  0.00    -0.460 OA
BRANCH  40  41
ATOM     41  C   UNL     1       2.739 -12.813  -9.306  1.00  0.00     0.338 C 
ATOM     42  O   UNL     1       3.063 -13.977  -9.262  1.00  0.00    -0.246 OA
BRANCH  41  43
ATOM     43  C   UNL     1       1.625 -12.274 -10.118  1.00  0.00     0.060 A 
ATOM     44  C   UNL     1       0.338 -12.803  -9.955  1.00  0.00     0.016 A 
ATOM     45  C   UNL     1       1.857 -11.240 -11.026  1.00  0.00     0.016 A 
ATOM     46  C   UNL     1      -0.720 -12.311 -10.722  1.00  0.00     0.010 A 
ATOM     47  C   UNL     1       0.803 -10.765 -11.809  1.00  0.00     0.010 A 
ATOM     48  C   UNL     1      -0.484 -11.318 -11.682  1.00  0.00    -0.014 A 
BRANCH  48  49
ATOM     49  C   UNL     1      -1.526 -10.981 -12.682  1.00  0.00     0.031 A 
ATOM     50  C   UNL     1      -1.438 -11.620 -14.040  1.00  0.00     0.074 A 
ATOM     51  C   UNL     1      -2.534 -10.139 -12.392  1.00  0.00     0.049 A 
ATOM     52  N   UNL     1      -2.167 -11.411 -15.106  1.00  0.00    -0.248 NA
ATOM     53  C   UNL     1      -0.387 -12.636 -14.221  1.00  0.00     0.031 C 
ATOM     54  C   UNL     1      -2.763  -9.509 -11.094  1.00  0.00     0.029 A 
ATOM     55  N   UNL     1      -3.553  -9.664 -13.182  1.00  0.00    -0.354 N 
ATOM     56  C   UNL     1      -1.665 -12.267 -16.078  1.00  0.00     0.074 A 
ATOM     57  C   UNL     1      -0.549 -12.974 -15.492  1.00  0.00     0.031 C 
ATOM     58  C   UNL     1      -3.854  -8.726 -11.177  1.00  0.00     0.029 A 
ATOM     59  C   UNL     1      -4.372  -8.764 -12.544  1.00  0.00     0.049 A 
ATOM     60  H   UNL     1      -3.685  -9.944 -14.117  1.00  0.00     0.167 HD
ATOM     61  C   UNL     1      -2.108 -12.455 -17.341  1.00  0.00     0.037 A 
ATOM     62  C   UNL     1      -5.404  -8.038 -13.022  1.00  0.00     0.037 A 
ATOM     63  C   UNL     1      -3.220 -11.752 -17.921  1.00  0.00     0.049 A 
ATOM     64  C   UNL     1      -5.800  -8.182 -14.472  1.00  0.00     0.074 A 
ATOM     65  C   UNL     1      -3.735 -11.865 -19.200  1.00  0.00     0.029 A 
ATOM     66  N   UNL     1      -3.990 -10.808 -17.259  1.00  0.00    -0.354 N 
ATOM     67  N   UNL     1      -5.319  -8.989 -15.387  1.00  0.00    -0.248 NA
ATOM     68  C   UNL     1      -6.879  -7.308 -14.959  1.00  0.00     0.031 C 
ATOM     69  C   UNL     1      -4.785 -10.954 -19.329  1.00  0.00     0.029 A 
ATOM     70  C   UNL     1      -4.964 -10.317 -18.112  1.00  0.00     0.049 A 
ATOM     71  H   UNL     1      -3.863 -10.528 -16.324  1.00  0.00     0.167 HD
ATOM     72  C   UNL     1      -6.061  -8.750 -16.538  1.00  0.00     0.074 A 
ATOM     73  C   UNL     1      -7.030  -7.729 -16.207  1.00  0.00     0.031 C 
ATOM     74  C   UNL     1      -5.946  -9.324 -17.760  1.00  0.00     0.037 A 
BRANCH  61  75
ATOM     75  C   UNL     1      -1.404 -13.464 -18.197  1.00  0.00     0.064 A 
ATOM     76  C   UNL     1      -0.651 -13.054 -19.307  1.00  0.00     0.173 A 
ATOM     77  C   UNL     1      -1.574 -14.840 -17.987  1.00  0.00     0.173 A 
ATOM     78  F   UNL     1      -0.463 -11.748 -19.552  1.00  0.00    -0.203 F 
ATOM     79  C   UNL     1      -0.121 -13.985 -20.196  1.00  0.00     0.198 A 
ATOM     80  C   UNL     1      -1.019 -15.769 -18.863  1.00  0.00     0.198 A 
ATOM     81  F   UNL     1      -2.273 -15.281 -16.931  1.00  0.00    -0.203 F 
ATOM     82  F   UNL     1       0.551 -13.569 -21.278  1.00  0.00    -0.200 F 
ATOM     83  C   UNL     1      -0.308 -15.341 -19.974  1.00  0.00     0.200 A 
ATOM     84  F   UNL     1      -1.183 -17.080 -18.637  1.00  0.00    -0.200 F 
ATOM     85  F   UNL     1       0.195 -16.237 -20.835  1.00  0.00    -0.200 F 
ENDBRANCH  61  75
BRANCH  62  86
ATOM     86  C   UNL     1      -6.140  -7.099 -12.132  1.00  0.00     0.064 A 
ATOM     87  C   UNL     1      -5.527  -5.953 -11.603  1.00  0.00     0.173 A 
ATOM     88  C   UNL     1      -7.492  -7.311 -11.822  1.00  0.00     0.173 A 
ATOM     89  F   UNL     1      -4.239  -5.694 -11.873  1.00  0.00    -0.203 F 
ATOM     90  C   UNL     1      -6.232  -5.066 -10.791  1.00  0.00     0.198 A 
ATOM     91  C   UNL     1      -8.205  -6.406 -11.039  1.00  0.00     0.198 A 
ATOM     92  F   UNL     1      -8.134  -8.376 -12.327  1.00  0.00    -0.203 F 
ATOM     93  F   UNL     1      -5.615  -3.991 -10.282  1.00  0.00    -0.200 F 
ATOM     94  C   UNL     1      -7.573  -5.287 -10.518  1.00  0.00     0.200 A 
ATOM     95  F   UNL     1      -9.510  -6.606 -10.809  1.00  0.00    -0.200 F 
ATOM     96  F   UNL     1      -8.259  -4.417  -9.765  1.00  0.00    -0.200 F 
ENDBRANCH  62  86
BRANCH  74  97
ATOM     97  C   UNL     1      -6.914  -8.913 -18.832  1.00  0.00     0.064 A 
ATOM     98  C   UNL     1      -7.865  -9.827 -19.314  1.00  0.00     0.173 A 
ATOM     99  C   UNL     1      -6.832  -7.661 -19.456  1.00  0.00     0.173 A 
ATOM    100  F   UNL     1      -7.975 -11.044 -18.760  1.00  0.00    -0.203 F 
ATOM    101  C   UNL     1      -8.679  -9.511 -20.398  1.00  0.00     0.198 A 
ATOM    102  C   UNL     1      -7.671  -7.335 -20.518  1.00  0.00     0.198 A 
ATOM    103  F   UNL     1      -5.947  -6.748 -19.026  1.00  0.00    -0.203 F 
ATOM    104  F   UNL     1      -9.544 -10.418 -20.872  1.00  0.00    -0.200 F 
ATOM    105  C   UNL     1      -8.584  -8.264 -20.997  1.00  0.00     0.200 A 
ATOM    106  F   UNL     1      -7.595  -6.122 -21.083  1.00  0.00    -0.200 F 
ATOM    107  F   UNL     1      -9.370  -7.959 -22.038  1.00  0.00    -0.200 F 
ENDBRANCH  74  97
ENDBRANCH  48  49
ENDBRANCH  41  43
ENDBRANCH  40  41
ENDBRANCH  39  40
ENDBRANCH  38  39
ENDBRANCH  37  38
ENDBRANCH  36  37
ENDBRANCH  35  36
ENDBRANCH  34  35
ENDBRANCH   1  34
TORSDOF 23
