REMARK SMILES O=C(CCC(=O)OCCOCCOCCOCCOC(=O)c1ccc(-c2c3nc(c(-c4c(F)c(F)c(F)c(F)c4F)c4ccc([nH]4)c(-c4c(F)c(F)c(F)c(F)c4F)c4nc(c(-c5c(F)c(F)c(F)c(F)c5F)c5ccc2[nH]5)C=C4)C=C3)cc1)/[NH+]=C1\S[C@H]2CS(=O)(=O)C[C@@H]2N1c1ccc2c(c1)OCO2
REMARK SMILES IDX 12 1 11 2 10 3 9 4 8 5 7 6 5 7 6 8 4 9 3 10 2 11 1 12 85 13
REMARK SMILES IDX 86 14 87 16 95 17 88 18 94 19 89 20 93 21 90 22 91 23 92 24
REMARK SMILES IDX 96 25 97 26 101 27 98 28 100 29 99 30 102 31 104 32 103 33
REMARK SMILES IDX 13 34 14 35 15 36 16 37 17 38 18 39 19 40 20 41 21 42 22 43
REMARK SMILES IDX 23 44 84 45 24 46 83 47 25 48 26 49 27 50 77 51 28 52 82 53
REMARK SMILES IDX 76 54 78 55 29 56 81 57 75 58 74 59 30 61 62 62 42 63 61 64
REMARK SMILES IDX 43 65 46 66 60 67 79 68 44 69 45 70 59 72 80 73 47 74 31 75
REMARK SMILES IDX 32 76 40 77 33 78 34 79 38 80 41 81 35 82 36 83 39 84 37 85
REMARK SMILES IDX 63 86 64 87 72 88 65 89 66 90 70 91 73 92 67 93 68 94 71 95
REMARK SMILES IDX 69 96 48 97 49 98 57 99 50 100 51 101 55 102 58 103 52 104
REMARK SMILES IDX 53 105 56 106 54 107
REMARK H PARENT 85 15 78 60 46 71
REMARK Flexibility Score: inf
ROOT
ATOM      1  C   UNL     1       6.209  -1.121  -1.566  1.00  0.00     0.188 C 
ENDROOT
BRANCH   1   2
ATOM      2  C   UNL     1       6.169   0.484  -1.883  1.00  0.00     0.188 C 
BRANCH   2   3
ATOM      3  O   UNL     1       6.930   1.295  -0.951  1.00  0.00    -0.376 OA
BRANCH   3   4
ATOM      4  C   UNL     1       6.805   2.736  -0.881  1.00  0.00     0.202 C 
BRANCH   4   5
ATOM      5  C   UNL     1       5.758   3.441   0.051  1.00  0.00     0.261 C 
BRANCH   5   6
ATOM      6  O   UNL     1       4.411   2.972   0.001  1.00  0.00    -0.463 OA
BRANCH   6   7
ATOM      7  C   UNL     1       3.810   2.945  -1.196  1.00  0.00     0.306 C 
ATOM      8  O   UNL     1       4.230   3.517  -2.191  1.00  0.00    -0.252 OA
BRANCH   7   9
ATOM      9  C   UNL     1       2.561   2.104  -1.159  1.00  0.00     0.135 C 
BRANCH   9  10
ATOM     10  C   UNL     1       2.567   0.893  -0.224  1.00  0.00     0.139 C 
BRANCH  10  11
ATOM     11  C   UNL     1       2.352   1.083   1.301  1.00  0.00     0.308 C 
ATOM     12  O   UNL     1       1.200   0.856   1.691  1.00  0.00    -0.247 OA
ATOM     13  N   UNL     1       3.300   1.466   2.259  1.00  0.00    -0.204 N 
ATOM     14  C   UNL     1       4.562   1.202   2.305  1.00  0.00     0.319 C 
ATOM     15  H   UNL     1       2.954   2.013   3.001  1.00  0.00     0.316 HD
ATOM     16  S   UNL     1       5.333   0.431   1.010  1.00  0.00    -0.029 SA
ATOM     17  N   UNL     1       5.550   1.417   3.288  1.00  0.00    -0.216 N 
ATOM     18  C   UNL     1       6.867   0.103   1.764  1.00  0.00     0.120 C 
ATOM     19  C   UNL     1       6.974   1.099   2.893  1.00  0.00     0.212 C 
ATOM     20  C   UNL     1       8.229   0.025   1.098  1.00  0.00     0.156 C 
ATOM     21  C   UNL     1       7.964   0.267   3.742  1.00  0.00     0.188 C 
ATOM     22  S   UNL     1       9.259  -0.160   2.536  1.00  0.00     0.155 S 
ATOM     23  O   UNL     1       9.621  -1.542   2.670  1.00  0.00    -0.229 OA
ATOM     24  O   UNL     1      10.242   0.917   2.524  1.00  0.00    -0.229 OA
BRANCH  17  25
ATOM     25  C   UNL     1       5.269   1.469   4.667  1.00  0.00     0.132 A 
ATOM     26  C   UNL     1       6.287   1.834   5.581  1.00  0.00     0.056 A 
ATOM     27  C   UNL     1       4.149   0.782   5.121  1.00  0.00     0.102 A 
ATOM     28  C   UNL     1       6.421   1.147   6.784  1.00  0.00     0.055 A 
ATOM     29  C   UNL     1       4.394   0.007   6.212  1.00  0.00     0.170 A 
ATOM     30  C   UNL     1       5.516   0.143   6.996  1.00  0.00     0.166 A 
ATOM     31  O   UNL     1       3.793  -1.195   6.395  1.00  0.00    -0.453 OA
ATOM     32  O   UNL     1       5.723  -0.961   7.766  1.00  0.00    -0.454 OA
ATOM     33  C   UNL     1       4.857  -1.876   7.068  1.00  0.00     0.468 C 
ENDBRANCH  17  25
ENDBRANCH  10  11
ENDBRANCH   9  10
ENDBRANCH   7   9
ENDBRANCH   6   7
ENDBRANCH   5   6
ENDBRANCH   4   5
ENDBRANCH   3   4
ENDBRANCH   2   3
ENDBRANCH   1   2
BRANCH   1  34
ATOM     34  O   UNL     1       5.082  -1.677  -0.857  1.00  0.00    -0.377 OA
BRANCH  34  35
ATOM     35  C   UNL     1       5.112  -2.515   0.322  1.00  0.00     0.188 C 
BRANCH  35  36
ATOM     36  C   UNL     1       6.351  -3.144   1.014  1.00  0.00     0.188 C 
BRANCH  36  37
ATOM     37  O   UNL     1       7.095  -4.145   0.352  1.00  0.00    -0.376 OA
BRANCH  37  38
ATOM     38  C   UNL     1       6.378  -4.921  -0.579  1.00  0.00     0.202 C 
BRANCH  38  39
ATOM     39  C   UNL     1       5.292  -5.867  -0.032  1.00  0.00     0.261 C 
BRANCH  39  40
ATOM     40  O   UNL     1       4.575  -5.436   1.150  1.00  0.00    -0.460 OA
BRANCH  40  41
ATOM     41  C   UNL     1       4.993  -5.961   2.332  1.00  0.00     0.338 C 
ATOM     42  O   UNL     1       5.936  -6.721   2.484  1.00  0.00    -0.246 OA
BRANCH  41  43
ATOM     43  C   UNL     1       4.202  -5.425   3.486  1.00  0.00     0.060 A 
ATOM     44  C   UNL     1       4.852  -5.277   4.715  1.00  0.00     0.016 A 
ATOM     45  C   UNL     1       2.832  -5.138   3.417  1.00  0.00     0.016 A 
ATOM     46  C   UNL     1       4.140  -4.869   5.856  1.00  0.00     0.010 A 
ATOM     47  C   UNL     1       2.116  -4.736   4.571  1.00  0.00     0.010 A 
ATOM     48  C   UNL     1       2.753  -4.605   5.814  1.00  0.00    -0.014 A 
BRANCH  48  49
ATOM     49  C   UNL     1       1.995  -4.394   7.104  1.00  0.00     0.031 A 
ATOM     50  C   UNL     1       1.942  -5.536   8.089  1.00  0.00     0.074 A 
ATOM     51  C   UNL     1       1.372  -3.245   7.453  1.00  0.00     0.049 A 
ATOM     52  N   UNL     1       1.474  -5.571   9.312  1.00  0.00    -0.248 NA
ATOM     53  C   UNL     1       2.462  -6.823   7.606  1.00  0.00     0.031 C 
ATOM     54  C   UNL     1       1.233  -2.070   6.606  1.00  0.00     0.029 A 
ATOM     55  N   UNL     1       0.788  -2.850   8.646  1.00  0.00    -0.354 N 
ATOM     56  C   UNL     1       1.626  -6.884   9.735  1.00  0.00     0.074 A 
ATOM     57  C   UNL     1       2.256  -7.607   8.650  1.00  0.00     0.031 C 
ATOM     58  C   UNL     1       0.750  -1.047   7.336  1.00  0.00     0.029 A 
ATOM     59  C   UNL     1       0.432  -1.514   8.683  1.00  0.00     0.049 A 
ATOM     60  H   UNL     1       0.640  -3.466   9.400  1.00  0.00     0.167 HD
ATOM     61  C   UNL     1       1.233  -7.464  10.895  1.00  0.00     0.037 A 
ATOM     62  C   UNL     1      -0.095  -0.757   9.675  1.00  0.00     0.037 A 
ATOM     63  C   UNL     1       0.499  -6.803  11.939  1.00  0.00     0.049 A 
ATOM     64  C   UNL     1      -0.528  -1.429  10.962  1.00  0.00     0.074 A 
ATOM     65  C   UNL     1      -0.007  -7.343  13.109  1.00  0.00     0.029 A 
ATOM     66  N   UNL     1       0.130  -5.468  11.924  1.00  0.00    -0.354 N 
ATOM     67  N   UNL     1      -0.343  -2.664  11.360  1.00  0.00    -0.248 NA
ATOM     68  C   UNL     1      -1.304  -0.613  11.914  1.00  0.00     0.031 C 
ATOM     69  C   UNL     1      -0.735  -6.350  13.772  1.00  0.00     0.029 A 
ATOM     70  C   UNL     1      -0.616  -5.171  13.055  1.00  0.00     0.049 A 
ATOM     71  H   UNL     1       0.362  -4.825  11.215  1.00  0.00     0.167 HD
ATOM     72  C   UNL     1      -0.984  -2.772  12.590  1.00  0.00     0.074 A 
ATOM     73  C   UNL     1      -1.519  -1.467  12.904  1.00  0.00     0.031 C 
ATOM     74  C   UNL     1      -1.139  -3.867  13.373  1.00  0.00     0.037 A 
BRANCH  61  75
ATOM     75  C   UNL     1       1.508  -8.933  11.024  1.00  0.00     0.064 A 
ATOM     76  C   UNL     1       2.812  -9.425  11.181  1.00  0.00     0.173 A 
ATOM     77  C   UNL     1       0.461  -9.860  10.918  1.00  0.00     0.173 A 
ATOM     78  F   UNL     1       3.849  -8.577  11.256  1.00  0.00    -0.203 F 
ATOM     79  C   UNL     1       3.062 -10.795  11.175  1.00  0.00     0.198 A 
ATOM     80  C   UNL     1       0.711 -11.228  10.947  1.00  0.00     0.198 A 
ATOM     81  F   UNL     1      -0.803  -9.439  10.761  1.00  0.00    -0.203 F 
ATOM     82  F   UNL     1       4.324 -11.243  11.240  1.00  0.00    -0.200 F 
ATOM     83  C   UNL     1       2.013 -11.694  11.059  1.00  0.00     0.200 A 
ATOM     84  F   UNL     1      -0.304 -12.095  10.839  1.00  0.00    -0.200 F 
ATOM     85  F   UNL     1       2.257 -13.011  11.033  1.00  0.00    -0.200 F 
ENDBRANCH  61  75
BRANCH  62  86
ATOM     86  C   UNL     1      -0.323   0.718   9.515  1.00  0.00     0.064 A 
ATOM     87  C   UNL     1       0.260   1.642  10.404  1.00  0.00     0.173 A 
ATOM     88  C   UNL     1      -1.202   1.236   8.552  1.00  0.00     0.173 A 
ATOM     89  F   UNL     1       1.069   1.212  11.384  1.00  0.00    -0.203 F 
ATOM     90  C   UNL     1      -0.047   3.004  10.349  1.00  0.00     0.198 A 
ATOM     91  C   UNL     1      -1.470   2.603   8.467  1.00  0.00     0.198 A 
ATOM     92  F   UNL     1      -1.825   0.410   7.699  1.00  0.00    -0.203 F 
ATOM     93  F   UNL     1       0.454   3.842  11.268  1.00  0.00    -0.200 F 
ATOM     94  C   UNL     1      -0.906   3.485   9.374  1.00  0.00     0.200 A 
ATOM     95  F   UNL     1      -2.302   3.062   7.521  1.00  0.00    -0.200 F 
ATOM     96  F   UNL     1      -1.210   4.789   9.327  1.00  0.00    -0.200 F 
ENDBRANCH  62  86
BRANCH  74  97
ATOM     97  C   UNL     1      -1.891  -3.712  14.666  1.00  0.00     0.064 A 
ATOM     98  C   UNL     1      -3.277  -3.493  14.699  1.00  0.00     0.173 A 
ATOM     99  C   UNL     1      -1.224  -3.855  15.893  1.00  0.00     0.173 A 
ATOM    100  F   UNL     1      -3.965  -3.338  13.558  1.00  0.00    -0.203 F 
ATOM    101  C   UNL     1      -3.962  -3.404  15.910  1.00  0.00     0.198 A 
ATOM    102  C   UNL     1      -1.917  -3.799  17.100  1.00  0.00     0.198 A 
ATOM    103  F   UNL     1       0.099  -4.073  15.921  1.00  0.00    -0.203 F 
ATOM    104  F   UNL     1      -5.279  -3.155  15.918  1.00  0.00    -0.200 F 
ATOM    105  C   UNL     1      -3.283  -3.567  17.108  1.00  0.00     0.200 A 
ATOM    106  F   UNL     1      -1.261  -3.975  18.256  1.00  0.00    -0.200 F 
ATOM    107  F   UNL     1      -3.946  -3.499  18.271  1.00  0.00    -0.200 F 
ENDBRANCH  74  97
ENDBRANCH  48  49
ENDBRANCH  41  43
ENDBRANCH  40  41
ENDBRANCH  39  40
ENDBRANCH  38  39
ENDBRANCH  37  38
ENDBRANCH  36  37
ENDBRANCH  35  36
ENDBRANCH  34  35
ENDBRANCH   1  34
TORSDOF 23
