REMARK SMILES Cc1cc(NC(=O)N2CCO[C@@H](CC(=O)OCCOCCOCCOCCOC(=O)c3ccc(-c4c5nc(c(-c6c(F)c(F)c(F)c(F)c6F)c6ccc([nH]6)c(-c6c(F)c(F)c(F)c(F)c6F)c6nc(c(-c7c(F)c(F)c(F)c(F)c7F)c7ccc4[nH]7)C=C6)C=C5)cc3)C2)ccc1F
REMARK SMILES IDX 21 1 20 2 19 3 18 4 17 5 16 6 14 7 15 8 13 9 12 10 8 11 9 12
REMARK SMILES IDX 94 13 10 14 11 15 6 16 5 17 7 19 4 20 1 21 2 22 3 23 97 24
REMARK SMILES IDX 96 25 98 26 95 27 22 28 23 29 24 30 25 31 26 32 27 33 28 34
REMARK SMILES IDX 29 35 30 36 31 37 32 38 93 39 33 40 92 41 34 42 35 43 36 44
REMARK SMILES IDX 86 45 37 46 91 47 85 48 87 49 38 50 90 51 84 52 83 53 39 55
REMARK SMILES IDX 71 56 51 57 70 58 52 59 55 60 69 61 88 62 53 63 54 64 68 66
REMARK SMILES IDX 89 67 56 68 40 69 41 70 49 71 42 72 43 73 47 74 50 75 44 76
REMARK SMILES IDX 45 77 48 78 46 79 72 80 73 81 81 82 74 83 75 84 79 85 82 86
REMARK SMILES IDX 76 87 77 88 80 89 78 90 57 91 58 92 66 93 59 94 60 95 64 96
REMARK SMILES IDX 67 97 61 98 62 99 65 100 63 101
REMARK H PARENT 5 18 87 54 55 65
REMARK Flexibility Score: inf
ROOT
ATOM      1  C   UNL     1      -5.079  -3.819  -3.536  1.00  0.00     0.188 C 
ENDROOT
BRANCH   1   2
ATOM      2  C   UNL     1      -6.168  -4.747  -4.092  1.00  0.00     0.188 C 
BRANCH   2   3
ATOM      3  O   UNL     1      -7.276  -4.047  -4.620  1.00  0.00    -0.376 OA
BRANCH   3   4
ATOM      4  C   UNL     1      -8.497  -4.106  -3.909  1.00  0.00     0.202 C 
BRANCH   4   5
ATOM      5  C   UNL     1      -8.575  -3.756  -2.407  1.00  0.00     0.261 C 
BRANCH   5   6
ATOM      6  O   UNL     1      -7.368  -3.803  -1.623  1.00  0.00    -0.463 OA
BRANCH   6   7
ATOM      7  C   UNL     1      -7.160  -4.931  -0.916  1.00  0.00     0.308 C 
ATOM      8  O   UNL     1      -7.853  -5.939  -1.028  1.00  0.00    -0.252 OA
BRANCH   7   9
ATOM      9  C   UNL     1      -6.012  -4.879   0.063  1.00  0.00     0.156 C 
BRANCH   9  10
ATOM     10  C   UNL     1      -4.991  -3.743   0.140  1.00  0.00     0.149 C 
ATOM     11  N   UNL     1      -4.411  -1.382   0.576  1.00  0.00    -0.320 N 
ATOM     12  C   UNL     1      -3.525  -1.797   1.667  1.00  0.00     0.150 C 
ATOM     13  C   UNL     1      -5.533  -2.314   0.347  1.00  0.00     0.154 C 
ATOM     14  C   UNL     1      -3.041  -3.229   1.448  1.00  0.00     0.182 C 
ATOM     15  O   UNL     1      -4.149  -4.118   1.274  1.00  0.00    -0.374 OA
BRANCH  11  16
ATOM     16  C   UNL     1      -4.458  -0.111   0.055  1.00  0.00     0.322 C 
ATOM     17  N   UNL     1      -3.326   0.654   0.014  1.00  0.00    -0.308 N 
ATOM     18  H   UNL     1      -3.480   1.615   0.161  1.00  0.00     0.171 HD
ATOM     19  O   UNL     1      -5.512   0.406  -0.320  1.00  0.00    -0.248 OA
BRANCH  17  20
ATOM     20  C   UNL     1      -1.979   0.307  -0.201  1.00  0.00     0.043 A 
ATOM     21  C   UNL     1       1.430   1.986   0.208  1.00  0.00     0.047 C 
ATOM     22  C   UNL     1       0.366   0.973  -0.089  1.00  0.00    -0.013 A 
ATOM     23  C   UNL     1      -0.998   1.277   0.055  1.00  0.00     0.032 A 
ATOM     24  C   UNL     1       0.727  -0.317  -0.480  1.00  0.00     0.126 A 
ATOM     25  C   UNL     1      -0.235  -1.266  -0.801  1.00  0.00     0.041 A 
ATOM     26  F   UNL     1       2.022  -0.653  -0.563  1.00  0.00    -0.207 F 
ATOM     27  C   UNL     1      -1.588  -0.939  -0.695  1.00  0.00     0.029 A 
ENDBRANCH  17  20
ENDBRANCH  11  16
ENDBRANCH   9  10
ENDBRANCH   7   9
ENDBRANCH   6   7
ENDBRANCH   5   6
ENDBRANCH   4   5
ENDBRANCH   3   4
ENDBRANCH   2   3
ENDBRANCH   1   2
BRANCH   1  28
ATOM     28  O   UNL     1      -5.424  -2.490  -3.175  1.00  0.00    -0.377 OA
BRANCH  28  29
ATOM     29  C   UNL     1      -6.127  -1.685  -4.122  1.00  0.00     0.188 C 
BRANCH  29  30
ATOM     30  C   UNL     1      -5.869  -1.837  -5.647  1.00  0.00     0.188 C 
BRANCH  30  31
ATOM     31  O   UNL     1      -4.859  -2.769  -6.029  1.00  0.00    -0.376 OA
BRANCH  31  32
ATOM     32  C   UNL     1      -3.615  -2.234  -6.474  1.00  0.00     0.202 C 
BRANCH  32  33
ATOM     33  C   UNL     1      -2.718  -1.685  -5.354  1.00  0.00     0.261 C 
BRANCH  33  34
ATOM     34  O   UNL     1      -3.368  -0.669  -4.600  1.00  0.00    -0.460 OA
BRANCH  34  35
ATOM     35  C   UNL     1      -3.701   0.391  -5.332  1.00  0.00     0.338 C 
ATOM     36  O   UNL     1      -3.368   0.652  -6.502  1.00  0.00    -0.246 OA
BRANCH  35  37
ATOM     37  C   UNL     1      -4.551   1.274  -4.558  1.00  0.00     0.060 A 
ATOM     38  C   UNL     1      -5.549   1.935  -5.296  1.00  0.00     0.016 A 
ATOM     39  C   UNL     1      -3.873   1.840  -3.486  1.00  0.00     0.016 A 
ATOM     40  C   UNL     1      -5.573   3.302  -5.241  1.00  0.00     0.010 A 
ATOM     41  C   UNL     1      -3.865   3.199  -3.461  1.00  0.00     0.010 A 
ATOM     42  C   UNL     1      -4.614   3.890  -4.430  1.00  0.00    -0.014 A 
BRANCH  42  43
ATOM     43  C   UNL     1      -4.178   5.242  -4.629  1.00  0.00     0.031 A 
ATOM     44  C   UNL     1      -4.742   6.253  -3.748  1.00  0.00     0.074 A 
ATOM     45  C   UNL     1      -3.106   5.413  -5.431  1.00  0.00     0.049 A 
ATOM     46  N   UNL     1      -4.618   7.513  -3.936  1.00  0.00    -0.248 NA
ATOM     47  C   UNL     1      -5.554   5.908  -2.585  1.00  0.00     0.031 C 
ATOM     48  C   UNL     1      -2.156   6.515  -5.430  1.00  0.00     0.029 A 
ATOM     49  N   UNL     1      -2.743   4.634  -6.542  1.00  0.00    -0.354 N 
ATOM     50  C   UNL     1      -5.025   8.129  -2.778  1.00  0.00     0.074 A 
ATOM     51  C   UNL     1      -5.697   7.105  -2.014  1.00  0.00     0.031 C 
ATOM     52  C   UNL     1      -1.480   6.506  -6.592  1.00  0.00     0.029 A 
ATOM     53  C   UNL     1      -2.116   5.515  -7.447  1.00  0.00     0.049 A 
ATOM     54  H   UNL     1      -2.895   3.669  -6.664  1.00  0.00     0.167 HD
ATOM     55  C   UNL     1      -4.576   9.393  -2.549  1.00  0.00     0.037 A 
ATOM     56  C   UNL     1      -2.715   5.817  -8.638  1.00  0.00     0.037 A 
ATOM     57  C   UNL     1      -3.795   9.864  -3.694  1.00  0.00     0.049 A 
ATOM     58  C   UNL     1      -3.081   7.280  -8.751  1.00  0.00     0.074 A 
ATOM     59  C   UNL     1      -2.432   9.880  -3.949  1.00  0.00     0.029 A 
ATOM     60  N   UNL     1      -4.424  10.017  -4.926  1.00  0.00    -0.354 N 
ATOM     61  N   UNL     1      -3.377   8.045  -7.735  1.00  0.00    -0.248 NA
ATOM     62  C   UNL     1      -3.098   7.997 -10.020  1.00  0.00     0.031 C 
ATOM     63  C   UNL     1      -2.246  10.032  -5.347  1.00  0.00     0.029 A 
ATOM     64  C   UNL     1      -3.494  10.117  -5.941  1.00  0.00     0.049 A 
ATOM     65  H   UNL     1      -5.399  10.050  -5.056  1.00  0.00     0.167 HD
ATOM     66  C   UNL     1      -3.598   9.326  -8.178  1.00  0.00     0.074 A 
ATOM     67  C   UNL     1      -3.407   9.241  -9.615  1.00  0.00     0.031 C 
ATOM     68  C   UNL     1      -3.906  10.347  -7.320  1.00  0.00     0.037 A 
BRANCH  55  69
ATOM     69  C   UNL     1      -4.567  10.045  -1.190  1.00  0.00     0.064 A 
ATOM     70  C   UNL     1      -3.567  10.984  -0.856  1.00  0.00     0.173 A 
ATOM     71  C   UNL     1      -5.476   9.759  -0.154  1.00  0.00     0.173 A 
ATOM     72  F   UNL     1      -2.684  11.421  -1.762  1.00  0.00    -0.203 F 
ATOM     73  C   UNL     1      -3.430  11.511   0.429  1.00  0.00     0.198 A 
ATOM     74  C   UNL     1      -5.308  10.244   1.147  1.00  0.00     0.198 A 
ATOM     75  F   UNL     1      -6.587   9.048  -0.376  1.00  0.00    -0.203 F 
ATOM     76  F   UNL     1      -2.456  12.396   0.683  1.00  0.00    -0.200 F 
ATOM     77  C   UNL     1      -4.281  11.116   1.440  1.00  0.00     0.200 A 
ATOM     78  F   UNL     1      -6.155   9.861   2.113  1.00  0.00    -0.200 F 
ATOM     79  F   UNL     1      -4.128  11.594   2.682  1.00  0.00    -0.200 F 
ENDBRANCH  55  69
BRANCH  56  80
ATOM     80  C   UNL     1      -3.518   4.689  -9.188  1.00  0.00     0.064 A 
ATOM     81  C   UNL     1      -2.839   3.534  -9.624  1.00  0.00     0.173 A 
ATOM     82  C   UNL     1      -4.888   4.568  -8.922  1.00  0.00     0.173 A 
ATOM     83  F   UNL     1      -1.527   3.597  -9.906  1.00  0.00    -0.203 F 
ATOM     84  C   UNL     1      -3.474   2.293  -9.681  1.00  0.00     0.198 A 
ATOM     85  C   UNL     1      -5.521   3.322  -8.977  1.00  0.00     0.198 A 
ATOM     86  F   UNL     1      -5.596   5.628  -8.506  1.00  0.00    -0.203 F 
ATOM     87  F   UNL     1      -2.779   1.199 -10.026  1.00  0.00    -0.200 F 
ATOM     88  C   UNL     1      -4.808   2.183  -9.325  1.00  0.00     0.200 A 
ATOM     89  F   UNL     1      -6.809   3.212  -8.620  1.00  0.00    -0.200 F 
ATOM     90  F   UNL     1      -5.404   0.982  -9.295  1.00  0.00    -0.200 F 
ENDBRANCH  56  80
BRANCH  68  91
ATOM     91  C   UNL     1      -4.514  11.696  -7.669  1.00  0.00     0.064 A 
ATOM     92  C   UNL     1      -5.124  12.004  -8.896  1.00  0.00     0.173 A 
ATOM     93  C   UNL     1      -4.637  12.710  -6.678  1.00  0.00     0.173 A 
ATOM     94  F   UNL     1      -5.206  11.111  -9.888  1.00  0.00    -0.203 F 
ATOM     95  C   UNL     1      -5.743  13.236  -9.134  1.00  0.00     0.198 A 
ATOM     96  C   UNL     1      -5.321  13.905  -6.895  1.00  0.00     0.198 A 
ATOM     97  F   UNL     1      -4.128  12.571  -5.446  1.00  0.00    -0.203 F 
ATOM     98  F   UNL     1      -6.262  13.490 -10.343  1.00  0.00    -0.200 F 
ATOM     99  C   UNL     1      -5.858  14.178  -8.131  1.00  0.00     0.200 A 
ATOM    100  F   UNL     1      -5.474  14.775  -5.886  1.00  0.00    -0.200 F 
ATOM    101  F   UNL     1      -6.502  15.332  -8.349  1.00  0.00    -0.200 F 
ENDBRANCH  68  91
ENDBRANCH  42  43
ENDBRANCH  35  37
ENDBRANCH  34  35
ENDBRANCH  33  34
ENDBRANCH  32  33
ENDBRANCH  31  32
ENDBRANCH  30  31
ENDBRANCH  29  30
ENDBRANCH  28  29
ENDBRANCH   1  28
TORSDOF 23
