REMARK SMILES O=C(OCCOCCOCCOCCOC(=O)c1c(S(=O)(=O)N2CCO[C@@H](CCO)C2)sc2c1CC[NH2+]C2)c1ccc(-c2c3nc(c(-c4c(F)c(F)c(F)c(F)c4F)c4ccc([nH]4)c(-c4c(F)c(F)c(F)c(F)c4F)c4nc(c(-c5c(F)c(F)c(F)c(F)c5F)c5ccc2[nH]5)C=C4)C=C3)cc1
REMARK SMILES IDX 10 1 9 2 8 3 7 4 6 5 5 6 4 7 3 8 2 9 1 10 39 11 40 12 101 13
REMARK SMILES IDX 41 14 100 15 42 16 43 17 44 18 94 19 45 20 99 21 93 22 95 23
REMARK SMILES IDX 46 24 98 25 92 26 91 27 47 29 79 30 59 31 78 32 60 33 63 34
REMARK SMILES IDX 77 35 96 36 61 37 62 38 76 40 97 41 64 42 48 43 49 44 57 45
REMARK SMILES IDX 50 46 51 47 55 48 58 49 52 50 53 51 56 52 54 53 80 54 81 55
REMARK SMILES IDX 89 56 82 57 83 58 87 59 90 60 84 61 85 62 88 63 86 64 65 65
REMARK SMILES IDX 66 66 74 67 67 68 68 69 72 70 75 71 69 72 70 73 73 74 71 75
REMARK SMILES IDX 11 76 12 77 13 78 14 79 15 80 16 81 17 82 18 83 19 84 34 85
REMARK SMILES IDX 32 86 33 87 35 88 38 89 36 90 37 91 20 94 21 95 22 96 23 97
REMARK SMILES IDX 24 98 31 99 25 100 27 101 26 102 28 103 29 104 30 105
REMARK H PARENT 95 28 63 39 37 92 37 93 30 106
REMARK Flexibility Score: inf
ROOT
ATOM      1  C   UNL     1       3.825   3.156   1.093  1.00  0.00     0.188 C 
ENDROOT
BRANCH   1   2
ATOM      2  O   UNL     1       2.551   2.704   1.502  1.00  0.00    -0.377 OA
BRANCH   2   3
ATOM      3  C   UNL     1       2.191   1.418   1.038  1.00  0.00     0.188 C 
BRANCH   3   4
ATOM      4  C   UNL     1       3.017   0.296   1.673  1.00  0.00     0.188 C 
BRANCH   4   5
ATOM      5  O   UNL     1       3.838  -0.503   0.820  1.00  0.00    -0.376 OA
BRANCH   5   6
ATOM      6  C   UNL     1       4.824   0.080  -0.006  1.00  0.00     0.202 C 
BRANCH   6   7
ATOM      7  C   UNL     1       4.490   0.071  -1.503  1.00  0.00     0.261 C 
BRANCH   7   8
ATOM      8  O   UNL     1       3.123   0.340  -1.858  1.00  0.00    -0.460 OA
BRANCH   8   9
ATOM      9  C   UNL     1       2.014  -0.413  -1.669  1.00  0.00     0.338 C 
ATOM     10  O   UNL     1       0.929   0.019  -2.059  1.00  0.00    -0.246 OA
BRANCH   9  11
ATOM     11  C   UNL     1       2.005  -1.698  -0.922  1.00  0.00     0.060 A 
ATOM     12  C   UNL     1       3.078  -2.591  -0.883  1.00  0.00     0.016 A 
ATOM     13  C   UNL     1       0.807  -2.035  -0.260  1.00  0.00     0.016 A 
ATOM     14  C   UNL     1       2.957  -3.808  -0.242  1.00  0.00     0.010 A 
ATOM     15  C   UNL     1       0.664  -3.274   0.351  1.00  0.00     0.010 A 
ATOM     16  C   UNL     1       1.725  -4.177   0.288  1.00  0.00    -0.014 A 
BRANCH  16  17
ATOM     17  C   UNL     1       1.562  -5.601   0.535  1.00  0.00     0.031 A 
ATOM     18  C   UNL     1       2.313  -6.213   1.662  1.00  0.00     0.074 A 
ATOM     19  C   UNL     1       0.790  -6.319  -0.304  1.00  0.00     0.049 A 
ATOM     20  N   UNL     1       3.098  -7.246   1.640  1.00  0.00    -0.248 NA
ATOM     21  C   UNL     1       2.199  -5.572   2.979  1.00  0.00     0.031 C 
ATOM     22  C   UNL     1      -0.142  -5.812  -1.320  1.00  0.00     0.029 A 
ATOM     23  N   UNL     1       0.603  -7.665  -0.353  1.00  0.00    -0.354 N 
ATOM     24  C   UNL     1       3.453  -7.486   2.966  1.00  0.00     0.074 A 
ATOM     25  C   UNL     1       2.940  -6.382   3.736  1.00  0.00     0.031 C 
ATOM     26  C   UNL     1      -0.958  -6.813  -1.706  1.00  0.00     0.029 A 
ATOM     27  C   UNL     1      -0.523  -8.039  -1.063  1.00  0.00     0.049 A 
ATOM     28  H   UNL     1       1.210  -8.311   0.076  1.00  0.00     0.167 HD
ATOM     29  C   UNL     1       3.981  -8.674   3.370  1.00  0.00     0.037 A 
ATOM     30  C   UNL     1      -1.126  -9.248  -1.038  1.00  0.00     0.037 A 
ATOM     31  C   UNL     1       4.657  -9.356   2.302  1.00  0.00     0.049 A 
ATOM     32  C   UNL     1      -0.140 -10.243  -0.556  1.00  0.00     0.074 A 
ATOM     33  C   UNL     1       5.742  -9.063   1.497  1.00  0.00     0.029 A 
ATOM     34  N   UNL     1       4.072 -10.456   1.730  1.00  0.00    -0.354 N 
ATOM     35  N   UNL     1       0.905 -10.631  -1.233  1.00  0.00    -0.248 NA
ATOM     36  C   UNL     1      -0.097 -10.524   0.872  1.00  0.00     0.031 C 
ATOM     37  C   UNL     1       5.463  -9.688   0.247  1.00  0.00     0.029 A 
ATOM     38  C   UNL     1       4.230 -10.327   0.375  1.00  0.00     0.049 A 
ATOM     39  H   UNL     1       3.624 -11.195   2.201  1.00  0.00     0.167 HD
ATOM     40  C   UNL     1       1.892 -10.830  -0.280  1.00  0.00     0.074 A 
ATOM     41  C   UNL     1       1.189 -10.859   0.998  1.00  0.00     0.031 C 
ATOM     42  C   UNL     1       3.213 -10.675  -0.586  1.00  0.00     0.037 A 
BRANCH  29  43
ATOM     43  C   UNL     1       3.602  -9.357   4.663  1.00  0.00     0.064 A 
ATOM     44  C   UNL     1       4.284 -10.524   5.063  1.00  0.00     0.173 A 
ATOM     45  C   UNL     1       2.403  -9.087   5.359  1.00  0.00     0.173 A 
ATOM     46  F   UNL     1       5.424 -10.892   4.458  1.00  0.00    -0.203 F 
ATOM     47  C   UNL     1       3.761 -11.394   6.025  1.00  0.00     0.198 A 
ATOM     48  C   UNL     1       1.911  -9.930   6.355  1.00  0.00     0.198 A 
ATOM     49  F   UNL     1       1.607  -8.061   5.033  1.00  0.00    -0.203 F 
ATOM     50  F   UNL     1       4.380 -12.555   6.279  1.00  0.00    -0.200 F 
ATOM     51  C   UNL     1       2.571 -11.100   6.664  1.00  0.00     0.200 A 
ATOM     52  F   UNL     1       0.747  -9.636   6.952  1.00  0.00    -0.200 F 
ATOM     53  F   UNL     1       2.035 -11.963   7.537  1.00  0.00    -0.200 F 
ENDBRANCH  29  43
BRANCH  30  54
ATOM     54  C   UNL     1      -2.583  -9.488  -1.087  1.00  0.00     0.064 A 
ATOM     55  C   UNL     1      -3.103 -10.743  -1.427  1.00  0.00     0.173 A 
ATOM     56  C   UNL     1      -3.500  -8.543  -0.578  1.00  0.00     0.173 A 
ATOM     57  F   UNL     1      -2.287 -11.714  -1.861  1.00  0.00    -0.203 F 
ATOM     58  C   UNL     1      -4.461 -11.035  -1.270  1.00  0.00     0.198 A 
ATOM     59  C   UNL     1      -4.856  -8.829  -0.440  1.00  0.00     0.198 A 
ATOM     60  F   UNL     1      -3.085  -7.353  -0.121  1.00  0.00    -0.203 F 
ATOM     61  F   UNL     1      -4.917 -12.263  -1.556  1.00  0.00    -0.200 F 
ATOM     62  C   UNL     1      -5.336 -10.079  -0.777  1.00  0.00     0.200 A 
ATOM     63  F   UNL     1      -5.681  -7.905   0.072  1.00  0.00    -0.200 F 
ATOM     64  F   UNL     1      -6.629 -10.374  -0.589  1.00  0.00    -0.200 F 
ENDBRANCH  30  54
BRANCH  42  65
ATOM     65  C   UNL     1       3.582 -10.553  -2.035  1.00  0.00     0.064 A 
ATOM     66  C   UNL     1       3.190  -9.468  -2.837  1.00  0.00     0.173 A 
ATOM     67  C   UNL     1       4.477 -11.477  -2.587  1.00  0.00     0.173 A 
ATOM     68  F   UNL     1       2.428  -8.486  -2.340  1.00  0.00    -0.203 F 
ATOM     69  C   UNL     1       3.634  -9.345  -4.152  1.00  0.00     0.198 A 
ATOM     70  C   UNL     1       4.947 -11.334  -3.891  1.00  0.00     0.198 A 
ATOM     71  F   UNL     1       4.939 -12.495  -1.843  1.00  0.00    -0.203 F 
ATOM     72  F   UNL     1       3.240  -8.304  -4.901  1.00  0.00    -0.200 F 
ATOM     73  C   UNL     1       4.516 -10.275  -4.676  1.00  0.00     0.200 A 
ATOM     74  F   UNL     1       5.843 -12.204  -4.377  1.00  0.00    -0.200 F 
ATOM     75  F   UNL     1       4.978 -10.135  -5.926  1.00  0.00    -0.200 F 
ENDBRANCH  42  65
ENDBRANCH  16  17
ENDBRANCH   9  11
ENDBRANCH   8   9
ENDBRANCH   7   8
ENDBRANCH   6   7
ENDBRANCH   5   6
ENDBRANCH   4   5
ENDBRANCH   3   4
ENDBRANCH   2   3
ENDBRANCH   1   2
BRANCH   1  76
ATOM     76  C   UNL     1       4.928   2.978   2.162  1.00  0.00     0.188 C 
BRANCH  76  77
ATOM     77  O   UNL     1       4.593   2.947   3.543  1.00  0.00    -0.376 OA
BRANCH  77  78
ATOM     78  C   UNL     1       3.503   3.720   4.020  1.00  0.00     0.202 C 
BRANCH  78  79
ATOM     79  C   UNL     1       3.643   5.244   3.937  1.00  0.00     0.261 C 
BRANCH  79  80
ATOM     80  O   UNL     1       3.748   5.738   2.594  1.00  0.00    -0.460 OA
BRANCH  80  81
ATOM     81  C   UNL     1       4.976   6.163   2.152  1.00  0.00     0.340 C 
ATOM     82  O   UNL     1       5.992   6.189   2.808  1.00  0.00    -0.246 OA
BRANCH  81  83
ATOM     83  C   UNL     1       4.941   6.372   0.699  1.00  0.00     0.095 A 
ATOM     84  C   UNL     1       3.957   7.141   0.092  1.00  0.00     0.150 A 
ATOM     85  C   UNL     1       5.840   5.822  -0.299  1.00  0.00    -0.007 A 
ATOM     86  S   UNL     1       3.901   6.842  -1.590  1.00  0.00    -0.120 S 
ATOM     87  C   UNL     1       5.477   6.231  -1.568  1.00  0.00     0.064 A 
ATOM     88  C   UNL     1       7.008   4.887  -0.146  1.00  0.00     0.099 C 
ATOM     89  C   UNL     1       6.319   6.070  -2.792  1.00  0.00     0.308 C 
ATOM     90  C   UNL     1       7.881   4.823  -1.427  1.00  0.00     0.265 C 
ATOM     91  N   UNL     1       7.117   4.839  -2.693  1.00  0.00    -0.342 N 
ATOM     92  H   UNL     1       6.494   4.031  -2.720  1.00  0.00     0.346 HD
ATOM     93  H   UNL     1       7.771   4.803  -3.475  1.00  0.00     0.346 HD
BRANCH  84  94
ATOM     94  S   UNL     1       2.768   8.297   0.734  1.00  0.00     0.253 S 
ATOM     95  O   UNL     1       1.472   7.739   0.426  1.00  0.00    -0.206 OA
ATOM     96  O   UNL     1       3.193   8.511   2.104  1.00  0.00    -0.206 OA
BRANCH  94  97
ATOM     97  N   UNL     1       2.943   9.777  -0.062  1.00  0.00    -0.192 NA
ATOM     98  C   UNL     1       2.272  10.041  -1.358  1.00  0.00     0.131 C 
ATOM     99  C   UNL     1       4.218  10.521   0.098  1.00  0.00     0.134 C 
ATOM    100  C   UNL     1       3.238  10.104  -2.555  1.00  0.00     0.177 C 
ATOM    101  C   UNL     1       5.121  10.259  -1.115  1.00  0.00     0.135 C 
ATOM    102  O   UNL     1       4.473  10.788  -2.290  1.00  0.00    -0.375 OA
BRANCH 101 103
ATOM    103  C   UNL     1       6.525  10.858  -1.010  1.00  0.00     0.061 C 
BRANCH 103 104
ATOM    104  C   UNL     1       7.238  10.544   0.301  1.00  0.00     0.159 C 
BRANCH 104 105
ATOM    105  O   UNL     1       7.032   9.184   0.657  1.00  0.00    -0.396 OA
ATOM    106  H   UNL     1       6.082   9.020   0.769  1.00  0.00     0.210 HD
ENDBRANCH 104 105
ENDBRANCH 103 104
ENDBRANCH 101 103
ENDBRANCH  94  97
ENDBRANCH  84  94
ENDBRANCH  81  83
ENDBRANCH  80  81
ENDBRANCH  79  80
ENDBRANCH  78  79
ENDBRANCH  77  78
ENDBRANCH  76  77
ENDBRANCH   1  76
TORSDOF 25
