REMARK SMILES CCCc1nnsc1C(=O)NC[C@@H]1CC[C@@H](C(=O)OCCOCCOCCOCCOC(=O)c2ccc(-c3c4nc(c(-c5c(F)c(F)c(F)c(F)c5F)c5ccc([nH]5)c(-c5c(F)c(F)c(F)c(F)c5F)c5nc(c(-c6c(F)c(F)c(F)c(F)c6F)c6ccc3[nH]6)C=C5)C=C4)cc2)O1
REMARK SMILES IDX 23 1 22 2 21 3 20 4 19 5 17 6 18 7 16 8 13 9 14 10 97 11
REMARK SMILES IDX 15 12 12 13 11 14 9 15 10 16 8 18 4 19 5 20 6 21 7 22 3 23
REMARK SMILES IDX 2 24 1 25 24 26 25 27 26 28 27 29 28 30 29 31 30 32 31 33
REMARK SMILES IDX 32 34 33 35 34 36 35 37 96 38 36 39 95 40 37 41 38 42 39 43
REMARK SMILES IDX 89 44 40 45 94 46 88 47 90 48 41 49 93 50 87 51 86 52 42 54
REMARK SMILES IDX 74 55 54 56 73 57 55 58 58 59 72 60 91 61 56 62 57 63 71 65
REMARK SMILES IDX 92 66 59 67 43 68 44 69 52 70 45 71 46 72 50 73 53 74 47 75
REMARK SMILES IDX 48 76 51 77 49 78 75 79 76 80 84 81 77 82 78 83 82 84 85 85
REMARK SMILES IDX 79 86 80 87 83 88 81 89 60 90 61 91 69 92 62 93 63 94 67 95
REMARK SMILES IDX 70 96 64 97 65 98 68 99 66 100
REMARK H PARENT 11 17 90 53 58 64
REMARK Flexibility Score: inf
ROOT
ATOM      1  C   UNL     1      -0.835   3.869   4.258  1.00  0.00     0.188 C 
ENDROOT
BRANCH   1   2
ATOM      2  O   UNL     1      -1.815   4.420   5.106  1.00  0.00    -0.376 OA
BRANCH   2   3
ATOM      3  C   UNL     1      -3.203   4.192   4.997  1.00  0.00     0.202 C 
BRANCH   3   4
ATOM      4  C   UNL     1      -3.886   3.122   4.128  1.00  0.00     0.261 C 
BRANCH   4   5
ATOM      5  O   UNL     1      -3.083   2.050   3.619  1.00  0.00    -0.461 OA
BRANCH   5   6
ATOM      6  C   UNL     1      -2.790   2.138   2.292  1.00  0.00     0.335 C 
ATOM      7  O   UNL     1      -3.190   3.049   1.572  1.00  0.00    -0.249 OA
BRANCH   6   8
ATOM      8  C   UNL     1      -1.814   1.060   1.768  1.00  0.00     0.228 C 
ATOM      9  C   UNL     1       0.497   0.548   1.740  1.00  0.00     0.138 C 
ATOM     10  C   UNL     1      -0.291  -0.749   1.849  1.00  0.00     0.037 C 
ATOM     11  O   UNL     1      -0.485   1.582   1.520  1.00  0.00    -0.361 OA
ATOM     12  C   UNL     1      -1.625  -0.286   2.439  1.00  0.00     0.047 C 
BRANCH   9  13
ATOM     13  C   UNL     1       1.701   0.686   0.760  1.00  0.00     0.148 C 
BRANCH  13  14
ATOM     14  N   UNL     1       1.790  -0.247  -0.356  1.00  0.00    -0.349 N 
ATOM     15  C   UNL     1       2.037  -0.167  -1.710  1.00  0.00     0.265 C 
ATOM     16  O   UNL     1       2.623  -1.185  -2.108  1.00  0.00    -0.268 OA
ATOM     17  H   UNL     1       1.633  -1.175  -0.069  1.00  0.00     0.163 HD
BRANCH  15  18
ATOM     18  C   UNL     1       1.624   0.873  -2.642  1.00  0.00     0.136 A 
ATOM     19  C   UNL     1       0.914   2.074  -2.668  1.00  0.00     0.088 A 
ATOM     20  N   UNL     1       0.672   2.606  -3.939  1.00  0.00    -0.142 NA
ATOM     21  N   UNL     1       1.140   1.846  -4.902  1.00  0.00    -0.090 NA
ATOM     22  S   UNL     1       1.929   0.506  -4.329  1.00  0.00    -0.006 S 
BRANCH  19  23
ATOM     23  C   UNL     1       0.226   2.811  -1.585  1.00  0.00     0.060 C 
BRANCH  23  24
ATOM     24  C   UNL     1      -1.202   2.315  -1.366  1.00  0.00     0.003 C 
ATOM     25  C   UNL     1      -1.396   0.807  -1.514  1.00  0.00     0.004 C 
ENDBRANCH  23  24
ENDBRANCH  19  23
ENDBRANCH  15  18
ENDBRANCH  13  14
ENDBRANCH   9  13
ENDBRANCH   6   8
ENDBRANCH   5   6
ENDBRANCH   4   5
ENDBRANCH   3   4
ENDBRANCH   2   3
ENDBRANCH   1   2
BRANCH   1  26
ATOM     26  C   UNL     1      -0.353   2.430   4.543  1.00  0.00     0.188 C 
BRANCH  26  27
ATOM     27  O   UNL     1      -0.280   1.805   5.811  1.00  0.00    -0.377 OA
BRANCH  27  28
ATOM     28  C   UNL     1      -1.089   2.326   6.841  1.00  0.00     0.188 C 
BRANCH  28  29
ATOM     29  C   UNL     1      -0.441   3.546   7.504  1.00  0.00     0.188 C 
BRANCH  29  30
ATOM     30  O   UNL     1       0.644   4.055   6.736  1.00  0.00    -0.376 OA
BRANCH  30  31
ATOM     31  C   UNL     1       1.954   3.597   7.051  1.00  0.00     0.202 C 
BRANCH  31  32
ATOM     32  C   UNL     1       2.299   2.091   7.079  1.00  0.00     0.261 C 
BRANCH  32  33
ATOM     33  O   UNL     1       1.466   1.213   7.856  1.00  0.00    -0.460 OA
BRANCH  33  34
ATOM     34  C   UNL     1       1.358   1.414   9.188  1.00  0.00     0.338 C 
ATOM     35  O   UNL     1       1.920   2.245   9.857  1.00  0.00    -0.246 OA
BRANCH  34  36
ATOM     36  C   UNL     1       0.237   0.550   9.648  1.00  0.00     0.060 A 
ATOM     37  C   UNL     1      -0.898   1.155  10.207  1.00  0.00     0.016 A 
ATOM     38  C   UNL     1       0.273  -0.833   9.454  1.00  0.00     0.016 A 
ATOM     39  C   UNL     1      -2.007   0.379  10.556  1.00  0.00     0.010 A 
ATOM     40  C   UNL     1      -0.821  -1.613   9.844  1.00  0.00     0.010 A 
ATOM     41  C   UNL     1      -1.961  -1.012  10.406  1.00  0.00    -0.014 A 
BRANCH  41  42
ATOM     42  C   UNL     1      -3.021  -1.860  11.006  1.00  0.00     0.031 A 
ATOM     43  C   UNL     1      -2.794  -2.400  12.389  1.00  0.00     0.074 A 
ATOM     44  C   UNL     1      -4.154  -2.152  10.343  1.00  0.00     0.049 A 
ATOM     45  N   UNL     1      -3.518  -3.234  13.088  1.00  0.00    -0.248 NA
ATOM     46  C   UNL     1      -1.578  -1.932  13.075  1.00  0.00     0.031 C 
ATOM     47  C   UNL     1      -4.516  -1.646   9.022  1.00  0.00     0.029 A 
ATOM     48  N   UNL     1      -5.205  -2.965  10.694  1.00  0.00    -0.354 N 
ATOM     49  C   UNL     1      -2.845  -3.396  14.292  1.00  0.00     0.074 A 
ATOM     50  C   UNL     1      -1.643  -2.595  14.219  1.00  0.00     0.031 C 
ATOM     51  C   UNL     1      -5.698  -2.179   8.662  1.00  0.00     0.029 A 
ATOM     52  C   UNL     1      -6.154  -3.094   9.709  1.00  0.00     0.049 A 
ATOM     53  H   UNL     1      -5.272  -3.412  11.568  1.00  0.00     0.167 HD
ATOM     54  C   UNL     1      -3.199  -4.145  15.362  1.00  0.00     0.037 A 
ATOM     55  C   UNL     1      -7.242  -3.888   9.648  1.00  0.00     0.037 A 
ATOM     56  C   UNL     1      -4.389  -4.951  15.424  1.00  0.00     0.049 A 
ATOM     57  C   UNL     1      -7.559  -4.798  10.811  1.00  0.00     0.074 A 
ATOM     58  C   UNL     1      -4.847  -5.732  16.470  1.00  0.00     0.029 A 
ATOM     59  N   UNL     1      -5.301  -5.093  14.388  1.00  0.00    -0.354 N 
ATOM     60  N   UNL     1      -6.936  -4.926  11.958  1.00  0.00    -0.248 NA
ATOM     61  C   UNL     1      -8.728  -5.680  10.667  1.00  0.00     0.031 C 
ATOM     62  C   UNL     1      -5.999  -6.399  16.043  1.00  0.00     0.029 A 
ATOM     63  C   UNL     1      -6.297  -5.982  14.756  1.00  0.00     0.049 A 
ATOM     64  H   UNL     1      -5.247  -4.630  13.521  1.00  0.00     0.167 HD
ATOM     65  C   UNL     1      -7.648  -5.878  12.679  1.00  0.00     0.074 A 
ATOM     66  C   UNL     1      -8.761  -6.284  11.847  1.00  0.00     0.031 C 
ATOM     67  C   UNL     1      -7.402  -6.374  13.917  1.00  0.00     0.037 A 
BRANCH  54  68
ATOM     68  C   UNL     1      -2.267  -4.159  16.537  1.00  0.00     0.064 A 
ATOM     69  C   UNL     1      -2.098  -3.036  17.362  1.00  0.00     0.173 A 
ATOM     70  C   UNL     1      -1.553  -5.323  16.859  1.00  0.00     0.173 A 
ATOM     71  F   UNL     1      -2.744  -1.893  17.087  1.00  0.00    -0.203 F 
ATOM     72  C   UNL     1      -1.230  -3.072  18.450  1.00  0.00     0.198 A 
ATOM     73  C   UNL     1      -0.711  -5.365  17.967  1.00  0.00     0.198 A 
ATOM     74  F   UNL     1      -1.679  -6.425  16.104  1.00  0.00    -0.203 F 
ATOM     75  F   UNL     1      -1.046  -1.972  19.194  1.00  0.00    -0.200 F 
ATOM     76  C   UNL     1      -0.544  -4.238  18.756  1.00  0.00     0.200 A 
ATOM     77  F   UNL     1      -0.060  -6.497  18.268  1.00  0.00    -0.200 F 
ATOM     78  F   UNL     1       0.284  -4.273  19.809  1.00  0.00    -0.200 F 
ENDBRANCH  54  68
BRANCH  55  79
ATOM     79  C   UNL     1      -8.099  -3.894   8.431  1.00  0.00     0.064 A 
ATOM     80  C   UNL     1      -9.425  -3.443   8.475  1.00  0.00     0.173 A 
ATOM     81  C   UNL     1      -7.620  -4.384   7.206  1.00  0.00     0.173 A 
ATOM     82  F   UNL     1      -9.941  -2.993   9.629  1.00  0.00    -0.203 F 
ATOM     83  C   UNL     1     -10.245  -3.498   7.348  1.00  0.00     0.198 A 
ATOM     84  C   UNL     1      -8.430  -4.409   6.072  1.00  0.00     0.198 A 
ATOM     85  F   UNL     1      -6.361  -4.836   7.107  1.00  0.00    -0.203 F 
ATOM     86  F   UNL     1     -11.524  -3.108   7.433  1.00  0.00    -0.200 F 
ATOM     87  C   UNL     1      -9.744  -3.975   6.146  1.00  0.00     0.200 A 
ATOM     88  F   UNL     1      -7.938  -4.858   4.910  1.00  0.00    -0.200 F 
ATOM     89  F   UNL     1     -10.531  -4.024   5.062  1.00  0.00    -0.200 F 
ENDBRANCH  55  79
BRANCH  67  90
ATOM     90  C   UNL     1      -8.363  -7.391  14.466  1.00  0.00     0.064 A 
ATOM     91  C   UNL     1      -8.417  -8.699  13.965  1.00  0.00     0.173 A 
ATOM     92  C   UNL     1      -9.192  -7.071  15.553  1.00  0.00     0.173 A 
ATOM     93  F   UNL     1      -7.656  -9.053  12.918  1.00  0.00    -0.203 F 
ATOM     94  C   UNL     1      -9.278  -9.644  14.518  1.00  0.00     0.198 A 
ATOM     95  C   UNL     1     -10.027  -8.027  16.125  1.00  0.00     0.198 A 
ATOM     96  F   UNL     1      -9.174  -5.836  16.078  1.00  0.00    -0.203 F 
ATOM     97  F   UNL     1      -9.343 -10.876  13.995  1.00  0.00    -0.200 F 
ATOM     98  C   UNL     1     -10.074  -9.310  15.604  1.00  0.00     0.200 A 
ATOM     99  F   UNL     1     -10.781  -7.707  17.186  1.00  0.00    -0.200 F 
ATOM    100  F   UNL     1     -10.890 -10.225  16.145  1.00  0.00    -0.200 F 
ENDBRANCH  67  90
ENDBRANCH  41  42
ENDBRANCH  34  36
ENDBRANCH  33  34
ENDBRANCH  32  33
ENDBRANCH  31  32
ENDBRANCH  30  31
ENDBRANCH  29  30
ENDBRANCH  28  29
ENDBRANCH  27  28
ENDBRANCH  26  27
ENDBRANCH   1  26
TORSDOF 25
