REMARK SMILES CN1C(=O)C[C@@H](C(=O)OCCOCCOCCOCCOC(=O)c2ccc(-c3c4nc(c(-c5c(F)c(F)c(F)c(F)c5F)c5ccc([nH]5)c(-c5c(F)c(F)c(F)c(F)c5F)c5nc(c(-c6c(F)c(F)c(F)c(F)c6F)c6ccc3[nH]6)C=C5)C=C4)cc2)C12CCN(C(=O)c1cccc3ccccc13)CC2
REMARK SMILES IDX 16 1 15 2 14 3 13 4 12 5 11 6 10 7 9 8 7 9 8 10 6 11 1 12
REMARK SMILES IDX 2 13 3 14 87 15 4 16 5 17 88 18 104 19 89 20 103 21 90 22
REMARK SMILES IDX 91 23 92 24 93 25 94 26 102 27 95 28 97 29 101 30 96 31
REMARK SMILES IDX 98 32 100 33 99 34 17 35 18 36 19 37 20 38 21 39 22 40 23 41
REMARK SMILES IDX 24 42 25 43 86 44 26 45 85 46 27 47 28 48 29 49 79 50 30 51
REMARK SMILES IDX 84 52 78 53 80 54 31 55 83 56 77 57 76 58 32 60 64 61 44 62
REMARK SMILES IDX 63 63 45 64 48 65 62 66 81 67 46 68 47 69 61 71 82 72 49 73
REMARK SMILES IDX 33 74 34 75 42 76 35 77 36 78 40 79 43 80 37 81 38 82 41 83
REMARK SMILES IDX 39 84 65 85 66 86 74 87 67 88 68 89 72 90 75 91 69 92 70 93
REMARK SMILES IDX 73 94 71 95 50 96 51 97 59 98 52 99 53 100 57 101 60 102
REMARK SMILES IDX 54 103 55 104 58 105 56 106
REMARK H PARENT 80 59 48 70
REMARK Flexibility Score: inf
ROOT
ATOM      1  C   UNL     1      -2.542  -0.168   4.439  1.00  0.00     0.188 C 
ENDROOT
BRANCH   1   2
ATOM      2  O   UNL     1      -2.555   1.029   3.664  1.00  0.00    -0.377 OA
BRANCH   2   3
ATOM      3  C   UNL     1      -3.415   2.099   4.011  1.00  0.00     0.188 C 
BRANCH   3   4
ATOM      4  C   UNL     1      -4.742   2.143   3.259  1.00  0.00     0.188 C 
BRANCH   4   5
ATOM      5  O   UNL     1      -5.382   0.902   3.038  1.00  0.00    -0.376 OA
BRANCH   5   6
ATOM      6  C   UNL     1      -4.862   0.020   2.043  1.00  0.00     0.202 C 
BRANCH   6   7
ATOM      7  C   UNL     1      -4.118   0.535   0.795  1.00  0.00     0.261 C 
BRANCH   7   8
ATOM      8  O   UNL     1      -2.730   0.938   0.989  1.00  0.00    -0.463 OA
BRANCH   8   9
ATOM      9  C   UNL     1      -2.472   2.247   0.776  1.00  0.00     0.311 C 
ATOM     10  O   UNL     1      -3.352   3.082   0.554  1.00  0.00    -0.252 OA
BRANCH   9  11
ATOM     11  C   UNL     1      -1.022   2.695   0.662  1.00  0.00     0.134 C 
ATOM     12  C   UNL     1       1.335  -0.072  -0.184  1.00  0.00     0.147 C 
ATOM     13  N   UNL     1       0.463   1.085  -0.131  1.00  0.00    -0.339 N 
ATOM     14  C   UNL     1      -0.109   1.635  -1.270  1.00  0.00     0.223 C 
ATOM     15  C   UNL     1       0.262   1.921   1.064  1.00  0.00     0.060 C 
ATOM     16  O   UNL     1      -0.014   1.219  -2.412  1.00  0.00    -0.275 OA
ATOM     17  C   UNL     1      -0.842   2.885  -0.864  1.00  0.00     0.118 C 
ATOM     18  C   UNL     1       0.280   1.111   2.377  1.00  0.00     0.051 C 
ATOM     19  C   UNL     1       1.463   2.927   1.148  1.00  0.00     0.051 C 
ATOM     20  C   UNL     1       0.378   1.942   3.666  1.00  0.00     0.122 C 
ATOM     21  C   UNL     1       1.480   3.756   2.426  1.00  0.00     0.122 C 
ATOM     22  N   UNL     1       1.462   2.918   3.616  1.00  0.00    -0.338 N 
ATOM     23  C   UNL     1       2.304   3.283   4.672  1.00  0.00     0.254 C 
ATOM     24  O   UNL     1       3.199   4.120   4.558  1.00  0.00    -0.269 OA
BRANCH  23  25
ATOM     25  C   UNL     1       2.087   2.755   6.038  1.00  0.00     0.047 A 
ATOM     26  C   UNL     1       1.419   3.620   6.920  1.00  0.00     0.014 A 
ATOM     27  C   UNL     1       2.646   1.535   6.495  1.00  0.00    -0.006 A 
ATOM     28  C   UNL     1       1.285   3.288   8.264  1.00  0.00     0.001 A 
ATOM     29  C   UNL     1       2.486   1.204   7.867  1.00  0.00    -0.018 A 
ATOM     30  C   UNL     1       3.345   0.622   5.674  1.00  0.00     0.009 A 
ATOM     31  C   UNL     1       1.824   2.093   8.735  1.00  0.00     0.009 A 
ATOM     32  C   UNL     1       2.948  -0.031   8.351  1.00  0.00     0.009 A 
ATOM     33  C   UNL     1       3.804  -0.600   6.174  1.00  0.00     0.001 A 
ATOM     34  C   UNL     1       3.588  -0.934   7.506  1.00  0.00     0.001 A 
ENDBRANCH  23  25
ENDBRANCH   9  11
ENDBRANCH   8   9
ENDBRANCH   7   8
ENDBRANCH   6   7
ENDBRANCH   5   6
ENDBRANCH   4   5
ENDBRANCH   3   4
ENDBRANCH   2   3
ENDBRANCH   1   2
BRANCH   1  35
ATOM     35  C   UNL     1      -3.355  -0.244   5.736  1.00  0.00     0.188 C 
BRANCH  35  36
ATOM     36  O   UNL     1      -3.068   0.741   6.732  1.00  0.00    -0.376 OA
BRANCH  36  37
ATOM     37  C   UNL     1      -1.700   1.105   6.906  1.00  0.00     0.202 C 
BRANCH  37  38
ATOM     38  C   UNL     1      -0.875   0.013   7.564  1.00  0.00     0.261 C 
BRANCH  38  39
ATOM     39  O   UNL     1      -0.720  -1.105   6.689  1.00  0.00    -0.460 OA
BRANCH  39  40
ATOM     40  C   UNL     1      -0.448  -2.257   7.330  1.00  0.00     0.338 C 
ATOM     41  O   UNL     1      -0.264  -2.438   8.518  1.00  0.00    -0.246 OA
BRANCH  40  42
ATOM     42  C   UNL     1      -0.486  -3.336   6.343  1.00  0.00     0.060 A 
ATOM     43  C   UNL     1      -1.674  -4.058   6.197  1.00  0.00     0.016 A 
ATOM     44  C   UNL     1       0.686  -3.712   5.685  1.00  0.00     0.016 A 
ATOM     45  C   UNL     1      -1.665  -5.231   5.453  1.00  0.00     0.010 A 
ATOM     46  C   UNL     1       0.691  -4.883   4.931  1.00  0.00     0.010 A 
ATOM     47  C   UNL     1      -0.469  -5.675   4.868  1.00  0.00    -0.014 A 
BRANCH  47  48
ATOM     48  C   UNL     1      -0.396  -7.066   4.376  1.00  0.00     0.031 A 
ATOM     49  C   UNL     1       0.147  -8.124   5.296  1.00  0.00     0.074 A 
ATOM     50  C   UNL     1      -0.868  -7.380   3.159  1.00  0.00     0.049 A 
ATOM     51  N   UNL     1       0.246  -9.415   5.112  1.00  0.00    -0.248 NA
ATOM     52  C   UNL     1       0.642  -7.663   6.604  1.00  0.00     0.031 C 
ATOM     53  C   UNL     1      -1.438  -6.429   2.209  1.00  0.00     0.029 A 
ATOM     54  N   UNL     1      -0.951  -8.590   2.523  1.00  0.00    -0.354 N 
ATOM     55  C   UNL     1       0.804  -9.919   6.280  1.00  0.00     0.074 A 
ATOM     56  C   UNL     1       1.061  -8.794   7.151  1.00  0.00     0.031 C 
ATOM     57  C   UNL     1      -1.820  -7.094   1.106  1.00  0.00     0.029 A 
ATOM     58  C   UNL     1      -1.502  -8.511   1.269  1.00  0.00     0.049 A 
ATOM     59  H   UNL     1      -0.644  -9.434   2.926  1.00  0.00     0.167 HD
ATOM     60  C   UNL     1       1.065 -11.208   6.600  1.00  0.00     0.037 A 
ATOM     61  C   UNL     1      -1.717  -9.480   0.360  1.00  0.00     0.037 A 
ATOM     62  C   UNL     1       0.813 -12.316   5.718  1.00  0.00     0.049 A 
ATOM     63  C   UNL     1      -1.363 -10.899   0.715  1.00  0.00     0.074 A 
ATOM     64  C   UNL     1       1.027 -13.664   5.937  1.00  0.00     0.029 A 
ATOM     65  N   UNL     1       0.296 -12.194   4.435  1.00  0.00    -0.354 N 
ATOM     66  N   UNL     1      -0.868 -11.373   1.833  1.00  0.00    -0.248 NA
ATOM     67  C   UNL     1      -1.604 -11.918  -0.315  1.00  0.00     0.031 C 
ATOM     68  C   UNL     1       0.683 -14.354   4.768  1.00  0.00     0.029 A 
ATOM     69  C   UNL     1       0.210 -13.440   3.838  1.00  0.00     0.049 A 
ATOM     70  H   UNL     1       0.030 -11.345   4.012  1.00  0.00     0.167 HD
ATOM     71  C   UNL     1      -0.752 -12.744   1.651  1.00  0.00     0.074 A 
ATOM     72  C   UNL     1      -1.247 -13.027   0.318  1.00  0.00     0.031 C 
ATOM     73  C   UNL     1      -0.281 -13.686   2.506  1.00  0.00     0.037 A 
BRANCH  60  74
ATOM     74  C   UNL     1       1.677 -11.475   7.945  1.00  0.00     0.064 A 
ATOM     75  C   UNL     1       0.943 -11.324   9.132  1.00  0.00     0.173 A 
ATOM     76  C   UNL     1       3.014 -11.886   8.049  1.00  0.00     0.173 A 
ATOM     77  F   UNL     1      -0.334 -10.915   9.089  1.00  0.00    -0.203 F 
ATOM     78  C   UNL     1       1.535 -11.545  10.374  1.00  0.00     0.198 A 
ATOM     79  C   UNL     1       3.594 -12.132   9.291  1.00  0.00     0.198 A 
ATOM     80  F   UNL     1       3.760 -12.045   6.946  1.00  0.00    -0.203 F 
ATOM     81  F   UNL     1       0.830 -11.342  11.496  1.00  0.00    -0.200 F 
ATOM     82  C   UNL     1       2.858 -11.953  10.452  1.00  0.00     0.200 A 
ATOM     83  F   UNL     1       4.871 -12.532   9.364  1.00  0.00    -0.200 F 
ATOM     84  F   UNL     1       3.427 -12.162  11.647  1.00  0.00    -0.200 F 
ENDBRANCH  60  74
BRANCH  61  85
ATOM     85  C   UNL     1      -2.306  -9.133  -0.958  1.00  0.00     0.064 A 
ATOM     86  C   UNL     1      -3.611  -9.516  -1.292  1.00  0.00     0.173 A 
ATOM     87  C   UNL     1      -1.583  -8.385  -1.899  1.00  0.00     0.173 A 
ATOM     88  F   UNL     1      -4.335 -10.248  -0.433  1.00  0.00    -0.203 F 
ATOM     89  C   UNL     1      -4.170  -9.170  -2.521  1.00  0.00     0.198 A 
ATOM     90  C   UNL     1      -2.151  -8.018  -3.118  1.00  0.00     0.198 A 
ATOM     91  F   UNL     1      -0.331  -7.991  -1.625  1.00  0.00    -0.203 F 
ATOM     92  F   UNL     1      -5.410  -9.573  -2.828  1.00  0.00    -0.200 F 
ATOM     93  C   UNL     1      -3.443  -8.415  -3.429  1.00  0.00     0.200 A 
ATOM     94  F   UNL     1      -1.450  -7.277  -3.985  1.00  0.00    -0.200 F 
ATOM     95  F   UNL     1      -3.986  -8.071  -4.605  1.00  0.00    -0.200 F 
ENDBRANCH  61  85
BRANCH  73  96
ATOM     96  C   UNL     1      -0.289 -15.106   2.024  1.00  0.00     0.064 A 
ATOM     97  C   UNL     1       0.630 -15.559   1.067  1.00  0.00     0.173 A 
ATOM     98  C   UNL     1      -1.200 -16.032   2.556  1.00  0.00     0.173 A 
ATOM     99  F   UNL     1       1.510 -14.707   0.520  1.00  0.00    -0.203 F 
ATOM    100  C   UNL     1       0.623 -16.884   0.642  1.00  0.00     0.198 A 
ATOM    101  C   UNL     1      -1.186 -17.362   2.148  1.00  0.00     0.198 A 
ATOM    102  F   UNL     1      -2.093 -15.647   3.479  1.00  0.00    -0.203 F 
ATOM    103  F   UNL     1       1.480 -17.286  -0.306  1.00  0.00    -0.200 F 
ATOM    104  C   UNL     1      -0.280 -17.785   1.187  1.00  0.00     0.200 A 
ATOM    105  F   UNL     1      -2.051 -18.234   2.684  1.00  0.00    -0.200 F 
ATOM    106  F   UNL     1      -0.282 -19.062   0.779  1.00  0.00    -0.200 F 
ENDBRANCH  73  96
ENDBRANCH  47  48
ENDBRANCH  40  42
ENDBRANCH  39  40
ENDBRANCH  38  39
ENDBRANCH  37  38
ENDBRANCH  36  37
ENDBRANCH  35  36
ENDBRANCH   1  35
TORSDOF 21
