REMARK SMILES CCCCCCOC(=O)Nc1cccc(-c2ccc([C@@H](C)C(=O)OCCOCCOCCOCCOC(=O)c3ccc(-c4c5nc(c(-c6c(F)c(F)c(F)c(F)c6F)c6ccc([nH]6)c(-c6c(F)c(F)c(F)c(F)c6F)c6nc(c(-c7c(F)c(F)c(F)c(F)c7F)c7ccc4[nH]7)C=C6)C=C5)cc3)cc2F)c1
REMARK SMILES IDX 26 1 25 2 24 3 22 4 23 5 20 6 21 7 19 8 16 9 17 10 103 11
REMARK SMILES IDX 18 12 102 13 104 14 15 15 11 16 12 17 105 18 13 19 14 20
REMARK SMILES IDX 10 21 8 22 9 23 7 25 6 26 5 27 4 28 3 29 2 30 1 31 27 32
REMARK SMILES IDX 28 33 29 34 30 35 31 36 32 37 33 38 34 39 35 40 36 41 37 42
REMARK SMILES IDX 38 43 39 44 40 45 101 46 41 47 100 48 42 49 43 50 44 51
REMARK SMILES IDX 94 52 45 53 99 54 93 55 95 56 46 57 98 58 92 59 91 60 47 62
REMARK SMILES IDX 79 63 59 64 78 65 60 66 63 67 77 68 96 69 61 70 62 71 76 73
REMARK SMILES IDX 97 74 64 75 48 76 49 77 57 78 50 79 51 80 55 81 58 82 52 83
REMARK SMILES IDX 53 84 56 85 54 86 80 87 81 88 89 89 82 90 83 91 87 92 90 93
REMARK SMILES IDX 84 94 85 95 88 96 86 97 65 98 66 99 74 100 67 101 68 102
REMARK SMILES IDX 72 103 75 104 69 105 70 106 73 107 71 108
REMARK H PARENT 10 24 95 61 63 72
REMARK Flexibility Score: inf
ROOT
ATOM      1  C   UNL     1      -9.227  -4.606  -6.331  1.00  0.00     0.202 C 
ENDROOT
BRANCH   1   2
ATOM      2  C   UNL     1      -9.434  -6.105  -6.610  1.00  0.00     0.261 C 
BRANCH   2   3
ATOM      3  O   UNL     1      -8.245  -6.919  -6.710  1.00  0.00    -0.463 OA
BRANCH   3   4
ATOM      4  C   UNL     1      -7.901  -7.317  -7.957  1.00  0.00     0.313 C 
ATOM      5  O   UNL     1      -8.549  -7.029  -8.962  1.00  0.00    -0.252 OA
BRANCH   4   6
ATOM      6  C   UNL     1      -6.660  -8.202  -8.059  1.00  0.00     0.126 C 
ATOM      7  C   UNL     1      -7.109  -9.621  -8.395  1.00  0.00     0.025 C 
BRANCH   6   8
ATOM      8  C   UNL     1      -5.591  -8.204  -6.965  1.00  0.00    -0.031 A 
ATOM      9  C   UNL     1      -3.475  -8.221  -5.012  1.00  0.00     0.018 A 
ATOM     10  C   UNL     1      -4.795  -8.575  -4.677  1.00  0.00     0.012 A 
ATOM     11  C   UNL     1      -3.247  -7.847  -6.342  1.00  0.00     0.131 A 
ATOM     12  C   UNL     1      -5.835  -8.568  -5.633  1.00  0.00     0.005 A 
ATOM     13  C   UNL     1      -4.269  -7.848  -7.300  1.00  0.00     0.044 A 
ATOM     14  F   UNL     1      -2.012  -7.506  -6.744  1.00  0.00    -0.206 F 
BRANCH   9  15
ATOM     15  C   UNL     1      -2.360  -8.348  -4.046  1.00  0.00    -0.013 A 
ATOM     16  C   UNL     1      -0.346  -7.478  -2.951  1.00  0.00     0.045 A 
ATOM     17  C   UNL     1      -0.045  -8.756  -2.479  1.00  0.00     0.026 A 
ATOM     18  C   UNL     1      -1.507  -7.271  -3.719  1.00  0.00     0.035 A 
ATOM     19  C   UNL     1      -0.915  -9.813  -2.725  1.00  0.00     0.003 A 
ATOM     20  C   UNL     1      -2.055  -9.611  -3.506  1.00  0.00     0.009 A 
BRANCH  16  21
ATOM     21  N   UNL     1       0.617  -6.479  -2.739  1.00  0.00    -0.291 N 
ATOM     22  C   UNL     1       0.440  -5.133  -2.605  1.00  0.00     0.411 C 
ATOM     23  O   UNL     1       1.360  -4.348  -2.805  1.00  0.00    -0.224 OA
ATOM     24  H   UNL     1       1.548  -6.793  -2.679  1.00  0.00     0.173 HD
BRANCH  22  25
ATOM     25  O   UNL     1      -0.771  -4.799  -2.100  1.00  0.00    -0.449 OA
BRANCH  25  26
ATOM     26  C   UNL     1      -0.985  -3.413  -1.815  1.00  0.00     0.235 C 
BRANCH  26  27
ATOM     27  C   UNL     1      -0.562  -2.972  -0.420  1.00  0.00     0.042 C 
BRANCH  27  28
ATOM     28  C   UNL     1       0.907  -2.578  -0.285  1.00  0.00     0.003 C 
BRANCH  28  29
ATOM     29  C   UNL     1       1.384  -1.488  -1.255  1.00  0.00    -0.000 C 
BRANCH  29  30
ATOM     30  C   UNL     1       0.675  -0.137  -1.132  1.00  0.00    -0.003 C 
ATOM     31  C   UNL     1       0.925   0.541   0.205  1.00  0.00     0.004 C 
ENDBRANCH  29  30
ENDBRANCH  28  29
ENDBRANCH  27  28
ENDBRANCH  26  27
ENDBRANCH  25  26
ENDBRANCH  22  25
ENDBRANCH  16  21
ENDBRANCH   9  15
ENDBRANCH   6   8
ENDBRANCH   4   6
ENDBRANCH   3   4
ENDBRANCH   2   3
ENDBRANCH   1   2
BRANCH   1  32
ATOM     32  O   UNL     1      -8.352  -3.841  -7.144  1.00  0.00    -0.376 OA
BRANCH  32  33
ATOM     33  C   UNL     1      -6.995  -4.226  -7.319  1.00  0.00     0.188 C 
BRANCH  33  34
ATOM     34  C   UNL     1      -6.211  -4.915  -6.192  1.00  0.00     0.188 C 
BRANCH  34  35
ATOM     35  O   UNL     1      -6.956  -5.213  -5.029  1.00  0.00    -0.377 OA
BRANCH  35  36
ATOM     36  C   UNL     1      -6.775  -4.343  -3.925  1.00  0.00     0.188 C 
BRANCH  36  37
ATOM     37  C   UNL     1      -6.718  -2.833  -4.223  1.00  0.00     0.188 C 
BRANCH  37  38
ATOM     38  O   UNL     1      -5.735  -2.461  -5.184  1.00  0.00    -0.376 OA
BRANCH  38  39
ATOM     39  C   UNL     1      -4.467  -2.035  -4.706  1.00  0.00     0.202 C 
BRANCH  39  40
ATOM     40  C   UNL     1      -3.587  -3.117  -4.071  1.00  0.00     0.261 C 
BRANCH  40  41
ATOM     41  O   UNL     1      -4.102  -3.732  -2.875  1.00  0.00    -0.460 OA
BRANCH  41  42
ATOM     42  C   UNL     1      -4.462  -2.943  -1.842  1.00  0.00     0.338 C 
ATOM     43  O   UNL     1      -4.319  -1.737  -1.756  1.00  0.00    -0.246 OA
BRANCH  42  44
ATOM     44  C   UNL     1      -5.199  -3.752  -0.848  1.00  0.00     0.060 A 
ATOM     45  C   UNL     1      -6.454  -3.290  -0.438  1.00  0.00     0.016 A 
ATOM     46  C   UNL     1      -4.654  -4.915  -0.292  1.00  0.00     0.016 A 
ATOM     47  C   UNL     1      -7.140  -3.948   0.579  1.00  0.00     0.010 A 
ATOM     48  C   UNL     1      -5.339  -5.567   0.741  1.00  0.00     0.010 A 
ATOM     49  C   UNL     1      -6.562  -5.057   1.213  1.00  0.00    -0.014 A 
BRANCH  49  50
ATOM     50  C   UNL     1      -7.153  -5.527   2.491  1.00  0.00     0.031 A 
ATOM     51  C   UNL     1      -6.558  -5.034   3.782  1.00  0.00     0.074 A 
ATOM     52  C   UNL     1      -8.249  -6.305   2.508  1.00  0.00     0.049 A 
ATOM     53  N   UNL     1      -6.947  -5.243   5.014  1.00  0.00    -0.248 NA
ATOM     54  C   UNL     1      -5.361  -4.186   3.667  1.00  0.00     0.031 C 
ATOM     55  C   UNL     1      -8.937  -6.820   1.327  1.00  0.00     0.029 A 
ATOM     56  N   UNL     1      -8.981  -6.789   3.565  1.00  0.00    -0.354 N 
ATOM     57  C   UNL     1      -6.046  -4.554   5.816  1.00  0.00     0.074 A 
ATOM     58  C   UNL     1      -5.069  -3.952   4.937  1.00  0.00     0.031 C 
ATOM     59  C   UNL     1      -9.991  -7.553   1.724  1.00  0.00     0.029 A 
ATOM     60  C   UNL     1     -10.041  -7.574   3.186  1.00  0.00     0.049 A 
ATOM     61  H   UNL     1      -8.765  -6.592   4.505  1.00  0.00     0.167 HD
ATOM     62  C   UNL     1      -6.040  -4.424   7.165  1.00  0.00     0.037 A 
ATOM     63  C   UNL     1     -10.941  -8.241   3.936  1.00  0.00     0.037 A 
ATOM     64  C   UNL     1      -7.013  -5.024   8.039  1.00  0.00     0.049 A 
ATOM     65  C   UNL     1     -10.885  -8.123   5.438  1.00  0.00     0.074 A 
ATOM     66  C   UNL     1      -7.110  -4.930   9.416  1.00  0.00     0.029 A 
ATOM     67  N   UNL     1      -8.051  -5.843   7.620  1.00  0.00    -0.354 N 
ATOM     68  N   UNL     1     -10.057  -7.433   6.186  1.00  0.00    -0.248 NA
ATOM     69  C   UNL     1     -11.898  -8.867   6.199  1.00  0.00     0.031 C 
ATOM     70  C   UNL     1      -8.171  -5.740   9.836  1.00  0.00     0.029 A 
ATOM     71  C   UNL     1      -8.775  -6.287   8.715  1.00  0.00     0.049 A 
ATOM     72  H   UNL     1      -8.245  -6.074   6.683  1.00  0.00     0.167 HD
ATOM     73  C   UNL     1     -10.464  -7.637   7.499  1.00  0.00     0.074 A 
ATOM     74  C   UNL     1     -11.623  -8.503   7.444  1.00  0.00     0.031 C 
ATOM     75  C   UNL     1      -9.928  -7.149   8.646  1.00  0.00     0.037 A 
BRANCH  62  76
ATOM     76  C   UNL     1      -4.922  -3.630   7.777  1.00  0.00     0.064 A 
ATOM     77  C   UNL     1      -4.830  -2.238   7.625  1.00  0.00     0.173 A 
ATOM     78  C   UNL     1      -3.934  -4.272   8.539  1.00  0.00     0.173 A 
ATOM     79  F   UNL     1      -5.740  -1.577   6.893  1.00  0.00    -0.203 F 
ATOM     80  C   UNL     1      -3.774  -1.523   8.185  1.00  0.00     0.198 A 
ATOM     81  C   UNL     1      -2.897  -3.550   9.124  1.00  0.00     0.198 A 
ATOM     82  F   UNL     1      -3.974  -5.601   8.718  1.00  0.00    -0.203 F 
ATOM     83  F   UNL     1      -3.676  -0.203   7.980  1.00  0.00    -0.200 F 
ATOM     84  C   UNL     1      -2.812  -2.179   8.939  1.00  0.00     0.200 A 
ATOM     85  F   UNL     1      -1.975  -4.184   9.862  1.00  0.00    -0.200 F 
ATOM     86  F   UNL     1      -1.797  -1.490   9.480  1.00  0.00    -0.200 F 
ENDBRANCH  62  76
BRANCH  63  87
ATOM     87  C   UNL     1     -11.972  -9.084   3.276  1.00  0.00     0.064 A 
ATOM     88  C   UNL     1     -13.330  -8.738   3.309  1.00  0.00     0.173 A 
ATOM     89  C   UNL     1     -11.617 -10.264   2.604  1.00  0.00     0.173 A 
ATOM     90  F   UNL     1     -13.724  -7.634   3.960  1.00  0.00    -0.203 F 
ATOM     91  C   UNL     1     -14.294  -9.547   2.709  1.00  0.00     0.198 A 
ATOM     92  C   UNL     1     -12.578 -11.056   1.980  1.00  0.00     0.198 A 
ATOM     93  F   UNL     1     -10.331 -10.642   2.546  1.00  0.00    -0.203 F 
ATOM     94  F   UNL     1     -15.590  -9.216   2.793  1.00  0.00    -0.200 F 
ATOM     95  C   UNL     1     -13.916 -10.701   2.038  1.00  0.00     0.200 A 
ATOM     96  F   UNL     1     -12.206 -12.163   1.323  1.00  0.00    -0.200 F 
ATOM     97  F   UNL     1     -14.842 -11.474   1.456  1.00  0.00    -0.200 F 
ENDBRANCH  63  87
BRANCH  75  98
ATOM     98  C   UNL     1     -10.609  -7.512   9.936  1.00  0.00     0.064 A 
ATOM     99  C   UNL     1     -10.562  -8.814  10.457  1.00  0.00     0.173 A 
ATOM    100  C   UNL     1     -11.286  -6.534  10.680  1.00  0.00     0.173 A 
ATOM    101  F   UNL     1      -9.938  -9.790   9.780  1.00  0.00    -0.203 F 
ATOM    102  C   UNL     1     -11.195  -9.129  11.656  1.00  0.00     0.198 A 
ATOM    103  C   UNL     1     -11.889  -6.844  11.896  1.00  0.00     0.198 A 
ATOM    104  F   UNL     1     -11.353  -5.270  10.234  1.00  0.00    -0.203 F 
ATOM    105  F   UNL     1     -11.184 -10.392  12.107  1.00  0.00    -0.200 F 
ATOM    106  C   UNL     1     -11.851  -8.143  12.378  1.00  0.00     0.200 A 
ATOM    107  F   UNL     1     -12.508  -5.886  12.600  1.00  0.00    -0.200 F 
ATOM    108  F   UNL     1     -12.455  -8.447  13.536  1.00  0.00    -0.200 F 
ENDBRANCH  75  98
ENDBRANCH  49  50
ENDBRANCH  42  44
ENDBRANCH  41  42
ENDBRANCH  40  41
ENDBRANCH  39  40
ENDBRANCH  38  39
ENDBRANCH  37  38
ENDBRANCH  36  37
ENDBRANCH  35  36
ENDBRANCH  34  35
ENDBRANCH  33  34
ENDBRANCH  32  33
ENDBRANCH   1  32
TORSDOF 29
