REMARK SMILES CC(=O)Nc1ccc(/C(=C\c2ccc(S(C)(=O)=O)cc2)C(=O)OCCOCCOCCOCCOC(=O)c2ccc(-c3c4nc(c(-c5c(F)c(F)c(F)c(F)c5F)c5ccc([nH]5)c(-c5c(F)c(F)c(F)c(F)c5F)c5nc(c(-c6c(F)c(F)c(F)c(F)c6F)c6ccc3[nH]6)C=C5)C=C4)cc2)cc1
REMARK SMILES IDX 29 1 28 2 27 3 26 4 25 5 24 6 23 7 21 8 22 9 9 10 10 11 8 12
REMARK SMILES IDX 5 13 6 14 102 15 7 16 101 17 4 18 1 19 2 20 3 21 11 23 12 24
REMARK SMILES IDX 20 25 13 26 19 27 14 28 15 29 16 30 17 31 18 32 30 33 31 34
REMARK SMILES IDX 32 35 33 36 34 37 35 38 36 39 37 40 38 41 39 42 100 43 40 44
REMARK SMILES IDX 99 45 41 46 42 47 43 48 93 49 44 50 98 51 92 52 94 53 45 54
REMARK SMILES IDX 97 55 91 56 90 57 46 59 78 60 58 61 77 62 59 63 62 64 76 65
REMARK SMILES IDX 95 66 60 67 61 68 75 70 96 71 63 72 47 73 48 74 56 75 49 76
REMARK SMILES IDX 50 77 54 78 57 79 51 80 52 81 55 82 53 83 79 84 80 85 88 86
REMARK SMILES IDX 81 87 82 88 86 89 89 90 83 91 84 92 87 93 85 94 64 95 65 96
REMARK SMILES IDX 73 97 66 98 67 99 71 100 74 101 68 102 69 103 72 104 70 105
REMARK H PARENT 4 22 94 58 62 69
REMARK Flexibility Score: inf
ROOT
ATOM      1  O   UNL     1       4.947   6.474   2.320  1.00  0.00    -0.377 OA
ENDROOT
BRANCH   1   2
ATOM      2  C   UNL     1       4.404   5.274   1.790  1.00  0.00     0.188 C 
BRANCH   2   3
ATOM      3  C   UNL     1       5.324   4.047   1.641  1.00  0.00     0.188 C 
BRANCH   3   4
ATOM      4  O   UNL     1       6.627   4.214   2.175  1.00  0.00    -0.376 OA
BRANCH   4   5
ATOM      5  C   UNL     1       7.707   4.281   1.261  1.00  0.00     0.202 C 
BRANCH   5   6
ATOM      6  C   UNL     1       7.708   5.442   0.256  1.00  0.00     0.261 C 
BRANCH   6   7
ATOM      7  O   UNL     1       6.462   5.673  -0.419  1.00  0.00    -0.460 OA
BRANCH   7   8
ATOM      8  C   UNL     1       6.120   4.849  -1.443  1.00  0.00     0.338 C 
ATOM      9  O   UNL     1       6.814   3.943  -1.875  1.00  0.00    -0.246 OA
BRANCH   8  10
ATOM     10  C   UNL     1       4.686   5.105  -1.850  1.00  0.00     0.067 C 
ATOM     11  C   UNL     1       4.331   6.417  -1.856  1.00  0.00     0.024 C 
BRANCH  10  12
ATOM     12  C   UNL     1       3.767   3.943  -2.102  1.00  0.00    -0.011 A 
ATOM     13  C   UNL     1       1.797   1.870  -2.148  1.00  0.00     0.041 A 
ATOM     14  C   UNL     1       1.690   2.986  -2.980  1.00  0.00     0.027 A 
ATOM     15  C   UNL     1       2.953   1.729  -1.396  1.00  0.00     0.027 A 
ATOM     16  C   UNL     1       2.667   3.996  -2.966  1.00  0.00     0.011 A 
ATOM     17  C   UNL     1       3.929   2.738  -1.399  1.00  0.00     0.011 A 
BRANCH  13  18
ATOM     18  N   UNL     1       0.764   0.922  -2.195  1.00  0.00    -0.326 N 
ATOM     19  C   UNL     1       0.902  -0.117   0.073  1.00  0.00     0.114 C 
ATOM     20  C   UNL     1       0.390  -0.076  -1.341  1.00  0.00     0.221 C 
ATOM     21  O   UNL     1      -0.435  -0.907  -1.729  1.00  0.00    -0.275 OA
ATOM     22  H   UNL     1       0.199   0.989  -2.999  1.00  0.00     0.169 HD
ENDBRANCH  13  18
ENDBRANCH  10  12
BRANCH  11  23
ATOM     23  C   UNL     1       3.050   7.013  -2.260  1.00  0.00    -0.025 A 
ATOM     24  C   UNL     1       3.069   7.806  -3.415  1.00  0.00     0.009 A 
ATOM     25  C   UNL     1       1.827   6.712  -1.646  1.00  0.00     0.009 A 
ATOM     26  C   UNL     1       1.879   8.160  -4.045  1.00  0.00     0.021 A 
ATOM     27  C   UNL     1       0.627   7.054  -2.280  1.00  0.00     0.021 A 
ATOM     28  C   UNL     1       0.665   7.739  -3.499  1.00  0.00     0.067 A 
BRANCH  28  29
ATOM     29  S   UNL     1      -0.804   7.896  -4.489  1.00  0.00     0.175 S 
ATOM     30  C   UNL     1      -1.195   9.620  -4.426  1.00  0.00     0.163 C 
ATOM     31  O   UNL     1      -0.422   7.568  -5.850  1.00  0.00    -0.224 OA
ATOM     32  O   UNL     1      -1.865   7.167  -3.822  1.00  0.00    -0.224 OA
ENDBRANCH  28  29
ENDBRANCH  11  23
ENDBRANCH   8  10
ENDBRANCH   7   8
ENDBRANCH   6   7
ENDBRANCH   5   6
ENDBRANCH   4   5
ENDBRANCH   3   4
ENDBRANCH   2   3
ENDBRANCH   1   2
BRANCH   1  33
ATOM     33  C   UNL     1       5.788   6.407   3.469  1.00  0.00     0.188 C 
BRANCH  33  34
ATOM     34  C   UNL     1       5.638   5.271   4.513  1.00  0.00     0.188 C 
BRANCH  34  35
ATOM     35  O   UNL     1       4.545   4.396   4.292  1.00  0.00    -0.376 OA
BRANCH  35  36
ATOM     36  C   UNL     1       3.425   4.497   5.151  1.00  0.00     0.202 C 
BRANCH  36  37
ATOM     37  C   UNL     1       2.646   5.820   5.131  1.00  0.00     0.261 C 
BRANCH  37  38
ATOM     38  O   UNL     1       3.421   7.013   5.313  1.00  0.00    -0.460 OA
BRANCH  38  39
ATOM     39  C   UNL     1       4.014   7.184   6.518  1.00  0.00     0.338 C 
ATOM     40  O   UNL     1       3.963   6.448   7.477  1.00  0.00    -0.246 OA
BRANCH  39  41
ATOM     41  C   UNL     1       4.911   8.356   6.400  1.00  0.00     0.060 A 
ATOM     42  C   UNL     1       6.286   8.188   6.615  1.00  0.00     0.016 A 
ATOM     43  C   UNL     1       4.393   9.607   6.062  1.00  0.00     0.016 A 
ATOM     44  C   UNL     1       7.144   9.285   6.529  1.00  0.00     0.010 A 
ATOM     45  C   UNL     1       5.247  10.709   6.002  1.00  0.00     0.010 A 
ATOM     46  C   UNL     1       6.619  10.558   6.274  1.00  0.00    -0.014 A 
BRANCH  46  47
ATOM     47  C   UNL     1       7.453  11.758   6.523  1.00  0.00     0.031 A 
ATOM     48  C   UNL     1       7.300  12.457   7.846  1.00  0.00     0.074 A 
ATOM     49  C   UNL     1       8.333  12.210   5.614  1.00  0.00     0.049 A 
ATOM     50  N   UNL     1       7.860  13.556   8.280  1.00  0.00    -0.248 NA
ATOM     51  C   UNL     1       6.381  11.829   8.809  1.00  0.00     0.031 C 
ATOM     52  C   UNL     1       8.605  11.592   4.319  1.00  0.00     0.029 A 
ATOM     53  N   UNL     1       9.156  13.308   5.645  1.00  0.00    -0.354 N 
ATOM     54  C   UNL     1       7.355  13.754   9.558  1.00  0.00     0.074 A 
ATOM     55  C   UNL     1       6.418  12.684   9.818  1.00  0.00     0.031 C 
ATOM     56  C   UNL     1       9.523  12.331   3.670  1.00  0.00     0.029 A 
ATOM     57  C   UNL     1       9.874  13.490   4.490  1.00  0.00     0.049 A 
ATOM     58  H   UNL     1       9.225  13.909   6.423  1.00  0.00     0.167 HD
ATOM     59  C   UNL     1       7.653  14.736  10.441  1.00  0.00     0.037 A 
ATOM     60  C   UNL     1      10.699  14.494   4.131  1.00  0.00     0.037 A 
ATOM     61  C   UNL     1       8.583  15.801  10.175  1.00  0.00     0.049 A 
ATOM     62  C   UNL     1      10.954  15.623   5.101  1.00  0.00     0.074 A 
ATOM     63  C   UNL     1       8.964  16.840  11.005  1.00  0.00     0.029 A 
ATOM     64  N   UNL     1       9.270  15.968   8.982  1.00  0.00    -0.354 N 
ATOM     65  N   UNL     1      10.491  15.795   6.316  1.00  0.00    -0.248 NA
ATOM     66  C   UNL     1      11.852  16.695   4.649  1.00  0.00     0.031 C 
ATOM     67  C   UNL     1       9.833  17.671  10.292  1.00  0.00     0.029 A 
ATOM     68  C   UNL     1      10.053  17.110   9.044  1.00  0.00     0.049 A 
ATOM     69  H   UNL     1       9.211  15.365   8.206  1.00  0.00     0.167 HD
ATOM     70  C   UNL     1      11.070  16.968   6.786  1.00  0.00     0.074 A 
ATOM     71  C   UNL     1      11.926  17.461   5.728  1.00  0.00     0.031 C 
ATOM     72  C   UNL     1      10.912  17.580   7.987  1.00  0.00     0.037 A 
BRANCH  59  73
ATOM     73  C   UNL     1       6.937  14.722  11.761  1.00  0.00     0.064 A 
ATOM     74  C   UNL     1       7.184  13.736  12.728  1.00  0.00     0.173 A 
ATOM     75  C   UNL     1       6.006  15.725  12.071  1.00  0.00     0.173 A 
ATOM     76  F   UNL     1       8.053  12.745  12.476  1.00  0.00    -0.203 F 
ATOM     77  C   UNL     1       6.504  13.738  13.943  1.00  0.00     0.198 A 
ATOM     78  C   UNL     1       5.354  15.743  13.300  1.00  0.00     0.198 A 
ATOM     79  F   UNL     1       5.732  16.692  11.183  1.00  0.00    -0.203 F 
ATOM     80  F   UNL     1       6.715  12.754  14.829  1.00  0.00    -0.200 F 
ATOM     81  C   UNL     1       5.596  14.745  14.232  1.00  0.00     0.200 A 
ATOM     82  F   UNL     1       4.487  16.726  13.582  1.00  0.00    -0.200 F 
ATOM     83  F   UNL     1       4.948  14.750  15.405  1.00  0.00    -0.200 F 
ENDBRANCH  59  73
BRANCH  60  84
ATOM     84  C   UNL     1      11.338  14.492   2.788  1.00  0.00     0.064 A 
ATOM     85  C   UNL     1      12.727  14.360   2.646  1.00  0.00     0.173 A 
ATOM     86  C   UNL     1      10.579  14.655   1.620  1.00  0.00     0.173 A 
ATOM     87  F   UNL     1      13.502  14.228   3.733  1.00  0.00    -0.203 F 
ATOM     88  C   UNL     1      13.332  14.415   1.391  1.00  0.00     0.198 A 
ATOM     89  C   UNL     1      11.181  14.676   0.363  1.00  0.00     0.198 A 
ATOM     90  F   UNL     1       9.246  14.790   1.697  1.00  0.00    -0.203 F 
ATOM     91  F   UNL     1      14.667  14.342   1.290  1.00  0.00    -0.200 F 
ATOM     92  C   UNL     1      12.559  14.566   0.251  1.00  0.00     0.200 A 
ATOM     93  F   UNL     1      10.428  14.810  -0.737  1.00  0.00    -0.200 F 
ATOM     94  F   UNL     1      13.141  14.617  -0.955  1.00  0.00    -0.200 F 
ENDBRANCH  60  84
BRANCH  72  95
ATOM     95  C   UNL     1      11.725  18.817   8.250  1.00  0.00     0.064 A 
ATOM     96  C   UNL     1      11.473  20.028   7.588  1.00  0.00     0.173 A 
ATOM     97  C   UNL     1      12.743  18.800   9.217  1.00  0.00     0.173 A 
ATOM     98  F   UNL     1      10.519  20.098   6.647  1.00  0.00    -0.203 F 
ATOM     99  C   UNL     1      12.231  21.165   7.861  1.00  0.00     0.198 A 
ATOM    100  C   UNL     1      13.473  19.947   9.514  1.00  0.00     0.198 A 
ATOM    101  F   UNL     1      13.019  17.671   9.888  1.00  0.00    -0.203 F 
ATOM    102  F   UNL     1      12.009  22.295   7.176  1.00  0.00    -0.200 F 
ATOM    103  C   UNL     1      13.224  21.126   8.829  1.00  0.00     0.200 A 
ATOM    104  F   UNL     1      14.418  19.911  10.464  1.00  0.00    -0.200 F 
ATOM    105  F   UNL     1      13.945  22.223   9.097  1.00  0.00    -0.200 F 
ENDBRANCH  72  95
ENDBRANCH  46  47
ENDBRANCH  39  41
ENDBRANCH  38  39
ENDBRANCH  37  38
ENDBRANCH  36  37
ENDBRANCH  35  36
ENDBRANCH  34  35
ENDBRANCH  33  34
ENDBRANCH   1  33
TORSDOF 24
