REMARK SMILES Cc1ccc(C(C)(C)C)c(OCC(=O)c2nc(C)c(C(=O)OCCOCCOCCOCCOC(=O)c3ccc(-c4c5nc(c(-c6c(F)c(F)c(F)c(F)c6F)c6ccc([nH]6)c(-c6c(F)c(F)c(F)c(F)c6F)c6nc(c(-c7c(F)c(F)c(F)c(F)c7F)c7ccc4[nH]7)C=C6)C=C5)cc3)s2)c1
REMARK SMILES IDX 26 1 25 2 24 3 23 4 22 5 20 6 21 7 19 8 15 9 16 10 100 11
REMARK SMILES IDX 17 12 18 13 13 14 14 15 12 16 11 17 10 18 1 19 2 20 3 21
REMARK SMILES IDX 101 22 4 23 5 24 6 25 7 26 8 27 9 28 27 29 28 30 29 31 30 32
REMARK SMILES IDX 31 33 32 34 33 35 34 36 35 37 36 38 37 39 38 40 99 41 39 42
REMARK SMILES IDX 98 43 40 44 41 45 42 46 92 47 43 48 97 49 91 50 93 51 44 52
REMARK SMILES IDX 96 53 90 54 89 55 45 57 77 58 57 59 76 60 58 61 61 62 75 63
REMARK SMILES IDX 94 64 59 65 60 66 74 68 95 69 62 70 46 71 47 72 55 73 48 74
REMARK SMILES IDX 49 75 53 76 56 77 50 78 51 79 54 80 52 81 78 82 79 83 87 84
REMARK SMILES IDX 80 85 81 86 85 87 88 88 82 89 83 90 86 91 84 92 63 93 64 94
REMARK SMILES IDX 72 95 65 96 66 97 70 98 73 99 67 100 68 101 71 102 69 103
REMARK H PARENT 93 56 61 67
REMARK Flexibility Score: inf
ROOT
ATOM      1  C   UNL     1      -4.856   3.346   3.112  1.00  0.00     0.188 C 
ENDROOT
BRANCH   1   2
ATOM      2  O   UNL     1      -4.855   2.067   3.717  1.00  0.00    -0.376 OA
BRANCH   2   3
ATOM      3  C   UNL     1      -4.478   1.905   5.066  1.00  0.00     0.202 C 
BRANCH   3   4
ATOM      4  C   UNL     1      -3.295   0.957   5.111  1.00  0.00     0.261 C 
BRANCH   4   5
ATOM      5  O   UNL     1      -2.123   1.772   5.056  1.00  0.00    -0.459 OA
BRANCH   5   6
ATOM      6  C   UNL     1      -1.173   1.288   4.233  1.00  0.00     0.350 C 
ATOM      7  O   UNL     1      -0.971   0.100   4.008  1.00  0.00    -0.245 OA
BRANCH   6   8
ATOM      8  C   UNL     1      -0.705   2.379   3.446  1.00  0.00     0.136 A 
ATOM      9  C   UNL     1      -0.257   3.691   1.471  1.00  0.00     0.164 A 
ATOM     10  N   UNL     1       0.180   4.333   2.544  1.00  0.00    -0.237 NA
ATOM     11  S   UNL     1      -1.159   2.312   1.829  1.00  0.00    -0.103 S 
ATOM     12  C   UNL     1      -0.133   3.605   3.702  1.00  0.00     0.064 A 
ATOM     13  C   UNL     1       0.167   4.194   5.030  1.00  0.00     0.068 C 
BRANCH   9  14
ATOM     14  C   UNL     1       0.031   4.079   0.094  1.00  0.00     0.228 C 
ATOM     15  O   UNL     1       0.923   4.889  -0.191  1.00  0.00    -0.288 OA
BRANCH  14  16
ATOM     16  C   UNL     1      -0.848   3.537  -1.085  1.00  0.00     0.313 C 
BRANCH  16  17
ATOM     17  O   UNL     1      -1.562   2.317  -1.188  1.00  0.00    -0.485 OA
BRANCH  17  18
ATOM     18  C   UNL     1      -0.941   1.120  -0.943  1.00  0.00     0.123 A 
ATOM     19  C   UNL     1       2.590  -0.177  -0.283  1.00  0.00     0.044 C 
ATOM     20  C   UNL     1       1.100  -0.129  -0.445  1.00  0.00    -0.047 A 
ATOM     21  C   UNL     1       0.326  -1.234  -0.110  1.00  0.00     0.004 A 
ATOM     22  C   UNL     1       0.464   1.018  -0.931  1.00  0.00     0.050 A 
ATOM     23  C   UNL     1      -1.065  -1.168  -0.189  1.00  0.00     0.008 A 
ATOM     24  C   UNL     1      -1.748   0.016  -0.554  1.00  0.00    -0.000 A 
BRANCH  24  25
ATOM     25  C   UNL     1      -3.300   0.005  -0.433  1.00  0.00    -0.010 C 
ATOM     26  C   UNL     1      -3.868  -0.841  -1.590  1.00  0.00     0.016 C 
ATOM     27  C   UNL     1      -3.752  -0.636   0.913  1.00  0.00     0.016 C 
ATOM     28  C   UNL     1      -4.013   1.375  -0.487  1.00  0.00     0.016 C 
ENDBRANCH  24  25
ENDBRANCH  17  18
ENDBRANCH  16  17
ENDBRANCH  14  16
ENDBRANCH   9  14
ENDBRANCH   6   8
ENDBRANCH   5   6
ENDBRANCH   4   5
ENDBRANCH   3   4
ENDBRANCH   2   3
ENDBRANCH   1   2
BRANCH   1  29
ATOM     29  C   UNL     1      -4.072   4.584   3.590  1.00  0.00     0.188 C 
BRANCH  29  30
ATOM     30  O   UNL     1      -4.090   5.044   4.926  1.00  0.00    -0.377 OA
BRANCH  30  31
ATOM     31  C   UNL     1      -5.305   5.337   5.592  1.00  0.00     0.188 C 
BRANCH  31  32
ATOM     32  C   UNL     1      -6.463   5.952   4.820  1.00  0.00     0.188 C 
BRANCH  32  33
ATOM     33  O   UNL     1      -7.262   4.895   4.295  1.00  0.00    -0.376 OA
BRANCH  33  34
ATOM     34  C   UNL     1      -8.378   5.313   3.510  1.00  0.00     0.202 C 
BRANCH  34  35
ATOM     35  C   UNL     1      -9.451   6.078   4.301  1.00  0.00     0.261 C 
BRANCH  35  36
ATOM     36  O   UNL     1      -9.945   5.227   5.350  1.00  0.00    -0.460 OA
BRANCH  36  37
ATOM     37  C   UNL     1      -9.706   5.663   6.614  1.00  0.00     0.338 C 
ATOM     38  O   UNL     1      -9.878   6.800   7.019  1.00  0.00    -0.246 OA
BRANCH  37  39
ATOM     39  C   UNL     1      -8.939   4.621   7.351  1.00  0.00     0.060 A 
ATOM     40  C   UNL     1      -8.322   4.938   8.572  1.00  0.00     0.016 A 
ATOM     41  C   UNL     1      -8.618   3.427   6.708  1.00  0.00     0.016 A 
ATOM     42  C   UNL     1      -7.291   4.128   9.074  1.00  0.00     0.010 A 
ATOM     43  C   UNL     1      -7.561   2.668   7.175  1.00  0.00     0.010 A 
ATOM     44  C   UNL     1      -6.851   3.029   8.331  1.00  0.00    -0.014 A 
BRANCH  44  45
ATOM     45  C   UNL     1      -5.560   2.340   8.529  1.00  0.00     0.031 A 
ATOM     46  C   UNL     1      -5.470   0.843   8.489  1.00  0.00     0.074 A 
ATOM     47  C   UNL     1      -4.422   3.066   8.384  1.00  0.00     0.049 A 
ATOM     48  N   UNL     1      -4.367   0.173   8.547  1.00  0.00    -0.248 NA
ATOM     49  C   UNL     1      -6.627  -0.043   8.388  1.00  0.00     0.031 C 
ATOM     50  C   UNL     1      -3.134   2.564   7.917  1.00  0.00     0.029 A 
ATOM     51  N   UNL     1      -4.172   4.422   8.528  1.00  0.00    -0.354 N 
ATOM     52  C   UNL     1      -4.606  -1.121   8.146  1.00  0.00     0.074 A 
ATOM     53  C   UNL     1      -6.042  -1.234   8.202  1.00  0.00     0.031 C 
ATOM     54  C   UNL     1      -2.235   3.550   7.824  1.00  0.00     0.029 A 
ATOM     55  C   UNL     1      -2.793   4.666   8.541  1.00  0.00     0.049 A 
ATOM     56  H   UNL     1      -4.866   5.116   8.609  1.00  0.00     0.167 HD
ATOM     57  C   UNL     1      -3.558  -1.877   7.689  1.00  0.00     0.037 A 
ATOM     58  C   UNL     1      -2.164   5.165   9.649  1.00  0.00     0.037 A 
ATOM     59  C   UNL     1      -2.254  -1.215   7.944  1.00  0.00     0.049 A 
ATOM     60  C   UNL     1      -1.296   4.101  10.297  1.00  0.00     0.074 A 
ATOM     61  C   UNL     1      -1.167  -0.881   7.152  1.00  0.00     0.029 A 
ATOM     62  N   UNL     1      -1.995  -0.626   9.192  1.00  0.00    -0.354 N 
ATOM     63  N   UNL     1      -1.562   2.819  10.209  1.00  0.00    -0.248 NA
ATOM     64  C   UNL     1       0.014   4.354  10.895  1.00  0.00     0.031 C 
ATOM     65  C   UNL     1      -0.344   0.027   7.878  1.00  0.00     0.029 A 
ATOM     66  C   UNL     1      -0.863   0.166   9.157  1.00  0.00     0.049 A 
ATOM     67  H   UNL     1      -2.552  -0.760   9.993  1.00  0.00     0.167 HD
ATOM     68  C   UNL     1      -0.458   2.105  10.568  1.00  0.00     0.074 A 
ATOM     69  C   UNL     1       0.478   3.101  11.065  1.00  0.00     0.031 C 
ATOM     70  C   UNL     1      -0.305   0.764  10.363  1.00  0.00     0.037 A 
BRANCH  57  71
ATOM     71  C   UNL     1      -3.689  -3.147   6.823  1.00  0.00     0.064 A 
ATOM     72  C   UNL     1      -2.543  -3.884   6.431  1.00  0.00     0.173 A 
ATOM     73  C   UNL     1      -4.890  -3.645   6.266  1.00  0.00     0.173 A 
ATOM     74  F   UNL     1      -1.322  -3.564   6.879  1.00  0.00    -0.203 F 
ATOM     75  C   UNL     1      -2.597  -4.987   5.561  1.00  0.00     0.198 A 
ATOM     76  C   UNL     1      -4.951  -4.788   5.454  1.00  0.00     0.198 A 
ATOM     77  F   UNL     1      -6.062  -3.028   6.426  1.00  0.00    -0.203 F 
ATOM     78  F   UNL     1      -1.464  -5.599   5.185  1.00  0.00    -0.200 F 
ATOM     79  C   UNL     1      -3.804  -5.451   5.087  1.00  0.00     0.200 A 
ATOM     80  F   UNL     1      -6.142  -5.224   5.013  1.00  0.00    -0.200 F 
ATOM     81  F   UNL     1      -3.863  -6.518   4.277  1.00  0.00    -0.200 F 
ENDBRANCH  57  71
BRANCH  58  82
ATOM     82  C   UNL     1      -2.920   6.311  10.223  1.00  0.00     0.064 A 
ATOM     83  C   UNL     1      -2.951   7.441   9.376  1.00  0.00     0.173 A 
ATOM     84  C   UNL     1      -4.033   6.089  11.047  1.00  0.00     0.173 A 
ATOM     85  F   UNL     1      -1.897   7.710   8.589  1.00  0.00    -0.203 F 
ATOM     86  C   UNL     1      -4.135   8.142   9.158  1.00  0.00     0.198 A 
ATOM     87  C   UNL     1      -5.210   6.819  10.846  1.00  0.00     0.198 A 
ATOM     88  F   UNL     1      -4.056   5.046  11.888  1.00  0.00    -0.203 F 
ATOM     89  F   UNL     1      -4.203   9.047   8.171  1.00  0.00    -0.200 F 
ATOM     90  C   UNL     1      -5.277   7.795   9.858  1.00  0.00     0.200 A 
ATOM     91  F   UNL     1      -6.329   6.477  11.503  1.00  0.00    -0.200 F 
ATOM     92  F   UNL     1      -6.456   8.339   9.527  1.00  0.00    -0.200 F 
ENDBRANCH  58  82
BRANCH  70  93
ATOM     93  C   UNL     1       0.479  -0.110  11.305  1.00  0.00     0.064 A 
ATOM     94  C   UNL     1       0.648   0.226  12.659  1.00  0.00     0.173 A 
ATOM     95  C   UNL     1       0.854  -1.425  10.944  1.00  0.00     0.173 A 
ATOM     96  F   UNL     1       0.245   1.412  13.140  1.00  0.00    -0.203 F 
ATOM     97  C   UNL     1       1.175  -0.676  13.580  1.00  0.00     0.198 A 
ATOM     98  C   UNL     1       1.337  -2.338  11.877  1.00  0.00     0.198 A 
ATOM     99  F   UNL     1       0.719  -1.880   9.690  1.00  0.00    -0.203 F 
ATOM    100  F   UNL     1       1.324  -0.303  14.858  1.00  0.00    -0.200 F 
ATOM    101  C   UNL     1       1.504  -1.961  13.193  1.00  0.00     0.200 A 
ATOM    102  F   UNL     1       1.605  -3.596  11.499  1.00  0.00    -0.200 F 
ATOM    103  F   UNL     1       1.957  -2.842  14.094  1.00  0.00    -0.200 F 
ENDBRANCH  70  93
ENDBRANCH  44  45
ENDBRANCH  37  39
ENDBRANCH  36  37
ENDBRANCH  35  36
ENDBRANCH  34  35
ENDBRANCH  33  34
ENDBRANCH  32  33
ENDBRANCH  31  32
ENDBRANCH  30  31
ENDBRANCH  29  30
ENDBRANCH   1  29
TORSDOF 25
