REMARK SMILES Nc1ccc(N2CC3(CCC3)C2)c(C(=O)OCCOCCOCCOCCOC(=O)c2ccc(-c3c4nc(c(-c5c(F)c(F)c(F)c(F)c5F)c5ccc([nH]5)c(-c5c(F)c(F)c(F)c(F)c5F)c5nc(c(-c6c(F)c(F)c(F)c(F)c6F)c6ccc3[nH]6)C=C5)C=C4)cc2)c1
REMARK SMILES IDX 23 1 22 2 21 3 20 4 19 5 18 6 17 7 16 8 14 9 15 10 13 11
REMARK SMILES IDX 2 12 3 13 94 14 4 15 5 16 1 17 6 20 7 21 12 22 8 23 9 24
REMARK SMILES IDX 11 25 10 26 24 27 25 28 26 29 27 30 28 31 29 32 30 33 31 34
REMARK SMILES IDX 32 35 93 36 33 37 92 38 34 39 35 40 36 41 86 42 37 43 91 44
REMARK SMILES IDX 85 45 87 46 38 47 90 48 84 49 83 50 39 52 71 53 51 54 70 55
REMARK SMILES IDX 52 56 55 57 69 58 88 59 53 60 54 61 68 63 89 64 56 65 40 66
REMARK SMILES IDX 41 67 49 68 42 69 43 70 47 71 50 72 44 73 45 74 48 75 46 76
REMARK SMILES IDX 72 77 73 78 81 79 74 80 75 81 79 82 82 83 76 84 77 85 80 86
REMARK SMILES IDX 78 87 57 88 58 89 66 90 59 91 60 92 64 93 67 94 61 95 62 96
REMARK SMILES IDX 65 97 63 98
REMARK H PARENT 1 18 1 19 87 51 55 62
REMARK Flexibility Score: inf
ROOT
ATOM      1  C   UNL     1      -1.668   5.005  -3.105  1.00  0.00     0.188 C 
ENDROOT
BRANCH   1   2
ATOM      2  O   UNL     1      -1.265   3.644  -3.058  1.00  0.00    -0.377 OA
BRANCH   2   3
ATOM      3  C   UNL     1      -1.606   2.935  -1.871  1.00  0.00     0.188 C 
BRANCH   3   4
ATOM      4  C   UNL     1      -2.953   3.235  -1.195  1.00  0.00     0.188 C 
BRANCH   4   5
ATOM      5  O   UNL     1      -3.038   4.571  -0.689  1.00  0.00    -0.376 OA
BRANCH   5   6
ATOM      6  C   UNL     1      -3.121   4.674   0.732  1.00  0.00     0.202 C 
BRANCH   6   7
ATOM      7  C   UNL     1      -1.755   4.528   1.407  1.00  0.00     0.261 C 
BRANCH   7   8
ATOM      8  O   UNL     1      -1.159   3.238   1.194  1.00  0.00    -0.460 OA
BRANCH   8   9
ATOM      9  C   UNL     1      -1.743   2.174   1.808  1.00  0.00     0.340 C 
ATOM     10  O   UNL     1      -2.634   2.235   2.635  1.00  0.00    -0.246 OA
BRANCH   9  11
ATOM     11  C   UNL     1      -1.174   0.947   1.187  1.00  0.00     0.085 A 
ATOM     12  C   UNL     1       0.817  -0.164   0.331  1.00  0.00     0.032 A 
ATOM     13  C   UNL     1       0.006  -1.200  -0.130  1.00  0.00     0.027 A 
ATOM     14  C   UNL     1       0.222   0.884   1.028  1.00  0.00     0.043 A 
ATOM     15  C   UNL     1      -1.388  -1.138   0.003  1.00  0.00     0.029 A 
ATOM     16  C   UNL     1      -2.004  -0.058   0.648  1.00  0.00     0.051 A 
BRANCH  12  17
ATOM     17  N   UNL     1       2.194  -0.226   0.198  1.00  0.00    -0.399 N 
ATOM     18  H   UNL     1       2.608  -0.970  -0.296  1.00  0.00     0.156 HD
ATOM     19  H   UNL     1       2.759   0.474   0.597  1.00  0.00     0.156 HD
ENDBRANCH  12  17
BRANCH  16  20
ATOM     20  N   UNL     1      -3.398   0.060   0.637  1.00  0.00    -0.370 N 
ATOM     21  C   UNL     1      -4.372  -0.251   1.651  1.00  0.00     0.125 C 
ATOM     22  C   UNL     1      -4.361  -0.013  -0.425  1.00  0.00     0.125 C 
ATOM     23  C   UNL     1      -5.367   0.284   0.657  1.00  0.00     0.005 C 
ATOM     24  C   UNL     1      -6.778  -0.209   0.541  1.00  0.00     0.011 C 
ATOM     25  C   UNL     1      -5.833   1.712   0.856  1.00  0.00     0.011 C 
ATOM     26  C   UNL     1      -7.192   1.266   0.282  1.00  0.00     0.001 C 
ENDBRANCH  16  20
ENDBRANCH   9  11
ENDBRANCH   8   9
ENDBRANCH   7   8
ENDBRANCH   6   7
ENDBRANCH   5   6
ENDBRANCH   4   5
ENDBRANCH   3   4
ENDBRANCH   2   3
ENDBRANCH   1   2
BRANCH   1  27
ATOM     27  C   UNL     1      -3.089   5.174  -3.675  1.00  0.00     0.188 C 
BRANCH  27  28
ATOM     28  O   UNL     1      -3.695   3.937  -4.054  1.00  0.00    -0.376 OA
BRANCH  28  29
ATOM     29  C   UNL     1      -3.648   3.603  -5.437  1.00  0.00     0.202 C 
BRANCH  29  30
ATOM     30  C   UNL     1      -2.265   3.247  -6.003  1.00  0.00     0.261 C 
BRANCH  30  31
ATOM     31  O   UNL     1      -1.304   4.316  -6.003  1.00  0.00    -0.460 OA
BRANCH  31  32
ATOM     32  C   UNL     1      -1.618   5.455  -6.654  1.00  0.00     0.338 C 
ATOM     33  O   UNL     1      -2.596   5.676  -7.342  1.00  0.00    -0.246 OA
BRANCH  32  34
ATOM     34  C   UNL     1      -0.655   6.485  -6.212  1.00  0.00     0.060 A 
ATOM     35  C   UNL     1      -1.151   7.680  -5.673  1.00  0.00     0.016 A 
ATOM     36  C   UNL     1       0.721   6.248  -6.266  1.00  0.00     0.016 A 
ATOM     37  C   UNL     1      -0.267   8.653  -5.208  1.00  0.00     0.010 A 
ATOM     38  C   UNL     1       1.607   7.234  -5.827  1.00  0.00     0.010 A 
ATOM     39  C   UNL     1       1.116   8.451  -5.325  1.00  0.00    -0.014 A 
BRANCH  39  40
ATOM     40  C   UNL     1       2.038   9.597  -5.158  1.00  0.00     0.031 A 
ATOM     41  C   UNL     1       2.345  10.423  -6.376  1.00  0.00     0.074 A 
ATOM     42  C   UNL     1       2.586   9.902  -3.970  1.00  0.00     0.049 A 
ATOM     43  N   UNL     1       3.140  11.453  -6.505  1.00  0.00    -0.248 NA
ATOM     44  C   UNL     1       1.659  10.031  -7.619  1.00  0.00     0.031 C 
ATOM     45  C   UNL     1       2.342   9.196  -2.715  1.00  0.00     0.029 A 
ATOM     46  N   UNL     1       3.476  10.892  -3.633  1.00  0.00    -0.354 N 
ATOM     47  C   UNL     1       3.041  11.835  -7.836  1.00  0.00     0.074 A 
ATOM     48  C   UNL     1       2.137  10.911  -8.483  1.00  0.00     0.031 C 
ATOM     49  C   UNL     1       3.080   9.766  -1.745  1.00  0.00     0.029 A 
ATOM     50  C   UNL     1       3.863  10.861  -2.317  1.00  0.00     0.049 A 
ATOM     51  H   UNL     1       3.806  11.561  -4.276  1.00  0.00     0.167 HD
ATOM     52  C   UNL     1       3.644  12.870  -8.463  1.00  0.00     0.037 A 
ATOM     53  C   UNL     1       4.763  11.621  -1.661  1.00  0.00     0.037 A 
ATOM     54  C   UNL     1       4.561  13.775  -7.829  1.00  0.00     0.049 A 
ATOM     55  C   UNL     1       5.485  12.719  -2.405  1.00  0.00     0.074 A 
ATOM     56  C   UNL     1       5.229  14.854  -8.379  1.00  0.00     0.029 A 
ATOM     57  N   UNL     1       4.948  13.696  -6.500  1.00  0.00    -0.354 N 
ATOM     58  N   UNL     1       5.361  13.097  -3.654  1.00  0.00    -0.248 NA
ATOM     59  C   UNL     1       6.473  13.498  -1.643  1.00  0.00     0.031 C 
ATOM     60  C   UNL     1       6.054  15.404  -7.392  1.00  0.00     0.029 A 
ATOM     61  C   UNL     1       5.863  14.695  -6.216  1.00  0.00     0.049 A 
ATOM     62  H   UNL     1       4.621  13.028  -5.854  1.00  0.00     0.167 HD
ATOM     63  C   UNL     1       6.227  14.171  -3.819  1.00  0.00     0.074 A 
ATOM     64  C   UNL     1       6.865  14.393  -2.539  1.00  0.00     0.031 C 
ATOM     65  C   UNL     1       6.474  14.908  -4.930  1.00  0.00     0.037 A 
BRANCH  52  66
ATOM     66  C   UNL     1       3.343  13.060  -9.918  1.00  0.00     0.064 A 
ATOM     67  C   UNL     1       2.104  13.558 -10.349  1.00  0.00     0.173 A 
ATOM     68  C   UNL     1       4.308  12.760 -10.890  1.00  0.00     0.173 A 
ATOM     69  F   UNL     1       1.142  13.837  -9.457  1.00  0.00    -0.203 F 
ATOM     70  C   UNL     1       1.837  13.733 -11.704  1.00  0.00     0.198 A 
ATOM     71  C   UNL     1       4.046  12.960 -12.242  1.00  0.00     0.198 A 
ATOM     72  F   UNL     1       5.506  12.277 -10.527  1.00  0.00    -0.203 F 
ATOM     73  F   UNL     1       0.633  14.172 -12.097  1.00  0.00    -0.200 F 
ATOM     74  C   UNL     1       2.810  13.441 -12.648  1.00  0.00     0.200 A 
ATOM     75  F   UNL     1       4.989  12.683 -13.153  1.00  0.00    -0.200 F 
ATOM     76  F   UNL     1       2.554  13.616 -13.952  1.00  0.00    -0.200 F 
ENDBRANCH  52  66
BRANCH  53  77
ATOM     77  C   UNL     1       5.054  11.371  -0.225  1.00  0.00     0.064 A 
ATOM     78  C   UNL     1       4.697  12.303   0.760  1.00  0.00     0.173 A 
ATOM     79  C   UNL     1       5.738  10.219   0.187  1.00  0.00     0.173 A 
ATOM     80  F   UNL     1       4.068  13.436   0.412  1.00  0.00    -0.203 F 
ATOM     81  C   UNL     1       5.033  12.103   2.097  1.00  0.00     0.198 A 
ATOM     82  C   UNL     1       6.051  10.007   1.528  1.00  0.00     0.198 A 
ATOM     83  F   UNL     1       6.110   9.299  -0.716  1.00  0.00    -0.203 F 
ATOM     84  F   UNL     1       4.728  13.036   3.010  1.00  0.00    -0.200 F 
ATOM     85  C   UNL     1       5.707  10.953   2.481  1.00  0.00     0.200 A 
ATOM     86  F   UNL     1       6.696   8.891   1.896  1.00  0.00    -0.200 F 
ATOM     87  F   UNL     1       6.036  10.764   3.766  1.00  0.00    -0.200 F 
ENDBRANCH  53  77
BRANCH  65  88
ATOM     88  C   UNL     1       7.443  16.046  -4.805  1.00  0.00     0.064 A 
ATOM     89  C   UNL     1       8.823  15.828  -4.694  1.00  0.00     0.173 A 
ATOM     90  C   UNL     1       6.987  17.373  -4.855  1.00  0.00     0.173 A 
ATOM     91  F   UNL     1       9.307  14.579  -4.630  1.00  0.00    -0.203 F 
ATOM     92  C   UNL     1       9.711  16.898  -4.616  1.00  0.00     0.198 A 
ATOM     93  C   UNL     1       7.880  18.439  -4.805  1.00  0.00     0.198 A 
ATOM     94  F   UNL     1       5.676  17.633  -4.970  1.00  0.00    -0.203 F 
ATOM     95  F   UNL     1      11.024  16.668  -4.470  1.00  0.00    -0.200 F 
ATOM     96  C   UNL     1       9.240  18.201  -4.679  1.00  0.00     0.200 A 
ATOM     97  F   UNL     1       7.424  19.697  -4.880  1.00  0.00    -0.200 F 
ATOM     98  F   UNL     1      10.097  19.229  -4.614  1.00  0.00    -0.200 F 
ENDBRANCH  65  88
ENDBRANCH  39  40
ENDBRANCH  32  34
ENDBRANCH  31  32
ENDBRANCH  30  31
ENDBRANCH  29  30
ENDBRANCH  28  29
ENDBRANCH  27  28
ENDBRANCH   1  27
TORSDOF 22
