REMARK SMILES NS(=O)(=O)c1ccc(N2N=C(C(=O)OCCOCCOCCOCCOC(=O)c3ccc(-c4c5nc(c(-c6c(F)c(F)c(F)c(F)c6F)c6ccc([nH]6)c(-c6c(F)c(F)c(F)c(F)c6F)c6nc(c(-c7c(F)c(F)c(F)c(F)c7F)c7ccc4[nH]7)C=C6)C=C5)cc3)C[C@H]2c2ccco2)cc1
REMARK SMILES IDX 19 1 18 2 17 3 16 4 15 5 14 6 12 7 13 8 11 9 9 10 10 11
REMARK SMILES IDX 93 12 92 13 8 14 5 15 6 16 100 17 7 18 99 19 2 20 3 21 4 22
REMARK SMILES IDX 1 23 94 26 95 27 98 28 96 29 97 30 20 31 21 32 22 33 23 34
REMARK SMILES IDX 24 35 25 36 26 37 27 38 28 39 29 40 30 41 91 42 31 43 90 44
REMARK SMILES IDX 32 45 33 46 34 47 84 48 35 49 89 50 83 51 85 52 36 53 88 54
REMARK SMILES IDX 82 55 81 56 37 58 69 59 49 60 68 61 50 62 53 63 67 64 86 65
REMARK SMILES IDX 51 66 52 67 66 69 87 70 54 71 38 72 39 73 47 74 40 75 41 76
REMARK SMILES IDX 45 77 48 78 42 79 43 80 46 81 44 82 70 83 71 84 79 85 72 86
REMARK SMILES IDX 73 87 77 88 80 89 74 90 75 91 78 92 76 93 55 94 56 95 64 96
REMARK SMILES IDX 57 97 58 98 62 99 65 100 59 101 60 102 63 103 61 104
REMARK H PARENT 1 24 1 25 85 57 53 68
REMARK Flexibility Score: inf
ROOT
ATOM      1  C   UNL     1       0.355  -8.073  -6.675  1.00  0.00     0.188 C 
ENDROOT
BRANCH   1   2
ATOM      2  C   UNL     1      -0.822  -7.326  -7.324  1.00  0.00     0.188 C 
BRANCH   2   3
ATOM      3  O   UNL     1      -1.071  -7.725  -8.671  1.00  0.00    -0.376 OA
BRANCH   3   4
ATOM      4  C   UNL     1      -0.788  -6.755  -9.674  1.00  0.00     0.202 C 
BRANCH   4   5
ATOM      5  C   UNL     1       0.703  -6.559  -9.977  1.00  0.00     0.261 C 
BRANCH   5   6
ATOM      6  O   UNL     1       1.475  -6.196  -8.826  1.00  0.00    -0.459 OA
BRANCH   6   7
ATOM      7  C   UNL     1       1.361  -4.927  -8.398  1.00  0.00     0.354 C 
ATOM      8  O   UNL     1       0.794  -4.003  -8.946  1.00  0.00    -0.245 OA
BRANCH   7   9
ATOM      9  C   UNL     1       1.914  -4.873  -6.996  1.00  0.00     0.148 C 
ATOM     10  N   UNL     1       2.030  -4.579  -4.900  1.00  0.00    -0.254 N 
ATOM     11  N   UNL     1       1.232  -4.401  -5.996  1.00  0.00    -0.169 NA
ATOM     12  C   UNL     1       3.428  -4.870  -5.279  1.00  0.00     0.180 C 
ATOM     13  C   UNL     1       3.227  -5.507  -6.662  1.00  0.00     0.101 C 
BRANCH  10  14
ATOM     14  C   UNL     1       1.680  -3.926  -3.725  1.00  0.00     0.060 A 
ATOM     15  C   UNL     1       0.902  -2.615  -1.364  1.00  0.00     0.082 A 
ATOM     16  C   UNL     1       0.765  -4.002  -1.467  1.00  0.00     0.024 A 
ATOM     17  C   UNL     1       1.421  -1.877  -2.427  1.00  0.00     0.024 A 
ATOM     18  C   UNL     1       1.155  -4.650  -2.644  1.00  0.00     0.029 A 
ATOM     19  C   UNL     1       1.789  -2.535  -3.603  1.00  0.00     0.029 A 
BRANCH  15  20
ATOM     20  S   UNL     1       0.416  -1.829   0.141  1.00  0.00     0.238 S 
ATOM     21  O   UNL     1       1.092  -2.482   1.237  1.00  0.00    -0.207 OA
ATOM     22  O   UNL     1      -1.014  -1.625   0.113  1.00  0.00    -0.207 OA
BRANCH  20  23
ATOM     23  N   UNL     1       1.097  -0.293   0.060  1.00  0.00    -0.225 NA
ATOM     24  H   UNL     1       0.859   0.230   0.903  1.00  0.00     0.137 HD
ATOM     25  H   UNL     1       0.734   0.197  -0.757  1.00  0.00     0.137 HD
ENDBRANCH  20  23
ENDBRANCH  15  20
ENDBRANCH  10  14
BRANCH  12  26
ATOM     26  C   UNL     1       4.370  -3.697  -5.346  1.00  0.00     0.128 A 
ATOM     27  C   UNL     1       5.071  -2.996  -4.383  1.00  0.00     0.048 A 
ATOM     28  O   UNL     1       4.620  -3.153  -6.576  1.00  0.00    -0.467 OA
ATOM     29  C   UNL     1       5.772  -1.969  -5.061  1.00  0.00     0.042 A 
ATOM     30  C   UNL     1       5.473  -2.116  -6.394  1.00  0.00     0.195 A 
ENDBRANCH  12  26
ENDBRANCH   7   9
ENDBRANCH   6   7
ENDBRANCH   5   6
ENDBRANCH   4   5
ENDBRANCH   3   4
ENDBRANCH   2   3
ENDBRANCH   1   2
BRANCH   1  31
ATOM     31  O   UNL     1       1.204  -8.772  -7.571  1.00  0.00    -0.377 OA
BRANCH  31  32
ATOM     32  C   UNL     1       0.706  -9.943  -8.220  1.00  0.00     0.188 C 
BRANCH  32  33
ATOM     33  C   UNL     1      -0.722 -10.488  -7.982  1.00  0.00     0.188 C 
BRANCH  33  34
ATOM     34  O   UNL     1      -1.215 -10.311  -6.662  1.00  0.00    -0.376 OA
BRANCH  34  35
ATOM     35  C   UNL     1      -1.286 -11.471  -5.845  1.00  0.00     0.202 C 
BRANCH  35  36
ATOM     36  C   UNL     1       0.075 -11.954  -5.332  1.00  0.00     0.261 C 
BRANCH  36  37
ATOM     37  O   UNL     1       0.973 -12.424  -6.351  1.00  0.00    -0.460 OA
BRANCH  37  38
ATOM     38  C   UNL     1       0.566 -13.470  -7.102  1.00  0.00     0.338 C 
ATOM     39  O   UNL     1      -0.462 -14.111  -6.992  1.00  0.00    -0.246 OA
BRANCH  38  40
ATOM     40  C   UNL     1       1.516 -13.606  -8.222  1.00  0.00     0.060 A 
ATOM     41  C   UNL     1       1.038 -13.521  -9.535  1.00  0.00     0.016 A 
ATOM     42  C   UNL     1       2.874 -13.807  -7.969  1.00  0.00     0.016 A 
ATOM     43  C   UNL     1       1.921 -13.664 -10.606  1.00  0.00     0.010 A 
ATOM     44  C   UNL     1       3.753 -13.966  -9.039  1.00  0.00     0.010 A 
ATOM     45  C   UNL     1       3.277 -13.922 -10.362  1.00  0.00    -0.014 A 
BRANCH  45  46
ATOM     46  C   UNL     1       4.179 -14.310 -11.470  1.00  0.00     0.031 A 
ATOM     47  C   UNL     1       4.426 -15.771 -11.714  1.00  0.00     0.074 A 
ATOM     48  C   UNL     1       4.792 -13.384 -12.227  1.00  0.00     0.049 A 
ATOM     49  N   UNL     1       5.241 -16.349 -12.559  1.00  0.00    -0.248 NA
ATOM     50  C   UNL     1       3.653 -16.708 -10.883  1.00  0.00     0.031 C 
ATOM     51  C   UNL     1       4.615 -11.940 -12.103  1.00  0.00     0.029 A 
ATOM     52  N   UNL     1       5.708 -13.528 -13.239  1.00  0.00    -0.354 N 
ATOM     53  C   UNL     1       5.083 -17.713 -12.357  1.00  0.00     0.074 A 
ATOM     54  C   UNL     1       4.118 -17.878 -11.293  1.00  0.00     0.031 C 
ATOM     55  C   UNL     1       5.419 -11.326 -12.989  1.00  0.00     0.029 A 
ATOM     56  C   UNL     1       6.189 -12.335 -13.717  1.00  0.00     0.049 A 
ATOM     57  H   UNL     1       5.994 -14.404 -13.588  1.00  0.00     0.167 HD
ATOM     58  C   UNL     1       5.686 -18.736 -13.007  1.00  0.00     0.037 A 
ATOM     59  C   UNL     1       7.162 -12.089 -14.617  1.00  0.00     0.037 A 
ATOM     60  C   UNL     1       6.652 -18.570 -14.059  1.00  0.00     0.049 A 
ATOM     61  C   UNL     1       7.871 -13.244 -15.278  1.00  0.00     0.074 A 
ATOM     62  C   UNL     1       7.295 -19.544 -14.803  1.00  0.00     0.029 A 
ATOM     63  N   UNL     1       7.127 -17.346 -14.507  1.00  0.00    -0.354 N 
ATOM     64  N   UNL     1       7.687 -14.532 -15.116  1.00  0.00    -0.248 NA
ATOM     65  C   UNL     1       8.925 -12.910 -16.247  1.00  0.00     0.031 C 
ATOM     66  C   UNL     1       8.199 -18.911 -15.662  1.00  0.00     0.029 A 
ATOM     67  C   UNL     1       8.081 -17.540 -15.493  1.00  0.00     0.049 A 
ATOM     68  H   UNL     1       6.830 -16.468 -14.172  1.00  0.00     0.167 HD
ATOM     69  C   UNL     1       8.581 -15.159 -15.975  1.00  0.00     0.074 A 
ATOM     70  C   UNL     1       9.299 -14.110 -16.667  1.00  0.00     0.031 C 
ATOM     71  C   UNL     1       8.788 -16.485 -16.173  1.00  0.00     0.037 A 
BRANCH  58  72
ATOM     72  C   UNL     1       5.338 -20.129 -12.570  1.00  0.00     0.064 A 
ATOM     73  C   UNL     1       4.082 -20.694 -12.836  1.00  0.00     0.173 A 
ATOM     74  C   UNL     1       6.282 -20.914 -11.891  1.00  0.00     0.173 A 
ATOM     75  F   UNL     1       3.140 -19.977 -13.469  1.00  0.00    -0.203 F 
ATOM     76  C   UNL     1       3.773 -21.983 -12.413  1.00  0.00     0.198 A 
ATOM     77  C   UNL     1       5.979 -22.214 -11.495  1.00  0.00     0.198 A 
ATOM     78  F   UNL     1       7.498 -20.422 -11.614  1.00  0.00    -0.203 F 
ATOM     79  F   UNL     1       2.549 -22.484 -12.632  1.00  0.00    -0.200 F 
ATOM     80  C   UNL     1       4.723 -22.744 -11.748  1.00  0.00     0.200 A 
ATOM     81  F   UNL     1       6.902 -22.951 -10.862  1.00  0.00    -0.200 F 
ATOM     82  F   UNL     1       4.425 -23.986 -11.343  1.00  0.00    -0.200 F 
ENDBRANCH  58  72
BRANCH  59  83
ATOM     83  C   UNL     1       7.543 -10.687 -14.929  1.00  0.00     0.064 A 
ATOM     84  C   UNL     1       7.273 -10.123 -16.183  1.00  0.00     0.173 A 
ATOM     85  C   UNL     1       8.198  -9.886 -13.981  1.00  0.00     0.173 A 
ATOM     86  F   UNL     1       6.675 -10.858 -17.132  1.00  0.00    -0.203 F 
ATOM     87  C   UNL     1       7.657  -8.817 -16.483  1.00  0.00     0.198 A 
ATOM     88  C   UNL     1       8.556  -8.572 -14.272  1.00  0.00     0.198 A 
ATOM     89  F   UNL     1       8.483 -10.380 -12.767  1.00  0.00    -0.203 F 
ATOM     90  F   UNL     1       7.426  -8.317 -17.704  1.00  0.00    -0.200 F 
ATOM     91  C   UNL     1       8.291  -8.040 -15.525  1.00  0.00     0.200 A 
ATOM     92  F   UNL     1       9.159  -7.822 -13.339  1.00  0.00    -0.200 F 
ATOM     93  F   UNL     1       8.655  -6.783 -15.812  1.00  0.00    -0.200 F 
ENDBRANCH  59  83
BRANCH  71  94
ATOM     94  C   UNL     1       9.815 -16.882 -17.194  1.00  0.00     0.064 A 
ATOM     95  C   UNL     1      11.188 -16.731 -16.954  1.00  0.00     0.173 A 
ATOM     96  C   UNL     1       9.421 -17.474 -18.405  1.00  0.00     0.173 A 
ATOM     97  F   UNL     1      11.616 -16.158 -15.819  1.00  0.00    -0.203 F 
ATOM     98  C   UNL     1      12.129 -17.140 -17.897  1.00  0.00     0.198 A 
ATOM     99  C   UNL     1      10.365 -17.909 -19.331  1.00  0.00     0.198 A 
ATOM    100  F   UNL     1       8.120 -17.649 -18.680  1.00  0.00    -0.203 F 
ATOM    101  F   UNL     1      13.435 -16.949 -17.664  1.00  0.00    -0.200 F 
ATOM    102  C   UNL     1      11.717 -17.736 -19.079  1.00  0.00     0.200 A 
ATOM    103  F   UNL     1       9.965 -18.498 -20.467  1.00  0.00    -0.200 F 
ATOM    104  F   UNL     1      12.624 -18.140 -19.980  1.00  0.00    -0.200 F 
ENDBRANCH  71  94
ENDBRANCH  45  46
ENDBRANCH  38  40
ENDBRANCH  37  38
ENDBRANCH  36  37
ENDBRANCH  35  36
ENDBRANCH  34  35
ENDBRANCH  33  34
ENDBRANCH  32  33
ENDBRANCH  31  32
ENDBRANCH   1  31
TORSDOF 24
