REMARK SMILES Cc1ccc(C)c(N2C(=O)C[C@@H](SCC(=O)OCCOCCOCCOCCOC(=O)c3ccc(-c4c5nc(c(-c6c(F)c(F)c(F)c(F)c6F)c6ccc([nH]6)c(-c6c(F)c(F)c(F)c(F)c6F)c6nc(c(-c7c(F)c(F)c(F)c(F)c7F)c7ccc4[nH]7)C=C6)C=C5)cc3)C2=O)c1
REMARK SMILES IDX 22 1 21 2 20 3 19 4 18 5 17 6 15 7 16 8 14 9 13 10 12 11
REMARK SMILES IDX 8 12 9 13 95 14 10 15 11 16 96 17 7 18 1 19 2 20 3 21 97 22
REMARK SMILES IDX 4 23 5 24 6 25 23 26 24 27 25 28 26 29 27 30 28 31 29 32
REMARK SMILES IDX 30 33 31 34 32 35 33 36 94 37 34 38 93 39 35 40 36 41 37 42
REMARK SMILES IDX 87 43 38 44 92 45 86 46 88 47 39 48 91 49 85 50 84 51 40 53
REMARK SMILES IDX 72 54 52 55 71 56 53 57 56 58 70 59 89 60 54 61 55 62 69 64
REMARK SMILES IDX 90 65 57 66 41 67 42 68 50 69 43 70 44 71 48 72 51 73 45 74
REMARK SMILES IDX 46 75 49 76 47 77 73 78 74 79 82 80 75 81 76 82 80 83 83 84
REMARK SMILES IDX 77 85 78 86 81 87 79 88 58 89 59 90 67 91 60 92 61 93 65 94
REMARK SMILES IDX 68 95 62 96 63 97 66 98 64 99
REMARK H PARENT 88 52 56 63
REMARK Flexibility Score: inf
ROOT
ATOM      1  C   UNL     1      -3.838   4.832   2.613  1.00  0.00     0.188 C 
ENDROOT
BRANCH   1   2
ATOM      2  C   UNL     1      -4.216   6.252   2.922  1.00  0.00     0.188 C 
BRANCH   2   3
ATOM      3  O   UNL     1      -5.085   6.350   4.016  1.00  0.00    -0.376 OA
BRANCH   3   4
ATOM      4  C   UNL     1      -6.453   6.589   3.788  1.00  0.00     0.202 C 
BRANCH   4   5
ATOM      5  C   UNL     1      -7.144   6.142   2.488  1.00  0.00     0.261 C 
BRANCH   5   6
ATOM      6  O   UNL     1      -7.063   4.730   2.140  1.00  0.00    -0.463 OA
BRANCH   6   7
ATOM      7  C   UNL     1      -6.513   4.462   0.911  1.00  0.00     0.315 C 
ATOM      8  O   UNL     1      -5.938   5.320   0.257  1.00  0.00    -0.251 OA
BRANCH   7   9
ATOM      9  C   UNL     1      -6.743   3.071   0.377  1.00  0.00     0.192 C 
BRANCH   9  10
ATOM     10  S   UNL     1      -5.383   1.924  -0.198  1.00  0.00    -0.136 SA
BRANCH  10  11
ATOM     11  C   UNL     1      -3.741   2.600   0.241  1.00  0.00     0.146 C 
ATOM     12  N   UNL     1      -1.688   1.558  -0.259  1.00  0.00    -0.249 N 
ATOM     13  C   UNL     1      -1.664   2.692  -1.005  1.00  0.00     0.235 C 
ATOM     14  C   UNL     1      -2.737   1.554   0.636  1.00  0.00     0.247 C 
ATOM     15  O   UNL     1      -0.771   3.150  -1.705  1.00  0.00    -0.274 OA
ATOM     16  C   UNL     1      -2.980   3.373  -0.816  1.00  0.00     0.125 C 
ATOM     17  O   UNL     1      -2.804   0.918   1.682  1.00  0.00    -0.273 OA
BRANCH  12  18
ATOM     18  C   UNL     1      -0.724   0.532  -0.278  1.00  0.00     0.055 A 
ATOM     19  C   UNL     1       3.058  -0.023  -0.077  1.00  0.00     0.044 C 
ATOM     20  C   UNL     1       1.576  -0.253  -0.153  1.00  0.00    -0.049 A 
ATOM     21  C   UNL     1       1.101  -1.566  -0.052  1.00  0.00     0.004 A 
ATOM     22  C   UNL     1       0.657   0.800  -0.294  1.00  0.00     0.030 A 
ATOM     23  C   UNL     1      -0.261  -1.838  -0.119  1.00  0.00     0.006 A 
ATOM     24  C   UNL     1      -1.183  -0.802  -0.265  1.00  0.00    -0.027 A 
ATOM     25  C   UNL     1      -2.640  -1.159  -0.424  1.00  0.00     0.046 C 
ENDBRANCH  12  18
ENDBRANCH  10  11
ENDBRANCH   9  10
ENDBRANCH   7   9
ENDBRANCH   6   7
ENDBRANCH   5   6
ENDBRANCH   4   5
ENDBRANCH   3   4
ENDBRANCH   2   3
ENDBRANCH   1   2
BRANCH   1  26
ATOM     26  O   UNL     1      -3.864   3.851   3.636  1.00  0.00    -0.377 OA
BRANCH  26  27
ATOM     27  C   UNL     1      -3.210   4.213   4.846  1.00  0.00     0.188 C 
BRANCH  27  28
ATOM     28  C   UNL     1      -1.705   4.429   4.695  1.00  0.00     0.188 C 
BRANCH  28  29
ATOM     29  O   UNL     1      -1.434   5.339   3.633  1.00  0.00    -0.376 OA
BRANCH  29  30
ATOM     30  C   UNL     1      -0.324   4.989   2.820  1.00  0.00     0.202 C 
BRANCH  30  31
ATOM     31  C   UNL     1       0.940   5.642   3.370  1.00  0.00     0.261 C 
BRANCH  31  32
ATOM     32  O   UNL     1       0.987   7.086   3.233  1.00  0.00    -0.460 OA
BRANCH  32  33
ATOM     33  C   UNL     1      -0.092   7.808   3.655  1.00  0.00     0.338 C 
ATOM     34  O   UNL     1      -0.341   8.077   4.803  1.00  0.00    -0.246 OA
BRANCH  33  35
ATOM     35  C   UNL     1      -0.935   8.186   2.469  1.00  0.00     0.060 A 
ATOM     36  C   UNL     1      -2.185   8.754   2.679  1.00  0.00     0.016 A 
ATOM     37  C   UNL     1      -0.583   7.784   1.169  1.00  0.00     0.016 A 
ATOM     38  C   UNL     1      -3.119   8.720   1.633  1.00  0.00     0.010 A 
ATOM     39  C   UNL     1      -1.535   7.698   0.143  1.00  0.00     0.010 A 
ATOM     40  C   UNL     1      -2.844   8.102   0.378  1.00  0.00    -0.014 A 
BRANCH  40  41
ATOM     41  C   UNL     1      -3.805   8.338  -0.747  1.00  0.00     0.031 A 
ATOM     42  C   UNL     1      -4.021   9.784  -0.789  1.00  0.00     0.074 A 
ATOM     43  C   UNL     1      -4.411   7.545  -1.679  1.00  0.00     0.049 A 
ATOM     44  N   UNL     1      -5.099  10.375  -0.398  1.00  0.00    -0.248 NA
ATOM     45  C   UNL     1      -2.856  10.673  -0.970  1.00  0.00     0.031 C 
ATOM     46  C   UNL     1      -4.272   6.114  -1.723  1.00  0.00     0.029 A 
ATOM     47  N   UNL     1      -5.288   7.761  -2.755  1.00  0.00    -0.354 N 
ATOM     48  C   UNL     1      -4.858  11.698  -0.701  1.00  0.00     0.074 A 
ATOM     49  C   UNL     1      -3.425  11.863  -0.776  1.00  0.00     0.031 C 
ATOM     50  C   UNL     1      -4.847   5.576  -2.811  1.00  0.00     0.029 A 
ATOM     51  C   UNL     1      -5.468   6.620  -3.585  1.00  0.00     0.049 A 
ATOM     52  H   UNL     1      -5.737   8.622  -2.920  1.00  0.00     0.167 HD
ATOM     53  C   UNL     1      -5.802  12.293  -1.470  1.00  0.00     0.037 A 
ATOM     54  C   UNL     1      -6.146   6.411  -4.755  1.00  0.00     0.037 A 
ATOM     55  C   UNL     1      -7.106  11.722  -1.266  1.00  0.00     0.049 A 
ATOM     56  C   UNL     1      -7.198   7.445  -4.837  1.00  0.00     0.074 A 
ATOM     57  C   UNL     1      -7.972  11.593  -0.199  1.00  0.00     0.029 A 
ATOM     58  N   UNL     1      -7.460  10.768  -2.177  1.00  0.00    -0.354 N 
ATOM     59  N   UNL     1      -8.321   7.372  -4.177  1.00  0.00    -0.248 NA
ATOM     60  C   UNL     1      -6.869   8.754  -5.387  1.00  0.00     0.031 C 
ATOM     61  C   UNL     1      -8.877  10.544  -0.524  1.00  0.00     0.029 A 
ATOM     62  C   UNL     1      -8.581  10.082  -1.801  1.00  0.00     0.049 A 
ATOM     63  H   UNL     1      -6.964  10.595  -3.010  1.00  0.00     0.167 HD
ATOM     64  C   UNL     1      -8.565   8.681  -3.822  1.00  0.00     0.074 A 
ATOM     65  C   UNL     1      -7.751   9.495  -4.715  1.00  0.00     0.031 C 
ATOM     66  C   UNL     1      -9.057   8.970  -2.587  1.00  0.00     0.037 A 
BRANCH  53  67
ATOM     67  C   UNL     1      -5.380  12.863  -2.793  1.00  0.00     0.064 A 
ATOM     68  C   UNL     1      -6.096  13.916  -3.359  1.00  0.00     0.173 A 
ATOM     69  C   UNL     1      -4.422  12.237  -3.627  1.00  0.00     0.173 A 
ATOM     70  F   UNL     1      -7.119  14.468  -2.693  1.00  0.00    -0.203 F 
ATOM     71  C   UNL     1      -5.811  14.362  -4.652  1.00  0.00     0.198 A 
ATOM     72  C   UNL     1      -4.074  12.738  -4.871  1.00  0.00     0.198 A 
ATOM     73  F   UNL     1      -3.887  11.050  -3.316  1.00  0.00    -0.203 F 
ATOM     74  F   UNL     1      -6.573  15.314  -5.204  1.00  0.00    -0.200 F 
ATOM     75  C   UNL     1      -4.779  13.799  -5.390  1.00  0.00     0.200 A 
ATOM     76  F   UNL     1      -3.110  12.137  -5.583  1.00  0.00    -0.200 F 
ATOM     77  F   UNL     1      -4.508  14.234  -6.627  1.00  0.00    -0.200 F 
ENDBRANCH  53  67
BRANCH  54  78
ATOM     78  C   UNL     1      -5.997   5.355  -5.829  1.00  0.00     0.064 A 
ATOM     79  C   UNL     1      -6.814   5.366  -6.986  1.00  0.00     0.173 A 
ATOM     80  C   UNL     1      -4.913   4.453  -5.891  1.00  0.00     0.173 A 
ATOM     81  F   UNL     1      -7.890   6.164  -7.057  1.00  0.00    -0.203 F 
ATOM     82  C   UNL     1      -6.511   4.611  -8.133  1.00  0.00     0.198 A 
ATOM     83  C   UNL     1      -4.621   3.690  -7.029  1.00  0.00     0.198 A 
ATOM     84  F   UNL     1      -4.052   4.317  -4.877  1.00  0.00    -0.203 F 
ATOM     85  F   UNL     1      -7.273   4.724  -9.231  1.00  0.00    -0.200 F 
ATOM     86  C   UNL     1      -5.398   3.794  -8.162  1.00  0.00     0.200 A 
ATOM     87  F   UNL     1      -3.542   2.894  -7.031  1.00  0.00    -0.200 F 
ATOM     88  F   UNL     1      -5.056   3.138  -9.280  1.00  0.00    -0.200 F 
ENDBRANCH  54  78
BRANCH  66  89
ATOM     89  C   UNL     1     -10.085   8.059  -2.003  1.00  0.00     0.064 A 
ATOM     90  C   UNL     1      -9.879   6.726  -1.626  1.00  0.00     0.173 A 
ATOM     91  C   UNL     1     -11.351   8.620  -1.758  1.00  0.00     0.173 A 
ATOM     92  F   UNL     1      -8.678   6.143  -1.756  1.00  0.00    -0.203 F 
ATOM     93  C   UNL     1     -10.914   5.983  -1.055  1.00  0.00     0.198 A 
ATOM     94  C   UNL     1     -12.365   7.890  -1.155  1.00  0.00     0.198 A 
ATOM     95  F   UNL     1     -11.592   9.903  -2.076  1.00  0.00    -0.203 F 
ATOM     96  F   UNL     1     -10.706   4.704  -0.707  1.00  0.00    -0.200 F 
ATOM     97  C   UNL     1     -12.151   6.566  -0.814  1.00  0.00     0.200 A 
ATOM     98  F   UNL     1     -13.540   8.477  -0.885  1.00  0.00    -0.200 F 
ATOM     99  F   UNL     1     -13.130   5.859  -0.232  1.00  0.00    -0.200 F 
ENDBRANCH  66  89
ENDBRANCH  40  41
ENDBRANCH  33  35
ENDBRANCH  32  33
ENDBRANCH  31  32
ENDBRANCH  30  31
ENDBRANCH  29  30
ENDBRANCH  28  29
ENDBRANCH  27  28
ENDBRANCH  26  27
ENDBRANCH   1  26
TORSDOF 23
