REMARK SMILES CC(C)(C)OC(=O)N[C@@H](C(=O)OCCOCCOCCOCCOC(=O)c1ccc(-c2c3nc(c(-c4c(F)c(F)c(F)c(F)c4F)c4ccc([nH]4)c(-c4c(F)c(F)c(F)c(F)c4F)c4nc(c(-c5c(F)c(F)c(F)c(F)c5F)c5ccc2[nH]5)C=C4)C=C3)cc1)c1ccc([N+](=O)[O-])cc1
REMARK SMILES IDX 17 1 16 2 15 3 14 4 13 5 12 6 10 7 11 8 9 9 8 10 6 11 7 12
REMARK SMILES IDX 5 14 2 15 1 16 3 17 4 18 90 19 91 20 98 21 92 22 97 23 93 24
REMARK SMILES IDX 94 25 95 26 96 27 18 28 19 29 20 30 21 31 22 32 23 33 24 34
REMARK SMILES IDX 25 35 26 36 27 37 28 38 89 39 29 40 88 41 30 42 31 43 32 44
REMARK SMILES IDX 82 45 33 46 87 47 81 48 83 49 34 50 86 51 80 52 79 53 35 55
REMARK SMILES IDX 67 56 47 57 66 58 48 59 51 60 65 61 84 62 49 63 50 64 64 66
REMARK SMILES IDX 85 67 52 68 36 69 37 70 45 71 38 72 39 73 43 74 46 75 40 76
REMARK SMILES IDX 41 77 44 78 42 79 68 80 69 81 77 82 70 83 71 84 75 85 78 86
REMARK SMILES IDX 72 87 73 88 76 89 74 90 53 91 54 92 62 93 55 94 56 95 60 96
REMARK SMILES IDX 63 97 57 98 58 99 61 100 59 101
REMARK H PARENT 8 13 83 54 51 65
REMARK Flexibility Score: inf
ROOT
ATOM      1  C   UNL     1       2.986   7.003   0.334  1.00  0.00     0.188 C 
ENDROOT
BRANCH   1   2
ATOM      2  C   UNL     1       3.754   7.356   1.621  1.00  0.00     0.188 C 
BRANCH   2   3
ATOM      3  O   UNL     1       5.170   7.359   1.612  1.00  0.00    -0.376 OA
BRANCH   3   4
ATOM      4  C   UNL     1       5.864   6.275   1.011  1.00  0.00     0.202 C 
BRANCH   4   5
ATOM      5  C   UNL     1       5.403   4.806   1.173  1.00  0.00     0.261 C 
BRANCH   5   6
ATOM      6  O   UNL     1       3.983   4.534   1.119  1.00  0.00    -0.461 OA
BRANCH   6   7
ATOM      7  C   UNL     1       3.403   4.048   2.251  1.00  0.00     0.333 C 
ATOM      8  O   UNL     1       4.034   3.791   3.274  1.00  0.00    -0.249 OA
BRANCH   7   9
ATOM      9  C   UNL     1       1.844   3.886   2.170  1.00  0.00     0.226 C 
BRANCH   9  10
ATOM     10  N   UNL     1       1.124   4.210   0.941  1.00  0.00    -0.304 N 
ATOM     11  C   UNL     1       0.774   3.379  -0.067  1.00  0.00     0.408 C 
ATOM     12  O   UNL     1       0.129   3.800  -1.022  1.00  0.00    -0.225 OA
ATOM     13  H   UNL     1       0.860   5.153   0.833  1.00  0.00     0.168 HD
BRANCH  11  14
ATOM     14  O   UNL     1       1.128   2.099   0.154  1.00  0.00    -0.444 OA
BRANCH  14  15
ATOM     15  C   UNL     1       0.582   1.044  -0.679  1.00  0.00     0.106 C 
ATOM     16  C   UNL     1       1.104  -0.248  -0.039  1.00  0.00     0.056 C 
ATOM     17  C   UNL     1       1.097   1.136  -2.118  1.00  0.00     0.056 C 
ATOM     18  C   UNL     1      -0.953   1.029  -0.622  1.00  0.00     0.056 C 
ENDBRANCH  14  15
ENDBRANCH  11  14
ENDBRANCH   9  10
BRANCH   9  19
ATOM     19  C   UNL     1       1.193   4.634   3.342  1.00  0.00    -0.014 A 
ATOM     20  C   UNL     1       1.010   6.031   3.340  1.00  0.00     0.013 A 
ATOM     21  C   UNL     1       0.826   3.917   4.490  1.00  0.00     0.013 A 
ATOM     22  C   UNL     1       0.560   6.706   4.476  1.00  0.00     0.086 A 
ATOM     23  C   UNL     1       0.343   4.578   5.622  1.00  0.00     0.086 A 
ATOM     24  C   UNL     1       0.237   5.974   5.620  1.00  0.00     0.269 A 
BRANCH  24  25
ATOM     25  N   UNL     1      -0.204   6.676   6.829  1.00  0.00     0.062 N 
ATOM     26  O   UNL     1      -0.107   7.911   6.845  1.00  0.00    -0.258 OA
ATOM     27  O   UNL     1      -0.647   5.992   7.762  1.00  0.00    -0.258 OA
ENDBRANCH  24  25
ENDBRANCH   9  19
ENDBRANCH   7   9
ENDBRANCH   6   7
ENDBRANCH   5   6
ENDBRANCH   4   5
ENDBRANCH   3   4
ENDBRANCH   2   3
ENDBRANCH   1   2
BRANCH   1  28
ATOM     28  O   UNL     1       3.798   6.579  -0.738  1.00  0.00    -0.377 OA
BRANCH  28  29
ATOM     29  C   UNL     1       4.154   7.576  -1.680  1.00  0.00     0.188 C 
BRANCH  29  30
ATOM     30  C   UNL     1       4.393   9.006  -1.157  1.00  0.00     0.188 C 
BRANCH  30  31
ATOM     31  O   UNL     1       3.322   9.521  -0.373  1.00  0.00    -0.376 OA
BRANCH  31  32
ATOM     32  C   UNL     1       2.358  10.363  -0.989  1.00  0.00     0.202 C 
BRANCH  32  33
ATOM     33  C   UNL     1       1.425   9.740  -2.042  1.00  0.00     0.261 C 
BRANCH  33  34
ATOM     34  O   UNL     1       2.050   9.126  -3.179  1.00  0.00    -0.460 OA
BRANCH  34  35
ATOM     35  C   UNL     1       2.877   9.871  -3.944  1.00  0.00     0.338 C 
ATOM     36  O   UNL     1       3.120  11.056  -3.827  1.00  0.00    -0.246 OA
BRANCH  35  37
ATOM     37  C   UNL     1       3.613   8.937  -4.826  1.00  0.00     0.060 A 
ATOM     38  C   UNL     1       5.009   8.854  -4.717  1.00  0.00     0.016 A 
ATOM     39  C   UNL     1       2.926   8.108  -5.715  1.00  0.00     0.016 A 
ATOM     40  C   UNL     1       5.721   7.943  -5.499  1.00  0.00     0.010 A 
ATOM     41  C   UNL     1       3.644   7.222  -6.523  1.00  0.00     0.010 A 
ATOM     42  C   UNL     1       5.046   7.147  -6.431  1.00  0.00    -0.014 A 
BRANCH  42  43
ATOM     43  C   UNL     1       5.804   6.365  -7.437  1.00  0.00     0.031 A 
ATOM     44  C   UNL     1       6.000   6.964  -8.801  1.00  0.00     0.074 A 
ATOM     45  C   UNL     1       6.297   5.146  -7.155  1.00  0.00     0.049 A 
ATOM     46  N   UNL     1       6.502   6.428  -9.883  1.00  0.00    -0.248 NA
ATOM     47  C   UNL     1       5.567   8.361  -8.964  1.00  0.00     0.031 C 
ATOM     48  C   UNL     1       6.218   4.481  -5.857  1.00  0.00     0.029 A 
ATOM     49  N   UNL     1       6.942   4.239  -7.961  1.00  0.00    -0.354 N 
ATOM     50  C   UNL     1       6.442   7.419 -10.854  1.00  0.00     0.074 A 
ATOM     51  C   UNL     1       5.827   8.577 -10.244  1.00  0.00     0.031 C 
ATOM     52  C   UNL     1       6.762   3.256  -5.963  1.00  0.00     0.029 A 
ATOM     53  C   UNL     1       7.185   3.035  -7.345  1.00  0.00     0.049 A 
ATOM     54  H   UNL     1       7.206   4.433  -8.890  1.00  0.00     0.167 HD
ATOM     55  C   UNL     1       6.870   7.367 -12.137  1.00  0.00     0.037 A 
ATOM     56  C   UNL     1       7.649   1.876  -7.856  1.00  0.00     0.037 A 
ATOM     57  C   UNL     1       7.468   6.207 -12.742  1.00  0.00     0.049 A 
ATOM     58  C   UNL     1       8.015   1.808  -9.320  1.00  0.00     0.074 A 
ATOM     59  C   UNL     1       7.934   6.053 -14.035  1.00  0.00     0.029 A 
ATOM     60  N   UNL     1       7.670   4.997 -12.095  1.00  0.00    -0.354 N 
ATOM     61  N   UNL     1       7.976   2.751 -10.230  1.00  0.00    -0.248 NA
ATOM     62  C   UNL     1       8.484   0.510  -9.830  1.00  0.00     0.031 C 
ATOM     63  C   UNL     1       8.366   4.732 -14.188  1.00  0.00     0.029 A 
ATOM     64  C   UNL     1       8.226   4.081 -12.973  1.00  0.00     0.049 A 
ATOM     65  H   UNL     1       7.453   4.817 -11.152  1.00  0.00     0.167 HD
ATOM     66  C   UNL     1       8.433   2.170 -11.407  1.00  0.00     0.074 A 
ATOM     67  C   UNL     1       8.767   0.798 -11.092  1.00  0.00     0.031 C 
ATOM     68  C   UNL     1       8.560   2.720 -12.640  1.00  0.00     0.037 A 
BRANCH  55  69
ATOM     69  C   UNL     1       6.689   8.595 -12.980  1.00  0.00     0.064 A 
ATOM     70  C   UNL     1       7.447   9.755 -12.762  1.00  0.00     0.173 A 
ATOM     71  C   UNL     1       5.779   8.597 -14.048  1.00  0.00     0.173 A 
ATOM     72  F   UNL     1       8.320   9.810 -11.744  1.00  0.00    -0.203 F 
ATOM     73  C   UNL     1       7.287  10.878 -13.570  1.00  0.00     0.198 A 
ATOM     74  C   UNL     1       5.644   9.710 -14.873  1.00  0.00     0.198 A 
ATOM     75  F   UNL     1       5.031   7.512 -14.302  1.00  0.00    -0.203 F 
ATOM     76  F   UNL     1       7.991  11.990 -13.316  1.00  0.00    -0.200 F 
ATOM     77  C   UNL     1       6.393  10.851 -14.630  1.00  0.00     0.200 A 
ATOM     78  F   UNL     1       4.790   9.677 -15.905  1.00  0.00    -0.200 F 
ATOM     79  F   UNL     1       6.249  11.928 -15.414  1.00  0.00    -0.200 F 
ENDBRANCH  55  69
BRANCH  56  80
ATOM     80  C   UNL     1       7.743   0.663  -6.998  1.00  0.00     0.064 A 
ATOM     81  C   UNL     1       8.979   0.067  -6.710  1.00  0.00     0.173 A 
ATOM     82  C   UNL     1       6.590   0.044  -6.488  1.00  0.00     0.173 A 
ATOM     83  F   UNL     1      10.109   0.600  -7.197  1.00  0.00    -0.203 F 
ATOM     84  C   UNL     1       9.056  -1.114  -5.972  1.00  0.00     0.198 A 
ATOM     85  C   UNL     1       6.671  -1.116  -5.720  1.00  0.00     0.198 A 
ATOM     86  F   UNL     1       5.380   0.566  -6.737  1.00  0.00    -0.203 F 
ATOM     87  F   UNL     1      10.245  -1.696  -5.768  1.00  0.00    -0.200 F 
ATOM     88  C   UNL     1       7.903  -1.701  -5.473  1.00  0.00     0.200 A 
ATOM     89  F   UNL     1       5.555  -1.671  -5.229  1.00  0.00    -0.200 F 
ATOM     90  F   UNL     1       7.978  -2.837  -4.766  1.00  0.00    -0.200 F 
ENDBRANCH  56  80
BRANCH  68  91
ATOM     91  C   UNL     1       9.104   1.853 -13.739  1.00  0.00     0.064 A 
ATOM     92  C   UNL     1       8.345   0.814 -14.298  1.00  0.00     0.173 A 
ATOM     93  C   UNL     1      10.369   2.110 -14.290  1.00  0.00     0.173 A 
ATOM     94  F   UNL     1       7.136   0.517 -13.799  1.00  0.00    -0.203 F 
ATOM     95  C   UNL     1       8.840   0.055 -15.356  1.00  0.00     0.198 A 
ATOM     96  C   UNL     1      10.847   1.371 -15.369  1.00  0.00     0.198 A 
ATOM     97  F   UNL     1      11.132   3.098 -13.798  1.00  0.00    -0.203 F 
ATOM     98  F   UNL     1       8.113  -0.958 -15.848  1.00  0.00    -0.200 F 
ATOM     99  C   UNL     1      10.084   0.341 -15.897  1.00  0.00     0.200 A 
ATOM    100  F   UNL     1      12.041   1.662 -15.902  1.00  0.00    -0.200 F 
ATOM    101  F   UNL     1      10.550  -0.378 -16.927  1.00  0.00    -0.200 F 
ENDBRANCH  68  91
ENDBRANCH  42  43
ENDBRANCH  35  37
ENDBRANCH  34  35
ENDBRANCH  33  34
ENDBRANCH  32  33
ENDBRANCH  31  32
ENDBRANCH  30  31
ENDBRANCH  29  30
ENDBRANCH  28  29
ENDBRANCH   1  28
TORSDOF 25
