REMARK SMILES O=C(OCCOCCOCCOCCOC(=O)c1ccc(C(F)(F)F)nc1NC[C@@H]1CCOC1)c1ccc(-c2c3nc(c(-c4c(F)c(F)c(F)c(F)c4F)c4ccc([nH]4)c(-c4c(F)c(F)c(F)c(F)c4F)c4nc(c(-c5c(F)c(F)c(F)c(F)c5F)c5ccc2[nH]5)C=C4)C=C3)cc1
REMARK SMILES IDX 10 1 9 2 8 3 7 4 6 5 5 6 4 7 3 8 2 9 1 10 35 11 36 12 97 13
REMARK SMILES IDX 37 14 96 15 38 16 39 17 40 18 90 19 41 20 95 21 89 22 91 23
REMARK SMILES IDX 42 24 94 25 88 26 87 27 43 29 75 30 55 31 74 32 56 33 59 34
REMARK SMILES IDX 73 35 92 36 57 37 58 38 72 40 93 41 60 42 44 43 45 44 53 45
REMARK SMILES IDX 46 46 47 47 51 48 54 49 48 50 49 51 52 52 50 53 76 54 77 55
REMARK SMILES IDX 85 56 78 57 79 58 83 59 86 60 80 61 81 62 84 63 82 64 61 65
REMARK SMILES IDX 62 66 70 67 63 68 64 69 68 70 71 71 65 72 66 73 69 74 67 75
REMARK SMILES IDX 11 76 12 77 13 78 14 79 15 80 16 81 17 82 18 83 19 84 27 85
REMARK SMILES IDX 20 86 26 87 21 88 28 89 29 91 30 92 31 93 34 94 32 95 33 96
REMARK SMILES IDX 22 97 23 98 24 99 25 100
REMARK H PARENT 91 28 59 39 28 90
REMARK Flexibility Score: inf
ROOT
ATOM      1  C   UNL     1       3.654   2.195  -2.983  1.00  0.00     0.188 C 
ENDROOT
BRANCH   1   2
ATOM      2  O   UNL     1       2.230   2.153  -2.975  1.00  0.00    -0.377 OA
BRANCH   2   3
ATOM      3  C   UNL     1       1.613   1.726  -1.765  1.00  0.00     0.188 C 
BRANCH   3   4
ATOM      4  C   UNL     1       2.084   0.361  -1.276  1.00  0.00     0.188 C 
BRANCH   4   5
ATOM      5  O   UNL     1       3.437   0.427  -0.812  1.00  0.00    -0.376 OA
BRANCH   5   6
ATOM      6  C   UNL     1       4.262  -0.668  -1.212  1.00  0.00     0.202 C 
BRANCH   6   7
ATOM      7  C   UNL     1       4.187  -1.866  -0.266  1.00  0.00     0.261 C 
BRANCH   7   8
ATOM      8  O   UNL     1       2.876  -2.044   0.289  1.00  0.00    -0.460 OA
BRANCH   8   9
ATOM      9  C   UNL     1       2.331  -1.443   1.376  1.00  0.00     0.338 C 
ATOM     10  O   UNL     1       1.162  -1.711   1.655  1.00  0.00    -0.246 OA
BRANCH   9  11
ATOM     11  C   UNL     1       3.057  -0.494   2.287  1.00  0.00     0.060 A 
ATOM     12  C   UNL     1       4.240   0.188   1.997  1.00  0.00     0.016 A 
ATOM     13  C   UNL     1       2.469  -0.264   3.546  1.00  0.00     0.016 A 
ATOM     14  C   UNL     1       4.876   0.984   2.938  1.00  0.00     0.010 A 
ATOM     15  C   UNL     1       3.091   0.548   4.501  1.00  0.00     0.010 A 
ATOM     16  C   UNL     1       4.327   1.127   4.208  1.00  0.00    -0.014 A 
BRANCH  16  17
ATOM     17  C   UNL     1       5.211   1.660   5.258  1.00  0.00     0.031 A 
ATOM     18  C   UNL     1       5.906   0.663   6.137  1.00  0.00     0.074 A 
ATOM     19  C   UNL     1       5.523   2.966   5.279  1.00  0.00     0.049 A 
ATOM     20  N   UNL     1       6.740   0.856   7.122  1.00  0.00    -0.248 NA
ATOM     21  C   UNL     1       5.643  -0.758   5.844  1.00  0.00     0.031 C 
ATOM     22  C   UNL     1       5.014   3.969   4.342  1.00  0.00     0.029 A 
ATOM     23  N   UNL     1       6.378   3.663   6.088  1.00  0.00    -0.354 N 
ATOM     24  C   UNL     1       7.067  -0.412   7.586  1.00  0.00     0.074 A 
ATOM     25  C   UNL     1       6.353  -1.369   6.777  1.00  0.00     0.031 C 
ATOM     26  C   UNL     1       5.589   5.152   4.615  1.00  0.00     0.029 A 
ATOM     27  C   UNL     1       6.449   5.000   5.784  1.00  0.00     0.049 A 
ATOM     28  H   UNL     1       6.891   3.247   6.817  1.00  0.00     0.167 HD
ATOM     29  C   UNL     1       7.888  -0.737   8.610  1.00  0.00     0.037 A 
ATOM     30  C   UNL     1       7.119   5.984   6.413  1.00  0.00     0.037 A 
ATOM     31  C   UNL     1       8.587   0.245   9.391  1.00  0.00     0.049 A 
ATOM     32  C   UNL     1       7.937   5.609   7.622  1.00  0.00     0.074 A 
ATOM     33  C   UNL     1       9.388   0.067  10.501  1.00  0.00     0.029 A 
ATOM     34  N   UNL     1       8.556   1.611   9.127  1.00  0.00    -0.354 N 
ATOM     35  N   UNL     1       8.180   4.418   8.121  1.00  0.00    -0.248 NA
ATOM     36  C   UNL     1       8.557   6.710   8.366  1.00  0.00     0.031 C 
ATOM     37  C   UNL     1       9.803   1.331  10.938  1.00  0.00     0.029 A 
ATOM     38  C   UNL     1       9.309   2.291  10.066  1.00  0.00     0.049 A 
ATOM     39  H   UNL     1       8.070   2.030   8.381  1.00  0.00     0.167 HD
ATOM     40  C   UNL     1       8.996   4.622   9.223  1.00  0.00     0.074 A 
ATOM     41  C   UNL     1       9.222   6.053   9.307  1.00  0.00     0.031 C 
ATOM     42  C   UNL     1       9.512   3.719  10.095  1.00  0.00     0.037 A 
BRANCH  29  43
ATOM     43  C   UNL     1       7.972  -2.189   8.979  1.00  0.00     0.064 A 
ATOM     44  C   UNL     1       8.610  -3.136   8.163  1.00  0.00     0.173 A 
ATOM     45  C   UNL     1       7.333  -2.652  10.140  1.00  0.00     0.173 A 
ATOM     46  F   UNL     1       9.205  -2.753   7.023  1.00  0.00    -0.203 F 
ATOM     47  C   UNL     1       8.570  -4.494   8.474  1.00  0.00     0.198 A 
ATOM     48  C   UNL     1       7.320  -4.006  10.463  1.00  0.00     0.198 A 
ATOM     49  F   UNL     1       6.698  -1.792  10.950  1.00  0.00    -0.203 F 
ATOM     50  F   UNL     1       9.121  -5.388   7.640  1.00  0.00    -0.200 F 
ATOM     51  C   UNL     1       7.927  -4.928   9.624  1.00  0.00     0.200 A 
ATOM     52  F   UNL     1       6.698  -4.422  11.575  1.00  0.00    -0.200 F 
ATOM     53  F   UNL     1       7.874  -6.235   9.913  1.00  0.00    -0.200 F 
ENDBRANCH  29  43
BRANCH  30  54
ATOM     54  C   UNL     1       7.008   7.393   5.949  1.00  0.00     0.064 A 
ATOM     55  C   UNL     1       8.124   8.096   5.473  1.00  0.00     0.173 A 
ATOM     56  C   UNL     1       5.783   8.079   5.990  1.00  0.00     0.173 A 
ATOM     57  F   UNL     1       9.324   7.499   5.435  1.00  0.00    -0.203 F 
ATOM     58  C   UNL     1       8.022   9.428   5.072  1.00  0.00     0.198 A 
ATOM     59  C   UNL     1       5.675   9.399   5.560  1.00  0.00     0.198 A 
ATOM     60  F   UNL     1       4.682   7.461   6.445  1.00  0.00    -0.203 F 
ATOM     61  F   UNL     1       9.115  10.090   4.668  1.00  0.00    -0.200 F 
ATOM     62  C   UNL     1       6.797  10.077   5.109  1.00  0.00     0.200 A 
ATOM     63  F   UNL     1       4.486  10.016   5.588  1.00  0.00    -0.200 F 
ATOM     64  F   UNL     1       6.699  11.356   4.723  1.00  0.00    -0.200 F 
ENDBRANCH  30  54
BRANCH  42  65
ATOM     65  C   UNL     1      10.401   4.255  11.175  1.00  0.00     0.064 A 
ATOM     66  C   UNL     1       9.886   4.978  12.261  1.00  0.00     0.173 A 
ATOM     67  C   UNL     1      11.780   4.000  11.142  1.00  0.00     0.173 A 
ATOM     68  F   UNL     1       8.575   5.257  12.325  1.00  0.00    -0.203 F 
ATOM     69  C   UNL     1      10.727   5.449  13.263  1.00  0.00     0.198 A 
ATOM     70  C   UNL     1      12.612   4.445  12.163  1.00  0.00     0.198 A 
ATOM     71  F   UNL     1      12.315   3.305  10.127  1.00  0.00    -0.203 F 
ATOM     72  F   UNL     1      10.224   6.181  14.267  1.00  0.00    -0.200 F 
ATOM     73  C   UNL     1      12.086   5.176  13.218  1.00  0.00     0.200 A 
ATOM     74  F   UNL     1      13.922   4.165  12.126  1.00  0.00    -0.200 F 
ATOM     75  F   UNL     1      12.893   5.623  14.190  1.00  0.00    -0.200 F 
ENDBRANCH  42  65
ENDBRANCH  16  17
ENDBRANCH   9  11
ENDBRANCH   8   9
ENDBRANCH   7   8
ENDBRANCH   6   7
ENDBRANCH   5   6
ENDBRANCH   4   5
ENDBRANCH   3   4
ENDBRANCH   2   3
ENDBRANCH   1   2
BRANCH   1  76
ATOM     76  C   UNL     1       4.356   3.010  -1.877  1.00  0.00     0.188 C 
BRANCH  76  77
ATOM     77  O   UNL     1       3.480   3.892  -1.191  1.00  0.00    -0.376 OA
BRANCH  77  78
ATOM     78  C   UNL     1       3.613   5.266  -1.515  1.00  0.00     0.202 C 
BRANCH  78  79
ATOM     79  C   UNL     1       3.199   5.680  -2.935  1.00  0.00     0.261 C 
BRANCH  79  80
ATOM     80  O   UNL     1       3.790   4.957  -4.032  1.00  0.00    -0.460 OA
BRANCH  80  81
ATOM     81  C   UNL     1       5.119   5.048  -4.272  1.00  0.00     0.341 C 
ATOM     82  O   UNL     1       5.927   5.723  -3.659  1.00  0.00    -0.246 OA
BRANCH  81  83
ATOM     83  C   UNL     1       5.442   4.078  -5.347  1.00  0.00     0.102 A 
ATOM     84  C   UNL     1       4.702   4.129  -6.539  1.00  0.00     0.022 A 
ATOM     85  C   UNL     1       6.363   3.038  -5.161  1.00  0.00     0.141 A 
ATOM     86  C   UNL     1       4.918   3.180  -7.534  1.00  0.00     0.034 A 
ATOM     87  N   UNL     1       6.561   2.124  -6.144  1.00  0.00    -0.226 NA
ATOM     88  C   UNL     1       5.876   2.198  -7.320  1.00  0.00     0.146 A 
BRANCH  85  89
ATOM     89  N   UNL     1       6.994   2.788  -3.951  1.00  0.00    -0.369 N 
ATOM     90  H   UNL     1       6.968   3.464  -3.235  1.00  0.00     0.162 HD
BRANCH  89  91
ATOM     91  C   UNL     1       7.696   1.526  -3.737  1.00  0.00     0.120 C 
BRANCH  91  92
ATOM     92  C   UNL     1       8.969   1.616  -2.874  1.00  0.00     0.036 C 
ATOM     93  C   UNL     1       8.735   1.263  -1.417  1.00  0.00     0.036 C 
ATOM     94  C   UNL     1       9.554   3.007  -2.741  1.00  0.00     0.165 C 
ATOM     95  C   UNL     1       8.386   2.590  -0.775  1.00  0.00     0.160 C 
ATOM     96  O   UNL     1       8.816   3.623  -1.674  1.00  0.00    -0.381 OA
ENDBRANCH  91  92
ENDBRANCH  89  91
ENDBRANCH  85  89
BRANCH  88  97
ATOM     97  C   UNL     1       6.178   1.160  -8.392  1.00  0.00     0.433 C 
ATOM     98  F   UNL     1       7.507   1.072  -8.691  1.00  0.00    -0.165 F 
ATOM     99  F   UNL     1       5.789  -0.100  -8.041  1.00  0.00    -0.165 F 
ATOM    100  F   UNL     1       5.557   1.416  -9.582  1.00  0.00    -0.165 F 
ENDBRANCH  88  97
ENDBRANCH  81  83
ENDBRANCH  80  81
ENDBRANCH  79  80
ENDBRANCH  78  79
ENDBRANCH  77  78
ENDBRANCH  76  77
ENDBRANCH   1  76
TORSDOF 24
