REMARK SMILES COc1ccc2[nH]c(C(=O)c3cc(C)ccn3)c(CC(=O)OCCOCCOCCOCCOC(=O)c3ccc(-c4c5nc(c(-c6c(F)c(F)c(F)c(F)c6F)c6ccc([nH]6)c(-c6c(F)c(F)c(F)c(F)c6F)c6nc(c(-c7c(F)c(F)c(F)c(F)c7F)c7ccc4[nH]7)C=C6)C=C5)cc3)c2c1
REMARK SMILES IDX 27 1 26 2 25 3 24 4 23 5 22 6 20 7 21 8 19 9 18 10 3 11 4 12
REMARK SMILES IDX 101 13 5 14 100 15 6 16 7 17 8 18 2 20 1 21 9 22 10 23 11 24
REMARK SMILES IDX 12 25 17 26 13 27 16 28 14 29 15 30 28 31 29 32 30 33 31 34
REMARK SMILES IDX 32 35 33 36 34 37 35 38 36 39 37 40 38 41 99 42 39 43 98 44
REMARK SMILES IDX 40 45 41 46 42 47 92 48 43 49 97 50 91 51 93 52 44 53 96 54
REMARK SMILES IDX 90 55 89 56 45 58 77 59 57 60 76 61 58 62 61 63 75 64 94 65
REMARK SMILES IDX 59 66 60 67 74 69 95 70 62 71 46 72 47 73 55 74 48 75 49 76
REMARK SMILES IDX 53 77 56 78 50 79 51 80 54 81 52 82 78 83 79 84 87 85 80 86
REMARK SMILES IDX 81 87 85 88 88 89 82 90 83 91 86 92 84 93 63 94 64 95 72 96
REMARK SMILES IDX 65 97 66 98 70 99 73 100 67 101 68 102 71 103 69 104
REMARK H PARENT 7 19 93 57 61 68
REMARK Flexibility Score: inf
ROOT
ATOM      1  C   UNL     1      -1.172   7.181  -3.767  1.00  0.00     0.188 C 
ENDROOT
BRANCH   1   2
ATOM      2  C   UNL     1      -2.452   7.487  -4.578  1.00  0.00     0.188 C 
BRANCH   2   3
ATOM      3  O   UNL     1      -3.554   8.040  -3.895  1.00  0.00    -0.376 OA
BRANCH   3   4
ATOM      4  C   UNL     1      -4.317   7.307  -2.962  1.00  0.00     0.202 C 
BRANCH   4   5
ATOM      5  C   UNL     1      -4.085   5.831  -2.572  1.00  0.00     0.261 C 
BRANCH   5   6
ATOM      6  O   UNL     1      -2.973   5.138  -3.167  1.00  0.00    -0.463 OA
BRANCH   6   7
ATOM      7  C   UNL     1      -3.229   4.237  -4.144  1.00  0.00     0.310 C 
ATOM      8  O   UNL     1      -4.374   3.915  -4.455  1.00  0.00    -0.252 OA
BRANCH   7   9
ATOM      9  C   UNL     1      -2.021   3.668  -4.896  1.00  0.00     0.161 C 
BRANCH   9  10
ATOM     10  C   UNL     1      -0.579   3.978  -4.504  1.00  0.00     0.000 A 
ATOM     11  C   UNL     1       0.829   1.686  -1.757  1.00  0.00     0.119 A 
ATOM     12  C   UNL     1       2.099   2.257  -1.722  1.00  0.00     0.048 A 
ATOM     13  C   UNL     1      -0.157   2.214  -2.604  1.00  0.00     0.057 A 
ATOM     14  C   UNL     1       2.418   3.350  -2.538  1.00  0.00     0.030 A 
ATOM     15  C   UNL     1       0.146   3.288  -3.467  1.00  0.00     0.008 A 
ATOM     16  C   UNL     1       1.430   3.817  -3.414  1.00  0.00     0.046 A 
ATOM     17  N   UNL     1       1.488   4.809  -4.358  1.00  0.00    -0.352 N 
ATOM     18  C   UNL     1       0.373   4.784  -5.173  1.00  0.00     0.093 A 
ATOM     19  H   UNL     1       2.227   5.455  -4.443  1.00  0.00     0.167 HD
BRANCH  11  20
ATOM     20  O   UNL     1       0.436   0.569  -1.069  1.00  0.00    -0.497 OA
ATOM     21  C   UNL     1       1.202   0.209   0.072  1.00  0.00     0.278 C 
ENDBRANCH  11  20
BRANCH  18  22
ATOM     22  C   UNL     1       0.239   5.545  -6.428  1.00  0.00     0.227 C 
ATOM     23  O   UNL     1      -0.759   5.440  -7.138  1.00  0.00    -0.285 OA
BRANCH  22  24
ATOM     24  C   UNL     1       1.278   6.564  -6.851  1.00  0.00     0.113 A 
ATOM     25  C   UNL     1       2.643   6.290  -6.940  1.00  0.00     0.036 A 
ATOM     26  N   UNL     1       0.766   7.788  -7.155  1.00  0.00    -0.253 NA
ATOM     27  C   UNL     1       3.518   7.324  -7.324  1.00  0.00    -0.047 A 
ATOM     28  C   UNL     1       1.625   8.757  -7.538  1.00  0.00     0.112 A 
ATOM     29  C   UNL     1       5.000   7.122  -7.444  1.00  0.00     0.044 C 
ATOM     30  C   UNL     1       2.993   8.588  -7.599  1.00  0.00     0.023 A 
ENDBRANCH  22  24
ENDBRANCH  18  22
ENDBRANCH   9  10
ENDBRANCH   7   9
ENDBRANCH   6   7
ENDBRANCH   5   6
ENDBRANCH   4   5
ENDBRANCH   3   4
ENDBRANCH   2   3
ENDBRANCH   1   2
BRANCH   1  31
ATOM     31  O   UNL     1      -0.558   8.004  -2.792  1.00  0.00    -0.377 OA
BRANCH  31  32
ATOM     32  C   UNL     1      -1.367   8.915  -2.095  1.00  0.00     0.188 C 
BRANCH  32  33
ATOM     33  C   UNL     1      -1.561  10.215  -2.875  1.00  0.00     0.188 C 
BRANCH  33  34
ATOM     34  O   UNL     1      -1.393  10.056  -4.271  1.00  0.00    -0.376 OA
BRANCH  34  35
ATOM     35  C   UNL     1      -0.122  10.322  -4.852  1.00  0.00     0.202 C 
BRANCH  35  36
ATOM     36  C   UNL     1       1.175   9.648  -4.351  1.00  0.00     0.261 C 
BRANCH  36  37
ATOM     37  O   UNL     1       1.466   9.752  -2.957  1.00  0.00    -0.460 OA
BRANCH  37  38
ATOM     38  C   UNL     1       1.697  10.975  -2.460  1.00  0.00     0.338 C 
ATOM     39  O   UNL     1       1.780  12.030  -3.064  1.00  0.00    -0.246 OA
BRANCH  38  40
ATOM     40  C   UNL     1       1.607  10.822  -1.002  1.00  0.00     0.060 A 
ATOM     41  C   UNL     1       0.575  11.492  -0.337  1.00  0.00     0.016 A 
ATOM     42  C   UNL     1       2.475   9.965  -0.316  1.00  0.00     0.016 A 
ATOM     43  C   UNL     1       0.408  11.314   1.026  1.00  0.00     0.010 A 
ATOM     44  C   UNL     1       2.337   9.821   1.062  1.00  0.00     0.010 A 
ATOM     45  C   UNL     1       1.322  10.523   1.732  1.00  0.00    -0.014 A 
BRANCH  45  46
ATOM     46  C   UNL     1       1.357  10.674   3.197  1.00  0.00     0.031 A 
ATOM     47  C   UNL     1       2.286  11.711   3.755  1.00  0.00     0.074 A 
ATOM     48  C   UNL     1       0.513   9.981   3.977  1.00  0.00     0.049 A 
ATOM     49  N   UNL     1       2.477  12.078   4.993  1.00  0.00    -0.248 NA
ATOM     50  C   UNL     1       3.112  12.441   2.775  1.00  0.00     0.031 C 
ATOM     51  C   UNL     1      -0.462   9.000   3.503  1.00  0.00     0.029 A 
ATOM     52  N   UNL     1       0.337  10.009   5.334  1.00  0.00    -0.354 N 
ATOM     53  C   UNL     1       3.440  13.078   4.938  1.00  0.00     0.074 A 
ATOM     54  C   UNL     1       3.822  13.237   3.555  1.00  0.00     0.031 C 
ATOM     55  C   UNL     1      -1.135   8.514   4.560  1.00  0.00     0.029 A 
ATOM     56  C   UNL     1      -0.615   9.128   5.779  1.00  0.00     0.049 A 
ATOM     57  H   UNL     1       0.845  10.604   5.932  1.00  0.00     0.167 HD
ATOM     58  C   UNL     1       3.948  13.803   5.960  1.00  0.00     0.037 A 
ATOM     59  C   UNL     1      -0.997   8.848   7.039  1.00  0.00     0.037 A 
ATOM     60  C   UNL     1       3.556  13.614   7.330  1.00  0.00     0.049 A 
ATOM     61  C   UNL     1      -0.356   9.614   8.167  1.00  0.00     0.074 A 
ATOM     62  C   UNL     1       4.001  14.279   8.456  1.00  0.00     0.029 A 
ATOM     63  N   UNL     1       2.625  12.675   7.756  1.00  0.00    -0.354 N 
ATOM     64  N   UNL     1       0.545  10.568   8.116  1.00  0.00    -0.248 NA
ATOM     65  C   UNL     1      -0.789   9.272   9.527  1.00  0.00     0.031 C 
ATOM     66  C   UNL     1       3.387  13.698   9.570  1.00  0.00     0.029 A 
ATOM     67  C   UNL     1       2.504  12.722   9.134  1.00  0.00     0.049 A 
ATOM     68  H   UNL     1       2.125  12.067   7.165  1.00  0.00     0.167 HD
ATOM     69  C   UNL     1       0.766  10.960   9.430  1.00  0.00     0.074 A 
ATOM     70  C   UNL     1      -0.113  10.152  10.252  1.00  0.00     0.031 C 
ATOM     71  C   UNL     1       1.615  11.900   9.918  1.00  0.00     0.037 A 
BRANCH  58  72
ATOM     72  C   UNL     1       5.007  14.815   5.633  1.00  0.00     0.064 A 
ATOM     73  C   UNL     1       4.725  15.979   4.900  1.00  0.00     0.173 A 
ATOM     74  C   UNL     1       6.329  14.615   6.058  1.00  0.00     0.173 A 
ATOM     75  F   UNL     1       3.484  16.208   4.446  1.00  0.00    -0.203 F 
ATOM     76  C   UNL     1       5.731  16.889   4.584  1.00  0.00     0.198 A 
ATOM     77  C   UNL     1       7.325  15.543   5.769  1.00  0.00     0.198 A 
ATOM     78  F   UNL     1       6.657  13.515   6.753  1.00  0.00    -0.203 F 
ATOM     79  F   UNL     1       5.450  17.963   3.834  1.00  0.00    -0.200 F 
ATOM     80  C   UNL     1       7.028  16.675   5.026  1.00  0.00     0.200 A 
ATOM     81  F   UNL     1       8.576  15.338   6.205  1.00  0.00    -0.200 F 
ATOM     82  F   UNL     1       7.995  17.553   4.725  1.00  0.00    -0.200 F 
ENDBRANCH  58  72
BRANCH  59  83
ATOM     83  C   UNL     1      -2.016   7.795   7.295  1.00  0.00     0.064 A 
ATOM     84  C   UNL     1      -3.268   8.108   7.842  1.00  0.00     0.173 A 
ATOM     85  C   UNL     1      -1.752   6.447   7.008  1.00  0.00     0.173 A 
ATOM     86  F   UNL     1      -3.565   9.379   8.152  1.00  0.00    -0.203 F 
ATOM     87  C   UNL     1      -4.205   7.112   8.114  1.00  0.00     0.198 A 
ATOM     88  C   UNL     1      -2.701   5.457   7.250  1.00  0.00     0.198 A 
ATOM     89  F   UNL     1      -0.570   6.090   6.484  1.00  0.00    -0.203 F 
ATOM     90  F   UNL     1      -5.374   7.434   8.685  1.00  0.00    -0.200 F 
ATOM     91  C   UNL     1      -3.924   5.788   7.812  1.00  0.00     0.200 A 
ATOM     92  F   UNL     1      -2.429   4.181   6.941  1.00  0.00    -0.200 F 
ATOM     93  F   UNL     1      -4.827   4.833   8.070  1.00  0.00    -0.200 F 
ENDBRANCH  59  83
BRANCH  71  94
ATOM     94  C   UNL     1       1.600  12.125  11.403  1.00  0.00     0.064 A 
ATOM     95  C   UNL     1       2.091  11.167  12.302  1.00  0.00     0.173 A 
ATOM     96  C   UNL     1       1.116  13.333  11.929  1.00  0.00     0.173 A 
ATOM     97  F   UNL     1       2.555   9.992  11.850  1.00  0.00    -0.203 F 
ATOM     98  C   UNL     1       2.060  11.393  13.675  1.00  0.00     0.198 A 
ATOM     99  C   UNL     1       1.124  13.572  13.299  1.00  0.00     0.198 A 
ATOM    100  F   UNL     1       0.648  14.288  11.111  1.00  0.00    -0.203 F 
ATOM    101  F   UNL     1       2.473  10.438  14.518  1.00  0.00    -0.200 F 
ATOM    102  C   UNL     1       1.584  12.598  14.171  1.00  0.00     0.200 A 
ATOM    103  F   UNL     1       0.684  14.745  13.775  1.00  0.00    -0.200 F 
ATOM    104  F   UNL     1       1.560  12.816  15.493  1.00  0.00    -0.200 F 
ENDBRANCH  71  94
ENDBRANCH  45  46
ENDBRANCH  38  40
ENDBRANCH  37  38
ENDBRANCH  36  37
ENDBRANCH  35  36
ENDBRANCH  34  35
ENDBRANCH  33  34
ENDBRANCH  32  33
ENDBRANCH  31  32
ENDBRANCH   1  31
TORSDOF 24
