REMARK SMILES NS(=O)(=O)c1ccc(-n2nc(C(=O)OCCOCCOCCOCCOC(=O)c3ccc(-c4c5nc(c(-c6c(F)c(F)c(F)c(F)c6F)c6ccc([nH]6)c(-c6c(F)c(F)c(F)c(F)c6F)c6nc(c(-c7c(F)c(F)c(F)c(F)c7F)c7ccc4[nH]7)C=C6)C=C5)cc3)cc2-c2ccc(Cl)s2)cc1
REMARK SMILES IDX 19 1 18 2 17 3 16 4 15 5 14 6 12 7 13 8 11 9 9 10 10 11
REMARK SMILES IDX 93 12 92 13 8 14 5 15 6 16 101 17 7 18 100 19 2 20 3 21 4 22
REMARK SMILES IDX 1 23 94 26 95 27 99 28 96 29 97 30 98 31 20 32 21 33 22 34
REMARK SMILES IDX 23 35 24 36 25 37 26 38 27 39 28 40 29 41 30 42 91 43 31 44
REMARK SMILES IDX 90 45 32 46 33 47 34 48 84 49 35 50 89 51 83 52 85 53 36 54
REMARK SMILES IDX 88 55 82 56 81 57 37 59 69 60 49 61 68 62 50 63 53 64 67 65
REMARK SMILES IDX 86 66 51 67 52 68 66 70 87 71 54 72 38 73 39 74 47 75 40 76
REMARK SMILES IDX 41 77 45 78 48 79 42 80 43 81 46 82 44 83 70 84 71 85 79 86
REMARK SMILES IDX 72 87 73 88 77 89 80 90 74 91 75 92 78 93 76 94 55 95 56 96
REMARK SMILES IDX 64 97 57 98 58 99 62 100 65 101 59 102 60 103 63 104 61 105
REMARK H PARENT 1 24 1 25 85 58 53 69
REMARK Flexibility Score: inf
ROOT
ATOM      1  C   UNL     1       6.084  -8.893   0.253  1.00  0.00     0.188 C 
ENDROOT
BRANCH   1   2
ATOM      2  C   UNL     1       6.163  -9.219   1.758  1.00  0.00     0.188 C 
BRANCH   2   3
ATOM      3  O   UNL     1       6.552 -10.561   2.027  1.00  0.00    -0.376 OA
BRANCH   3   4
ATOM      4  C   UNL     1       5.629 -11.349   2.755  1.00  0.00     0.202 C 
BRANCH   4   5
ATOM      5  C   UNL     1       4.485 -11.882   1.885  1.00  0.00     0.261 C 
BRANCH   5   6
ATOM      6  O   UNL     1       3.700 -10.877   1.222  1.00  0.00    -0.458 OA
BRANCH   6   7
ATOM      7  C   UNL     1       3.066  -9.964   2.012  1.00  0.00     0.358 C 
ATOM      8  O   UNL     1       3.015 -10.024   3.234  1.00  0.00    -0.244 OA
BRANCH   7   9
ATOM      9  C   UNL     1       2.535  -8.857   1.210  1.00  0.00     0.171 A 
ATOM     10  N   UNL     1       1.967  -6.874   0.637  1.00  0.00    -0.231 N 
ATOM     11  N   UNL     1       2.681  -7.564   1.561  1.00  0.00    -0.160 NA
ATOM     12  C   UNL     1       1.507  -7.692  -0.383  1.00  0.00     0.085 A 
ATOM     13  C   UNL     1       1.891  -8.970  -0.044  1.00  0.00     0.068 A 
BRANCH  10  14
ATOM     14  C   UNL     1       1.658  -5.510   0.857  1.00  0.00     0.065 A 
ATOM     15  C   UNL     1       1.024  -2.823   1.171  1.00  0.00     0.082 A 
ATOM     16  C   UNL     1       0.000  -3.753   0.975  1.00  0.00     0.024 A 
ATOM     17  C   UNL     1       2.364  -3.232   1.238  1.00  0.00     0.024 A 
ATOM     18  C   UNL     1       0.319  -5.097   0.801  1.00  0.00     0.030 A 
ATOM     19  C   UNL     1       2.682  -4.588   1.104  1.00  0.00     0.030 A 
BRANCH  15  20
ATOM     20  S   UNL     1       0.617  -1.115   1.385  1.00  0.00     0.238 S 
ATOM     21  O   UNL     1       1.384  -0.585   2.484  1.00  0.00    -0.207 OA
ATOM     22  O   UNL     1      -0.817  -0.949   1.284  1.00  0.00    -0.207 OA
BRANCH  20  23
ATOM     23  N   UNL     1       1.241  -0.415  -0.008  1.00  0.00    -0.225 NA
ATOM     24  H   UNL     1       1.061   0.589   0.006  1.00  0.00     0.137 HD
ATOM     25  H   UNL     1       0.794  -0.829  -0.826  1.00  0.00     0.137 HD
ENDBRANCH  20  23
ENDBRANCH  15  20
ENDBRANCH  10  14
BRANCH  12  26
ATOM     26  C   UNL     1       0.780  -7.266  -1.542  1.00  0.00     0.054 A 
ATOM     27  C   UNL     1      -0.410  -7.801  -1.998  1.00  0.00     0.024 A 
ATOM     28  S   UNL     1       1.329  -5.998  -2.560  1.00  0.00    -0.122 S 
ATOM     29  C   UNL     1      -0.914  -7.104  -3.136  1.00  0.00     0.033 A 
ATOM     30  C   UNL     1      -0.062  -6.101  -3.516  1.00  0.00     0.094 A 
ATOM     31  Cl  UNL     1      -0.288  -5.003  -4.816  1.00  0.00    -0.072 Cl
ENDBRANCH  12  26
ENDBRANCH   7   9
ENDBRANCH   6   7
ENDBRANCH   5   6
ENDBRANCH   4   5
ENDBRANCH   3   4
ENDBRANCH   2   3
ENDBRANCH   1   2
BRANCH   1  32
ATOM     32  O   UNL     1       6.426  -9.883  -0.708  1.00  0.00    -0.377 OA
BRANCH  32  33
ATOM     33  C   UNL     1       7.558 -10.720  -0.501  1.00  0.00     0.188 C 
BRANCH  33  34
ATOM     34  C   UNL     1       8.791 -10.258   0.316  1.00  0.00     0.188 C 
BRANCH  34  35
ATOM     35  O   UNL     1       8.710  -8.950   0.869  1.00  0.00    -0.376 OA
BRANCH  35  36
ATOM     36  C   UNL     1       9.667  -7.987   0.466  1.00  0.00     0.202 C 
BRANCH  36  37
ATOM     37  C   UNL     1       9.320  -7.332  -0.866  1.00  0.00     0.261 C 
BRANCH  37  38
ATOM     38  O   UNL     1       9.078  -8.275  -1.901  1.00  0.00    -0.460 OA
BRANCH  38  39
ATOM     39  C   UNL     1      10.131  -9.046  -2.228  1.00  0.00     0.338 C 
ATOM     40  O   UNL     1      11.224  -9.079  -1.688  1.00  0.00    -0.246 OA
BRANCH  39  41
ATOM     41  C   UNL     1       9.809  -9.787  -3.448  1.00  0.00     0.060 A 
ATOM     42  C   UNL     1      10.804 -10.647  -3.913  1.00  0.00     0.016 A 
ATOM     43  C   UNL     1       8.748  -9.351  -4.256  1.00  0.00     0.016 A 
ATOM     44  C   UNL     1      10.903 -10.831  -5.269  1.00  0.00     0.010 A 
ATOM     45  C   UNL     1       8.858  -9.521  -5.613  1.00  0.00     0.010 A 
ATOM     46  C   UNL     1       9.996 -10.160  -6.096  1.00  0.00    -0.014 A 
BRANCH  46  47
ATOM     47  C   UNL     1      10.356 -10.050  -7.488  1.00  0.00     0.031 A 
ATOM     48  C   UNL     1      10.065 -11.233  -8.312  1.00  0.00     0.074 A 
ATOM     49  C   UNL     1      10.873  -8.914  -7.988  1.00  0.00     0.049 A 
ATOM     50  N   UNL     1      10.898 -11.962  -8.974  1.00  0.00    -0.248 NA
ATOM     51  C   UNL     1       8.675 -11.706  -8.337  1.00  0.00     0.031 C 
ATOM     52  C   UNL     1      10.925  -7.586  -7.372  1.00  0.00     0.029 A 
ATOM     53  N   UNL     1      11.365  -8.702  -9.236  1.00  0.00    -0.354 N 
ATOM     54  C   UNL     1      10.122 -12.906  -9.632  1.00  0.00     0.074 A 
ATOM     55  C   UNL     1       8.782 -12.780  -9.116  1.00  0.00     0.031 C 
ATOM     56  C   UNL     1      11.206  -6.673  -8.329  1.00  0.00     0.029 A 
ATOM     57  C   UNL     1      11.461  -7.367  -9.581  1.00  0.00     0.049 A 
ATOM     58  H   UNL     1      11.629  -9.432  -9.840  1.00  0.00     0.167 HD
ATOM     59  C   UNL     1      10.591 -13.588 -10.708  1.00  0.00     0.037 A 
ATOM     60  C   UNL     1      11.619  -6.888 -10.838  1.00  0.00     0.037 A 
ATOM     61  C   UNL     1      12.028 -13.594 -10.766  1.00  0.00     0.049 A 
ATOM     62  C   UNL     1      12.145  -7.995 -11.684  1.00  0.00     0.074 A 
ATOM     63  C   UNL     1      13.020 -14.011  -9.898  1.00  0.00     0.029 A 
ATOM     64  N   UNL     1      12.665 -12.804 -11.691  1.00  0.00    -0.354 N 
ATOM     65  N   UNL     1      13.347  -8.493 -11.586  1.00  0.00    -0.248 NA
ATOM     66  C   UNL     1      11.176  -8.843 -12.367  1.00  0.00     0.031 C 
ATOM     67  C   UNL     1      14.074 -13.064 -10.051  1.00  0.00     0.029 A 
ATOM     68  C   UNL     1      13.665 -12.147 -11.018  1.00  0.00     0.049 A 
ATOM     69  H   UNL     1      12.447 -12.725 -12.648  1.00  0.00     0.167 HD
ATOM     70  C   UNL     1      13.190  -9.853 -11.818  1.00  0.00     0.074 A 
ATOM     71  C   UNL     1      11.854  -9.992 -12.389  1.00  0.00     0.031 C 
ATOM     72  C   UNL     1      14.035 -10.775 -11.270  1.00  0.00     0.037 A 
BRANCH  59  73
ATOM     73  C   UNL     1       9.717 -13.981 -11.861  1.00  0.00     0.064 A 
ATOM     74  C   UNL     1      10.177 -14.919 -12.799  1.00  0.00     0.173 A 
ATOM     75  C   UNL     1       8.551 -13.268 -12.220  1.00  0.00     0.173 A 
ATOM     76  F   UNL     1      11.302 -15.614 -12.572  1.00  0.00    -0.203 F 
ATOM     77  C   UNL     1       9.537 -15.102 -14.026  1.00  0.00     0.198 A 
ATOM     78  C   UNL     1       7.881 -13.495 -13.417  1.00  0.00     0.198 A 
ATOM     79  F   UNL     1       8.084 -12.254 -11.478  1.00  0.00    -0.203 F 
ATOM     80  F   UNL     1      10.071 -15.925 -14.937  1.00  0.00    -0.200 F 
ATOM     81  C   UNL     1       8.388 -14.393 -14.333  1.00  0.00     0.200 A 
ATOM     82  F   UNL     1       6.784 -12.781 -13.705  1.00  0.00    -0.200 F 
ATOM     83  F   UNL     1       7.801 -14.533 -15.527  1.00  0.00    -0.200 F 
ENDBRANCH  59  73
BRANCH  60  84
ATOM     84  C   UNL     1      11.035  -5.649 -11.402  1.00  0.00     0.064 A 
ATOM     85  C   UNL     1      11.502  -5.117 -12.613  1.00  0.00     0.173 A 
ATOM     86  C   UNL     1       9.844  -5.091 -10.893  1.00  0.00     0.173 A 
ATOM     87  F   UNL     1      12.595  -5.629 -13.197  1.00  0.00    -0.203 F 
ATOM     88  C   UNL     1      10.816  -4.094 -13.276  1.00  0.00     0.198 A 
ATOM     89  C   UNL     1       9.172  -4.058 -11.544  1.00  0.00     0.198 A 
ATOM     90  F   UNL     1       9.252  -5.595  -9.800  1.00  0.00    -0.203 F 
ATOM     91  F   UNL     1      11.260  -3.652 -14.461  1.00  0.00    -0.200 F 
ATOM     92  C   UNL     1       9.652  -3.567 -12.742  1.00  0.00     0.200 A 
ATOM     93  F   UNL     1       8.027  -3.584 -11.032  1.00  0.00    -0.200 F 
ATOM     94  F   UNL     1       8.971  -2.618 -13.400  1.00  0.00    -0.200 F 
ENDBRANCH  60  84
BRANCH  72  95
ATOM     95  C   UNL     1      15.299 -10.286 -10.624  1.00  0.00     0.064 A 
ATOM     96  C   UNL     1      15.320  -9.429  -9.511  1.00  0.00     0.173 A 
ATOM     97  C   UNL     1      16.522 -10.829 -11.043  1.00  0.00     0.173 A 
ATOM     98  F   UNL     1      14.183  -8.962  -8.979  1.00  0.00    -0.203 F 
ATOM     99  C   UNL     1      16.517  -9.090  -8.882  1.00  0.00     0.198 A 
ATOM    100  C   UNL     1      17.712 -10.520 -10.389  1.00  0.00     0.198 A 
ATOM    101  F   UNL     1      16.557 -11.706 -12.059  1.00  0.00    -0.203 F 
ATOM    102  F   UNL     1      16.511  -8.260  -7.829  1.00  0.00    -0.200 F 
ATOM    103  C   UNL     1      17.711  -9.642  -9.317  1.00  0.00     0.200 A 
ATOM    104  F   UNL     1      18.857 -11.097 -10.779  1.00  0.00    -0.200 F 
ATOM    105  F   UNL     1      18.856  -9.350  -8.684  1.00  0.00    -0.200 F 
ENDBRANCH  72  95
ENDBRANCH  46  47
ENDBRANCH  39  41
ENDBRANCH  38  39
ENDBRANCH  37  38
ENDBRANCH  36  37
ENDBRANCH  35  36
ENDBRANCH  34  35
ENDBRANCH  33  34
ENDBRANCH  32  33
ENDBRANCH   1  32
TORSDOF 24
