REMARK SMILES CCCCCCNC(=O)Oc1cccc(-c2ccc([C@H](C)C(=O)OCCOCCOCCOCCOC(=O)c3ccc(-c4c5nc(c(-c6c(F)c(F)c(F)c(F)c6F)c6ccc([nH]6)c(-c6c(F)c(F)c(F)c(F)c6F)c6nc(c(-c7c(F)c(F)c(F)c(F)c7F)c7ccc4[nH]7)C=C6)C=C5)cc3)cc2F)c1
REMARK SMILES IDX 26 1 25 2 24 3 22 4 23 5 20 6 21 7 19 8 16 9 17 10 103 11
REMARK SMILES IDX 18 12 102 13 104 14 15 15 11 16 12 17 105 18 13 19 14 20
REMARK SMILES IDX 10 21 8 22 7 23 9 25 6 26 5 27 4 28 3 29 2 30 1 31 27 32
REMARK SMILES IDX 28 33 29 34 30 35 31 36 32 37 33 38 34 39 35 40 36 41 37 42
REMARK SMILES IDX 38 43 39 44 40 45 101 46 41 47 100 48 42 49 43 50 44 51
REMARK SMILES IDX 94 52 45 53 99 54 93 55 95 56 46 57 98 58 92 59 91 60 47 62
REMARK SMILES IDX 79 63 59 64 78 65 60 66 63 67 77 68 96 69 61 70 62 71 76 73
REMARK SMILES IDX 97 74 64 75 48 76 49 77 57 78 50 79 51 80 55 81 58 82 52 83
REMARK SMILES IDX 53 84 56 85 54 86 80 87 81 88 89 89 82 90 83 91 87 92 90 93
REMARK SMILES IDX 84 94 85 95 88 96 86 97 65 98 66 99 74 100 67 101 68 102
REMARK SMILES IDX 72 103 75 104 69 105 70 106 73 107 71 108
REMARK H PARENT 7 24 95 61 63 72
REMARK Flexibility Score: inf
ROOT
ATOM      1  C   UNL     1      -0.926  15.109   2.905  1.00  0.00     0.202 C 
ENDROOT
BRANCH   1   2
ATOM      2  C   UNL     1      -2.373  15.591   3.097  1.00  0.00     0.261 C 
BRANCH   2   3
ATOM      3  O   UNL     1      -3.409  14.655   2.771  1.00  0.00    -0.463 OA
BRANCH   3   4
ATOM      4  C   UNL     1      -3.902  14.762   1.515  1.00  0.00     0.313 C 
ATOM      5  O   UNL     1      -3.530  15.600   0.697  1.00  0.00    -0.252 OA
BRANCH   4   6
ATOM      6  C   UNL     1      -5.061  13.805   1.223  1.00  0.00     0.126 C 
ATOM      7  C   UNL     1      -5.201  12.462   1.951  1.00  0.00     0.025 C 
BRANCH   6   8
ATOM      8  C   UNL     1      -6.318  14.595   1.437  1.00  0.00    -0.031 A 
ATOM      9  C   UNL     1      -8.610  16.106   1.832  1.00  0.00     0.018 A 
ATOM     10  C   UNL     1      -7.911  15.606   2.937  1.00  0.00     0.012 A 
ATOM     11  C   UNL     1      -8.133  15.853   0.538  1.00  0.00     0.131 A 
ATOM     12  C   UNL     1      -6.765  14.859   2.741  1.00  0.00     0.005 A 
ATOM     13  C   UNL     1      -6.995  15.105   0.332  1.00  0.00     0.044 A 
ATOM     14  F   UNL     1      -8.786  16.320  -0.537  1.00  0.00    -0.206 F 
BRANCH   9  15
ATOM     15  C   UNL     1      -9.858  16.817   2.029  1.00  0.00    -0.012 A 
ATOM     16  C   UNL     1     -12.237  16.930   1.674  1.00  0.00     0.133 A 
ATOM     17  C   UNL     1     -12.295  18.143   2.355  1.00  0.00     0.047 A 
ATOM     18  C   UNL     1     -11.028  16.279   1.490  1.00  0.00     0.056 A 
ATOM     19  C   UNL     1     -11.131  18.684   2.901  1.00  0.00     0.004 A 
ATOM     20  C   UNL     1      -9.916  18.018   2.746  1.00  0.00     0.009 A 
BRANCH  16  21
ATOM     21  O   UNL     1     -13.407  16.461   1.066  1.00  0.00    -0.410 OA
BRANCH  21  22
ATOM     22  C   UNL     1     -13.654  15.095   1.082  1.00  0.00     0.412 C 
ATOM     23  N   UNL     1     -14.586  14.719   0.159  1.00  0.00    -0.321 N 
ATOM     24  H   UNL     1     -14.847  13.769   0.148  1.00  0.00     0.167 HD
ATOM     25  O   UNL     1     -13.125  14.268   1.815  1.00  0.00    -0.224 OA
BRANCH  23  26
ATOM     26  C   UNL     1     -15.226  15.589  -0.803  1.00  0.00     0.119 C 
BRANCH  26  27
ATOM     27  C   UNL     1     -15.143  15.027  -2.221  1.00  0.00     0.021 C 
BRANCH  27  28
ATOM     28  C   UNL     1     -15.868  13.692  -2.422  1.00  0.00     0.002 C 
BRANCH  28  29
ATOM     29  C   UNL     1     -17.354  13.694  -2.046  1.00  0.00    -0.000 C 
BRANCH  29  30
ATOM     30  C   UNL     1     -18.209  14.728  -2.783  1.00  0.00    -0.003 C 
ATOM     31  C   UNL     1     -18.246  14.509  -4.287  1.00  0.00     0.004 C 
ENDBRANCH  29  30
ENDBRANCH  28  29
ENDBRANCH  27  28
ENDBRANCH  26  27
ENDBRANCH  23  26
ENDBRANCH  21  22
ENDBRANCH  16  21
ENDBRANCH   9  15
ENDBRANCH   6   8
ENDBRANCH   4   6
ENDBRANCH   3   4
ENDBRANCH   2   3
ENDBRANCH   1   2
BRANCH   1  32
ATOM     32  O   UNL     1      -0.492  14.459   1.722  1.00  0.00    -0.376 OA
BRANCH  32  33
ATOM     33  C   UNL     1      -1.166  13.336   1.173  1.00  0.00     0.188 C 
BRANCH  33  34
ATOM     34  C   UNL     1      -1.850  12.284   2.058  1.00  0.00     0.188 C 
BRANCH  34  35
ATOM     35  O   UNL     1      -1.927  12.594   3.433  1.00  0.00    -0.377 OA
BRANCH  35  36
ATOM     36  C   UNL     1      -0.936  12.019   4.272  1.00  0.00     0.188 C 
BRANCH  36  37
ATOM     37  C   UNL     1       0.484  11.861   3.695  1.00  0.00     0.188 C 
BRANCH  37  38
ATOM     38  O   UNL     1       0.528  11.214   2.430  1.00  0.00    -0.376 OA
BRANCH  38  39
ATOM     39  C   UNL     1       0.771   9.816   2.377  1.00  0.00     0.202 C 
BRANCH  39  40
ATOM     40  C   UNL     1      -0.291   8.874   2.973  1.00  0.00     0.261 C 
BRANCH  40  41
ATOM     41  O   UNL     1      -0.590   9.041   4.368  1.00  0.00    -0.460 OA
BRANCH  41  42
ATOM     42  C   UNL     1       0.429   8.958   5.246  1.00  0.00     0.338 C 
ATOM     43  O   UNL     1       1.589   8.670   5.006  1.00  0.00    -0.246 OA
BRANCH  42  44
ATOM     44  C   UNL     1      -0.044   9.485   6.544  1.00  0.00     0.060 A 
ATOM     45  C   UNL     1       0.640  10.564   7.120  1.00  0.00     0.016 A 
ATOM     46  C   UNL     1      -1.144   8.918   7.192  1.00  0.00     0.016 A 
ATOM     47  C   UNL     1       0.257  11.047   8.370  1.00  0.00     0.010 A 
ATOM     48  C   UNL     1      -1.511   9.386   8.458  1.00  0.00     0.010 A 
ATOM     49  C   UNL     1      -0.784  10.425   9.069  1.00  0.00    -0.014 A 
BRANCH  49  50
ATOM     50  C   UNL     1      -0.953  10.704  10.515  1.00  0.00     0.031 A 
ATOM     51  C   UNL     1      -0.312   9.761  11.498  1.00  0.00     0.074 A 
ATOM     52  C   UNL     1      -1.617  11.788  10.952  1.00  0.00     0.049 A 
ATOM     53  N   UNL     1      -0.335   9.775  12.806  1.00  0.00    -0.248 NA
ATOM     54  C   UNL     1       0.463   8.650  10.921  1.00  0.00     0.031 C 
ATOM     55  C   UNL     1      -2.236  12.800  10.101  1.00  0.00     0.029 A 
ATOM     56  N   UNL     1      -1.882  12.211  12.231  1.00  0.00    -0.354 N 
ATOM     57  C   UNL     1       0.415   8.677  13.206  1.00  0.00     0.074 A 
ATOM     58  C   UNL     1       0.850   7.997  12.006  1.00  0.00     0.031 C 
ATOM     59  C   UNL     1      -2.820  13.726  10.883  1.00  0.00     0.029 A 
ATOM     60  C   UNL     1      -2.643  13.352  12.286  1.00  0.00     0.049 A 
ATOM     61  H   UNL     1      -1.557  11.740  13.033  1.00  0.00     0.167 HD
ATOM     62  C   UNL     1       0.723   8.275  14.462  1.00  0.00     0.037 A 
ATOM     63  C   UNL     1      -3.155  14.002  13.350  1.00  0.00     0.037 A 
ATOM     64  C   UNL     1       0.283   8.949  15.655  1.00  0.00     0.049 A 
ATOM     65  C   UNL     1      -2.871  13.485  14.739  1.00  0.00     0.074 A 
ATOM     66  C   UNL     1       0.545   8.627  16.974  1.00  0.00     0.029 A 
ATOM     67  N   UNL     1      -0.523  10.078  15.671  1.00  0.00    -0.354 N 
ATOM     68  N   UNL     1      -2.144  12.459  15.112  1.00  0.00    -0.248 NA
ATOM     69  C   UNL     1      -3.478  14.223  15.857  1.00  0.00     0.031 C 
ATOM     70  C   UNL     1      -0.151   9.525  17.790  1.00  0.00     0.029 A 
ATOM     71  C   UNL     1      -0.791  10.449  16.979  1.00  0.00     0.049 A 
ATOM     72  H   UNL     1      -0.855  10.547  14.871  1.00  0.00     0.167 HD
ATOM     73  C   UNL     1      -2.176  12.450  16.502  1.00  0.00     0.074 A 
ATOM     74  C   UNL     1      -2.984  13.582  16.906  1.00  0.00     0.031 C 
ATOM     75  C   UNL     1      -1.588  11.585  17.366  1.00  0.00     0.037 A 
BRANCH  62  76
ATOM     76  C   UNL     1       1.548   7.029  14.607  1.00  0.00     0.064 A 
ATOM     77  C   UNL     1       2.901   6.989  14.237  1.00  0.00     0.173 A 
ATOM     78  C   UNL     1       0.982   5.864  15.145  1.00  0.00     0.173 A 
ATOM     79  F   UNL     1       3.487   8.071  13.701  1.00  0.00    -0.203 F 
ATOM     80  C   UNL     1       3.647   5.821  14.373  1.00  0.00     0.198 A 
ATOM     81  C   UNL     1       1.739   4.708  15.311  1.00  0.00     0.198 A 
ATOM     82  F   UNL     1      -0.307   5.847  15.516  1.00  0.00    -0.203 F 
ATOM     83  F   UNL     1       4.923   5.791  13.962  1.00  0.00    -0.200 F 
ATOM     84  C   UNL     1       3.068   4.684  14.917  1.00  0.00     0.200 A 
ATOM     85  F   UNL     1       1.181   3.615  15.849  1.00  0.00    -0.200 F 
ATOM     86  F   UNL     1       3.789   3.563  15.054  1.00  0.00    -0.200 F 
ENDBRANCH  62  76
BRANCH  63  87
ATOM     87  C   UNL     1      -4.000  15.210  13.152  1.00  0.00     0.064 A 
ATOM     88  C   UNL     1      -3.573  16.473  13.583  1.00  0.00     0.173 A 
ATOM     89  C   UNL     1      -5.268  15.120  12.557  1.00  0.00     0.173 A 
ATOM     90  F   UNL     1      -2.381  16.608  14.183  1.00  0.00    -0.203 F 
ATOM     91  C   UNL     1      -4.389  17.595  13.449  1.00  0.00     0.198 A 
ATOM     92  C   UNL     1      -6.070  16.248  12.395  1.00  0.00     0.198 A 
ATOM     93  F   UNL     1      -5.728  13.934  12.131  1.00  0.00    -0.203 F 
ATOM     94  F   UNL     1      -3.978  18.780  13.921  1.00  0.00    -0.200 F 
ATOM     95  C   UNL     1      -5.635  17.483  12.850  1.00  0.00     0.200 A 
ATOM     96  F   UNL     1      -7.268  16.136  11.804  1.00  0.00    -0.200 F 
ATOM     97  F   UNL     1      -6.419  18.561  12.720  1.00  0.00    -0.200 F 
ENDBRANCH  63  87
BRANCH  75  98
ATOM     98  C   UNL     1      -1.752  11.855  18.837  1.00  0.00     0.064 A 
ATOM     99  C   UNL     1      -2.983  11.697  19.489  1.00  0.00     0.173 A 
ATOM    100  C   UNL     1      -0.647  12.244  19.611  1.00  0.00     0.173 A 
ATOM    101  F   UNL     1      -4.074  11.338  18.795  1.00  0.00    -0.203 F 
ATOM    102  C   UNL     1      -3.110  11.951  20.853  1.00  0.00     0.198 A 
ATOM    103  C   UNL     1      -0.769  12.462  20.981  1.00  0.00     0.198 A 
ATOM    104  F   UNL     1       0.558  12.401  19.042  1.00  0.00    -0.203 F 
ATOM    105  F   UNL     1      -4.310  11.849  21.442  1.00  0.00    -0.200 F 
ATOM    106  C   UNL     1      -2.002  12.326  21.598  1.00  0.00     0.200 A 
ATOM    107  F   UNL     1       0.307  12.805  21.702  1.00  0.00    -0.200 F 
ATOM    108  F   UNL     1      -2.126  12.563  22.912  1.00  0.00    -0.200 F 
ENDBRANCH  75  98
ENDBRANCH  49  50
ENDBRANCH  42  44
ENDBRANCH  41  42
ENDBRANCH  40  41
ENDBRANCH  39  40
ENDBRANCH  38  39
ENDBRANCH  37  38
ENDBRANCH  36  37
ENDBRANCH  35  36
ENDBRANCH  34  35
ENDBRANCH  33  34
ENDBRANCH  32  33
ENDBRANCH   1  32
TORSDOF 29
