REMARK SMILES CC(C)(C)C(=O)NCCC(=O)N1C[C@@H](O)C[C@@H]1C(=O)OCCOCCOCCOCCOC(=O)c1ccc(-c2c3nc(c(-c4c(F)c(F)c(F)c(F)c4F)c4ccc([nH]4)c(-c4c(F)c(F)c(F)c(F)c4F)c4nc(c(-c5c(F)c(F)c(F)c(F)c5F)c5ccc2[nH]5)C=C4)C=C3)cc1
REMARK SMILES IDX 24 1 23 2 22 3 21 4 20 5 18 6 19 7 17 8 12 9 13 10 14 11
REMARK SMILES IDX 16 12 10 13 11 14 9 15 8 16 7 17 5 18 6 19 2 21 1 22 3 23
REMARK SMILES IDX 4 24 15 25 25 27 26 28 27 29 28 30 29 31 30 32 31 33 32 34
REMARK SMILES IDX 33 35 34 36 35 37 36 38 97 39 37 40 96 41 38 42 39 43 40 44
REMARK SMILES IDX 90 45 41 46 95 47 89 48 91 49 42 50 94 51 88 52 87 53 43 55
REMARK SMILES IDX 75 56 55 57 74 58 56 59 59 60 73 61 92 62 57 63 58 64 72 66
REMARK SMILES IDX 93 67 60 68 44 69 45 70 53 71 46 72 47 73 51 74 54 75 48 76
REMARK SMILES IDX 49 77 52 78 50 79 76 80 77 81 85 82 78 83 79 84 83 85 86 86
REMARK SMILES IDX 80 87 81 88 84 89 82 90 61 91 62 92 70 93 63 94 64 95 68 96
REMARK SMILES IDX 71 97 65 98 66 99 69 100 67 101
REMARK H PARENT 7 20 15 26 91 54 59 65
REMARK Flexibility Score: inf
ROOT
ATOM      1  C   UNL     1      -3.516   4.057  -4.804  1.00  0.00     0.188 C 
ENDROOT
BRANCH   1   2
ATOM      2  O   UNL     1      -4.623   4.899  -4.542  1.00  0.00    -0.376 OA
BRANCH   2   3
ATOM      3  C   UNL     1      -4.361   6.164  -3.964  1.00  0.00     0.202 C 
BRANCH   3   4
ATOM      4  C   UNL     1      -3.405   7.124  -4.694  1.00  0.00     0.261 C 
BRANCH   4   5
ATOM      5  O   UNL     1      -2.158   6.581  -5.168  1.00  0.00    -0.462 OA
BRANCH   5   6
ATOM      6  C   UNL     1      -1.260   6.152  -4.244  1.00  0.00     0.329 C 
ATOM      7  O   UNL     1      -1.422   6.256  -3.034  1.00  0.00    -0.250 OA
BRANCH   6   8
ATOM      8  C   UNL     1      -0.065   5.426  -4.920  1.00  0.00     0.197 C 
ATOM      9  N   UNL     1       0.057   4.027  -4.455  1.00  0.00    -0.326 N 
ATOM     10  C   UNL     1       1.001   3.943  -3.354  1.00  0.00     0.152 C 
ATOM     11  C   UNL     1       1.501   5.371  -3.118  1.00  0.00     0.136 C 
ATOM     12  C   UNL     1       1.221   6.080  -4.444  1.00  0.00     0.070 C 
BRANCH   9  13
ATOM     13  C   UNL     1      -0.244   2.918  -5.225  1.00  0.00     0.225 C 
ATOM     14  O   UNL     1      -0.202   2.936  -6.453  1.00  0.00    -0.275 OA
BRANCH  13  15
ATOM     15  C   UNL     1      -0.768   1.692  -4.479  1.00  0.00     0.121 C 
BRANCH  15  16
ATOM     16  C   UNL     1       0.190   0.510  -4.421  1.00  0.00     0.125 C 
BRANCH  16  17
ATOM     17  N   UNL     1       1.284   0.753  -3.502  1.00  0.00    -0.355 N 
ATOM     18  C   UNL     1       1.382   0.667  -2.149  1.00  0.00     0.225 C 
ATOM     19  O   UNL     1       2.260   1.376  -1.645  1.00  0.00    -0.275 OA
ATOM     20  H   UNL     1       2.118   1.034  -3.943  1.00  0.00     0.163 HD
BRANCH  18  21
ATOM     21  C   UNL     1       0.543  -0.307  -1.298  1.00  0.00     0.041 C 
ATOM     22  C   UNL     1       0.985  -0.154   0.178  1.00  0.00     0.021 C 
ATOM     23  C   UNL     1       0.876  -1.739  -1.741  1.00  0.00     0.021 C 
ATOM     24  C   UNL     1      -0.968  -0.061  -1.337  1.00  0.00     0.021 C 
ENDBRANCH  18  21
ENDBRANCH  16  17
ENDBRANCH  15  16
ENDBRANCH  13  15
ENDBRANCH   9  13
BRANCH  11  25
ATOM     25  O   UNL     1       2.886   5.434  -2.821  1.00  0.00    -0.391 OA
ATOM     26  H   UNL     1       3.392   5.047  -3.553  1.00  0.00     0.211 HD
ENDBRANCH  11  25
ENDBRANCH   6   8
ENDBRANCH   5   6
ENDBRANCH   4   5
ENDBRANCH   3   4
ENDBRANCH   2   3
ENDBRANCH   1   2
BRANCH   1  27
ATOM     27  C   UNL     1      -3.085   4.041  -6.290  1.00  0.00     0.188 C 
BRANCH  27  28
ATOM     28  O   UNL     1      -3.888   4.659  -7.284  1.00  0.00    -0.377 OA
BRANCH  28  29
ATOM     29  C   UNL     1      -5.295   4.643  -7.140  1.00  0.00     0.188 C 
BRANCH  29  30
ATOM     30  C   UNL     1      -5.999   3.364  -6.635  1.00  0.00     0.188 C 
BRANCH  30  31
ATOM     31  O   UNL     1      -5.127   2.342  -6.182  1.00  0.00    -0.376 OA
BRANCH  31  32
ATOM     32  C   UNL     1      -5.041   1.143  -6.928  1.00  0.00     0.202 C 
BRANCH  32  33
ATOM     33  C   UNL     1      -4.402   1.222  -8.322  1.00  0.00     0.261 C 
BRANCH  33  34
ATOM     34  O   UNL     1      -4.885   2.269  -9.171  1.00  0.00    -0.460 OA
BRANCH  34  35
ATOM     35  C   UNL     1      -6.146   2.153  -9.632  1.00  0.00     0.338 C 
ATOM     36  O   UNL     1      -6.942   1.258  -9.400  1.00  0.00    -0.246 OA
BRANCH  35  37
ATOM     37  C   UNL     1      -6.472   3.416 -10.320  1.00  0.00     0.060 A 
ATOM     38  C   UNL     1      -7.514   4.212  -9.824  1.00  0.00     0.016 A 
ATOM     39  C   UNL     1      -5.716   3.834 -11.417  1.00  0.00     0.016 A 
ATOM     40  C   UNL     1      -7.797   5.437 -10.421  1.00  0.00     0.010 A 
ATOM     41  C   UNL     1      -6.032   5.039 -12.045  1.00  0.00     0.010 A 
ATOM     42  C   UNL     1      -7.087   5.833 -11.561  1.00  0.00    -0.014 A 
BRANCH  42  43
ATOM     43  C   UNL     1      -7.602   6.952 -12.379  1.00  0.00     0.031 A 
ATOM     44  C   UNL     1      -8.528   6.613 -13.512  1.00  0.00     0.074 A 
ATOM     45  C   UNL     1      -7.269   8.227 -12.119  1.00  0.00     0.049 A 
ATOM     46  N   UNL     1      -9.070   7.396 -14.408  1.00  0.00    -0.248 NA
ATOM     47  C   UNL     1      -8.890   5.191 -13.657  1.00  0.00     0.031 C 
ATOM     48  C   UNL     1      -6.410   8.672 -11.023  1.00  0.00     0.029 A 
ATOM     49  N   UNL     1      -7.607   9.384 -12.776  1.00  0.00    -0.354 N 
ATOM     50  C   UNL     1      -9.819   6.562 -15.227  1.00  0.00     0.074 A 
ATOM     51  C   UNL     1      -9.655   5.213 -14.736  1.00  0.00     0.031 C 
ATOM     52  C   UNL     1      -6.267  10.008 -11.100  1.00  0.00     0.029 A 
ATOM     53  C   UNL     1      -6.995  10.503 -12.267  1.00  0.00     0.049 A 
ATOM     54  H   UNL     1      -8.229   9.409 -13.539  1.00  0.00     0.167 HD
ATOM     55  C   UNL     1     -10.576   6.899 -16.295  1.00  0.00     0.037 A 
ATOM     56  C   UNL     1      -7.000  11.773 -12.722  1.00  0.00     0.037 A 
ATOM     57  C   UNL     1     -10.739   8.245 -16.772  1.00  0.00     0.049 A 
ATOM     58  C   UNL     1      -7.808  12.107 -13.953  1.00  0.00     0.074 A 
ATOM     59  C   UNL     1     -11.521   8.697 -17.818  1.00  0.00     0.029 A 
ATOM     60  N   UNL     1     -10.094   9.352 -16.241  1.00  0.00    -0.354 N 
ATOM     61  N   UNL     1      -8.559  11.326 -14.693  1.00  0.00    -0.248 NA
ATOM     62  C   UNL     1      -7.773  13.504 -14.412  1.00  0.00     0.031 C 
ATOM     63  C   UNL     1     -11.294  10.068 -17.967  1.00  0.00     0.029 A 
ATOM     64  C   UNL     1     -10.431  10.482 -16.966  1.00  0.00     0.049 A 
ATOM     65  H   UNL     1      -9.488   9.336 -15.465  1.00  0.00     0.167 HD
ATOM     66  C   UNL     1      -9.109  12.139 -15.677  1.00  0.00     0.074 A 
ATOM     67  C   UNL     1      -8.620  13.478 -15.431  1.00  0.00     0.031 C 
ATOM     68  C   UNL     1      -9.944  11.810 -16.693  1.00  0.00     0.037 A 
BRANCH  55  69
ATOM     69  C   UNL     1     -11.254   5.796 -17.051  1.00  0.00     0.064 A 
ATOM     70  C   UNL     1     -12.351   5.099 -16.526  1.00  0.00     0.173 A 
ATOM     71  C   UNL     1     -10.832   5.476 -18.351  1.00  0.00     0.173 A 
ATOM     72  F   UNL     1     -12.780   5.353 -15.280  1.00  0.00    -0.203 F 
ATOM     73  C   UNL     1     -12.997   4.117 -17.272  1.00  0.00     0.198 A 
ATOM     74  C   UNL     1     -11.499   4.516 -19.105  1.00  0.00     0.198 A 
ATOM     75  F   UNL     1      -9.784   6.112 -18.897  1.00  0.00    -0.203 F 
ATOM     76  F   UNL     1     -14.024   3.439 -16.739  1.00  0.00    -0.200 F 
ATOM     77  C   UNL     1     -12.579   3.835 -18.564  1.00  0.00     0.200 A 
ATOM     78  F   UNL     1     -11.100   4.255 -20.357  1.00  0.00    -0.200 F 
ATOM     79  F   UNL     1     -13.215   2.905 -19.288  1.00  0.00    -0.200 F 
ENDBRANCH  55  69
BRANCH  56  80
ATOM     80  C   UNL     1      -6.187  12.821 -12.046  1.00  0.00     0.064 A 
ATOM     81  C   UNL     1      -6.789  13.925 -11.426  1.00  0.00     0.173 A 
ATOM     82  C   UNL     1      -4.784  12.772 -12.061  1.00  0.00     0.173 A 
ATOM     83  F   UNL     1      -8.126  14.035 -11.406  1.00  0.00    -0.203 F 
ATOM     84  C   UNL     1      -6.023  14.957 -10.885  1.00  0.00     0.198 A 
ATOM     85  C   UNL     1      -4.019  13.785 -11.487  1.00  0.00     0.198 A 
ATOM     86  F   UNL     1      -4.154  11.741 -12.643  1.00  0.00    -0.203 F 
ATOM     87  F   UNL     1      -6.626  16.035 -10.366  1.00  0.00    -0.200 F 
ATOM     88  C   UNL     1      -4.638  14.884 -10.913  1.00  0.00     0.200 A 
ATOM     89  F   UNL     1      -2.682  13.704 -11.506  1.00  0.00    -0.200 F 
ATOM     90  F   UNL     1      -3.902  15.879 -10.400  1.00  0.00    -0.200 F 
ENDBRANCH  56  80
BRANCH  68  91
ATOM     91  C   UNL     1     -10.424  12.919 -17.587  1.00  0.00     0.064 A 
ATOM     92  C   UNL     1      -9.568  13.568 -18.489  1.00  0.00     0.173 A 
ATOM     93  C   UNL     1     -11.775  13.302 -17.575  1.00  0.00     0.173 A 
ATOM     94  F   UNL     1      -8.265  13.248 -18.533  1.00  0.00    -0.203 F 
ATOM     95  C   UNL     1     -10.040  14.577 -19.323  1.00  0.00     0.198 A 
ATOM     96  C   UNL     1     -12.251  14.284 -18.437  1.00  0.00     0.198 A 
ATOM     97  F   UNL     1     -12.639  12.705 -16.740  1.00  0.00    -0.203 F 
ATOM     98  F   UNL     1      -9.192  15.220 -20.139  1.00  0.00    -0.200 F 
ATOM     99  C   UNL     1     -11.381  14.928 -19.304  1.00  0.00     0.200 A 
ATOM    100  F   UNL     1     -13.552  14.606 -18.430  1.00  0.00    -0.200 F 
ATOM    101  F   UNL     1     -11.836  15.892 -20.116  1.00  0.00    -0.200 F 
ENDBRANCH  68  91
ENDBRANCH  42  43
ENDBRANCH  35  37
ENDBRANCH  34  35
ENDBRANCH  33  34
ENDBRANCH  32  33
ENDBRANCH  31  32
ENDBRANCH  30  31
ENDBRANCH  29  30
ENDBRANCH  28  29
ENDBRANCH  27  28
ENDBRANCH   1  27
TORSDOF 26
