REMARK SMILES O=C(Cn1cc(NC(=O)N2CC[N@@H+]3CCC[C@@H]3C2)cn1)OCCOCCOCCOCCOC(=O)c1ccc(-c2c3nc(c(-c4c(F)c(F)c(F)c(F)c4F)c4ccc([nH]4)c(-c4c(F)c(F)c(F)c(F)c4F)c4nc(c(-c5c(F)c(F)c(F)c(F)c5F)c5ccc2[nH]5)C=C4)C=C3)cc1
REMARK SMILES IDX 26 1 25 2 24 3 23 4 22 5 21 6 2 7 1 8 3 9 4 10 5 11 20 12
REMARK SMILES IDX 6 13 19 14 7 15 8 16 9 18 10 19 11 20 18 21 12 22 17 23
REMARK SMILES IDX 13 24 16 25 14 26 15 28 27 29 28 30 29 31 30 32 31 33 32 34
REMARK SMILES IDX 33 35 34 36 35 37 36 38 37 39 98 40 38 41 97 42 39 43 40 44
REMARK SMILES IDX 41 45 91 46 42 47 96 48 90 49 92 50 43 51 95 52 89 53 88 54
REMARK SMILES IDX 44 56 76 57 56 58 75 59 57 60 60 61 74 62 93 63 58 64 59 65
REMARK SMILES IDX 73 67 94 68 61 69 45 70 46 71 54 72 47 73 48 74 52 75 55 76
REMARK SMILES IDX 49 77 50 78 53 79 51 80 77 81 78 82 86 83 79 84 80 85 84 86
REMARK SMILES IDX 87 87 81 88 82 89 85 90 83 91 62 92 63 93 71 94 64 95 65 96
REMARK SMILES IDX 69 97 72 98 66 99 67 100 70 101 68 102
REMARK H PARENT 7 17 13 27 92 55 60 66
REMARK Flexibility Score: inf
ROOT
ATOM      1  C   UNL     1       2.103  -2.720  -1.058  1.00  0.00     0.188 C 
ENDROOT
BRANCH   1   2
ATOM      2  C   UNL     1       2.384  -1.228  -1.292  1.00  0.00     0.188 C 
BRANCH   2   3
ATOM      3  O   UNL     1       3.733  -0.809  -1.242  1.00  0.00    -0.376 OA
BRANCH   3   4
ATOM      4  C   UNL     1       4.300  -0.206  -0.087  1.00  0.00     0.202 C 
BRANCH   4   5
ATOM      5  C   UNL     1       3.569  -0.325   1.245  1.00  0.00     0.261 C 
BRANCH   5   6
ATOM      6  O   UNL     1       2.202   0.166   1.347  1.00  0.00    -0.462 OA
BRANCH   6   7
ATOM      7  C   UNL     1       1.558   1.209   0.771  1.00  0.00     0.327 C 
ATOM      8  O   UNL     1       0.347   1.333   0.967  1.00  0.00    -0.250 OA
BRANCH   7   9
ATOM      9  C   UNL     1       2.252   2.135  -0.191  1.00  0.00     0.266 C 
BRANCH   9  10
ATOM     10  N   UNL     1       3.227   2.980   0.452  1.00  0.00    -0.259 N 
ATOM     11  C   UNL     1       3.713   4.184   0.017  1.00  0.00     0.135 A 
ATOM     12  N   UNL     1       3.783   2.565   1.596  1.00  0.00    -0.179 NA
ATOM     13  C   UNL     1       4.625   4.578   0.969  1.00  0.00     0.081 A 
ATOM     14  C   UNL     1       4.585   3.558   1.940  1.00  0.00     0.161 A 
BRANCH  13  15
ATOM     15  N   UNL     1       5.354   5.753   0.985  1.00  0.00    -0.305 N 
ATOM     16  C   UNL     1       6.252   6.047   1.983  1.00  0.00     0.322 C 
ATOM     17  H   UNL     1       5.224   6.403   0.256  1.00  0.00     0.171 HD
ATOM     18  O   UNL     1       6.295   7.172   2.473  1.00  0.00    -0.248 OA
BRANCH  16  19
ATOM     19  N   UNL     1       7.045   5.003   2.415  1.00  0.00    -0.313 N 
ATOM     20  C   UNL     1       7.805   4.173   1.469  1.00  0.00     0.183 C 
ATOM     21  C   UNL     1       7.382   4.874   3.823  1.00  0.00     0.186 C 
ATOM     22  C   UNL     1       8.875   3.289   2.144  1.00  0.00     0.284 C 
ATOM     23  C   UNL     1       8.894   4.875   4.048  1.00  0.00     0.204 C 
ATOM     24  N   UNL     1       9.680   3.992   3.152  1.00  0.00    -0.330 N 
ATOM     25  C   UNL     1       9.251   4.449   5.470  1.00  0.00     0.073 C 
ATOM     26  C   UNL     1      10.467   3.075   3.982  1.00  0.00     0.262 C 
ATOM     27  H   UNL     1      10.303   4.577   2.594  1.00  0.00     0.348 HD
ATOM     28  C   UNL     1      10.611   3.804   5.306  1.00  0.00     0.068 C 
ENDBRANCH  16  19
ENDBRANCH  13  15
ENDBRANCH   9  10
ENDBRANCH   7   9
ENDBRANCH   6   7
ENDBRANCH   5   6
ENDBRANCH   4   5
ENDBRANCH   3   4
ENDBRANCH   2   3
ENDBRANCH   1   2
BRANCH   1  29
ATOM     29  O   UNL     1       3.084  -3.687  -1.387  1.00  0.00    -0.377 OA
BRANCH  29  30
ATOM     30  C   UNL     1       4.416  -3.467  -0.984  1.00  0.00     0.188 C 
BRANCH  30  31
ATOM     31  C   UNL     1       5.391  -3.250  -2.162  1.00  0.00     0.188 C 
BRANCH  31  32
ATOM     32  O   UNL     1       5.077  -2.528  -3.349  1.00  0.00    -0.376 OA
BRANCH  32  33
ATOM     33  C   UNL     1       3.837  -2.589  -4.039  1.00  0.00     0.202 C 
BRANCH  33  34
ATOM     34  C   UNL     1       3.271  -3.870  -4.649  1.00  0.00     0.261 C 
BRANCH  34  35
ATOM     35  O   UNL     1       3.132  -4.907  -3.701  1.00  0.00    -0.460 OA
BRANCH  35  36
ATOM     36  C   UNL     1       4.230  -5.659  -3.580  1.00  0.00     0.338 C 
ATOM     37  O   UNL     1       5.237  -5.621  -4.295  1.00  0.00    -0.246 OA
BRANCH  36  38
ATOM     38  C   UNL     1       4.058  -6.617  -2.491  1.00  0.00     0.060 A 
ATOM     39  C   UNL     1       5.075  -7.561  -2.369  1.00  0.00     0.016 A 
ATOM     40  C   UNL     1       2.821  -6.757  -1.838  1.00  0.00     0.016 A 
ATOM     41  C   UNL     1       4.729  -8.799  -1.905  1.00  0.00     0.010 A 
ATOM     42  C   UNL     1       2.483  -7.989  -1.339  1.00  0.00     0.010 A 
ATOM     43  C   UNL     1       3.397  -9.017  -1.535  1.00  0.00    -0.014 A 
BRANCH  43  44
ATOM     44  C   UNL     1       2.968 -10.394  -1.536  1.00  0.00     0.031 A 
ATOM     45  C   UNL     1       3.502 -11.198  -0.428  1.00  0.00     0.074 A 
ATOM     46  C   UNL     1       2.176 -10.868  -2.515  1.00  0.00     0.049 A 
ATOM     47  N   UNL     1       4.257 -12.243  -0.493  1.00  0.00    -0.248 NA
ATOM     48  C   UNL     1       3.256 -10.695   0.930  1.00  0.00     0.031 C 
ATOM     49  C   UNL     1       1.403 -10.115  -3.509  1.00  0.00     0.029 A 
ATOM     50  N   UNL     1       1.823 -12.156  -2.757  1.00  0.00    -0.354 N 
ATOM     51  C   UNL     1       4.447 -12.637   0.823  1.00  0.00     0.074 A 
ATOM     52  C   UNL     1       3.928 -11.584   1.658  1.00  0.00     0.031 C 
ATOM     53  C   UNL     1       0.504 -10.943  -4.085  1.00  0.00     0.029 A 
ATOM     54  C   UNL     1       0.728 -12.291  -3.591  1.00  0.00     0.049 A 
ATOM     55  H   UNL     1       2.303 -12.925  -2.374  1.00  0.00     0.167 HD
ATOM     56  C   UNL     1       4.799 -13.911   1.129  1.00  0.00     0.037 A 
ATOM     57  C   UNL     1      -0.000 -13.419  -3.762  1.00  0.00     0.037 A 
ATOM     58  C   UNL     1       5.476 -14.557   0.036  1.00  0.00     0.049 A 
ATOM     59  C   UNL     1       0.827 -14.566  -3.307  1.00  0.00     0.074 A 
ATOM     60  C   UNL     1       6.636 -14.289  -0.668  1.00  0.00     0.029 A 
ATOM     61  N   UNL     1       4.797 -15.481  -0.717  1.00  0.00    -0.354 N 
ATOM     62  N   UNL     1       1.887 -15.004  -3.929  1.00  0.00    -0.248 NA
ATOM     63  C   UNL     1       0.713 -14.975  -1.913  1.00  0.00     0.031 C 
ATOM     64  C   UNL     1       6.371 -14.704  -2.006  1.00  0.00     0.029 A 
ATOM     65  C   UNL     1       5.074 -15.215  -2.034  1.00  0.00     0.049 A 
ATOM     66  H   UNL     1       4.218 -16.201  -0.375  1.00  0.00     0.167 HD
ATOM     67  C   UNL     1       2.759 -15.389  -2.920  1.00  0.00     0.074 A 
ATOM     68  C   UNL     1       1.945 -15.448  -1.712  1.00  0.00     0.031 C 
ATOM     69  C   UNL     1       4.112 -15.350  -3.102  1.00  0.00     0.037 A 
BRANCH  56  70
ATOM     70  C   UNL     1       4.199 -14.649   2.293  1.00  0.00     0.064 A 
ATOM     71  C   UNL     1       4.723 -15.900   2.660  1.00  0.00     0.173 A 
ATOM     72  C   UNL     1       2.955 -14.310   2.875  1.00  0.00     0.173 A 
ATOM     73  F   UNL     1       5.882 -16.333   2.141  1.00  0.00    -0.203 F 
ATOM     74  C   UNL     1       4.021 -16.773   3.495  1.00  0.00     0.198 A 
ATOM     75  C   UNL     1       2.287 -15.158   3.753  1.00  0.00     0.198 A 
ATOM     76  F   UNL     1       2.283 -13.204   2.535  1.00  0.00    -0.203 F 
ATOM     77  F   UNL     1       4.500 -18.004   3.719  1.00  0.00    -0.200 F 
ATOM     78  C   UNL     1       2.804 -16.402   4.038  1.00  0.00     0.200 A 
ATOM     79  F   UNL     1       1.100 -14.786   4.252  1.00  0.00    -0.200 F 
ATOM     80  F   UNL     1       2.104 -17.261   4.791  1.00  0.00    -0.200 F 
ENDBRANCH  56  70
BRANCH  57  81
ATOM     81  C   UNL     1      -1.463 -13.510  -3.970  1.00  0.00     0.064 A 
ATOM     82  C   UNL     1      -2.051 -14.689  -4.449  1.00  0.00     0.173 A 
ATOM     83  C   UNL     1      -2.342 -12.528  -3.470  1.00  0.00     0.173 A 
ATOM     84  F   UNL     1      -1.282 -15.694  -4.893  1.00  0.00    -0.203 F 
ATOM     85  C   UNL     1      -3.437 -14.878  -4.419  1.00  0.00     0.198 A 
ATOM     86  C   UNL     1      -3.724 -12.711  -3.455  1.00  0.00     0.198 A 
ATOM     87  F   UNL     1      -1.877 -11.408  -2.898  1.00  0.00    -0.203 F 
ATOM     88  F   UNL     1      -3.960 -16.042  -4.830  1.00  0.00    -0.200 F 
ATOM     89  C   UNL     1      -4.271 -13.892  -3.918  1.00  0.00     0.200 A 
ATOM     90  F   UNL     1      -4.514 -11.761  -2.935  1.00  0.00    -0.200 F 
ATOM     91  F   UNL     1      -5.593 -14.093  -3.843  1.00  0.00    -0.200 F 
ENDBRANCH  57  81
BRANCH  69  92
ATOM     92  C   UNL     1       4.617 -15.150  -4.503  1.00  0.00     0.064 A 
ATOM     93  C   UNL     1       4.386 -13.982  -5.249  1.00  0.00     0.173 A 
ATOM     94  C   UNL     1       5.471 -16.112  -5.056  1.00  0.00     0.173 A 
ATOM     95  F   UNL     1       3.669 -12.971  -4.739  1.00  0.00    -0.203 F 
ATOM     96  C   UNL     1       4.941 -13.812  -6.516  1.00  0.00     0.198 A 
ATOM     97  C   UNL     1       6.054 -15.924  -6.307  1.00  0.00     0.198 A 
ATOM     98  F   UNL     1       5.779 -17.219  -4.361  1.00  0.00    -0.203 F 
ATOM     99  F   UNL     1       4.691 -12.696  -7.216  1.00  0.00    -0.200 F 
ATOM    100  C   UNL     1       5.779 -14.782  -7.042  1.00  0.00     0.200 A 
ATOM    101  F   UNL     1       6.905 -16.840  -6.791  1.00  0.00    -0.200 F 
ATOM    102  F   UNL     1       6.343 -14.603  -8.244  1.00  0.00    -0.200 F 
ENDBRANCH  69  92
ENDBRANCH  43  44
ENDBRANCH  36  38
ENDBRANCH  35  36
ENDBRANCH  34  35
ENDBRANCH  33  34
ENDBRANCH  32  33
ENDBRANCH  31  32
ENDBRANCH  30  31
ENDBRANCH  29  30
ENDBRANCH   1  29
TORSDOF 23
