REMARK SMILES O=C(OCCOCCOCCOCCOC(=O)c1nnn(-c2cccc(C(F)(F)F)c2)c1[C@@H]1COc2ccccc2O1)c1ccc(-c2c3nc(c(-c4c(F)c(F)c(F)c(F)c4F)c4ccc([nH]4)c(-c4c(F)c(F)c(F)c(F)c4F)c4nc(c(-c5c(F)c(F)c(F)c(F)c5F)c5ccc2[nH]5)C=C4)C=C3)cc1
REMARK SMILES IDX 9 1 8 2 7 3 6 4 5 5 4 6 3 7 2 8 1 9 43 10 44 11 105 12 45 13
REMARK SMILES IDX 104 14 46 15 47 16 48 17 98 18 49 19 103 20 97 21 99 22
REMARK SMILES IDX 50 23 102 24 96 25 95 26 51 28 83 29 63 30 82 31 64 32 67 33
REMARK SMILES IDX 81 34 100 35 65 36 66 37 80 39 101 40 68 41 52 42 53 43
REMARK SMILES IDX 61 44 54 45 55 46 59 47 62 48 56 49 57 50 60 51 58 52 84 53
REMARK SMILES IDX 85 54 93 55 86 56 87 57 91 58 94 59 88 60 89 61 92 62 90 63
REMARK SMILES IDX 69 64 70 65 78 66 71 67 72 68 76 69 79 70 73 71 74 72 77 73
REMARK SMILES IDX 75 74 10 75 11 76 12 77 13 78 14 79 15 80 16 81 17 82 18 83
REMARK SMILES IDX 19 84 32 85 20 86 21 87 33 88 34 89 42 90 35 91 41 92 36 93
REMARK SMILES IDX 40 94 37 95 39 96 38 97 22 98 23 99 31 100 24 101 26 102
REMARK SMILES IDX 25 103 27 104 28 105 29 106 30 107
REMARK H PARENT 99 27 67 38
REMARK Flexibility Score: inf
ROOT
ATOM      1  O   UNL     1       3.025  -2.815  -2.107  1.00  0.00    -0.377 OA
ENDROOT
BRANCH   1   2
ATOM      2  C   UNL     1       2.503  -1.762  -1.307  1.00  0.00     0.188 C 
BRANCH   2   3
ATOM      3  C   UNL     1       3.034  -0.351  -1.619  1.00  0.00     0.188 C 
BRANCH   3   4
ATOM      4  O   UNL     1       4.182   0.256  -1.031  1.00  0.00    -0.376 OA
BRANCH   4   5
ATOM      5  C   UNL     1       5.066  -0.350  -0.115  1.00  0.00     0.202 C 
BRANCH   5   6
ATOM      6  C   UNL     1       4.624  -0.545   1.338  1.00  0.00     0.261 C 
BRANCH   6   7
ATOM      7  O   UNL     1       3.259  -0.919   1.530  1.00  0.00    -0.460 OA
BRANCH   7   8
ATOM      8  C   UNL     1       2.136  -0.177   1.455  1.00  0.00     0.338 C 
ATOM      9  O   UNL     1       1.058  -0.759   1.580  1.00  0.00    -0.246 OA
BRANCH   8  10
ATOM     10  C   UNL     1       2.100   1.289   1.184  1.00  0.00     0.060 A 
ATOM     11  C   UNL     1       3.196   2.154   1.171  1.00  0.00     0.016 A 
ATOM     12  C   UNL     1       0.818   1.829   0.956  1.00  0.00     0.016 A 
ATOM     13  C   UNL     1       3.015   3.522   1.092  1.00  0.00     0.010 A 
ATOM     14  C   UNL     1       0.629   3.199   0.855  1.00  0.00     0.010 A 
ATOM     15  C   UNL     1       1.727   4.036   1.011  1.00  0.00    -0.014 A 
BRANCH  15  16
ATOM     16  C   UNL     1       1.587   5.463   1.227  1.00  0.00     0.031 A 
ATOM     17  C   UNL     1       2.107   6.371   0.175  1.00  0.00     0.074 A 
ATOM     18  C   UNL     1       0.992   5.916   2.346  1.00  0.00     0.049 A 
ATOM     19  N   UNL     1       2.973   7.327   0.299  1.00  0.00    -0.248 NA
ATOM     20  C   UNL     1       1.633   6.160  -1.199  1.00  0.00     0.031 C 
ATOM     21  C   UNL     1       0.235   5.144   3.337  1.00  0.00     0.029 A 
ATOM     22  N   UNL     1       0.850   7.199   2.773  1.00  0.00    -0.354 N 
ATOM     23  C   UNL     1       3.045   7.942  -0.948  1.00  0.00     0.074 A 
ATOM     24  C   UNL     1       2.271   7.131  -1.854  1.00  0.00     0.031 C 
ATOM     25  C   UNL     1      -0.478   5.994   4.104  1.00  0.00     0.029 A 
ATOM     26  C   UNL     1      -0.125   7.356   3.742  1.00  0.00     0.049 A 
ATOM     27  H   UNL     1       1.390   7.946   2.426  1.00  0.00     0.167 HD
ATOM     28  C   UNL     1       3.583   9.181  -1.113  1.00  0.00     0.037 A 
ATOM     29  C   UNL     1      -0.675   8.523   4.144  1.00  0.00     0.037 A 
ATOM     30  C   UNL     1       4.463   9.540  -0.037  1.00  0.00     0.049 A 
ATOM     31  C   UNL     1       0.250   9.619   3.766  1.00  0.00     0.074 A 
ATOM     32  C   UNL     1       5.642   9.024   0.465  1.00  0.00     0.029 A 
ATOM     33  N   UNL     1       4.026  10.435   0.905  1.00  0.00    -0.354 N 
ATOM     34  N   UNL     1       1.410   9.826   4.324  1.00  0.00    -0.248 NA
ATOM     35  C   UNL     1       0.058  10.260   2.473  1.00  0.00     0.031 C 
ATOM     36  C   UNL     1       5.591   9.270   1.868  1.00  0.00     0.029 A 
ATOM     37  C   UNL     1       4.393   9.935   2.127  1.00  0.00     0.049 A 
ATOM     38  H   UNL     1       3.542  11.276   0.736  1.00  0.00     0.167 HD
ATOM     39  C   UNL     1       2.227  10.261   3.291  1.00  0.00     0.074 A 
ATOM     40  C   UNL     1       1.317  10.616   2.208  1.00  0.00     0.031 C 
ATOM     41  C   UNL     1       3.571  10.027   3.309  1.00  0.00     0.037 A 
BRANCH  28  42
ATOM     42  C   UNL     1       3.070  10.193  -2.103  1.00  0.00     0.064 A 
ATOM     43  C   UNL     1       3.819  11.357  -2.368  1.00  0.00     0.173 A 
ATOM     44  C   UNL     1       1.737  10.203  -2.568  1.00  0.00     0.173 A 
ATOM     45  F   UNL     1       5.086  11.465  -1.942  1.00  0.00    -0.203 F 
ATOM     46  C   UNL     1       3.252  12.470  -2.995  1.00  0.00     0.198 A 
ATOM     47  C   UNL     1       1.192  11.294  -3.240  1.00  0.00     0.198 A 
ATOM     48  F   UNL     1       0.885   9.207  -2.290  1.00  0.00    -0.203 F 
ATOM     49  F   UNL     1       3.964  13.598  -3.119  1.00  0.00    -0.200 F 
ATOM     50  C   UNL     1       1.938  12.439  -3.428  1.00  0.00     0.200 A 
ATOM     51  F   UNL     1      -0.089  11.254  -3.632  1.00  0.00    -0.200 F 
ATOM     52  F   UNL     1       1.376  13.524  -3.975  1.00  0.00    -0.200 F 
ENDBRANCH  28  42
BRANCH  29  53
ATOM     53  C   UNL     1      -2.078   8.748   4.553  1.00  0.00     0.064 A 
ATOM     54  C   UNL     1      -2.448   9.894   5.270  1.00  0.00     0.173 A 
ATOM     55  C   UNL     1      -3.130   7.961   4.039  1.00  0.00     0.173 A 
ATOM     56  F   UNL     1      -1.509  10.723   5.747  1.00  0.00    -0.203 F 
ATOM     57  C   UNL     1      -3.791  10.237   5.455  1.00  0.00     0.198 A 
ATOM     58  C   UNL     1      -4.468   8.295   4.237  1.00  0.00     0.198 A 
ATOM     59  F   UNL     1      -2.881   6.901   3.255  1.00  0.00    -0.203 F 
ATOM     60  F   UNL     1      -4.108  11.370   6.095  1.00  0.00    -0.200 F 
ATOM     61  C   UNL     1      -4.799   9.440   4.934  1.00  0.00     0.200 A 
ATOM     62  F   UNL     1      -5.429   7.532   3.698  1.00  0.00    -0.200 F 
ATOM     63  F   UNL     1      -6.083   9.795   5.069  1.00  0.00    -0.200 F 
ENDBRANCH  29  53
BRANCH  41  64
ATOM     64  C   UNL     1       4.180   9.550   4.595  1.00  0.00     0.064 A 
ATOM     65  C   UNL     1       3.864   8.318   5.191  1.00  0.00     0.173 A 
ATOM     66  C   UNL     1       5.219  10.297   5.164  1.00  0.00     0.173 A 
ATOM     67  F   UNL     1       2.961   7.497   4.639  1.00  0.00    -0.203 F 
ATOM     68  C   UNL     1       4.524   7.881   6.338  1.00  0.00     0.198 A 
ATOM     69  C   UNL     1       5.902   9.841   6.289  1.00  0.00     0.198 A 
ATOM     70  F   UNL     1       5.608  11.450   4.597  1.00  0.00    -0.203 F 
ATOM     71  F   UNL     1       4.196   6.706   6.896  1.00  0.00    -0.200 F 
ATOM     72  C   UNL     1       5.546   8.641   6.882  1.00  0.00     0.200 A 
ATOM     73  F   UNL     1       6.926  10.552   6.780  1.00  0.00    -0.200 F 
ATOM     74  F   UNL     1       6.209   8.201   7.961  1.00  0.00    -0.200 F 
ENDBRANCH  41  64
ENDBRANCH  15  16
ENDBRANCH   8  10
ENDBRANCH   7   8
ENDBRANCH   6   7
ENDBRANCH   5   6
ENDBRANCH   4   5
ENDBRANCH   3   4
ENDBRANCH   2   3
ENDBRANCH   1   2
BRANCH   1  75
ATOM     75  C   UNL     1       4.351  -3.184  -1.803  1.00  0.00     0.188 C 
BRANCH  75  76
ATOM     76  C   UNL     1       5.411  -2.728  -2.822  1.00  0.00     0.188 C 
BRANCH  76  77
ATOM     77  O   UNL     1       5.070  -2.121  -4.062  1.00  0.00    -0.376 OA
BRANCH  77  78
ATOM     78  C   UNL     1       3.820  -2.329  -4.693  1.00  0.00     0.202 C 
BRANCH  78  79
ATOM     79  C   UNL     1       3.440  -3.736  -5.167  1.00  0.00     0.261 C 
BRANCH  79  80
ATOM     80  O   UNL     1       3.727  -4.781  -4.235  1.00  0.00    -0.458 OA
BRANCH  80  81
ATOM     81  C   UNL     1       4.920  -5.427  -4.433  1.00  0.00     0.361 C 
ATOM     82  O   UNL     1       5.675  -5.210  -5.349  1.00  0.00    -0.244 OA
BRANCH  81  83
ATOM     83  C   UNL     1       5.219  -6.348  -3.337  1.00  0.00     0.198 A 
ATOM     84  N   UNL     1       6.514  -6.521  -2.913  1.00  0.00    -0.122 NA
ATOM     85  C   UNL     1       4.372  -7.071  -2.505  1.00  0.00     0.123 A 
ATOM     86  N   UNL     1       6.503  -7.335  -1.870  1.00  0.00    -0.061 NA
ATOM     87  N   UNL     1       5.251  -7.833  -1.749  1.00  0.00    -0.213 N 
BRANCH  85  88
ATOM     88  C   UNL     1       2.880  -7.050  -2.329  1.00  0.00     0.262 C 
ATOM     89  C   UNL     1       2.415  -6.467  -0.986  1.00  0.00     0.281 C 
ATOM     90  O   UNL     1       2.328  -8.339  -2.621  1.00  0.00    -0.477 OA
ATOM     91  O   UNL     1       2.606  -7.382   0.095  1.00  0.00    -0.485 OA
ATOM     92  C   UNL     1       1.845  -9.014  -1.530  1.00  0.00     0.162 A 
ATOM     93  C   UNL     1       2.009  -8.575  -0.213  1.00  0.00     0.161 A 
ATOM     94  C   UNL     1       1.229 -10.238  -1.778  1.00  0.00     0.050 A 
ATOM     95  C   UNL     1       1.616  -9.380   0.854  1.00  0.00     0.050 A 
ATOM     96  C   UNL     1       0.808 -11.034  -0.711  1.00  0.00     0.004 A 
ATOM     97  C   UNL     1       1.012 -10.612   0.603  1.00  0.00     0.004 A 
ENDBRANCH  85  88
BRANCH  87  98
ATOM     98  C   UNL     1       5.128  -9.186  -1.391  1.00  0.00     0.067 A 
ATOM     99  C   UNL     1       5.269  -9.573  -0.060  1.00  0.00     0.028 A 
ATOM    100  C   UNL     1       4.907 -10.125  -2.406  1.00  0.00     0.041 A 
ATOM    101  C   UNL     1       5.091 -10.917   0.268  1.00  0.00     0.003 A 
ATOM    102  C   UNL     1       4.779 -11.480  -2.085  1.00  0.00     0.058 A 
ATOM    103  C   UNL     1       4.841 -11.862  -0.735  1.00  0.00     0.013 A 
BRANCH 102 104
ATOM    104  C   UNL     1       4.541 -12.496  -3.172  1.00  0.00     0.416 C 
ATOM    105  F   UNL     1       5.201 -13.668  -2.956  1.00  0.00    -0.166 F 
ATOM    106  F   UNL     1       3.225 -12.823  -3.301  1.00  0.00    -0.166 F 
ATOM    107  F   UNL     1       4.940 -12.069  -4.404  1.00  0.00    -0.166 F 
ENDBRANCH 102 104
ENDBRANCH  87  98
ENDBRANCH  81  83
ENDBRANCH  80  81
ENDBRANCH  79  80
ENDBRANCH  78  79
ENDBRANCH  77  78
ENDBRANCH  76  77
ENDBRANCH  75  76
ENDBRANCH   1  75
TORSDOF 23
