REMARK SMILES O=C(OCCOCCOCCOCCOC(=O)c1ccc(-c2c3nc(c(-c4c(F)c(F)c(F)c(F)c4F)c4ccc([nH]4)c(-c4c(F)c(F)c(F)c(F)c4F)c4nc(c(-c5c(F)c(F)c(F)c(F)c5F)c5ccc2[nH]5)C=C4)C=C3)cc1)c1ccc(NS(=O)(=O)C2=Cc3ccccc3CC2)cc1
REMARK SMILES IDX 8 1 7 2 6 3 5 4 4 5 3 6 2 7 1 8 81 9 82 10 100 11 83 12
REMARK SMILES IDX 99 13 84 14 85 15 86 17 87 18 88 19 89 20 90 21 98 22 91 23
REMARK SMILES IDX 97 24 92 25 96 26 93 27 95 28 94 29 9 30 10 31 11 32 12 33
REMARK SMILES IDX 13 34 14 35 15 36 16 37 17 38 18 39 19 40 80 41 20 42 79 43
REMARK SMILES IDX 21 44 22 45 23 46 73 47 24 48 78 49 72 50 74 51 25 52 77 53
REMARK SMILES IDX 71 54 70 55 26 57 58 58 38 59 57 60 39 61 42 62 56 63 75 64
REMARK SMILES IDX 40 65 41 66 55 68 76 69 43 70 27 71 28 72 36 73 29 74 30 75
REMARK SMILES IDX 34 76 37 77 31 78 32 79 35 80 33 81 59 82 60 83 68 84 61 85
REMARK SMILES IDX 62 86 66 87 69 88 63 89 64 90 67 91 65 92 44 93 45 94 53 95
REMARK SMILES IDX 46 96 47 97 51 98 54 99 48 100 49 101 52 102 50 103
REMARK H PARENT 85 16 74 56 42 67
REMARK Flexibility Score: inf
ROOT
ATOM      1  C   UNL     1       1.791   0.546  -2.289  1.00  0.00     0.188 C 
ENDROOT
BRANCH   1   2
ATOM      2  C   UNL     1       2.268  -0.139  -1.005  1.00  0.00     0.188 C 
BRANCH   2   3
ATOM      3  O   UNL     1       3.472   0.452  -0.510  1.00  0.00    -0.376 OA
BRANCH   3   4
ATOM      4  C   UNL     1       4.507  -0.440  -0.130  1.00  0.00     0.202 C 
BRANCH   4   5
ATOM      5  C   UNL     1       4.188  -1.533   0.890  1.00  0.00     0.261 C 
BRANCH   5   6
ATOM      6  O   UNL     1       2.929  -1.493   1.589  1.00  0.00    -0.460 OA
BRANCH   6   7
ATOM      7  C   UNL     1       2.336  -0.533   2.329  1.00  0.00     0.338 C 
ATOM      8  O   UNL     1       1.187  -0.701   2.728  1.00  0.00    -0.246 OA
BRANCH   7   9
ATOM      9  C   UNL     1       2.993   0.768   2.599  1.00  0.00     0.060 A 
ATOM     10  C   UNL     1       4.357   0.920   2.819  1.00  0.00     0.018 A 
ATOM     11  C   UNL     1       2.170   1.902   2.672  1.00  0.00     0.018 A 
ATOM     12  C   UNL     1       4.904   2.202   2.927  1.00  0.00     0.027 A 
ATOM     13  C   UNL     1       2.726   3.180   2.768  1.00  0.00     0.027 A 
ATOM     14  C   UNL     1       4.110   3.339   2.806  1.00  0.00     0.049 A 
BRANCH  14  15
ATOM     15  N   UNL     1       4.611   4.650   2.583  1.00  0.00    -0.280 N 
ATOM     16  H   UNL     1       3.950   5.373   2.486  1.00  0.00     0.180 HD
BRANCH  15  17
ATOM     17  S   UNL     1       6.231   5.077   2.471  1.00  0.00     0.258 S 
ATOM     18  O   UNL     1       6.180   6.521   2.332  1.00  0.00    -0.202 OA
ATOM     19  O   UNL     1       6.888   4.498   3.625  1.00  0.00    -0.202 OA
BRANCH  17  20
ATOM     20  C   UNL     1       6.879   4.354   0.963  1.00  0.00     0.066 C 
ATOM     21  C   UNL     1       7.410   5.243   0.088  1.00  0.00     0.026 C 
ATOM     22  C   UNL     1       7.764   3.132   1.132  1.00  0.00     0.055 C 
ATOM     23  C   UNL     1       8.803   5.657   0.444  1.00  0.00    -0.021 A 
ATOM     24  C   UNL     1       9.088   3.522   1.805  1.00  0.00     0.041 C 
ATOM     25  C   UNL     1       9.332   6.835  -0.084  1.00  0.00     0.008 A 
ATOM     26  C   UNL     1       9.586   4.867   1.319  1.00  0.00    -0.040 A 
ATOM     27  C   UNL     1      10.595   7.273   0.321  1.00  0.00     0.001 A 
ATOM     28  C   UNL     1      10.826   5.342   1.757  1.00  0.00     0.004 A 
ATOM     29  C   UNL     1      11.323   6.546   1.263  1.00  0.00     0.000 A 
ENDBRANCH  17  20
ENDBRANCH  15  17
ENDBRANCH  14  15
ENDBRANCH   7   9
ENDBRANCH   6   7
ENDBRANCH   5   6
ENDBRANCH   4   5
ENDBRANCH   3   4
ENDBRANCH   2   3
ENDBRANCH   1   2
BRANCH   1  30
ATOM     30  O   UNL     1       2.386   0.069  -3.496  1.00  0.00    -0.377 OA
BRANCH  30  31
ATOM     31  C   UNL     1       3.804  -0.011  -3.535  1.00  0.00     0.188 C 
BRANCH  31  32
ATOM     32  C   UNL     1       4.614   1.279  -3.303  1.00  0.00     0.188 C 
BRANCH  32  33
ATOM     33  O   UNL     1       3.821   2.436  -3.089  1.00  0.00    -0.376 OA
BRANCH  33  34
ATOM     34  C   UNL     1       3.738   3.351  -4.176  1.00  0.00     0.202 C 
BRANCH  34  35
ATOM     35  C   UNL     1       2.968   2.866  -5.414  1.00  0.00     0.261 C 
BRANCH  35  36
ATOM     36  O   UNL     1       3.468   1.662  -6.021  1.00  0.00    -0.460 OA
BRANCH  36  37
ATOM     37  C   UNL     1       4.683   1.696  -6.609  1.00  0.00     0.338 C 
ATOM     38  O   UNL     1       5.414   2.662  -6.736  1.00  0.00    -0.246 OA
BRANCH  37  39
ATOM     39  C   UNL     1       5.082   0.289  -6.862  1.00  0.00     0.060 A 
ATOM     40  C   UNL     1       6.317  -0.157  -6.374  1.00  0.00     0.016 A 
ATOM     41  C   UNL     1       4.202  -0.614  -7.470  1.00  0.00     0.016 A 
ATOM     42  C   UNL     1       6.671  -1.505  -6.488  1.00  0.00     0.010 A 
ATOM     43  C   UNL     1       4.566  -1.958  -7.602  1.00  0.00     0.010 A 
ATOM     44  C   UNL     1       5.807  -2.410  -7.122  1.00  0.00    -0.014 A 
BRANCH  44  45
ATOM     45  C   UNL     1       6.265  -3.785  -7.445  1.00  0.00     0.031 A 
ATOM     46  C   UNL     1       6.915  -4.019  -8.780  1.00  0.00     0.074 A 
ATOM     47  C   UNL     1       6.097  -4.811  -6.590  1.00  0.00     0.049 A 
ATOM     48  N   UNL     1       7.335  -5.136  -9.318  1.00  0.00    -0.248 NA
ATOM     49  C   UNL     1       7.115  -2.830  -9.625  1.00  0.00     0.031 C 
ATOM     50  C   UNL     1       5.507  -4.716  -5.257  1.00  0.00     0.029 A 
ATOM     51  N   UNL     1       6.396  -6.146  -6.731  1.00  0.00    -0.354 N 
ATOM     52  C   UNL     1       7.847  -4.784 -10.559  1.00  0.00     0.074 A 
ATOM     53  C   UNL     1       7.670  -3.356 -10.706  1.00  0.00     0.031 C 
ATOM     54  C   UNL     1       5.465  -5.946  -4.710  1.00  0.00     0.029 A 
ATOM     55  C   UNL     1       5.996  -6.918  -5.667  1.00  0.00     0.049 A 
ATOM     56  H   UNL     1       6.854  -6.514  -7.521  1.00  0.00     0.167 HD
ATOM     57  C   UNL     1       8.418  -5.579 -11.493  1.00  0.00     0.037 A 
ATOM     58  C   UNL     1       6.027  -8.256  -5.502  1.00  0.00     0.037 A 
ATOM     59  C   UNL     1       8.589  -7.000 -11.357  1.00  0.00     0.049 A 
ATOM     60  C   UNL     1       6.591  -9.130  -6.598  1.00  0.00     0.074 A 
ATOM     61  C   UNL     1       9.192  -7.882 -12.237  1.00  0.00     0.029 A 
ATOM     62  N   UNL     1       8.142  -7.748 -10.281  1.00  0.00    -0.354 N 
ATOM     63  N   UNL     1       7.124  -8.783  -7.744  1.00  0.00    -0.248 NA
ATOM     64  C   UNL     1       6.550 -10.585  -6.378  1.00  0.00     0.031 C 
ATOM     65  C   UNL     1       9.060  -9.173 -11.717  1.00  0.00     0.029 A 
ATOM     66  C   UNL     1       8.421  -9.088 -10.491  1.00  0.00     0.049 A 
ATOM     67  H   UNL     1       7.692  -7.382  -9.485  1.00  0.00     0.167 HD
ATOM     68  C   UNL     1       7.499  -9.967  -8.368  1.00  0.00     0.074 A 
ATOM     69  C   UNL     1       7.152 -11.044  -7.466  1.00  0.00     0.031 C 
ATOM     70  C   UNL     1       8.074 -10.149  -9.582  1.00  0.00     0.037 A 
BRANCH  57  71
ATOM     71  C   UNL     1       8.880  -4.936 -12.764  1.00  0.00     0.064 A 
ATOM     72  C   UNL     1      10.039  -4.148 -12.808  1.00  0.00     0.173 A 
ATOM     73  C   UNL     1       8.186  -5.158 -13.962  1.00  0.00     0.173 A 
ATOM     74  F   UNL     1      10.725  -3.893 -11.684  1.00  0.00    -0.203 F 
ATOM     75  C   UNL     1      10.482  -3.597 -14.007  1.00  0.00     0.198 A 
ATOM     76  C   UNL     1       8.645  -4.625 -15.163  1.00  0.00     0.198 A 
ATOM     77  F   UNL     1       7.071  -5.904 -13.969  1.00  0.00    -0.203 F 
ATOM     78  F   UNL     1      11.575  -2.823 -14.023  1.00  0.00    -0.200 F 
ATOM     79  C   UNL     1       9.790  -3.844 -15.184  1.00  0.00     0.200 A 
ATOM     80  F   UNL     1       7.981  -4.872 -16.300  1.00  0.00    -0.200 F 
ATOM     81  F   UNL     1      10.226  -3.324 -16.340  1.00  0.00    -0.200 F 
ENDBRANCH  57  71
BRANCH  58  82
ATOM     82  C   UNL     1       5.468  -8.881  -4.271  1.00  0.00     0.064 A 
ATOM     83  C   UNL     1       6.292  -9.561  -3.363  1.00  0.00     0.173 A 
ATOM     84  C   UNL     1       4.089  -8.870  -4.015  1.00  0.00     0.173 A 
ATOM     85  F   UNL     1       7.614  -9.629  -3.580  1.00  0.00    -0.203 F 
ATOM     86  C   UNL     1       5.756 -10.229  -2.263  1.00  0.00     0.198 A 
ATOM     87  C   UNL     1       3.557  -9.513  -2.898  1.00  0.00     0.198 A 
ATOM     88  F   UNL     1       3.254  -8.243  -4.856  1.00  0.00    -0.203 F 
ATOM     89  F   UNL     1       6.561 -10.924  -1.446  1.00  0.00    -0.200 F 
ATOM     90  C   UNL     1       4.390 -10.202  -2.029  1.00  0.00     0.200 A 
ATOM     91  F   UNL     1       2.237  -9.478  -2.673  1.00  0.00    -0.200 F 
ATOM     92  F   UNL     1       3.874 -10.851  -0.977  1.00  0.00    -0.200 F 
ENDBRANCH  58  82
BRANCH  70  93
ATOM     93  C   UNL     1       8.386 -11.556 -10.002  1.00  0.00     0.064 A 
ATOM     94  C   UNL     1       7.373 -12.451 -10.377  1.00  0.00     0.173 A 
ATOM     95  C   UNL     1       9.715 -11.998 -10.082  1.00  0.00     0.173 A 
ATOM     96  F   UNL     1       6.085 -12.081 -10.305  1.00  0.00    -0.203 F 
ATOM     97  C   UNL     1       7.678 -13.742 -10.799  1.00  0.00     0.198 A 
ATOM     98  C   UNL     1      10.019 -13.280 -10.532  1.00  0.00     0.198 A 
ATOM     99  F   UNL     1      10.722 -11.179  -9.742  1.00  0.00    -0.203 F 
ATOM    100  F   UNL     1       6.692 -14.593 -11.114  1.00  0.00    -0.200 F 
ATOM    101  C   UNL     1       9.001 -14.153 -10.884  1.00  0.00     0.200 A 
ATOM    102  F   UNL     1      11.298 -13.670 -10.628  1.00  0.00    -0.200 F 
ATOM    103  F   UNL     1       9.293 -15.393 -11.300  1.00  0.00    -0.200 F 
ENDBRANCH  70  93
ENDBRANCH  44  45
ENDBRANCH  37  39
ENDBRANCH  36  37
ENDBRANCH  35  36
ENDBRANCH  34  35
ENDBRANCH  33  34
ENDBRANCH  32  33
ENDBRANCH  31  32
ENDBRANCH  30  31
ENDBRANCH   1  30
TORSDOF 23
