REMARK SMILES O=CN1CCC[C@@H](C(=O)OCCOCCOCCOCCOC(=O)c2ccc(-c3c4nc(c(-c5c(F)c(F)c(F)c(F)c5F)c5ccc([nH]5)c(-c5c(F)c(F)c(F)c(F)c5F)c5nc(c(-c6c(F)c(F)c(F)c(F)c6F)c6ccc3[nH]6)C=C5)C=C4)cc2)C1
REMARK SMILES IDX 17 1 16 2 15 3 14 4 13 5 12 6 11 7 10 8 8 9 9 10 7 11 3 12
REMARK SMILES IDX 4 13 88 14 5 15 6 16 2 17 1 18 18 19 19 20 20 21 21 22 22 23
REMARK SMILES IDX 23 24 24 25 25 26 26 27 87 28 27 29 86 30 28 31 29 32 30 33
REMARK SMILES IDX 80 34 31 35 85 36 79 37 81 38 32 39 84 40 78 41 77 42 33 44
REMARK SMILES IDX 65 45 45 46 64 47 46 48 49 49 63 50 82 51 47 52 48 53 62 55
REMARK SMILES IDX 83 56 50 57 34 58 35 59 43 60 36 61 37 62 41 63 44 64 38 65
REMARK SMILES IDX 39 66 42 67 40 68 66 69 67 70 75 71 68 72 69 73 73 74 76 75
REMARK SMILES IDX 70 76 71 77 74 78 72 79 51 80 52 81 60 82 53 83 54 84 58 85
REMARK SMILES IDX 61 86 55 87 56 88 59 89 57 90
REMARK H PARENT 81 43 49 54
REMARK Flexibility Score: inf
ROOT
ATOM      1  C   UNL     1       1.417   7.313   0.727  1.00  0.00     0.188 C 
ENDROOT
BRANCH   1   2
ATOM      2  O   UNL     1       2.491   6.417   0.952  1.00  0.00    -0.377 OA
BRANCH   2   3
ATOM      3  C   UNL     1       2.093   5.084   1.218  1.00  0.00     0.188 C 
BRANCH   3   4
ATOM      4  C   UNL     1       2.238   4.641   2.692  1.00  0.00     0.188 C 
BRANCH   4   5
ATOM      5  O   UNL     1       2.804   5.503   3.671  1.00  0.00    -0.376 OA
BRANCH   5   6
ATOM      6  C   UNL     1       3.792   6.445   3.301  1.00  0.00     0.202 C 
BRANCH   6   7
ATOM      7  C   UNL     1       5.054   5.984   2.548  1.00  0.00     0.261 C 
BRANCH   7   8
ATOM      8  O   UNL     1       4.936   4.826   1.701  1.00  0.00    -0.463 OA
BRANCH   8   9
ATOM      9  C   UNL     1       5.355   3.648   2.234  1.00  0.00     0.310 C 
ATOM     10  O   UNL     1       5.735   3.505   3.389  1.00  0.00    -0.252 OA
BRANCH   9  11
ATOM     11  C   UNL     1       5.293   2.496   1.241  1.00  0.00     0.119 C 
ATOM     12  N   UNL     1       3.769   0.861   0.115  1.00  0.00    -0.344 N 
ATOM     13  C   UNL     1       4.444   1.034  -1.163  1.00  0.00     0.119 C 
ATOM     14  C   UNL     1       3.887   1.923   1.105  1.00  0.00     0.134 C 
ATOM     15  C   UNL     1       5.850   1.608  -1.022  1.00  0.00     0.022 C 
ATOM     16  C   UNL     1       5.862   2.853  -0.134  1.00  0.00     0.019 C 
BRANCH  12  17
ATOM     17  C   UNL     1       2.664   0.027   0.190  1.00  0.00     0.339 C 
ATOM     18  O   UNL     1       1.799   0.069   1.055  1.00  0.00    -0.279 OA
ENDBRANCH  12  17
ENDBRANCH   9  11
ENDBRANCH   8   9
ENDBRANCH   7   8
ENDBRANCH   6   7
ENDBRANCH   5   6
ENDBRANCH   4   5
ENDBRANCH   3   4
ENDBRANCH   2   3
ENDBRANCH   1   2
BRANCH   1  19
ATOM     19  C   UNL     1       0.387   7.404   1.865  1.00  0.00     0.188 C 
BRANCH  19  20
ATOM     20  O   UNL     1      -0.216   6.152   2.181  1.00  0.00    -0.376 OA
BRANCH  20  21
ATOM     21  C   UNL     1      -1.535   5.911   1.705  1.00  0.00     0.202 C 
BRANCH  21  22
ATOM     22  C   UNL     1      -1.636   5.494   0.228  1.00  0.00     0.261 C 
BRANCH  22  23
ATOM     23  O   UNL     1      -1.143   6.454  -0.722  1.00  0.00    -0.460 OA
BRANCH  23  24
ATOM     24  C   UNL     1      -1.722   7.673  -0.730  1.00  0.00     0.338 C 
ATOM     25  O   UNL     1      -2.687   8.036  -0.080  1.00  0.00    -0.246 OA
BRANCH  24  26
ATOM     26  C   UNL     1      -0.848   8.587  -1.496  1.00  0.00     0.060 A 
ATOM     27  C   UNL     1      -0.328   9.713  -0.844  1.00  0.00     0.016 A 
ATOM     28  C   UNL     1      -0.509   8.321  -2.825  1.00  0.00     0.016 A 
ATOM     29  C   UNL     1       0.520  10.587  -1.522  1.00  0.00     0.010 A 
ATOM     30  C   UNL     1       0.311   9.219  -3.516  1.00  0.00     0.010 A 
ATOM     31  C   UNL     1       0.807  10.368  -2.875  1.00  0.00    -0.014 A 
BRANCH  31  32
ATOM     32  C   UNL     1       1.435  11.453  -3.667  1.00  0.00     0.031 A 
ATOM     33  C   UNL     1       0.530  12.392  -4.415  1.00  0.00     0.074 A 
ATOM     34  C   UNL     1       2.768  11.627  -3.697  1.00  0.00     0.049 A 
ATOM     35  N   UNL     1       0.832  13.384  -5.212  1.00  0.00    -0.248 NA
ATOM     36  C   UNL     1      -0.915  12.178  -4.238  1.00  0.00     0.031 C 
ATOM     37  C   UNL     1       3.743  10.822  -2.967  1.00  0.00     0.029 A 
ATOM     38  N   UNL     1       3.528  12.544  -4.381  1.00  0.00    -0.354 N 
ATOM     39  C   UNL     1      -0.383  13.909  -5.632  1.00  0.00     0.074 A 
ATOM     40  C   UNL     1      -1.426  13.109  -5.029  1.00  0.00     0.031 C 
ATOM     41  C   UNL     1       4.978  11.271  -3.256  1.00  0.00     0.029 A 
ATOM     42  C   UNL     1       4.880  12.369  -4.217  1.00  0.00     0.049 A 
ATOM     43  H   UNL     1       3.140  13.258  -4.937  1.00  0.00     0.167 HD
ATOM     44  C   UNL     1      -0.609  14.968  -6.445  1.00  0.00     0.037 A 
ATOM     45  C   UNL     1       5.914  13.007  -4.801  1.00  0.00     0.037 A 
ATOM     46  C   UNL     1       0.431  15.755  -7.051  1.00  0.00     0.049 A 
ATOM     47  C   UNL     1       5.636  14.122  -5.780  1.00  0.00     0.074 A 
ATOM     48  C   UNL     1       0.307  16.853  -7.884  1.00  0.00     0.029 A 
ATOM     49  N   UNL     1       1.789  15.518  -6.900  1.00  0.00    -0.354 N 
ATOM     50  N   UNL     1       4.486  14.627  -6.160  1.00  0.00    -0.248 NA
ATOM     51  C   UNL     1       6.802  14.756  -6.412  1.00  0.00     0.031 C 
ATOM     52  C   UNL     1       1.588  17.241  -8.287  1.00  0.00     0.029 A 
ATOM     53  C   UNL     1       2.514  16.429  -7.651  1.00  0.00     0.049 A 
ATOM     54  H   UNL     1       2.180  14.808  -6.341  1.00  0.00     0.167 HD
ATOM     55  C   UNL     1       4.791  15.654  -7.047  1.00  0.00     0.074 A 
ATOM     56  C   UNL     1       6.235  15.710  -7.137  1.00  0.00     0.031 C 
ATOM     57  C   UNL     1       3.953  16.476  -7.726  1.00  0.00     0.037 A 
BRANCH  44  58
ATOM     58  C   UNL     1      -2.038  15.308  -6.756  1.00  0.00     0.064 A 
ATOM     59  C   UNL     1      -2.899  15.845  -5.788  1.00  0.00     0.173 A 
ATOM     60  C   UNL     1      -2.545  15.113  -8.050  1.00  0.00     0.173 A 
ATOM     61  F   UNL     1      -2.470  16.034  -4.531  1.00  0.00    -0.203 F 
ATOM     62  C   UNL     1      -4.223  16.149  -6.097  1.00  0.00     0.198 A 
ATOM     63  C   UNL     1      -3.858  15.448  -8.363  1.00  0.00     0.198 A 
ATOM     64  F   UNL     1      -1.763  14.601  -9.012  1.00  0.00    -0.203 F 
ATOM     65  F   UNL     1      -5.043  16.611  -5.143  1.00  0.00    -0.200 F 
ATOM     66  C   UNL     1      -4.699  15.958  -7.386  1.00  0.00     0.200 A 
ATOM     67  F   UNL     1      -4.312  15.274  -9.612  1.00  0.00    -0.200 F 
ATOM     68  F   UNL     1      -5.971  16.257  -7.683  1.00  0.00    -0.200 F 
ENDBRANCH  44  58
BRANCH  45  69
ATOM     69  C   UNL     1       7.312  12.596  -4.502  1.00  0.00     0.064 A 
ATOM     70  C   UNL     1       8.197  13.457  -3.838  1.00  0.00     0.173 A 
ATOM     71  C   UNL     1       7.804  11.346  -4.908  1.00  0.00     0.173 A 
ATOM     72  F   UNL     1       7.785  14.675  -3.457  1.00  0.00    -0.203 F 
ATOM     73  C   UNL     1       9.524  13.094  -3.611  1.00  0.00     0.198 A 
ATOM     74  C   UNL     1       9.121  10.970  -4.651  1.00  0.00     0.198 A 
ATOM     75  F   UNL     1       7.003  10.485  -5.553  1.00  0.00    -0.203 F 
ATOM     76  F   UNL     1      10.362  13.959  -3.025  1.00  0.00    -0.200 F 
ATOM     77  C   UNL     1       9.983  11.848  -4.012  1.00  0.00     0.200 A 
ATOM     78  F   UNL     1       9.557   9.761  -5.031  1.00  0.00    -0.200 F 
ATOM     79  F   UNL     1      11.258  11.498  -3.793  1.00  0.00    -0.200 F 
ENDBRANCH  45  69
BRANCH  57  80
ATOM     80  C   UNL     1       4.571  17.535  -8.596  1.00  0.00     0.064 A 
ATOM     81  C   UNL     1       5.239  17.217  -9.787  1.00  0.00     0.173 A 
ATOM     82  C   UNL     1       4.452  18.892  -8.254  1.00  0.00     0.173 A 
ATOM     83  F   UNL     1       5.392  15.936 -10.155  1.00  0.00    -0.203 F 
ATOM     84  C   UNL     1       5.790  18.215 -10.588  1.00  0.00     0.198 A 
ATOM     85  C   UNL     1       4.972  19.888  -9.076  1.00  0.00     0.198 A 
ATOM     86  F   UNL     1       3.814  19.253  -7.131  1.00  0.00    -0.203 F 
ATOM     87  F   UNL     1       6.470  17.883 -11.695  1.00  0.00    -0.200 F 
ATOM     88  C   UNL     1       5.649  19.549 -10.237  1.00  0.00     0.200 A 
ATOM     89  F   UNL     1       4.818  21.177  -8.743  1.00  0.00    -0.200 F 
ATOM     90  F   UNL     1       6.171  20.507 -11.014  1.00  0.00    -0.200 F 
ENDBRANCH  57  80
ENDBRANCH  31  32
ENDBRANCH  24  26
ENDBRANCH  23  24
ENDBRANCH  22  23
ENDBRANCH  21  22
ENDBRANCH  20  21
ENDBRANCH  19  20
ENDBRANCH   1  19
TORSDOF 21
