REMARK SMILES CCN(C(=O)C[NH2+][C@](C)(CC)C(=O)OCCOCCOCCOCCOC(=O)c1ccc(-c2c3nc(c(-c4c(F)c(F)c(F)c(F)c4F)c4ccc([nH]4)c(-c4c(F)c(F)c(F)c(F)c4F)c4nc(c(-c5c(F)c(F)c(F)c(F)c5F)c5ccc2[nH]5)C=C4)C=C3)cc1)C1CC1
REMARK SMILES IDX 18 1 17 2 16 3 15 4 14 5 12 6 13 7 8 8 9 9 7 10 6 13 4 14
REMARK SMILES IDX 5 15 3 16 2 17 1 18 92 19 93 20 94 21 10 22 11 23 19 24
REMARK SMILES IDX 20 25 21 26 22 27 23 28 24 29 25 30 26 31 27 32 28 33 29 34
REMARK SMILES IDX 30 35 91 36 31 37 90 38 32 39 33 40 34 41 84 42 35 43 89 44
REMARK SMILES IDX 83 45 85 46 36 47 88 48 82 49 81 50 37 52 69 53 49 54 68 55
REMARK SMILES IDX 50 56 53 57 67 58 86 59 51 60 52 61 66 63 87 64 54 65 38 66
REMARK SMILES IDX 39 67 47 68 40 69 41 70 45 71 48 72 42 73 43 74 46 75 44 76
REMARK SMILES IDX 70 77 71 78 79 79 72 80 73 81 77 82 80 83 74 84 75 85 78 86
REMARK SMILES IDX 76 87 55 88 56 89 64 90 57 91 58 92 62 93 65 94 59 95 60 96
REMARK SMILES IDX 63 97 61 98
REMARK H PARENT 7 11 7 12 85 51 53 62
REMARK Flexibility Score: inf
ROOT
ATOM      1  C   UNL     1      -2.385  -0.728  -3.022  1.00  0.00     0.188 C 
ENDROOT
BRANCH   1   2
ATOM      2  O   UNL     1      -3.457  -0.643  -3.945  1.00  0.00    -0.376 OA
BRANCH   2   3
ATOM      3  C   UNL     1      -4.758  -1.058  -3.528  1.00  0.00     0.202 C 
BRANCH   3   4
ATOM      4  C   UNL     1      -4.938  -2.175  -2.489  1.00  0.00     0.261 C 
BRANCH   4   5
ATOM      5  O   UNL     1      -4.672  -1.768  -1.124  1.00  0.00    -0.459 OA
BRANCH   5   6
ATOM      6  C   UNL     1      -3.674  -2.436  -0.480  1.00  0.00     0.367 C 
ATOM      7  O   UNL     1      -2.980  -3.292  -1.031  1.00  0.00    -0.245 OA
BRANCH   6   8
ATOM      8  C   UNL     1      -3.584  -2.158   1.059  1.00  0.00     0.191 C 
ATOM      9  C   UNL     1      -2.099  -2.375   1.427  1.00  0.00     0.092 C 
BRANCH   8  10
ATOM     10  N   UNL     1      -4.318  -3.268   1.742  1.00  0.00    -0.325 N 
ATOM     11  H   UNL     1      -3.947  -4.153   1.397  1.00  0.00     0.347 HD
ATOM     12  H   UNL     1      -4.174  -3.135   2.743  1.00  0.00     0.347 HD
BRANCH  10  13
ATOM     13  C   UNL     1      -5.773  -3.267   1.528  1.00  0.00     0.362 C 
BRANCH  13  14
ATOM     14  C   UNL     1      -6.362  -4.604   1.985  1.00  0.00     0.277 C 
ATOM     15  O   UNL     1      -7.064  -4.639   3.002  1.00  0.00    -0.268 OA
BRANCH  14  16
ATOM     16  N   UNL     1      -6.107  -5.742   1.210  1.00  0.00    -0.335 N 
BRANCH  16  17
ATOM     17  C   UNL     1      -5.165  -5.787   0.085  1.00  0.00     0.116 C 
ATOM     18  C   UNL     1      -3.829  -6.402   0.470  1.00  0.00     0.027 C 
ENDBRANCH  16  17
BRANCH  16  19
ATOM     19  C   UNL     1      -6.718  -6.985   1.631  1.00  0.00     0.085 C 
ATOM     20  C   UNL     1      -8.103  -7.316   1.135  1.00  0.00     0.027 C 
ATOM     21  C   UNL     1      -6.947  -8.190   0.758  1.00  0.00     0.027 C 
ENDBRANCH  16  19
ENDBRANCH  14  16
ENDBRANCH  13  14
ENDBRANCH  10  13
ENDBRANCH   8  10
BRANCH   8  22
ATOM     22  C   UNL     1      -4.115  -0.799   1.598  1.00  0.00     0.077 C 
ATOM     23  C   UNL     1      -3.158   0.390   1.697  1.00  0.00     0.011 C 
ENDBRANCH   8  22
ENDBRANCH   6   8
ENDBRANCH   5   6
ENDBRANCH   4   5
ENDBRANCH   3   4
ENDBRANCH   2   3
ENDBRANCH   1   2
BRANCH   1  24
ATOM     24  C   UNL     1      -2.350   0.319  -1.907  1.00  0.00     0.188 C 
BRANCH  24  25
ATOM     25  O   UNL     1      -3.614   0.673  -1.370  1.00  0.00    -0.377 OA
BRANCH  25  26
ATOM     26  C   UNL     1      -4.273   1.848  -1.840  1.00  0.00     0.188 C 
BRANCH  26  27
ATOM     27  C   UNL     1      -3.551   2.745  -2.849  1.00  0.00     0.188 C 
BRANCH  27  28
ATOM     28  O   UNL     1      -2.375   3.431  -2.411  1.00  0.00    -0.376 OA
BRANCH  28  29
ATOM     29  C   UNL     1      -2.215   3.711  -1.023  1.00  0.00     0.202 C 
BRANCH  29  30
ATOM     30  C   UNL     1      -2.927   4.966  -0.520  1.00  0.00     0.261 C 
BRANCH  30  31
ATOM     31  O   UNL     1      -4.356   4.850  -0.587  1.00  0.00    -0.460 OA
BRANCH  31  32
ATOM     32  C   UNL     1      -4.926   5.446  -1.661  1.00  0.00     0.338 C 
ATOM     33  O   UNL     1      -4.372   6.070  -2.547  1.00  0.00    -0.246 OA
BRANCH  32  34
ATOM     34  C   UNL     1      -6.364   5.127  -1.694  1.00  0.00     0.060 A 
ATOM     35  C   UNL     1      -6.922   4.714  -2.910  1.00  0.00     0.016 A 
ATOM     36  C   UNL     1      -7.171   5.329  -0.572  1.00  0.00     0.016 A 
ATOM     37  C   UNL     1      -8.300   4.558  -3.027  1.00  0.00     0.010 A 
ATOM     38  C   UNL     1      -8.554   5.186  -0.691  1.00  0.00     0.010 A 
ATOM     39  C   UNL     1      -9.123   4.844  -1.930  1.00  0.00    -0.014 A 
BRANCH  39  40
ATOM     40  C   UNL     1     -10.582   4.983  -2.130  1.00  0.00     0.031 A 
ATOM     41  C   UNL     1     -11.146   6.361  -2.340  1.00  0.00     0.074 A 
ATOM     42  C   UNL     1     -11.383   3.905  -2.133  1.00  0.00     0.049 A 
ATOM     43  N   UNL     1     -12.391   6.740  -2.467  1.00  0.00    -0.248 NA
ATOM     44  C   UNL     1     -10.170   7.461  -2.411  1.00  0.00     0.031 C 
ATOM     45  C   UNL     1     -10.937   2.523  -1.981  1.00  0.00     0.029 A 
ATOM     46  N   UNL     1     -12.745   3.812  -2.257  1.00  0.00    -0.354 N 
ATOM     47  C   UNL     1     -12.348   8.119  -2.625  1.00  0.00     0.074 A 
ATOM     48  C   UNL     1     -10.959   8.515  -2.550  1.00  0.00     0.031 C 
ATOM     49  C   UNL     1     -12.012   1.716  -2.003  1.00  0.00     0.029 A 
ATOM     50  C   UNL     1     -13.219   2.530  -2.138  1.00  0.00     0.049 A 
ATOM     51  H   UNL     1     -13.327   4.590  -2.417  1.00  0.00     0.167 HD
ATOM     52  C   UNL     1     -13.377   8.976  -2.823  1.00  0.00     0.037 A 
ATOM     53  C   UNL     1     -14.486   2.076  -2.115  1.00  0.00     0.037 A 
ATOM     54  C   UNL     1     -14.756   8.572  -2.894  1.00  0.00     0.049 A 
ATOM     55  C   UNL     1     -15.619   3.059  -2.265  1.00  0.00     0.074 A 
ATOM     56  C   UNL     1     -15.876   9.355  -3.105  1.00  0.00     0.029 A 
ATOM     57  N   UNL     1     -15.201   7.266  -2.746  1.00  0.00    -0.354 N 
ATOM     58  N   UNL     1     -15.573   4.358  -2.437  1.00  0.00    -0.248 NA
ATOM     59  C   UNL     1     -16.982   2.509  -2.221  1.00  0.00     0.031 C 
ATOM     60  C   UNL     1     -17.004   8.530  -3.035  1.00  0.00     0.029 A 
ATOM     61  C   UNL     1     -16.582   7.225  -2.836  1.00  0.00     0.049 A 
ATOM     62  H   UNL     1     -14.621   6.485  -2.599  1.00  0.00     0.167 HD
ATOM     63  C   UNL     1     -16.893   4.777  -2.550  1.00  0.00     0.074 A 
ATOM     64  C   UNL     1     -17.716   3.591  -2.440  1.00  0.00     0.031 C 
ATOM     65  C   UNL     1     -17.381   6.029  -2.732  1.00  0.00     0.037 A 
BRANCH  52  66
ATOM     66  C   UNL     1     -13.050  10.435  -2.946  1.00  0.00     0.064 A 
ATOM     67  C   UNL     1     -12.402  10.955  -4.076  1.00  0.00     0.173 A 
ATOM     68  C   UNL     1     -13.412  11.331  -1.928  1.00  0.00     0.173 A 
ATOM     69  F   UNL     1     -12.019  10.138  -5.069  1.00  0.00    -0.203 F 
ATOM     70  C   UNL     1     -12.105  12.312  -4.171  1.00  0.00     0.198 A 
ATOM     71  C   UNL     1     -13.140  12.692  -2.039  1.00  0.00     0.198 A 
ATOM     72  F   UNL     1     -14.035  10.887  -0.826  1.00  0.00    -0.203 F 
ATOM     73  F   UNL     1     -11.441  12.778  -5.239  1.00  0.00    -0.200 F 
ATOM     74  C   UNL     1     -12.480  13.180  -3.157  1.00  0.00     0.200 A 
ATOM     75  F   UNL     1     -13.512  13.530  -1.062  1.00  0.00    -0.200 F 
ATOM     76  F   UNL     1     -12.199  14.487  -3.252  1.00  0.00    -0.200 F 
ENDBRANCH  52  66
BRANCH  53  77
ATOM     77  C   UNL     1     -14.753   0.626  -1.931  1.00  0.00     0.064 A 
ATOM     78  C   UNL     1     -15.293  -0.147  -2.967  1.00  0.00     0.173 A 
ATOM     79  C   UNL     1     -14.485  -0.013  -0.711  1.00  0.00     0.173 A 
ATOM     80  F   UNL     1     -15.587   0.425  -4.144  1.00  0.00    -0.203 F 
ATOM     81  C   UNL     1     -15.571  -1.500  -2.786  1.00  0.00     0.198 A 
ATOM     82  C   UNL     1     -14.738  -1.373  -0.540  1.00  0.00     0.198 A 
ATOM     83  F   UNL     1     -13.969   0.682   0.313  1.00  0.00    -0.203 F 
ATOM     84  F   UNL     1     -16.129  -2.205  -3.780  1.00  0.00    -0.200 F 
ATOM     85  C   UNL     1     -15.289  -2.113  -1.575  1.00  0.00     0.200 A 
ATOM     86  F   UNL     1     -14.452  -1.963   0.628  1.00  0.00    -0.200 F 
ATOM     87  F   UNL     1     -15.554  -3.415  -1.403  1.00  0.00    -0.200 F 
ENDBRANCH  53  77
BRANCH  65  88
ATOM     88  C   UNL     1     -18.869   6.177  -2.863  1.00  0.00     0.064 A 
ATOM     89  C   UNL     1     -19.725   6.023  -1.763  1.00  0.00     0.173 A 
ATOM     90  C   UNL     1     -19.439   6.522  -4.098  1.00  0.00     0.173 A 
ATOM     91  F   UNL     1     -19.229   5.679  -0.565  1.00  0.00    -0.203 F 
ATOM     92  C   UNL     1     -21.101   6.185  -1.901  1.00  0.00     0.198 A 
ATOM     93  C   UNL     1     -20.812   6.714  -4.225  1.00  0.00     0.198 A 
ATOM     94  F   UNL     1     -18.663   6.689  -5.179  1.00  0.00    -0.203 F 
ATOM     95  F   UNL     1     -21.905   5.987  -0.847  1.00  0.00    -0.200 F 
ATOM     96  C   UNL     1     -21.642   6.538  -3.128  1.00  0.00     0.200 A 
ATOM     97  F   UNL     1     -21.331   7.070  -5.408  1.00  0.00    -0.200 F 
ATOM     98  F   UNL     1     -22.966   6.702  -3.256  1.00  0.00    -0.200 F 
ENDBRANCH  65  88
ENDBRANCH  39  40
ENDBRANCH  32  34
ENDBRANCH  31  32
ENDBRANCH  30  31
ENDBRANCH  29  30
ENDBRANCH  28  29
ENDBRANCH  27  28
ENDBRANCH  26  27
ENDBRANCH  25  26
ENDBRANCH  24  25
ENDBRANCH   1  24
TORSDOF 27
