REMARK SMILES O=C(OCCOCCOCCOCCOC(=O)c1ccc(-c2c3nc(c(-c4c(F)c(F)c(F)c(F)c4F)c4ccc([nH]4)c(-c4c(F)c(F)c(F)c(F)c4F)c4nc(c(-c5c(F)c(F)c(F)c(F)c5F)c5ccc2[nH]5)C=C4)C=C3)cc1)C1=Cc2c(ccc(Cl)c2-c2ccccc2)O[C@H]1C(F)(F)F
REMARK SMILES IDX 10 1 9 2 8 3 7 4 6 5 5 6 4 7 3 8 2 9 1 10 81 11 82 12 97 13
REMARK SMILES IDX 83 14 96 15 84 16 89 17 85 18 87 19 86 20 88 21 98 22 99 23
REMARK SMILES IDX 100 24 101 25 90 26 91 27 95 28 92 29 94 30 93 31 11 32
REMARK SMILES IDX 12 33 13 34 14 35 15 36 16 37 17 38 18 39 19 40 80 41 20 42
REMARK SMILES IDX 79 43 21 44 22 45 23 46 73 47 24 48 78 49 72 50 74 51 25 52
REMARK SMILES IDX 77 53 71 54 70 55 26 57 58 58 38 59 57 60 39 61 42 62 56 63
REMARK SMILES IDX 75 64 40 65 41 66 55 68 76 69 43 70 27 71 28 72 36 73 29 74
REMARK SMILES IDX 30 75 34 76 37 77 31 78 32 79 35 80 33 81 59 82 60 83 68 84
REMARK SMILES IDX 61 85 62 86 66 87 69 88 63 89 64 90 67 91 65 92 44 93 45 94
REMARK SMILES IDX 53 95 46 96 47 97 51 98 54 99 48 100 49 101 52 102 50 103
REMARK H PARENT 74 56 42 67
REMARK Flexibility Score: inf
ROOT
ATOM      1  C   UNL     1       3.807  -4.395  -0.133  1.00  0.00     0.188 C 
ENDROOT
BRANCH   1   2
ATOM      2  O   UNL     1       2.983  -3.285   0.458  1.00  0.00    -0.377 OA
BRANCH   2   3
ATOM      3  C   UNL     1       1.517  -1.953   0.437  1.00  0.00     0.188 C 
BRANCH   3   4
ATOM      4  C   UNL     1       0.285  -1.586  -0.618  1.00  0.00     0.188 C 
BRANCH   4   5
ATOM      5  O   UNL     1       0.443  -0.679  -1.702  1.00  0.00    -0.376 OA
BRANCH   5   6
ATOM      6  C   UNL     1       1.234   0.484  -1.572  1.00  0.00     0.202 C 
BRANCH   6   7
ATOM      7  C   UNL     1       1.226   1.298  -0.270  1.00  0.00     0.261 C 
BRANCH   7   8
ATOM      8  O   UNL     1       1.595   2.680  -0.522  1.00  0.00    -0.460 OA
BRANCH   8   9
ATOM      9  C   UNL     1       2.792   3.159  -0.939  1.00  0.00     0.338 C 
ATOM     10  O   UNL     1       2.883   4.308  -1.359  1.00  0.00    -0.246 OA
BRANCH   9  11
ATOM     11  C   UNL     1       4.027   2.362  -0.800  1.00  0.00     0.087 C 
ATOM     12  C   UNL     1       4.055   1.029  -0.746  1.00  0.00     0.028 C 
ATOM     13  C   UNL     1       5.284   2.989  -1.368  1.00  0.00     0.316 C 
ATOM     14  C   UNL     1       5.199   0.469  -0.050  1.00  0.00     0.027 A 
ATOM     15  O   UNL     1       6.504   2.395  -0.807  1.00  0.00    -0.475 OA
ATOM     16  C   UNL     1       6.385   1.222  -0.099  1.00  0.00     0.128 A 
ATOM     17  C   UNL     1       5.064  -0.743   0.668  1.00  0.00     0.011 A 
ATOM     18  C   UNL     1       7.491   0.783   0.605  1.00  0.00     0.049 A 
ATOM     19  C   UNL     1       6.206  -1.142   1.391  1.00  0.00     0.049 A 
ATOM     20  C   UNL     1       7.394  -0.384   1.364  1.00  0.00     0.025 A 
ATOM     21  Cl  UNL     1       6.283  -2.606   2.314  1.00  0.00    -0.084 Cl
BRANCH  13  22
ATOM     22  C   UNL     1       5.263   2.913  -2.922  1.00  0.00     0.430 C 
ATOM     23  F   UNL     1       4.070   2.464  -3.401  1.00  0.00    -0.167 F 
ATOM     24  F   UNL     1       5.487   4.116  -3.494  1.00  0.00    -0.167 F 
ATOM     25  F   UNL     1       6.195   2.054  -3.401  1.00  0.00    -0.167 F 
ENDBRANCH  13  22
BRANCH  17  26
ATOM     26  C   UNL     1       3.805  -1.558   0.596  1.00  0.00    -0.016 A 
ATOM     27  C   UNL     1       3.107  -2.304   2.095  1.00  0.00     0.009 A 
ATOM     28  C   UNL     1       3.131  -2.067  -1.021  1.00  0.00     0.009 A 
ATOM     29  C   UNL     1       1.874  -3.619   1.999  1.00  0.00     0.001 A 
ATOM     30  C   UNL     1       1.867  -3.380  -1.127  1.00  0.00     0.001 A 
ATOM     31  C   UNL     1       1.233  -4.142   0.396  1.00  0.00     0.000 A 
ENDBRANCH  17  26
ENDBRANCH   9  11
ENDBRANCH   8   9
ENDBRANCH   7   8
ENDBRANCH   6   7
ENDBRANCH   5   6
ENDBRANCH   4   5
ENDBRANCH   3   4
ENDBRANCH   2   3
ENDBRANCH   1   2
BRANCH   1  32
ATOM     32  C   UNL     1       4.989  -4.133  -1.117  1.00  0.00     0.188 C 
BRANCH  32  33
ATOM     33  O   UNL     1       4.870  -4.098  -2.534  1.00  0.00    -0.376 OA
BRANCH  33  34
ATOM     34  C   UNL     1       3.897  -4.786  -3.294  1.00  0.00     0.202 C 
BRANCH  34  35
ATOM     35  C   UNL     1       3.532  -6.268  -3.097  1.00  0.00     0.261 C 
BRANCH  35  36
ATOM     36  O   UNL     1       3.764  -6.795  -1.795  1.00  0.00    -0.460 OA
BRANCH  36  37
ATOM     37  C   UNL     1       4.954  -7.407  -1.623  1.00  0.00     0.338 C 
ATOM     38  O   UNL     1       5.757  -7.714  -2.489  1.00  0.00    -0.246 OA
BRANCH  37  39
ATOM     39  C   UNL     1       5.255  -7.443  -0.175  1.00  0.00     0.060 A 
ATOM     40  C   UNL     1       6.536  -7.026   0.206  1.00  0.00     0.016 A 
ATOM     41  C   UNL     1       4.310  -7.803   0.794  1.00  0.00     0.016 A 
ATOM     42  C   UNL     1       6.895  -7.005   1.546  1.00  0.00     0.010 A 
ATOM     43  C   UNL     1       4.682  -7.821   2.144  1.00  0.00     0.010 A 
ATOM     44  C   UNL     1       5.995  -7.472   2.512  1.00  0.00    -0.014 A 
BRANCH  44  45
ATOM     45  C   UNL     1       6.577  -7.925   3.797  1.00  0.00     0.031 A 
ATOM     46  C   UNL     1       7.081  -9.343   3.846  1.00  0.00     0.074 A 
ATOM     47  C   UNL     1       6.786  -7.088   4.827  1.00  0.00     0.049 A 
ATOM     48  N   UNL     1       7.747  -9.963   4.785  1.00  0.00    -0.248 NA
ATOM     49  C   UNL     1       6.808 -10.172   2.658  1.00  0.00     0.031 C 
ATOM     50  C   UNL     1       6.388  -5.684   4.876  1.00  0.00     0.029 A 
ATOM     51  N   UNL     1       7.409  -7.306   6.030  1.00  0.00    -0.354 N 
ATOM     52  C   UNL     1       7.994 -11.235   4.287  1.00  0.00     0.074 A 
ATOM     53  C   UNL     1       7.364 -11.323   2.990  1.00  0.00     0.031 C 
ATOM     54  C   UNL     1       6.774  -5.164   6.055  1.00  0.00     0.029 A 
ATOM     55  C   UNL     1       7.435  -6.203   6.846  1.00  0.00     0.049 A 
ATOM     56  H   UNL     1       7.801  -8.173   6.284  1.00  0.00     0.167 HD
ATOM     57  C   UNL     1       8.704 -12.240   4.848  1.00  0.00     0.037 A 
ATOM     58  C   UNL     1       7.931  -6.062   8.091  1.00  0.00     0.037 A 
ATOM     59  C   UNL     1       9.302 -12.167   6.151  1.00  0.00     0.049 A 
ATOM     60  C   UNL     1       8.637  -7.232   8.738  1.00  0.00     0.074 A 
ATOM     61  C   UNL     1      10.004 -13.142   6.835  1.00  0.00     0.029 A 
ATOM     62  N   UNL     1       9.257 -11.050   6.971  1.00  0.00    -0.354 N 
ATOM     63  N   UNL     1       8.882  -8.427   8.256  1.00  0.00    -0.248 NA
ATOM     64  C   UNL     1       9.149  -7.025  10.101  1.00  0.00     0.031 C 
ATOM     65  C   UNL     1      10.343 -12.631   8.091  1.00  0.00     0.029 A 
ATOM     66  C   UNL     1       9.904 -11.318   8.165  1.00  0.00     0.049 A 
ATOM     67  H   UNL     1       8.828 -10.195   6.739  1.00  0.00     0.167 HD
ATOM     68  C   UNL     1       9.595  -9.102   9.240  1.00  0.00     0.074 A 
ATOM     69  C   UNL     1       9.766  -8.173  10.337  1.00  0.00     0.031 C 
ATOM     70  C   UNL     1      10.066 -10.374   9.242  1.00  0.00     0.037 A 
BRANCH  57  71
ATOM     71  C   UNL     1       8.838 -13.506   4.056  1.00  0.00     0.064 A 
ATOM     72  C   UNL     1       9.635 -13.568   2.902  1.00  0.00     0.173 A 
ATOM     73  C   UNL     1       8.160 -14.667   4.450  1.00  0.00     0.173 A 
ATOM     74  F   UNL     1      10.281 -12.475   2.467  1.00  0.00    -0.203 F 
ATOM     75  C   UNL     1       9.730 -14.742   2.160  1.00  0.00     0.198 A 
ATOM     76  C   UNL     1       8.281 -15.848   3.723  1.00  0.00     0.198 A 
ATOM     77  F   UNL     1       7.377 -14.657   5.540  1.00  0.00    -0.203 F 
ATOM     78  F   UNL     1      10.455 -14.765   1.033  1.00  0.00    -0.200 F 
ATOM     79  C   UNL     1       9.060 -15.883   2.576  1.00  0.00     0.200 A 
ATOM     80  F   UNL     1       7.637 -16.951   4.128  1.00  0.00    -0.200 F 
ATOM     81  F   UNL     1       9.155 -17.014   1.864  1.00  0.00    -0.200 F 
ENDBRANCH  57  71
BRANCH  58  82
ATOM     82  C   UNL     1       7.766  -4.779   8.827  1.00  0.00     0.064 A 
ATOM     83  C   UNL     1       8.868  -3.989   9.183  1.00  0.00     0.173 A 
ATOM     84  C   UNL     1       6.497  -4.346   9.241  1.00  0.00     0.173 A 
ATOM     85  F   UNL     1      10.107  -4.372   8.838  1.00  0.00    -0.203 F 
ATOM     86  C   UNL     1       8.711  -2.835   9.950  1.00  0.00     0.198 A 
ATOM     87  C   UNL     1       6.338  -3.175   9.979  1.00  0.00     0.198 A 
ATOM     88  F   UNL     1       5.408  -5.066   8.934  1.00  0.00    -0.203 F 
ATOM     89  F   UNL     1       9.788  -2.135  10.332  1.00  0.00    -0.200 F 
ATOM     90  C   UNL     1       7.446  -2.427  10.344  1.00  0.00     0.200 A 
ATOM     91  F   UNL     1       5.112  -2.780  10.350  1.00  0.00    -0.200 F 
ATOM     92  F   UNL     1       7.296  -1.322  11.087  1.00  0.00    -0.200 F 
ENDBRANCH  58  82
BRANCH  70  93
ATOM     93  C   UNL     1      10.836 -10.824  10.450  1.00  0.00     0.064 A 
ATOM     94  C   UNL     1      10.212 -11.031  11.690  1.00  0.00     0.173 A 
ATOM     95  C   UNL     1      12.213 -11.083  10.358  1.00  0.00     0.173 A 
ATOM     96  F   UNL     1       8.900 -10.790  11.833  1.00  0.00    -0.203 F 
ATOM     97  C   UNL     1      10.944 -11.442  12.800  1.00  0.00     0.198 A 
ATOM     98  C   UNL     1      12.935 -11.528  11.461  1.00  0.00     0.198 A 
ATOM     99  F   UNL     1      12.857 -10.915   9.193  1.00  0.00    -0.203 F 
ATOM    100  F   UNL     1      10.338 -11.575  13.988  1.00  0.00    -0.200 F 
ATOM    101  C   UNL     1      12.303 -11.696  12.684  1.00  0.00     0.200 A 
ATOM    102  F   UNL     1      14.243 -11.792  11.343  1.00  0.00    -0.200 F 
ATOM    103  F   UNL     1      13.005 -12.095  13.753  1.00  0.00    -0.200 F 
ENDBRANCH  70  93
ENDBRANCH  44  45
ENDBRANCH  37  39
ENDBRANCH  36  37
ENDBRANCH  35  36
ENDBRANCH  34  35
ENDBRANCH  33  34
ENDBRANCH  32  33
ENDBRANCH   1  32
TORSDOF 22
