REMARK SMILES CC[C@H](C)[NH2+]CCc1ccc(C(=O)OCCOCCOCCOCCOC(=O)c2ccc(-c3c4nc(c(-c5c(F)c(F)c(F)c(F)c5F)c5ccc([nH]5)c(-c5c(F)c(F)c(F)c(F)c5F)c5nc(c(-c6c(F)c(F)c(F)c(F)c6F)c6ccc3[nH]6)C=C5)C=C4)cc2)cc1
REMARK SMILES IDX 18 1 17 2 16 3 15 4 14 5 12 6 13 7 11 8 8 9 9 10 93 11 10 12
REMARK SMILES IDX 92 13 7 14 6 15 5 16 3 19 4 20 2 21 1 22 19 23 20 24 21 25
REMARK SMILES IDX 22 26 23 27 24 28 25 29 26 30 27 31 28 32 29 33 30 34 91 35
REMARK SMILES IDX 31 36 90 37 32 38 33 39 34 40 84 41 35 42 89 43 83 44 85 45
REMARK SMILES IDX 36 46 88 47 82 48 81 49 37 51 69 52 49 53 68 54 50 55 53 56
REMARK SMILES IDX 67 57 86 58 51 59 52 60 66 62 87 63 54 64 38 65 39 66 47 67
REMARK SMILES IDX 40 68 41 69 45 70 48 71 42 72 43 73 46 74 44 75 70 76 71 77
REMARK SMILES IDX 79 78 72 79 73 80 77 81 80 82 74 83 75 84 78 85 76 86 55 87
REMARK SMILES IDX 56 88 64 89 57 90 58 91 62 92 65 93 59 94 60 95 63 96 61 97
REMARK H PARENT 5 17 5 18 85 50 53 61
REMARK Flexibility Score: inf
ROOT
ATOM      1  C   UNL     1      -6.172   3.286   6.005  1.00  0.00     0.188 C 
ENDROOT
BRANCH   1   2
ATOM      2  O   UNL     1      -7.508   2.861   5.789  1.00  0.00    -0.376 OA
BRANCH   2   3
ATOM      3  C   UNL     1      -7.919   2.498   4.484  1.00  0.00     0.202 C 
BRANCH   3   4
ATOM      4  C   UNL     1      -7.222   1.323   3.781  1.00  0.00     0.261 C 
BRANCH   4   5
ATOM      5  O   UNL     1      -5.805   1.261   3.939  1.00  0.00    -0.460 OA
BRANCH   5   6
ATOM      6  C   UNL     1      -5.063   2.128   3.218  1.00  0.00     0.338 C 
ATOM      7  O   UNL     1      -5.472   2.924   2.392  1.00  0.00    -0.246 OA
BRANCH   6   8
ATOM      8  C   UNL     1      -3.682   2.099   3.761  1.00  0.00     0.060 A 
ATOM      9  C   UNL     1      -1.075   2.114   4.780  1.00  0.00    -0.042 A 
ATOM     10  C   UNL     1      -1.666   3.304   4.326  1.00  0.00     0.005 A 
ATOM     11  C   UNL     1      -1.861   0.959   4.871  1.00  0.00     0.005 A 
ATOM     12  C   UNL     1      -2.961   3.295   3.808  1.00  0.00     0.016 A 
ATOM     13  C   UNL     1      -3.142   0.936   4.322  1.00  0.00     0.016 A 
BRANCH   9  14
ATOM     14  C   UNL     1       0.413   2.094   5.062  1.00  0.00     0.097 C 
BRANCH  14  15
ATOM     15  C   UNL     1       1.171   0.801   4.667  1.00  0.00     0.265 C 
BRANCH  15  16
ATOM     16  N   UNL     1       0.755   0.063   3.470  1.00  0.00    -0.344 N 
ATOM     17  H   UNL     1       1.071  -0.901   3.582  1.00  0.00     0.346 HD
ATOM     18  H   UNL     1      -0.256   0.193   3.426  1.00  0.00     0.346 HD
BRANCH  16  19
ATOM     19  C   UNL     1       1.243   0.534   2.173  1.00  0.00     0.178 C 
ATOM     20  C   UNL     1       1.088  -0.667   1.229  1.00  0.00     0.075 C 
BRANCH  19  21
ATOM     21  C   UNL     1       0.546   1.802   1.629  1.00  0.00     0.061 C 
ATOM     22  C   UNL     1      -0.632   1.602   0.683  1.00  0.00     0.010 C 
ENDBRANCH  19  21
ENDBRANCH  16  19
ENDBRANCH  15  16
ENDBRANCH  14  15
ENDBRANCH   9  14
ENDBRANCH   6   8
ENDBRANCH   5   6
ENDBRANCH   4   5
ENDBRANCH   3   4
ENDBRANCH   2   3
ENDBRANCH   1   2
BRANCH   1  23
ATOM     23  C   UNL     1      -5.338   2.285   6.832  1.00  0.00     0.188 C 
BRANCH  23  24
ATOM     24  O   UNL     1      -5.844   0.967   6.987  1.00  0.00    -0.377 OA
BRANCH  24  25
ATOM     25  C   UNL     1      -7.158   0.777   7.511  1.00  0.00     0.188 C 
BRANCH  25  26
ATOM     26  C   UNL     1      -7.901   1.881   8.307  1.00  0.00     0.188 C 
BRANCH  26  27
ATOM     27  O   UNL     1      -7.103   2.984   8.698  1.00  0.00    -0.376 OA
BRANCH  27  28
ATOM     28  C   UNL     1      -6.751   3.098  10.065  1.00  0.00     0.202 C 
BRANCH  28  29
ATOM     29  C   UNL     1      -5.875   1.982  10.651  1.00  0.00     0.261 C 
BRANCH  29  30
ATOM     30  O   UNL     1      -6.364   0.643  10.482  1.00  0.00    -0.460 OA
BRANCH  30  31
ATOM     31  C   UNL     1      -7.505   0.316  11.123  1.00  0.00     0.338 C 
ATOM     32  O   UNL     1      -8.179   1.029  11.849  1.00  0.00    -0.246 OA
BRANCH  31  33
ATOM     33  C   UNL     1      -7.915  -1.020  10.647  1.00  0.00     0.060 A 
ATOM     34  C   UNL     1      -9.137  -1.165   9.976  1.00  0.00     0.016 A 
ATOM     35  C   UNL     1      -7.083  -2.123  10.851  1.00  0.00     0.016 A 
ATOM     36  C   UNL     1      -9.545  -2.425   9.535  1.00  0.00     0.010 A 
ATOM     37  C   UNL     1      -7.503  -3.387  10.429  1.00  0.00     0.010 A 
ATOM     38  C   UNL     1      -8.751  -3.548   9.800  1.00  0.00    -0.014 A 
BRANCH  38  39
ATOM     39  C   UNL     1      -9.307  -4.908   9.603  1.00  0.00     0.031 A 
ATOM     40  C   UNL     1      -9.870  -5.625  10.799  1.00  0.00     0.074 A 
ATOM     41  C   UNL     1      -9.327  -5.492   8.392  1.00  0.00     0.049 A 
ATOM     42  N   UNL     1     -10.352  -6.837  10.895  1.00  0.00    -0.248 NA
ATOM     43  C   UNL     1      -9.886  -4.868  12.062  1.00  0.00     0.031 C 
ATOM     44  C   UNL     1      -8.853  -4.884   7.152  1.00  0.00     0.029 A 
ATOM     45  N   UNL     1      -9.758  -6.740   8.015  1.00  0.00    -0.354 N 
ATOM     46  C   UNL     1     -10.720  -6.990  12.226  1.00  0.00     0.074 A 
ATOM     47  C   UNL     1     -10.375  -5.761  12.907  1.00  0.00     0.031 C 
ATOM     48  C   UNL     1      -9.006  -5.767   6.150  1.00  0.00     0.029 A 
ATOM     49  C   UNL     1      -9.554  -7.013   6.685  1.00  0.00     0.049 A 
ATOM     50  H   UNL     1     -10.175  -7.378   8.639  1.00  0.00     0.167 HD
ATOM     51  C   UNL     1     -11.301  -8.056  12.824  1.00  0.00     0.037 A 
ATOM     52  C   UNL     1      -9.761  -8.150   5.991  1.00  0.00     0.037 A 
ATOM     53  C   UNL     1     -11.639  -9.278  12.143  1.00  0.00     0.049 A 
ATOM     54  C   UNL     1     -10.331  -9.355   6.699  1.00  0.00     0.074 A 
ATOM     55  C   UNL     1     -12.246 -10.411  12.655  1.00  0.00     0.029 A 
ATOM     56  N   UNL     1     -11.384  -9.531  10.803  1.00  0.00    -0.354 N 
ATOM     57  N   UNL     1     -10.704  -9.485   7.950  1.00  0.00    -0.248 NA
ATOM     58  C   UNL     1     -10.512 -10.572   5.895  1.00  0.00     0.031 C 
ATOM     59  C   UNL     1     -12.300 -11.373  11.642  1.00  0.00     0.029 A 
ATOM     60  C   UNL     1     -11.793 -10.815  10.479  1.00  0.00     0.049 A 
ATOM     61  H   UNL     1     -10.975  -8.893  10.175  1.00  0.00     0.167 HD
ATOM     62  C   UNL     1     -11.191 -10.781   8.073  1.00  0.00     0.074 A 
ATOM     63  C   UNL     1     -11.081 -11.393   6.766  1.00  0.00     0.031 C 
ATOM     64  C   UNL     1     -11.685 -11.409   9.170  1.00  0.00     0.037 A 
BRANCH  51  65
ATOM     65  C   UNL     1     -11.577  -7.960  14.297  1.00  0.00     0.064 A 
ATOM     66  C   UNL     1     -12.561  -7.102  14.812  1.00  0.00     0.173 A 
ATOM     67  C   UNL     1     -10.864  -8.759  15.204  1.00  0.00     0.173 A 
ATOM     68  F   UNL     1     -13.260  -6.305  13.991  1.00  0.00    -0.203 F 
ATOM     69  C   UNL     1     -12.800  -7.027  16.183  1.00  0.00     0.198 A 
ATOM     70  C   UNL     1     -11.130  -8.706  16.570  1.00  0.00     0.198 A 
ATOM     71  F   UNL     1      -9.914  -9.598  14.765  1.00  0.00    -0.203 F 
ATOM     72  F   UNL     1     -13.706  -6.161  16.656  1.00  0.00    -0.200 F 
ATOM     73  C   UNL     1     -12.090  -7.834  17.059  1.00  0.00     0.200 A 
ATOM     74  F   UNL     1     -10.453  -9.498  17.413  1.00  0.00    -0.200 F 
ATOM     75  F   UNL     1     -12.327  -7.767  18.376  1.00  0.00    -0.200 F 
ENDBRANCH  51  65
BRANCH  52  76
ATOM     76  C   UNL     1      -9.412  -8.217   4.546  1.00  0.00     0.064 A 
ATOM     77  C   UNL     1     -10.404  -8.377   3.568  1.00  0.00     0.173 A 
ATOM     78  C   UNL     1      -8.078  -8.156   4.115  1.00  0.00     0.173 A 
ATOM     79  F   UNL     1     -11.692  -8.470   3.929  1.00  0.00    -0.203 F 
ATOM     80  C   UNL     1     -10.073  -8.496   2.219  1.00  0.00     0.198 A 
ATOM     81  C   UNL     1      -7.752  -8.241   2.764  1.00  0.00     0.198 A 
ATOM     82  F   UNL     1      -7.090  -8.009   5.010  1.00  0.00    -0.203 F 
ATOM     83  F   UNL     1     -11.037  -8.705   1.311  1.00  0.00    -0.200 F 
ATOM     84  C   UNL     1      -8.748  -8.421   1.817  1.00  0.00     0.200 A 
ATOM     85  F   UNL     1      -6.471  -8.157   2.380  1.00  0.00    -0.200 F 
ATOM     86  F   UNL     1      -8.431  -8.534   0.520  1.00  0.00    -0.200 F 
ENDBRANCH  52  76
BRANCH  64  87
ATOM     87  C   UNL     1     -12.188 -12.815   8.998  1.00  0.00     0.064 A 
ATOM     88  C   UNL     1     -11.319 -13.890   8.758  1.00  0.00     0.173 A 
ATOM     89  C   UNL     1     -13.559 -13.097   9.121  1.00  0.00     0.173 A 
ATOM     90  F   UNL     1     -10.002 -13.675   8.620  1.00  0.00    -0.203 F 
ATOM     91  C   UNL     1     -11.806 -15.188   8.617  1.00  0.00     0.198 A 
ATOM     92  C   UNL     1     -14.037 -14.400   9.016  1.00  0.00     0.198 A 
ATOM     93  F   UNL     1     -14.434 -12.109   9.361  1.00  0.00    -0.203 F 
ATOM     94  F   UNL     1     -10.962 -16.190   8.334  1.00  0.00    -0.200 F 
ATOM     95  C   UNL     1     -13.162 -15.443   8.754  1.00  0.00     0.200 A 
ATOM     96  F   UNL     1     -15.346 -14.646   9.168  1.00  0.00    -0.200 F 
ATOM     97  F   UNL     1     -13.626 -16.693   8.628  1.00  0.00    -0.200 F 
ENDBRANCH  64  87
ENDBRANCH  38  39
ENDBRANCH  31  33
ENDBRANCH  30  31
ENDBRANCH  29  30
ENDBRANCH  28  29
ENDBRANCH  27  28
ENDBRANCH  26  27
ENDBRANCH  25  26
ENDBRANCH  24  25
ENDBRANCH  23  24
ENDBRANCH   1  23
TORSDOF 25
