REMARK SMILES Cc1n[nH]c2c1[C@@]1(C(=O)N([C@@H](C)C(=O)OCCOCCOCCOCCOC(=O)c3ccc(-c4c5nc(c(-c6c(F)c(F)c(F)c(F)c6F)c6ccc([nH]6)c(-c6c(F)c(F)c(F)c(F)c6F)c6nc(c(-c7c(F)c(F)c(F)c(F)c7F)c7ccc4[nH]7)C=C6)C=C5)cc3)c3ccccc31)C(C#N)=C(N)O2
REMARK SMILES IDX 21 1 20 2 19 3 18 4 17 5 16 6 15 7 13 8 14 9 11 10 12 11
REMARK SMILES IDX 10 12 1 13 2 14 3 15 6 16 4 17 5 18 7 19 104 21 8 22 98 23
REMARK SMILES IDX 99 24 102 25 9 26 93 27 97 28 94 29 96 30 95 31 100 32
REMARK SMILES IDX 101 33 103 34 22 37 23 38 24 39 25 40 26 41 27 42 28 43
REMARK SMILES IDX 29 44 30 45 31 46 92 47 32 48 91 49 33 50 34 51 35 52 85 53
REMARK SMILES IDX 36 54 90 55 84 56 86 57 37 58 89 59 83 60 82 61 38 63 70 64
REMARK SMILES IDX 50 65 69 66 51 67 54 68 68 69 87 70 52 71 53 72 67 74 88 75
REMARK SMILES IDX 55 76 39 77 40 78 48 79 41 80 42 81 46 82 49 83 43 84 44 85
REMARK SMILES IDX 47 86 45 87 71 88 72 89 80 90 73 91 74 92 78 93 81 94 75 95
REMARK SMILES IDX 76 96 79 97 77 98 56 99 57 100 65 101 58 102 59 103 63 104
REMARK SMILES IDX 66 105 60 106 61 107 64 108 62 109
REMARK H PARENT 4 20 103 35 103 36 86 62 54 73
REMARK Flexibility Score: inf
ROOT
ATOM      1  O   UNL     1      -5.028   1.998   0.258  1.00  0.00    -0.377 OA
ENDROOT
BRANCH   1   2
ATOM      2  C   UNL     1      -4.452   3.266   0.098  1.00  0.00     0.188 C 
BRANCH   2   3
ATOM      3  C   UNL     1      -4.836   4.059  -1.156  1.00  0.00     0.188 C 
BRANCH   3   4
ATOM      4  O   UNL     1      -5.946   3.752  -1.979  1.00  0.00    -0.376 OA
BRANCH   4   5
ATOM      5  C   UNL     1      -6.403   2.435  -2.221  1.00  0.00     0.202 C 
BRANCH   5   6
ATOM      6  C   UNL     1      -5.482   1.263  -2.608  1.00  0.00     0.261 C 
BRANCH   6   7
ATOM      7  O   UNL     1      -4.221   1.160  -1.923  1.00  0.00    -0.462 OA
BRANCH   7   8
ATOM      8  C   UNL     1      -3.170   1.698  -2.567  1.00  0.00     0.329 C 
ATOM      9  O   UNL     1      -3.240   2.175  -3.701  1.00  0.00    -0.250 OA
BRANCH   8  10
ATOM     10  C   UNL     1      -1.822   1.666  -1.810  1.00  0.00     0.197 C 
ATOM     11  C   UNL     1      -0.897   0.759  -2.620  1.00  0.00     0.044 C 
BRANCH  10  12
ATOM     12  N   UNL     1      -1.629   1.442  -0.353  1.00  0.00    -0.297 N 
ATOM     13  C   UNL     1       1.496  -0.327  -0.030  1.00  0.00     0.069 C 
ATOM     14  C   UNL     1       1.074  -0.812   1.301  1.00  0.00     0.068 A 
ATOM     15  N   UNL     1       1.817  -1.729   1.943  1.00  0.00    -0.177 NA
ATOM     16  C   UNL     1      -0.085  -0.473   2.033  1.00  0.00     0.063 A 
ATOM     17  N   UNL     1       1.122  -1.997   3.063  1.00  0.00    -0.246 N 
ATOM     18  C   UNL     1      -0.013  -1.267   3.155  1.00  0.00     0.222 A 
ATOM     19  C   UNL     1      -1.275   0.404   1.806  1.00  0.00     0.149 C 
ATOM     20  H   UNL     1       1.408  -2.651   3.740  1.00  0.00     0.193 HD
ATOM     21  O   UNL     1      -0.887  -1.389   4.146  1.00  0.00    -0.422 OA
ATOM     22  C   UNL     1      -1.860   0.237   0.347  1.00  0.00     0.248 C 
ATOM     23  C   UNL     1      -0.778   1.840   1.769  1.00  0.00     0.002 A 
ATOM     24  C   UNL     1      -2.267   0.159   2.929  1.00  0.00     0.114 C 
ATOM     25  C   UNL     1      -2.059  -0.643   4.008  1.00  0.00     0.208 C 
ATOM     26  O   UNL     1      -2.370  -0.774  -0.111  1.00  0.00    -0.273 OA
ATOM     27  C   UNL     1      -1.003   2.390   0.500  1.00  0.00     0.050 A 
ATOM     28  C   UNL     1      -0.256   2.618   2.802  1.00  0.00     0.008 A 
ATOM     29  C   UNL     1      -0.673   3.714   0.236  1.00  0.00     0.027 A 
ATOM     30  C   UNL     1       0.054   3.955   2.545  1.00  0.00     0.001 A 
ATOM     31  C   UNL     1      -0.148   4.497   1.270  1.00  0.00     0.002 A 
BRANCH  24  32
ATOM     32  C   UNL     1      -3.420   0.948   2.956  1.00  0.00     0.102 C 
ATOM     33  N   UNL     1      -4.326   1.604   3.202  1.00  0.00    -0.193 NA
ENDBRANCH  24  32
BRANCH  25  34
ATOM     34  N   UNL     1      -2.916  -0.774   5.068  1.00  0.00    -0.369 N 
ATOM     35  H   UNL     1      -3.773  -0.289   5.070  1.00  0.00     0.159 HD
ATOM     36  H   UNL     1      -2.675  -1.352   5.827  1.00  0.00     0.159 HD
ENDBRANCH  25  34
ENDBRANCH  10  12
ENDBRANCH   8  10
ENDBRANCH   7   8
ENDBRANCH   6   7
ENDBRANCH   5   6
ENDBRANCH   4   5
ENDBRANCH   3   4
ENDBRANCH   2   3
ENDBRANCH   1   2
BRANCH   1  37
ATOM     37  C   UNL     1      -6.277   1.883   0.912  1.00  0.00     0.188 C 
BRANCH  37  38
ATOM     38  C   UNL     1      -7.133   3.122   1.213  1.00  0.00     0.188 C 
BRANCH  38  39
ATOM     39  O   UNL     1      -6.387   4.270   1.558  1.00  0.00    -0.376 OA
BRANCH  39  40
ATOM     40  C   UNL     1      -6.344   4.730   2.900  1.00  0.00     0.202 C 
BRANCH  40  41
ATOM     41  C   UNL     1      -6.032   3.794   4.081  1.00  0.00     0.261 C 
BRANCH  41  42
ATOM     42  O   UNL     1      -6.628   2.493   3.975  1.00  0.00    -0.460 OA
BRANCH  42  43
ATOM     43  C   UNL     1      -7.819   2.208   4.533  1.00  0.00     0.338 C 
ATOM     44  O   UNL     1      -8.449   2.900   5.309  1.00  0.00    -0.246 OA
BRANCH  43  45
ATOM     45  C   UNL     1      -8.372   1.092   3.708  1.00  0.00     0.060 A 
ATOM     46  C   UNL     1      -7.596   0.004   3.284  1.00  0.00     0.016 A 
ATOM     47  C   UNL     1      -9.587   1.369   3.070  1.00  0.00     0.016 A 
ATOM     48  C   UNL     1      -7.969  -0.694   2.126  1.00  0.00     0.010 A 
ATOM     49  C   UNL     1      -9.944   0.683   1.908  1.00  0.00     0.010 A 
ATOM     50  C   UNL     1      -9.110  -0.310   1.389  1.00  0.00    -0.014 A 
BRANCH  50  51
ATOM     51  C   UNL     1      -9.532  -1.115   0.218  1.00  0.00     0.031 A 
ATOM     52  C   UNL     1      -9.769  -2.551   0.580  1.00  0.00     0.074 A 
ATOM     53  C   UNL     1      -9.900  -0.648  -1.004  1.00  0.00     0.049 A 
ATOM     54  N   UNL     1      -9.308  -3.622   0.019  1.00  0.00    -0.248 NA
ATOM     55  C   UNL     1     -10.543  -2.809   1.810  1.00  0.00     0.031 C 
ATOM     56  C   UNL     1      -9.991   0.745  -1.454  1.00  0.00     0.029 A 
ATOM     57  N   UNL     1     -10.377  -1.329  -2.100  1.00  0.00    -0.354 N 
ATOM     58  C   UNL     1      -9.842  -4.692   0.739  1.00  0.00     0.074 A 
ATOM     59  C   UNL     1     -10.485  -4.136   1.899  1.00  0.00     0.031 C 
ATOM     60  C   UNL     1     -10.699   0.811  -2.608  1.00  0.00     0.029 A 
ATOM     61  C   UNL     1     -11.022  -0.534  -3.054  1.00  0.00     0.049 A 
ATOM     62  H   UNL     1     -10.271  -2.303  -2.206  1.00  0.00     0.167 HD
ATOM     63  C   UNL     1      -9.885  -5.956   0.238  1.00  0.00     0.037 A 
ATOM     64  C   UNL     1     -11.805  -0.939  -4.097  1.00  0.00     0.037 A 
ATOM     65  C   UNL     1      -8.937  -6.139  -0.823  1.00  0.00     0.049 A 
ATOM     66  C   UNL     1     -11.514  -2.369  -4.346  1.00  0.00     0.074 A 
ATOM     67  C   UNL     1      -7.559  -6.118  -0.905  1.00  0.00     0.029 A 
ATOM     68  N   UNL     1      -9.385  -6.061  -2.115  1.00  0.00    -0.354 N 
ATOM     69  N   UNL     1     -10.386  -2.812  -4.819  1.00  0.00    -0.248 NA
ATOM     70  C   UNL     1     -12.335  -3.337  -3.639  1.00  0.00     0.031 C 
ATOM     71  C   UNL     1      -7.275  -5.526  -2.169  1.00  0.00     0.029 A 
ATOM     72  C   UNL     1      -8.491  -5.286  -2.806  1.00  0.00     0.049 A 
ATOM     73  H   UNL     1     -10.196  -6.483  -2.479  1.00  0.00     0.167 HD
ATOM     74  C   UNL     1     -10.143  -3.961  -4.088  1.00  0.00     0.074 A 
ATOM     75  C   UNL     1     -11.403  -4.263  -3.412  1.00  0.00     0.031 C 
ATOM     76  C   UNL     1      -8.871  -4.399  -3.875  1.00  0.00     0.037 A 
BRANCH  63  77
ATOM     77  C   UNL     1     -11.012  -6.923   0.494  1.00  0.00     0.064 A 
ATOM     78  C   UNL     1     -10.889  -8.264   0.081  1.00  0.00     0.173 A 
ATOM     79  C   UNL     1     -12.314  -6.516   0.861  1.00  0.00     0.173 A 
ATOM     80  F   UNL     1      -9.704  -8.749  -0.318  1.00  0.00    -0.203 F 
ATOM     81  C   UNL     1     -11.997  -9.110  -0.017  1.00  0.00     0.198 A 
ATOM     82  C   UNL     1     -13.407  -7.378   0.813  1.00  0.00     0.198 A 
ATOM     83  F   UNL     1     -12.600  -5.245   1.171  1.00  0.00    -0.203 F 
ATOM     84  F   UNL     1     -11.851 -10.341  -0.527  1.00  0.00    -0.200 F 
ATOM     85  C   UNL     1     -13.255  -8.666   0.346  1.00  0.00     0.200 A 
ATOM     86  F   UNL     1     -14.622  -6.920   1.147  1.00  0.00    -0.200 F 
ATOM     87  F   UNL     1     -14.326  -9.456   0.200  1.00  0.00    -0.200 F 
ENDBRANCH  63  77
BRANCH  64  88
ATOM     88  C   UNL     1     -13.039  -0.322  -4.671  1.00  0.00     0.064 A 
ATOM     89  C   UNL     1     -13.589  -0.770  -5.892  1.00  0.00     0.173 A 
ATOM     90  C   UNL     1     -13.882   0.479  -3.879  1.00  0.00     0.173 A 
ATOM     91  F   UNL     1     -12.884  -1.580  -6.695  1.00  0.00    -0.203 F 
ATOM     92  C   UNL     1     -14.905  -0.465  -6.272  1.00  0.00     0.198 A 
ATOM     93  C   UNL     1     -15.193   0.784  -4.259  1.00  0.00     0.198 A 
ATOM     94  F   UNL     1     -13.488   0.893  -2.667  1.00  0.00    -0.203 F 
ATOM     95  F   UNL     1     -15.413  -0.970  -7.406  1.00  0.00    -0.200 F 
ATOM     96  C   UNL     1     -15.710   0.300  -5.447  1.00  0.00     0.200 A 
ATOM     97  F   UNL     1     -15.976   1.490  -3.431  1.00  0.00    -0.200 F 
ATOM     98  F   UNL     1     -16.991   0.532  -5.769  1.00  0.00    -0.200 F 
ENDBRANCH  64  88
BRANCH  76  99
ATOM     99  C   UNL     1      -7.759  -3.750  -4.649  1.00  0.00     0.064 A 
ATOM    100  C   UNL     1      -7.408  -2.393  -4.544  1.00  0.00     0.173 A 
ATOM    101  C   UNL     1      -6.917  -4.577  -5.406  1.00  0.00     0.173 A 
ATOM    102  F   UNL     1      -8.107  -1.552  -3.771  1.00  0.00    -0.203 F 
ATOM    103  C   UNL     1      -6.282  -1.888  -5.194  1.00  0.00     0.198 A 
ATOM    104  C   UNL     1      -5.770  -4.078  -6.015  1.00  0.00     0.198 A 
ATOM    105  F   UNL     1      -7.182  -5.888  -5.510  1.00  0.00    -0.203 F 
ATOM    106  F   UNL     1      -5.978  -0.587  -5.096  1.00  0.00    -0.200 F 
ATOM    107  C   UNL     1      -5.455  -2.733  -5.915  1.00  0.00     0.200 A 
ATOM    108  F   UNL     1      -4.953  -4.910  -6.676  1.00  0.00    -0.200 F 
ATOM    109  F   UNL     1      -4.343  -2.258  -6.492  1.00  0.00    -0.200 F 
ENDBRANCH  76  99
ENDBRANCH  50  51
ENDBRANCH  43  45
ENDBRANCH  42  43
ENDBRANCH  41  42
ENDBRANCH  40  41
ENDBRANCH  39  40
ENDBRANCH  38  39
ENDBRANCH  37  38
ENDBRANCH   1  37
TORSDOF 23
