REMARK SMILES CC(C)(C(=O)OCCOCCOCCOCCOC(=O)c1ccc(-c2c3nc(c(-c4c(F)c(F)c(F)c(F)c4F)c4ccc([nH]4)c(-c4c(F)c(F)c(F)c(F)c4F)c4nc(c(-c5c(F)c(F)c(F)c(F)c5F)c5ccc2[nH]5)C=C4)C=C3)cc1)c1ccc(C(=O)CCCCl)cc1
REMARK SMILES IDX 10 1 9 2 8 3 7 4 6 5 4 6 5 7 2 8 1 9 3 10 84 11 85 12 95 13
REMARK SMILES IDX 86 14 94 15 87 16 88 17 89 18 90 19 91 20 92 21 93 22 11 23
REMARK SMILES IDX 12 24 13 25 14 26 15 27 16 28 17 29 18 30 19 31 20 32 21 33
REMARK SMILES IDX 22 34 83 35 23 36 82 37 24 38 25 39 26 40 76 41 27 42 81 43
REMARK SMILES IDX 75 44 77 45 28 46 80 47 74 48 73 49 29 51 61 52 41 53 60 54
REMARK SMILES IDX 42 55 45 56 59 57 78 58 43 59 44 60 58 62 79 63 46 64 30 65
REMARK SMILES IDX 31 66 39 67 32 68 33 69 37 70 40 71 34 72 35 73 38 74 36 75
REMARK SMILES IDX 62 76 63 77 71 78 64 79 65 80 69 81 72 82 66 83 67 84 70 85
REMARK SMILES IDX 68 86 47 87 48 88 56 89 49 90 50 91 54 92 57 93 51 94 52 95
REMARK SMILES IDX 55 96 53 97
REMARK H PARENT 77 50 45 61
REMARK Flexibility Score: inf
ROOT
ATOM      1  C   UNL     1      -2.186   1.651  -1.170  1.00  0.00     0.188 C 
ENDROOT
BRANCH   1   2
ATOM      2  O   UNL     1      -3.385   1.103  -1.699  1.00  0.00    -0.376 OA
BRANCH   2   3
ATOM      3  C   UNL     1      -3.690  -0.269  -1.518  1.00  0.00     0.202 C 
BRANCH   3   4
ATOM      4  C   UNL     1      -2.671  -1.371  -1.871  1.00  0.00     0.261 C 
BRANCH   4   5
ATOM      5  O   UNL     1      -1.298  -1.183  -1.469  1.00  0.00    -0.463 OA
BRANCH   5   6
ATOM      6  C   UNL     1      -0.455  -0.726  -2.432  1.00  0.00     0.316 C 
ATOM      7  O   UNL     1      -0.824  -0.469  -3.576  1.00  0.00    -0.251 OA
BRANCH   6   8
ATOM      8  C   UNL     1       1.038  -0.609  -1.983  1.00  0.00     0.087 C 
ATOM      9  C   UNL     1       1.344  -0.745  -0.469  1.00  0.00     0.028 C 
ATOM     10  C   UNL     1       1.674  -1.869  -2.619  1.00  0.00     0.028 C 
BRANCH   8  11
ATOM     11  C   UNL     1       1.588   0.732  -2.545  1.00  0.00    -0.031 A 
ATOM     12  C   UNL     1       2.203   0.801  -3.804  1.00  0.00     0.005 A 
ATOM     13  C   UNL     1       1.335   1.959  -1.896  1.00  0.00     0.005 A 
ATOM     14  C   UNL     1       2.451   2.033  -4.425  1.00  0.00     0.012 A 
ATOM     15  C   UNL     1       1.583   3.192  -2.513  1.00  0.00     0.012 A 
ATOM     16  C   UNL     1       2.085   3.233  -3.809  1.00  0.00     0.018 A 
BRANCH  16  17
ATOM     17  C   UNL     1       2.186   4.496  -4.596  1.00  0.00     0.162 C 
ATOM     18  O   UNL     1       2.917   4.526  -5.586  1.00  0.00    -0.294 OA
BRANCH  17  19
ATOM     19  C   UNL     1       1.345   5.707  -4.219  1.00  0.00     0.082 C 
BRANCH  19  20
ATOM     20  C   UNL     1      -0.097   5.639  -4.735  1.00  0.00     0.024 C 
BRANCH  20  21
ATOM     21  C   UNL     1      -1.098   4.890  -3.857  1.00  0.00     0.110 C 
ATOM     22  Cl  UNL     1      -1.245   5.619  -2.239  1.00  0.00    -0.127 Cl
ENDBRANCH  20  21
ENDBRANCH  19  20
ENDBRANCH  17  19
ENDBRANCH  16  17
ENDBRANCH   8  11
ENDBRANCH   6   8
ENDBRANCH   5   6
ENDBRANCH   4   5
ENDBRANCH   3   4
ENDBRANCH   2   3
ENDBRANCH   1   2
BRANCH   1  23
ATOM     23  C   UNL     1      -1.594   1.119   0.149  1.00  0.00     0.188 C 
BRANCH  23  24
ATOM     24  O   UNL     1      -2.354   0.120   0.798  1.00  0.00    -0.377 OA
BRANCH  24  25
ATOM     25  C   UNL     1      -3.237   0.564   1.813  1.00  0.00     0.188 C 
BRANCH  25  26
ATOM     26  C   UNL     1      -3.975   1.896   1.585  1.00  0.00     0.188 C 
BRANCH  26  27
ATOM     27  O   UNL     1      -3.118   2.973   1.226  1.00  0.00    -0.376 OA
BRANCH  27  28
ATOM     28  C   UNL     1      -2.702   3.898   2.219  1.00  0.00     0.202 C 
BRANCH  28  29
ATOM     29  C   UNL     1      -1.706   3.400   3.280  1.00  0.00     0.261 C 
BRANCH  29  30
ATOM     30  O   UNL     1      -2.110   2.255   4.044  1.00  0.00    -0.460 OA
BRANCH  30  31
ATOM     31  C   UNL     1      -3.246   2.363   4.759  1.00  0.00     0.338 C 
ATOM     32  O   UNL     1      -3.938   3.360   4.896  1.00  0.00    -0.246 OA
BRANCH  31  33
ATOM     33  C   UNL     1      -3.651   1.013   5.199  1.00  0.00     0.060 A 
ATOM     34  C   UNL     1      -4.929   0.557   4.848  1.00  0.00     0.016 A 
ATOM     35  C   UNL     1      -2.798   0.211   5.963  1.00  0.00     0.016 A 
ATOM     36  C   UNL     1      -5.388  -0.666   5.326  1.00  0.00     0.010 A 
ATOM     37  C   UNL     1      -3.269  -1.006   6.464  1.00  0.00     0.010 A 
ATOM     38  C   UNL     1      -4.588  -1.415   6.197  1.00  0.00    -0.014 A 
BRANCH  38  39
ATOM     39  C   UNL     1      -5.249  -2.436   7.046  1.00  0.00     0.031 A 
ATOM     40  C   UNL     1      -5.685  -2.020   8.427  1.00  0.00     0.074 A 
ATOM     41  C   UNL     1      -5.543  -3.662   6.581  1.00  0.00     0.049 A 
ATOM     42  N   UNL     1      -6.321  -2.701   9.345  1.00  0.00    -0.248 NA
ATOM     43  C   UNL     1      -5.359  -0.640   8.825  1.00  0.00     0.031 C 
ATOM     44  C   UNL     1      -5.226  -4.159   5.245  1.00  0.00     0.029 A 
ATOM     45  N   UNL     1      -6.190  -4.708   7.188  1.00  0.00    -0.354 N 
ATOM     46  C   UNL     1      -6.460  -1.837  10.425  1.00  0.00     0.074 A 
ATOM     47  C   UNL     1      -5.811  -0.597  10.067  1.00  0.00     0.031 C 
ATOM     48  C   UNL     1      -5.683  -5.419   5.131  1.00  0.00     0.029 A 
ATOM     49  C   UNL     1      -6.299  -5.823   6.395  1.00  0.00     0.049 A 
ATOM     50  H   UNL     1      -6.543  -4.664   8.107  1.00  0.00     0.167 HD
ATOM     51  C   UNL     1      -7.084  -2.053  11.606  1.00  0.00     0.037 A 
ATOM     52  C   UNL     1      -6.830  -7.031   6.668  1.00  0.00     0.037 A 
ATOM     53  C   UNL     1      -7.734  -3.287  11.957  1.00  0.00     0.049 A 
ATOM     54  C   UNL     1      -7.458  -7.270   8.020  1.00  0.00     0.074 A 
ATOM     55  C   UNL     1      -8.407  -3.608  13.122  1.00  0.00     0.029 A 
ATOM     56  N   UNL     1      -7.782  -4.410  11.143  1.00  0.00    -0.354 N 
ATOM     57  N   UNL     1      -7.607  -6.443   9.028  1.00  0.00    -0.248 NA
ATOM     58  C   UNL     1      -8.004  -8.612   8.265  1.00  0.00     0.031 C 
ATOM     59  C   UNL     1      -8.803  -4.947  13.041  1.00  0.00     0.029 A 
ATOM     60  C   UNL     1      -8.449  -5.436  11.793  1.00  0.00     0.049 A 
ATOM     61  H   UNL     1      -7.398  -4.470  10.239  1.00  0.00     0.167 HD
ATOM     62  C   UNL     1      -8.303  -7.147  10.003  1.00  0.00     0.074 A 
ATOM     63  C   UNL     1      -8.554  -8.466   9.461  1.00  0.00     0.031 C 
ATOM     64  C   UNL     1      -8.707  -6.738  11.233  1.00  0.00     0.037 A 
BRANCH  51  65
ATOM     65  C   UNL     1      -7.053  -0.944  12.620  1.00  0.00     0.064 A 
ATOM     66  C   UNL     1      -7.752   0.259  12.432  1.00  0.00     0.173 A 
ATOM     67  C   UNL     1      -6.319  -1.095  13.806  1.00  0.00     0.173 A 
ATOM     68  F   UNL     1      -8.454   0.464  11.307  1.00  0.00    -0.203 F 
ATOM     69  C   UNL     1      -7.689   1.280  13.378  1.00  0.00     0.198 A 
ATOM     70  C   UNL     1      -6.288  -0.087  14.765  1.00  0.00     0.198 A 
ATOM     71  F   UNL     1      -5.631  -2.224  14.036  1.00  0.00    -0.203 F 
ATOM     72  F   UNL     1      -8.314   2.443  13.148  1.00  0.00    -0.200 F 
ATOM     73  C   UNL     1      -6.964   1.103  14.546  1.00  0.00     0.200 A 
ATOM     74  F   UNL     1      -5.598  -0.267  15.900  1.00  0.00    -0.200 F 
ATOM     75  F   UNL     1      -6.909   2.083  15.458  1.00  0.00    -0.200 F 
ENDBRANCH  51  65
BRANCH  52  76
ATOM     76  C   UNL     1      -6.802  -8.111   5.645  1.00  0.00     0.064 A 
ATOM     77  C   UNL     1      -7.985  -8.604   5.077  1.00  0.00     0.173 A 
ATOM     78  C   UNL     1      -5.593  -8.699   5.243  1.00  0.00     0.173 A 
ATOM     79  F   UNL     1      -9.169  -8.094   5.446  1.00  0.00    -0.203 F 
ATOM     80  C   UNL     1      -7.963  -9.660   4.167  1.00  0.00     0.198 A 
ATOM     81  C   UNL     1      -5.569  -9.732   4.308  1.00  0.00     0.198 A 
ATOM     82  F   UNL     1      -4.432  -8.267   5.757  1.00  0.00    -0.203 F 
ATOM     83  F   UNL     1      -9.113 -10.150   3.685  1.00  0.00    -0.200 F 
ATOM     84  C   UNL     1      -6.755 -10.220   3.780  1.00  0.00     0.200 A 
ATOM     85  F   UNL     1      -4.399 -10.261   3.927  1.00  0.00    -0.200 F 
ATOM     86  F   UNL     1      -6.733 -11.235   2.906  1.00  0.00    -0.200 F 
ENDBRANCH  52  76
BRANCH  64  87
ATOM     87  C   UNL     1      -9.527  -7.700  12.049  1.00  0.00     0.064 A 
ATOM     88  C   UNL     1      -8.988  -8.881  12.579  1.00  0.00     0.173 A 
ATOM     89  C   UNL     1     -10.875  -7.416  12.323  1.00  0.00     0.173 A 
ATOM     90  F   UNL     1      -7.708  -9.206  12.342  1.00  0.00    -0.203 F 
ATOM     91  C   UNL     1      -9.778  -9.764  13.312  1.00  0.00     0.198 A 
ATOM     92  C   UNL     1     -11.650  -8.280  13.091  1.00  0.00     0.198 A 
ATOM     93  F   UNL     1     -11.440  -6.293  11.853  1.00  0.00    -0.203 F 
ATOM     94  F   UNL     1      -9.259 -10.920  13.749  1.00  0.00    -0.200 F 
ATOM     95  C   UNL     1     -11.106  -9.459  13.573  1.00  0.00     0.200 A 
ATOM     96  F   UNL     1     -12.927  -7.972  13.359  1.00  0.00    -0.200 F 
ATOM     97  F   UNL     1     -11.864 -10.308  14.280  1.00  0.00    -0.200 F 
ENDBRANCH  64  87
ENDBRANCH  38  39
ENDBRANCH  31  33
ENDBRANCH  30  31
ENDBRANCH  29  30
ENDBRANCH  28  29
ENDBRANCH  27  28
ENDBRANCH  26  27
ENDBRANCH  25  26
ENDBRANCH  24  25
ENDBRANCH  23  24
ENDBRANCH   1  23
TORSDOF 25
