REMARK SMILES C[C@@H]1CN(C(=O)C[NH+]2CCC(CC(=O)OCCOCCOCCOCCOC(=O)c3ccc(-c4c5nc(c(-c6c(F)c(F)c(F)c(F)c6F)c6ccc([nH]6)c(-c6c(F)c(F)c(F)c(F)c6F)c6nc(c(-c7c(F)c(F)c(F)c(F)c7F)c7ccc4[nH]7)C=C6)C=C5)cc3)CC2)C[C@@H](C)O1
REMARK SMILES IDX 20 1 19 2 18 3 17 4 16 5 15 6 13 7 14 8 12 9 11 10 8 11 9 12
REMARK SMILES IDX 94 13 10 15 93 16 7 17 5 18 1 19 2 20 3 21 98 22 4 23 96 24
REMARK SMILES IDX 95 25 97 26 6 27 21 28 22 29 23 30 24 31 25 32 26 33 27 34
REMARK SMILES IDX 28 35 29 36 30 37 31 38 92 39 32 40 91 41 33 42 34 43 35 44
REMARK SMILES IDX 85 45 36 46 90 47 84 48 86 49 37 50 89 51 83 52 82 53 38 55
REMARK SMILES IDX 70 56 50 57 69 58 51 59 54 60 68 61 87 62 52 63 53 64 67 66
REMARK SMILES IDX 88 67 55 68 39 69 40 70 48 71 41 72 42 73 46 74 49 75 43 76
REMARK SMILES IDX 44 77 47 78 45 79 71 80 72 81 80 82 73 83 74 84 78 85 81 86
REMARK SMILES IDX 75 87 76 88 79 89 77 90 56 91 57 92 65 93 58 94 59 95 63 96
REMARK SMILES IDX 66 97 60 98 61 99 64 100 62 101
REMARK H PARENT 8 14 86 54 54 65
REMARK Flexibility Score: inf
ROOT
ATOM      1  C   UNL     1      -3.055   0.474  -0.802  1.00  0.00     0.188 C 
ENDROOT
BRANCH   1   2
ATOM      2  C   UNL     1      -3.559   0.721  -2.230  1.00  0.00     0.188 C 
BRANCH   2   3
ATOM      3  O   UNL     1      -4.881   0.266  -2.433  1.00  0.00    -0.376 OA
BRANCH   3   4
ATOM      4  C   UNL     1      -5.147  -0.850  -3.277  1.00  0.00     0.202 C 
BRANCH   4   5
ATOM      5  C   UNL     1      -4.073  -1.880  -3.661  1.00  0.00     0.261 C 
BRANCH   5   6
ATOM      6  O   UNL     1      -3.124  -2.158  -2.620  1.00  0.00    -0.463 OA
BRANCH   6   7
ATOM      7  C   UNL     1      -1.846  -1.985  -2.997  1.00  0.00     0.306 C 
ATOM      8  O   UNL     1      -1.490  -1.804  -4.163  1.00  0.00    -0.252 OA
BRANCH   7   9
ATOM      9  C   UNL     1      -0.839  -1.798  -1.896  1.00  0.00     0.126 C 
BRANCH   9  10
ATOM     10  C   UNL     1      -0.721  -2.489  -0.513  1.00  0.00     0.011 C 
ATOM     11  N   UNL     1       1.798  -3.775   0.400  1.00  0.00    -0.327 N 
ATOM     12  C   UNL     1       1.441  -2.544   1.075  1.00  0.00     0.262 C 
ATOM     13  C   UNL     1       0.564  -4.575   0.267  1.00  0.00     0.262 C 
ATOM     14  H   UNL     1       2.493  -4.221   0.999  1.00  0.00     0.348 HD
ATOM     15  C   UNL     1       0.328  -1.751   0.393  1.00  0.00     0.066 C 
ATOM     16  C   UNL     1      -0.446  -3.981  -0.715  1.00  0.00     0.066 C 
BRANCH  11  17
ATOM     17  C   UNL     1       2.617  -3.724  -0.846  1.00  0.00     0.363 C 
BRANCH  17  18
ATOM     18  C   UNL     1       3.745  -2.626  -1.012  1.00  0.00     0.277 C 
ATOM     19  C   UNL     1       1.744   1.055  -0.979  1.00  0.00     0.040 C 
ATOM     20  C   UNL     1       1.879   0.332  -2.328  1.00  0.00     0.135 C 
ATOM     21  C   UNL     1       2.206  -1.174  -2.343  1.00  0.00     0.151 C 
ATOM     22  O   UNL     1       2.863   0.984  -3.123  1.00  0.00    -0.372 OA
ATOM     23  N   UNL     1       3.505  -1.518  -1.846  1.00  0.00    -0.333 N 
ATOM     24  C   UNL     1       4.199   0.771  -2.624  1.00  0.00     0.135 C 
ATOM     25  C   UNL     1       4.562  -0.740  -2.505  1.00  0.00     0.151 C 
ATOM     26  C   UNL     1       5.064   1.529  -3.618  1.00  0.00     0.040 C 
ATOM     27  O   UNL     1       4.862  -2.800  -0.516  1.00  0.00    -0.268 OA
ENDBRANCH  17  18
ENDBRANCH  11  17
ENDBRANCH   9  10
ENDBRANCH   7   9
ENDBRANCH   6   7
ENDBRANCH   5   6
ENDBRANCH   4   5
ENDBRANCH   3   4
ENDBRANCH   2   3
ENDBRANCH   1   2
BRANCH   1  28
ATOM     28  O   UNL     1      -3.213  -0.821  -0.246  1.00  0.00    -0.377 OA
BRANCH  28  29
ATOM     29  C   UNL     1      -4.506  -1.395  -0.080  1.00  0.00     0.188 C 
BRANCH  29  30
ATOM     30  C   UNL     1      -5.655  -0.489   0.373  1.00  0.00     0.188 C 
BRANCH  30  31
ATOM     31  O   UNL     1      -5.233   0.738   0.929  1.00  0.00    -0.376 OA
BRANCH  31  32
ATOM     32  C   UNL     1      -4.972   0.792   2.321  1.00  0.00     0.202 C 
BRANCH  32  33
ATOM     33  C   UNL     1      -3.967  -0.199   2.936  1.00  0.00     0.261 C 
BRANCH  33  34
ATOM     34  O   UNL     1      -4.275  -1.603   2.840  1.00  0.00    -0.460 OA
BRANCH  34  35
ATOM     35  C   UNL     1      -5.474  -2.039   3.267  1.00  0.00     0.338 C 
ATOM     36  O   UNL     1      -6.359  -1.387   3.802  1.00  0.00    -0.246 OA
BRANCH  35  37
ATOM     37  C   UNL     1      -5.636  -3.435   2.815  1.00  0.00     0.060 A 
ATOM     38  C   UNL     1      -6.617  -3.737   1.861  1.00  0.00     0.016 A 
ATOM     39  C   UNL     1      -4.835  -4.447   3.349  1.00  0.00     0.016 A 
ATOM     40  C   UNL     1      -6.825  -5.057   1.462  1.00  0.00     0.010 A 
ATOM     41  C   UNL     1      -5.063  -5.773   2.970  1.00  0.00     0.010 A 
ATOM     42  C   UNL     1      -6.083  -6.087   2.053  1.00  0.00    -0.014 A 
BRANCH  42  43
ATOM     43  C   UNL     1      -6.525  -7.492   1.881  1.00  0.00     0.031 A 
ATOM     44  C   UNL     1      -7.379  -8.105   2.957  1.00  0.00     0.074 A 
ATOM     45  C   UNL     1      -6.210  -8.200   0.783  1.00  0.00     0.049 A 
ATOM     46  N   UNL     1      -7.845  -9.323   3.061  1.00  0.00    -0.248 NA
ATOM     47  C   UNL     1      -7.758  -7.218   4.069  1.00  0.00     0.031 C 
ATOM     48  C   UNL     1      -5.441  -7.701  -0.354  1.00  0.00     0.029 A 
ATOM     49  N   UNL     1      -6.498  -9.502   0.452  1.00  0.00    -0.354 N 
ATOM     50  C   UNL     1      -8.561  -9.351   4.251  1.00  0.00     0.074 A 
ATOM     51  C   UNL     1      -8.443  -8.039   4.850  1.00  0.00     0.031 C 
ATOM     52  C   UNL     1      -5.303  -8.691  -1.253  1.00  0.00     0.029 A 
ATOM     53  C   UNL     1      -5.942  -9.902  -0.738  1.00  0.00     0.049 A 
ATOM     54  H   UNL     1      -7.050 -10.091   1.015  1.00  0.00     0.167 HD
ATOM     55  C   UNL     1      -9.260 -10.376   4.793  1.00  0.00     0.037 A 
ATOM     56  C   UNL     1      -5.929 -11.116  -1.324  1.00  0.00     0.037 A 
ATOM     57  C   UNL     1      -9.371 -11.681   4.196  1.00  0.00     0.049 A 
ATOM     58  C   UNL     1      -6.638 -12.268  -0.655  1.00  0.00     0.074 A 
ATOM     59  C   UNL     1     -10.067 -12.784   4.658  1.00  0.00     0.029 A 
ATOM     60  N   UNL     1      -8.757 -12.062   3.012  1.00  0.00    -0.354 N 
ATOM     61  N   UNL     1      -7.331 -12.284   0.458  1.00  0.00    -0.248 NA
ATOM     62  C   UNL     1      -6.561 -13.573  -1.328  1.00  0.00     0.031 C 
ATOM     63  C   UNL     1      -9.820 -13.851   3.788  1.00  0.00     0.029 A 
ATOM     64  C   UNL     1      -9.030 -13.394   2.746  1.00  0.00     0.049 A 
ATOM     65  H   UNL     1      -8.208 -11.473   2.445  1.00  0.00     0.167 HD
ATOM     66  C   UNL     1      -7.799 -13.585   0.601  1.00  0.00     0.074 A 
ATOM     67  C   UNL     1      -7.323 -14.327  -0.547  1.00  0.00     0.031 C 
ATOM     68  C   UNL     1      -8.554 -14.119   1.594  1.00  0.00     0.037 A 
BRANCH  55  69
ATOM     69  C   UNL     1      -9.927 -10.137   6.117  1.00  0.00     0.064 A 
ATOM     70  C   UNL     1     -11.030  -9.280   6.249  1.00  0.00     0.173 A 
ATOM     71  C   UNL     1      -9.468 -10.795   7.269  1.00  0.00     0.173 A 
ATOM     72  F   UNL     1     -11.499  -8.613   5.184  1.00  0.00    -0.203 F 
ATOM     73  C   UNL     1     -11.628  -9.068   7.489  1.00  0.00     0.198 A 
ATOM     74  C   UNL     1     -10.090 -10.607   8.499  1.00  0.00     0.198 A 
ATOM     75  F   UNL     1      -8.418 -11.627   7.199  1.00  0.00    -0.203 F 
ATOM     76  F   UNL     1     -12.645  -8.202   7.601  1.00  0.00    -0.200 F 
ATOM     77  C   UNL     1     -11.163  -9.737   8.611  1.00  0.00     0.200 A 
ATOM     78  F   UNL     1      -9.648 -11.267   9.579  1.00  0.00    -0.200 F 
ATOM     79  F   UNL     1     -11.745  -9.537   9.802  1.00  0.00    -0.200 F 
ENDBRANCH  55  69
BRANCH  56  80
ATOM     80  C   UNL     1      -5.203 -11.316  -2.608  1.00  0.00     0.064 A 
ATOM     81  C   UNL     1      -5.890 -11.634  -3.788  1.00  0.00     0.173 A 
ATOM     82  C   UNL     1      -3.805 -11.223  -2.675  1.00  0.00     0.173 A 
ATOM     83  F   UNL     1      -7.226 -11.761  -3.771  1.00  0.00    -0.203 F 
ATOM     84  C   UNL     1      -5.206 -11.872  -4.979  1.00  0.00     0.198 A 
ATOM     85  C   UNL     1      -3.124 -11.429  -3.873  1.00  0.00     0.198 A 
ATOM     86  F   UNL     1      -3.097 -10.925  -1.575  1.00  0.00    -0.203 F 
ATOM     87  F   UNL     1      -5.885 -12.227  -6.079  1.00  0.00    -0.200 F 
ATOM     88  C   UNL     1      -3.825 -11.763  -5.022  1.00  0.00     0.200 A 
ATOM     89  F   UNL     1      -1.791 -11.308  -3.913  1.00  0.00    -0.200 F 
ATOM     90  F   UNL     1      -3.168 -11.988  -6.168  1.00  0.00    -0.200 F 
ENDBRANCH  56  80
BRANCH  68  91
ATOM     91  C   UNL     1      -8.952 -15.563   1.465  1.00  0.00     0.064 A 
ATOM     92  C   UNL     1      -8.020 -16.604   1.595  1.00  0.00     0.173 A 
ATOM     93  C   UNL     1     -10.296 -15.912   1.254  1.00  0.00     0.173 A 
ATOM     94  F   UNL     1      -6.721 -16.326   1.786  1.00  0.00    -0.203 F 
ATOM     95  C   UNL     1      -8.412 -17.936   1.488  1.00  0.00     0.198 A 
ATOM     96  C   UNL     1     -10.690 -17.246   1.183  1.00  0.00     0.198 A 
ATOM     97  F   UNL     1     -11.231 -14.959   1.132  1.00  0.00    -0.203 F 
ATOM     98  F   UNL     1      -7.495 -18.910   1.561  1.00  0.00    -0.200 F 
ATOM     99  C   UNL     1      -9.747 -18.256   1.291  1.00  0.00     0.200 A 
ATOM    100  F   UNL     1     -11.983 -17.552   1.012  1.00  0.00    -0.200 F 
ATOM    101  F   UNL     1     -10.124 -19.539   1.198  1.00  0.00    -0.200 F 
ENDBRANCH  68  91
ENDBRANCH  42  43
ENDBRANCH  35  37
ENDBRANCH  34  35
ENDBRANCH  33  34
ENDBRANCH  32  33
ENDBRANCH  31  32
ENDBRANCH  30  31
ENDBRANCH  29  30
ENDBRANCH  28  29
ENDBRANCH   1  28
TORSDOF 23
