REMARK SMILES CC[NH+]1CCN(c2ccc(NC(=O)C3CCCC3)c(C(=O)OCCOCCOCCOCCOC(=O)c3ccc(-c4c5nc(c(-c6c(F)c(F)c(F)c(F)c6F)c6ccc([nH]6)c(-c6c(F)c(F)c(F)c(F)c6F)c6nc(c(-c7c(F)c(F)c(F)c(F)c7F)c7ccc4[nH]7)C=C6)C=C5)cc3)c2)CC1
REMARK SMILES IDX 28 1 27 2 26 3 25 4 24 5 23 6 22 7 20 8 21 9 19 10 7 11 8 12
REMARK SMILES IDX 100 13 9 14 10 15 6 16 3 17 4 18 102 19 5 21 101 22 2 23
REMARK SMILES IDX 1 24 11 25 12 26 13 28 14 29 15 30 18 31 16 32 17 33 29 34
REMARK SMILES IDX 30 35 31 36 32 37 33 38 34 39 35 40 36 41 37 42 38 43 99 44
REMARK SMILES IDX 39 45 98 46 40 47 41 48 42 49 92 50 43 51 97 52 91 53 93 54
REMARK SMILES IDX 44 55 96 56 90 57 89 58 45 60 77 61 57 62 76 63 58 64 61 65
REMARK SMILES IDX 75 66 94 67 59 68 60 69 74 71 95 72 62 73 46 74 47 75 55 76
REMARK SMILES IDX 48 77 49 78 53 79 56 80 50 81 51 82 54 83 52 84 78 85 79 86
REMARK SMILES IDX 87 87 80 88 81 89 85 90 88 91 82 92 83 93 86 94 84 95 63 96
REMARK SMILES IDX 64 97 72 98 65 99 66 100 70 101 73 102 67 103 68 104 71 105
REMARK SMILES IDX 69 106
REMARK H PARENT 3 20 11 27 93 59 61 70
REMARK Flexibility Score: inf
ROOT
ATOM      1  O   UNL     1       1.463  -6.743   5.967  1.00  0.00    -0.377 OA
ENDROOT
BRANCH   1   2
ATOM      2  C   UNL     1       0.458  -7.628   5.489  1.00  0.00     0.188 C 
BRANCH   2   3
ATOM      3  C   UNL     1       0.611  -9.165   5.543  1.00  0.00     0.188 C 
BRANCH   3   4
ATOM      4  O   UNL     1       1.942  -9.610   5.761  1.00  0.00    -0.376 OA
BRANCH   4   5
ATOM      5  C   UNL     1       2.530 -10.385   4.731  1.00  0.00     0.202 C 
BRANCH   5   6
ATOM      6  C   UNL     1       2.997  -9.569   3.521  1.00  0.00     0.261 C 
BRANCH   6   7
ATOM      7  O   UNL     1       1.988  -8.747   2.908  1.00  0.00    -0.460 OA
BRANCH   7   8
ATOM      8  C   UNL     1       0.984  -9.337   2.211  1.00  0.00     0.340 C 
ATOM      9  O   UNL     1       0.841 -10.528   2.006  1.00  0.00    -0.246 OA
BRANCH   8  10
ATOM     10  C   UNL     1      -0.051  -8.286   2.012  1.00  0.00     0.085 A 
ATOM     11  C   UNL     1      -0.471  -5.876   1.701  1.00  0.00     0.038 A 
ATOM     12  C   UNL     1      -1.639  -6.080   2.438  1.00  0.00     0.028 A 
ATOM     13  C   UNL     1       0.355  -7.003   1.575  1.00  0.00     0.043 A 
ATOM     14  C   UNL     1      -2.025  -7.340   2.890  1.00  0.00     0.029 A 
ATOM     15  C   UNL     1      -1.343  -8.478   2.510  1.00  0.00     0.055 A 
BRANCH  11  16
ATOM     16  N   UNL     1      -0.131  -4.631   1.220  1.00  0.00    -0.360 N 
ATOM     17  N   UNL     1       1.221  -2.016   1.040  1.00  0.00    -0.332 N 
ATOM     18  C   UNL     1       0.138  -2.295   2.010  1.00  0.00     0.283 C 
ATOM     19  C   UNL     1       1.869  -3.297   0.674  1.00  0.00     0.283 C 
ATOM     20  H   UNL     1       1.918  -1.407   1.468  1.00  0.00     0.348 HD
ATOM     21  C   UNL     1      -0.859  -3.399   1.581  1.00  0.00     0.178 C 
ATOM     22  C   UNL     1       0.904  -4.405   0.197  1.00  0.00     0.178 C 
BRANCH  17  23
ATOM     23  C   UNL     1       0.721  -1.287  -0.130  1.00  0.00     0.258 C 
ATOM     24  C   UNL     1       1.071   0.186   0.027  1.00  0.00     0.071 C 
ENDBRANCH  17  23
ENDBRANCH  11  16
BRANCH  15  25
ATOM     25  N   UNL     1      -1.887  -9.742   2.773  1.00  0.00    -0.325 N 
ATOM     26  C   UNL     1      -3.174 -10.158   2.950  1.00  0.00     0.227 C 
ATOM     27  H   UNL     1      -1.218 -10.460   2.844  1.00  0.00     0.169 HD
ATOM     28  O   UNL     1      -3.314 -11.247   3.528  1.00  0.00    -0.274 OA
BRANCH  26  29
ATOM     29  C   UNL     1      -4.433  -9.526   2.309  1.00  0.00     0.079 C 
ATOM     30  C   UNL     1      -4.644  -8.059   1.964  1.00  0.00     0.013 C 
ATOM     31  C   UNL     1      -4.713 -10.206   0.957  1.00  0.00     0.013 C 
ATOM     32  C   UNL     1      -5.862  -8.058   1.061  1.00  0.00     0.001 C 
ATOM     33  C   UNL     1      -5.622  -9.260   0.165  1.00  0.00     0.001 C 
ENDBRANCH  26  29
ENDBRANCH  15  25
ENDBRANCH   8  10
ENDBRANCH   7   8
ENDBRANCH   6   7
ENDBRANCH   5   6
ENDBRANCH   4   5
ENDBRANCH   3   4
ENDBRANCH   2   3
ENDBRANCH   1   2
BRANCH   1  34
ATOM     34  C   UNL     1       2.430  -7.222   6.882  1.00  0.00     0.188 C 
BRANCH  34  35
ATOM     35  C   UNL     1       1.919  -7.955   8.136  1.00  0.00     0.188 C 
BRANCH  35  36
ATOM     36  O   UNL     1       0.503  -8.092   8.186  1.00  0.00    -0.376 OA
BRANCH  36  37
ATOM     37  C   UNL     1      -0.183  -7.280   9.125  1.00  0.00     0.202 C 
BRANCH  37  38
ATOM     38  C   UNL     1      -0.224  -5.780   8.806  1.00  0.00     0.261 C 
BRANCH  38  39
ATOM     39  O   UNL     1       1.053  -5.136   8.670  1.00  0.00    -0.460 OA
BRANCH  39  40
ATOM     40  C   UNL     1       1.860  -5.112   9.750  1.00  0.00     0.338 C 
ATOM     41  O   UNL     1       1.629  -5.554  10.862  1.00  0.00    -0.246 OA
BRANCH  40  42
ATOM     42  C   UNL     1       3.173  -4.608   9.305  1.00  0.00     0.060 A 
ATOM     43  C   UNL     1       4.304  -5.422   9.457  1.00  0.00     0.016 A 
ATOM     44  C   UNL     1       3.278  -3.348   8.711  1.00  0.00     0.016 A 
ATOM     45  C   UNL     1       5.552  -4.965   9.032  1.00  0.00     0.010 A 
ATOM     46  C   UNL     1       4.531  -2.881   8.312  1.00  0.00     0.010 A 
ATOM     47  C   UNL     1       5.676  -3.675   8.499  1.00  0.00    -0.014 A 
BRANCH  47  48
ATOM     48  C   UNL     1       7.019  -3.071   8.341  1.00  0.00     0.031 A 
ATOM     49  C   UNL     1       7.541  -2.214   9.459  1.00  0.00     0.074 A 
ATOM     50  C   UNL     1       7.760  -3.276   7.240  1.00  0.00     0.049 A 
ATOM     51  N   UNL     1       8.660  -1.542   9.545  1.00  0.00    -0.248 NA
ATOM     52  C   UNL     1       6.675  -2.098  10.644  1.00  0.00     0.031 C 
ATOM     53  C   UNL     1       7.379  -4.117   6.108  1.00  0.00     0.029 A 
ATOM     54  N   UNL     1       8.992  -2.780   6.895  1.00  0.00    -0.354 N 
ATOM     55  C   UNL     1       8.627  -0.918  10.784  1.00  0.00     0.074 A 
ATOM     56  C   UNL     1       7.367  -1.265  11.404  1.00  0.00     0.031 C 
ATOM     57  C   UNL     1       8.359  -4.074   5.188  1.00  0.00     0.029 A 
ATOM     58  C   UNL     1       9.417  -3.177   5.652  1.00  0.00     0.049 A 
ATOM     59  H   UNL     1       9.522  -2.195   7.484  1.00  0.00     0.167 HD
ATOM     60  C   UNL     1       9.568  -0.131  11.358  1.00  0.00     0.037 A 
ATOM     61  C   UNL     1      10.525  -2.836   4.966  1.00  0.00     0.037 A 
ATOM     62  C   UNL     1      10.815   0.218  10.734  1.00  0.00     0.049 A 
ATOM     63  C   UNL     1      11.521  -1.891   5.591  1.00  0.00     0.074 A 
ATOM     64  C   UNL     1      11.848   0.987  11.240  1.00  0.00     0.029 A 
ATOM     65  N   UNL     1      11.192  -0.167   9.455  1.00  0.00    -0.354 N 
ATOM     66  N   UNL     1      11.505  -1.332   6.777  1.00  0.00    -0.248 NA
ATOM     67  C   UNL     1      12.690  -1.528   4.776  1.00  0.00     0.031 C 
ATOM     68  C   UNL     1      12.822   1.118  10.244  1.00  0.00     0.029 A 
ATOM     69  C   UNL     1      12.426   0.378   9.141  1.00  0.00     0.049 A 
ATOM     70  H   UNL     1      10.660  -0.743   8.859  1.00  0.00     0.167 HD
ATOM     71  C   UNL     1      12.671  -0.582   6.865  1.00  0.00     0.074 A 
ATOM     72  C   UNL     1      13.377  -0.763   5.614  1.00  0.00     0.031 C 
ATOM     73  C   UNL     1      13.119   0.184   7.891  1.00  0.00     0.037 A 
BRANCH  60  74
ATOM     74  C   UNL     1       9.253   0.437  12.711  1.00  0.00     0.064 A 
ATOM     75  C   UNL     1       9.180  -0.370  13.857  1.00  0.00     0.173 A 
ATOM     76  C   UNL     1       9.017   1.812  12.863  1.00  0.00     0.173 A 
ATOM     77  F   UNL     1       9.380  -1.694  13.765  1.00  0.00    -0.203 F 
ATOM     78  C   UNL     1       8.845   0.172  15.095  1.00  0.00     0.198 A 
ATOM     79  C   UNL     1       8.715   2.356  14.108  1.00  0.00     0.198 A 
ATOM     80  F   UNL     1       9.075   2.630  11.800  1.00  0.00    -0.203 F 
ATOM     81  F   UNL     1       8.718  -0.628  16.163  1.00  0.00    -0.200 F 
ATOM     82  C   UNL     1       8.618   1.534  15.221  1.00  0.00     0.200 A 
ATOM     83  F   UNL     1       8.508   3.674  14.229  1.00  0.00    -0.200 F 
ATOM     84  F   UNL     1       8.295   2.055  16.413  1.00  0.00    -0.200 F 
ENDBRANCH  60  74
BRANCH  61  85
ATOM     85  C   UNL     1      10.758  -3.396   3.609  1.00  0.00     0.064 A 
ATOM     86  C   UNL     1      11.795  -4.309   3.375  1.00  0.00     0.173 A 
ATOM     87  C   UNL     1       9.958  -3.024   2.518  1.00  0.00     0.173 A 
ATOM     88  F   UNL     1      12.606  -4.673   4.379  1.00  0.00    -0.203 F 
ATOM     89  C   UNL     1      12.029  -4.823   2.100  1.00  0.00     0.198 A 
ATOM     90  C   UNL     1      10.175  -3.560   1.250  1.00  0.00     0.198 A 
ATOM     91  F   UNL     1       8.957  -2.148   2.687  1.00  0.00    -0.203 F 
ATOM     92  F   UNL     1      13.052  -5.664   1.897  1.00  0.00    -0.200 F 
ATOM     93  C   UNL     1      11.213  -4.454   1.041  1.00  0.00     0.200 A 
ATOM     94  F   UNL     1       9.379  -3.208   0.231  1.00  0.00    -0.200 F 
ATOM     95  F   UNL     1      11.434  -4.954  -0.182  1.00  0.00    -0.200 F 
ENDBRANCH  61  85
BRANCH  73  96
ATOM     96  C   UNL     1      14.454   0.855   7.725  1.00  0.00     0.064 A 
ATOM     97  C   UNL     1      14.637   1.933   6.846  1.00  0.00     0.173 A 
ATOM     98  C   UNL     1      15.554   0.442   8.494  1.00  0.00     0.173 A 
ATOM     99  F   UNL     1      13.622   2.358   6.079  1.00  0.00    -0.203 F 
ATOM    100  C   UNL     1      15.877   2.554   6.724  1.00  0.00     0.198 A 
ATOM    101  C   UNL     1      16.783   1.088   8.394  1.00  0.00     0.198 A 
ATOM    102  F   UNL     1      15.432  -0.578   9.357  1.00  0.00    -0.203 F 
ATOM    103  F   UNL     1      16.042   3.550   5.842  1.00  0.00    -0.200 F 
ATOM    104  C   UNL     1      16.946   2.138   7.503  1.00  0.00     0.200 A 
ATOM    105  F   UNL     1      17.810   0.694   9.160  1.00  0.00    -0.200 F 
ATOM    106  F   UNL     1      18.136   2.744   7.391  1.00  0.00    -0.200 F 
ENDBRANCH  73  96
ENDBRANCH  47  48
ENDBRANCH  40  42
ENDBRANCH  39  40
ENDBRANCH  38  39
ENDBRANCH  37  38
ENDBRANCH  36  37
ENDBRANCH  35  36
ENDBRANCH  34  35
ENDBRANCH   1  34
TORSDOF 24
