REMARK SMILES CSc1ccc(/C=C2\C(C)=C(CC(=O)OCCOCCOCCOCCOC(=O)c3ccc(-c4c5nc(c(-c6c(F)c(F)c(F)c(F)c6F)c6ccc([nH]6)c(-c6c(F)c(F)c(F)c(F)c6F)c6nc(c(-c7c(F)c(F)c(F)c(F)c7F)c7ccc4[nH]7)C=C6)C=C5)cc3)c3cc(F)ccc32)cc1
REMARK SMILES IDX 20 1 19 2 18 3 17 4 16 5 15 6 13 7 14 8 12 9 11 10 7 11 8 12
REMARK SMILES IDX 9 13 99 14 10 15 93 16 98 17 94 18 97 19 95 20 96 21 6 22
REMARK SMILES IDX 3 23 4 24 101 25 5 26 100 27 2 28 1 29 21 30 22 31 23 32
REMARK SMILES IDX 24 33 25 34 26 35 27 36 28 37 29 38 30 39 31 40 92 41 32 42
REMARK SMILES IDX 91 43 33 44 34 45 35 46 85 47 36 48 90 49 84 50 86 51 37 52
REMARK SMILES IDX 89 53 83 54 82 55 38 57 70 58 50 59 69 60 51 61 54 62 68 63
REMARK SMILES IDX 87 64 52 65 53 66 67 68 88 69 55 70 39 71 40 72 48 73 41 74
REMARK SMILES IDX 42 75 46 76 49 77 43 78 44 79 47 80 45 81 71 82 72 83 80 84
REMARK SMILES IDX 73 85 74 86 78 87 81 88 75 89 76 90 79 91 77 92 56 93 57 94
REMARK SMILES IDX 65 95 58 96 59 97 63 98 66 99 60 100 61 101 64 102 62 103
REMARK H PARENT 86 56 54 67
REMARK Flexibility Score: inf
ROOT
ATOM      1  C   UNL     1       9.515   6.799   1.240  1.00  0.00     0.188 C 
ENDROOT
BRANCH   1   2
ATOM      2  C   UNL     1       9.528   8.327   1.246  1.00  0.00     0.188 C 
BRANCH   2   3
ATOM      3  O   UNL     1       9.402   8.937   2.524  1.00  0.00    -0.376 OA
BRANCH   3   4
ATOM      4  C   UNL     1       8.149   8.823   3.198  1.00  0.00     0.202 C 
BRANCH   4   5
ATOM      5  C   UNL     1       6.889   9.233   2.421  1.00  0.00     0.261 C 
BRANCH   5   6
ATOM      6  O   UNL     1       6.401   8.181   1.552  1.00  0.00    -0.463 OA
BRANCH   6   7
ATOM      7  C   UNL     1       6.283   8.501   0.240  1.00  0.00     0.310 C 
ATOM      8  O   UNL     1       6.496   9.626  -0.211  1.00  0.00    -0.252 OA
BRANCH   7   9
ATOM      9  C   UNL     1       5.777   7.392  -0.672  1.00  0.00     0.159 C 
BRANCH   9  10
ATOM     10  C   UNL     1       5.973   5.902  -0.360  1.00  0.00    -0.025 C 
ATOM     11  C   UNL     1       3.324   4.845  -2.348  1.00  0.00     0.017 C 
ATOM     12  C   UNL     1       4.515   4.900  -1.734  1.00  0.00    -0.014 C 
ATOM     13  C   UNL     1       4.870   5.097  -0.302  1.00  0.00    -0.039 C 
ATOM     14  C   UNL     1       5.816   4.707  -2.406  1.00  0.00    -0.010 A 
ATOM     15  C   UNL     1       4.986   3.747   0.426  1.00  0.00     0.045 C 
ATOM     16  C   UNL     1       6.733   5.194  -1.455  1.00  0.00    -0.011 A 
ATOM     17  C   UNL     1       6.154   3.706  -3.312  1.00  0.00     0.012 A 
ATOM     18  C   UNL     1       7.986   4.614  -1.355  1.00  0.00     0.048 A 
ATOM     19  C   UNL     1       7.423   3.130  -3.203  1.00  0.00     0.040 A 
ATOM     20  C   UNL     1       8.311   3.571  -2.217  1.00  0.00     0.123 A 
ATOM     21  F   UNL     1       9.450   2.893  -2.012  1.00  0.00    -0.207 F 
BRANCH  11  22
ATOM     22  C   UNL     1       2.002   4.529  -1.760  1.00  0.00    -0.025 A 
ATOM     23  C   UNL     1       0.117   2.544  -1.191  1.00  0.00     0.007 A 
ATOM     24  C   UNL     1       0.993   2.981  -0.203  1.00  0.00     0.015 A 
ATOM     25  C   UNL     1       0.016   3.291  -2.368  1.00  0.00     0.015 A 
ATOM     26  C   UNL     1       1.885   4.014  -0.470  1.00  0.00     0.009 A 
ATOM     27  C   UNL     1       0.955   4.288  -2.654  1.00  0.00     0.009 A 
BRANCH  23  28
ATOM     28  S   UNL     1      -0.816   1.033  -1.026  1.00  0.00    -0.130 SA
ATOM     29  C   UNL     1       0.376  -0.022  -0.134  1.00  0.00     0.091 C 
ENDBRANCH  23  28
ENDBRANCH  11  22
ENDBRANCH   9  10
ENDBRANCH   7   9
ENDBRANCH   6   7
ENDBRANCH   5   6
ENDBRANCH   4   5
ENDBRANCH   3   4
ENDBRANCH   2   3
ENDBRANCH   1   2
BRANCH   1  30
ATOM     30  O   UNL     1       8.250   6.258   1.588  1.00  0.00    -0.377 OA
BRANCH  30  31
ATOM     31  C   UNL     1       8.101   5.397   2.715  1.00  0.00     0.188 C 
BRANCH  31  32
ATOM     32  C   UNL     1       9.338   5.056   3.550  1.00  0.00     0.188 C 
BRANCH  32  33
ATOM     33  O   UNL     1      10.369   4.286   2.926  1.00  0.00    -0.376 OA
BRANCH  33  34
ATOM     34  C   UNL     1      10.010   3.380   1.888  1.00  0.00     0.202 C 
BRANCH  34  35
ATOM     35  C   UNL     1       9.524   2.005   2.342  1.00  0.00     0.261 C 
BRANCH  35  36
ATOM     36  O   UNL     1       8.337   2.097   3.144  1.00  0.00    -0.460 OA
BRANCH  36  37
ATOM     37  C   UNL     1       8.549   1.956   4.470  1.00  0.00     0.338 C 
ATOM     38  O   UNL     1       9.609   1.719   5.038  1.00  0.00    -0.246 OA
BRANCH  37  39
ATOM     39  C   UNL     1       7.319   2.275   5.206  1.00  0.00     0.060 A 
ATOM     40  C   UNL     1       7.427   3.153   6.291  1.00  0.00     0.016 A 
ATOM     41  C   UNL     1       6.104   1.654   4.902  1.00  0.00     0.016 A 
ATOM     42  C   UNL     1       6.332   3.373   7.114  1.00  0.00     0.010 A 
ATOM     43  C   UNL     1       5.007   1.863   5.740  1.00  0.00     0.010 A 
ATOM     44  C   UNL     1       5.136   2.686   6.872  1.00  0.00    -0.014 A 
BRANCH  44  45
ATOM     45  C   UNL     1       4.110   2.668   7.935  1.00  0.00     0.031 A 
ATOM     46  C   UNL     1       4.111   1.518   8.902  1.00  0.00     0.074 A 
ATOM     47  C   UNL     1       3.256   3.694   8.077  1.00  0.00     0.049 A 
ATOM     48  N   UNL     1       3.330   1.287   9.925  1.00  0.00    -0.248 NA
ATOM     49  C   UNL     1       5.140   0.486   8.686  1.00  0.00     0.031 C 
ATOM     50  C   UNL     1       3.223   4.884   7.230  1.00  0.00     0.029 A 
ATOM     51  N   UNL     1       2.260   3.900   8.994  1.00  0.00    -0.354 N 
ATOM     52  C   UNL     1       3.774   0.091  10.473  1.00  0.00     0.074 A 
ATOM     53  C   UNL     1       4.865  -0.379   9.649  1.00  0.00     0.031 C 
ATOM     54  C   UNL     1       2.253   5.703   7.671  1.00  0.00     0.029 A 
ATOM     55  C   UNL     1       1.580   5.077   8.806  1.00  0.00     0.049 A 
ATOM     56  H   UNL     1       2.052   3.266   9.717  1.00  0.00     0.167 HD
ATOM     57  C   UNL     1       3.317  -0.550  11.575  1.00  0.00     0.037 A 
ATOM     58  C   UNL     1       0.523   5.576   9.476  1.00  0.00     0.037 A 
ATOM     59  C   UNL     1       2.221  -0.073  12.375  1.00  0.00     0.049 A 
ATOM     60  C   UNL     1      -0.033   4.793  10.637  1.00  0.00     0.074 A 
ATOM     61  C   UNL     1       1.660  -0.642  13.504  1.00  0.00     0.029 A 
ATOM     62  N   UNL     1       1.510   1.092  12.118  1.00  0.00    -0.354 N 
ATOM     63  N   UNL     1       0.393   3.666  11.158  1.00  0.00    -0.248 NA
ATOM     64  C   UNL     1      -1.215   5.352  11.305  1.00  0.00     0.031 C 
ATOM     65  C   UNL     1       0.575   0.150  13.896  1.00  0.00     0.029 A 
ATOM     66  C   UNL     1       0.497   1.245  13.050  1.00  0.00     0.049 A 
ATOM     67  H   UNL     1       1.698   1.717  11.381  1.00  0.00     0.167 HD
ATOM     68  C   UNL     1      -0.446   3.397  12.231  1.00  0.00     0.074 A 
ATOM     69  C   UNL     1      -1.399   4.488  12.293  1.00  0.00     0.031 C 
ATOM     70  C   UNL     1      -0.432   2.347  13.090  1.00  0.00     0.037 A 
BRANCH  57  71
ATOM     71  C   UNL     1       3.978  -1.848  11.942  1.00  0.00     0.064 A 
ATOM     72  C   UNL     1       5.300  -1.900  12.414  1.00  0.00     0.173 A 
ATOM     73  C   UNL     1       3.284  -3.060  11.811  1.00  0.00     0.173 A 
ATOM     74  F   UNL     1       6.016  -0.773  12.540  1.00  0.00    -0.203 F 
ATOM     75  C   UNL     1       5.911  -3.118  12.704  1.00  0.00     0.198 A 
ATOM     76  C   UNL     1       3.888  -4.273  12.134  1.00  0.00     0.198 A 
ATOM     77  F   UNL     1       2.019  -3.071  11.364  1.00  0.00    -0.203 F 
ATOM     78  F   UNL     1       7.194  -3.146  13.092  1.00  0.00    -0.200 F 
ATOM     79  C   UNL     1       5.204  -4.302  12.569  1.00  0.00     0.200 A 
ATOM     80  F   UNL     1       3.198  -5.416  12.012  1.00  0.00    -0.200 F 
ATOM     81  F   UNL     1       5.793  -5.473  12.846  1.00  0.00    -0.200 F 
ENDBRANCH  57  71
BRANCH  58  82
ATOM     82  C   UNL     1      -0.073   6.874   9.066  1.00  0.00     0.064 A 
ATOM     83  C   UNL     1      -0.000   7.999   9.899  1.00  0.00     0.173 A 
ATOM     84  C   UNL     1      -0.734   7.017   7.837  1.00  0.00     0.173 A 
ATOM     85  F   UNL     1       0.601   7.909  11.095  1.00  0.00    -0.203 F 
ATOM     86  C   UNL     1      -0.577   9.211   9.525  1.00  0.00     0.198 A 
ATOM     87  C   UNL     1      -1.285   8.237   7.451  1.00  0.00     0.198 A 
ATOM     88  F   UNL     1      -0.833   5.972   7.002  1.00  0.00    -0.203 F 
ATOM     89  F   UNL     1      -0.530  10.259  10.360  1.00  0.00    -0.200 F 
ATOM     90  C   UNL     1      -1.213   9.332   8.299  1.00  0.00     0.200 A 
ATOM     91  F   UNL     1      -1.886   8.352   6.259  1.00  0.00    -0.200 F 
ATOM     92  F   UNL     1      -1.762  10.499   7.937  1.00  0.00    -0.200 F 
ENDBRANCH  58  82
BRANCH  70  93
ATOM     93  C   UNL     1      -1.452   2.351  14.193  1.00  0.00     0.064 A 
ATOM     94  C   UNL     1      -2.813   2.129  13.941  1.00  0.00     0.173 A 
ATOM     95  C   UNL     1      -1.052   2.541  15.525  1.00  0.00     0.173 A 
ATOM     96  F   UNL     1      -3.248   1.956  12.683  1.00  0.00    -0.203 F 
ATOM     97  C   UNL     1      -3.741   2.126  14.979  1.00  0.00     0.198 A 
ATOM     98  C   UNL     1      -1.978   2.503  16.563  1.00  0.00     0.198 A 
ATOM     99  F   UNL     1       0.240   2.748  15.821  1.00  0.00    -0.203 F 
ATOM    100  F   UNL     1      -5.044   1.965  14.709  1.00  0.00    -0.200 F 
ATOM    101  C   UNL     1      -3.322   2.305  16.289  1.00  0.00     0.200 A 
ATOM    102  F   UNL     1      -1.568   2.659  17.830  1.00  0.00    -0.200 F 
ATOM    103  F   UNL     1      -4.216   2.294  17.287  1.00  0.00    -0.200 F 
ENDBRANCH  70  93
ENDBRANCH  44  45
ENDBRANCH  37  39
ENDBRANCH  36  37
ENDBRANCH  35  36
ENDBRANCH  34  35
ENDBRANCH  33  34
ENDBRANCH  32  33
ENDBRANCH  31  32
ENDBRANCH  30  31
ENDBRANCH   1  30
TORSDOF 23
