REMARK SMILES O=C(OCCOCCOCCOCCOC(=O)[C@@H]1[C@H](C(=O)Nc2ccccc2OC(F)F)[C@@H]2C=C[C@H]1C2)c1ccc(-c2c3nc(c(-c4c(F)c(F)c(F)c(F)c4F)c4ccc([nH]4)c(-c4c(F)c(F)c(F)c(F)c4F)c4nc(c(-c5c(F)c(F)c(F)c(F)c5F)c5ccc2[nH]5)C=C4)C=C3)cc1
REMARK SMILES IDX 10 1 9 2 8 3 7 4 6 5 5 6 4 7 3 8 2 9 1 10 38 11 39 12 100 13
REMARK SMILES IDX 40 14 99 15 41 16 42 17 43 18 93 19 44 20 98 21 92 22 94 23
REMARK SMILES IDX 45 24 97 25 91 26 90 27 46 29 78 30 58 31 77 32 59 33 62 34
REMARK SMILES IDX 76 35 95 36 60 37 61 38 75 40 96 41 63 42 47 43 48 44 56 45
REMARK SMILES IDX 49 46 50 47 54 48 57 49 51 50 52 51 55 52 53 53 79 54 80 55
REMARK SMILES IDX 88 56 81 57 82 58 86 59 89 60 83 61 84 62 87 63 85 64 64 65
REMARK SMILES IDX 65 66 73 67 66 68 67 69 71 70 74 71 68 72 69 73 72 74 70 75
REMARK SMILES IDX 11 76 12 77 13 78 14 79 15 80 16 81 17 82 18 83 19 84 36 85
REMARK SMILES IDX 33 86 35 87 37 88 34 89 20 90 21 91 22 92 23 94 24 95 28 96
REMARK SMILES IDX 25 97 27 98 26 99 29 100 30 101 31 102 32 103
REMARK H PARENT 94 28 62 39 22 93
REMARK Flexibility Score: inf
ROOT
ATOM      1  C   UNL     1       5.021  -2.260  -2.078  1.00  0.00     0.188 C 
ENDROOT
BRANCH   1   2
ATOM      2  O   UNL     1       3.680  -2.748  -2.191  1.00  0.00    -0.377 OA
BRANCH   2   3
ATOM      3  C   UNL     1       2.617  -1.922  -1.716  1.00  0.00     0.188 C 
BRANCH   3   4
ATOM      4  C   UNL     1       2.741  -1.524  -0.253  1.00  0.00     0.188 C 
BRANCH   4   5
ATOM      5  O   UNL     1       3.941  -0.790  -0.079  1.00  0.00    -0.376 OA
BRANCH   5   6
ATOM      6  C   UNL     1       4.679  -1.020   1.117  1.00  0.00     0.202 C 
BRANCH   6   7
ATOM      7  C   UNL     1       3.953  -0.519   2.358  1.00  0.00     0.261 C 
BRANCH   7   8
ATOM      8  O   UNL     1       3.754   0.893   2.206  1.00  0.00    -0.460 OA
BRANCH   8   9
ATOM      9  C   UNL     1       2.588   1.260   1.616  1.00  0.00     0.338 C 
ATOM     10  O   UNL     1       1.486   0.766   1.769  1.00  0.00    -0.246 OA
BRANCH   9  11
ATOM     11  C   UNL     1       2.926   2.356   0.695  1.00  0.00     0.060 A 
ATOM     12  C   UNL     1       3.980   2.163  -0.206  1.00  0.00     0.016 A 
ATOM     13  C   UNL     1       2.298   3.594   0.797  1.00  0.00     0.016 A 
ATOM     14  C   UNL     1       4.507   3.212  -0.909  1.00  0.00     0.010 A 
ATOM     15  C   UNL     1       2.830   4.669   0.085  1.00  0.00     0.010 A 
ATOM     16  C   UNL     1       3.971   4.478  -0.715  1.00  0.00    -0.014 A 
BRANCH  16  17
ATOM     17  C   UNL     1       4.829   5.591  -1.139  1.00  0.00     0.031 A 
ATOM     18  C   UNL     1       5.636   6.275  -0.079  1.00  0.00     0.074 A 
ATOM     19  C   UNL     1       5.042   5.801  -2.446  1.00  0.00     0.049 A 
ATOM     20  N   UNL     1       6.373   7.346  -0.159  1.00  0.00    -0.248 NA
ATOM     21  C   UNL     1       5.624   5.652   1.259  1.00  0.00     0.031 C 
ATOM     22  C   UNL     1       4.471   4.999  -3.533  1.00  0.00     0.029 A 
ATOM     23  N   UNL     1       5.825   6.720  -3.081  1.00  0.00    -0.354 N 
ATOM     24  C   UNL     1       6.855   7.561   1.125  1.00  0.00     0.074 A 
ATOM     25  C   UNL     1       6.354   6.500   1.964  1.00  0.00     0.031 C 
ATOM     26  C   UNL     1       4.929   5.466  -4.704  1.00  0.00     0.029 A 
ATOM     27  C   UNL     1       5.738   6.650  -4.447  1.00  0.00     0.049 A 
ATOM     28  H   UNL     1       6.395   7.368  -2.606  1.00  0.00     0.167 HD
ATOM     29  C   UNL     1       7.630   8.584   1.550  1.00  0.00     0.037 A 
ATOM     30  C   UNL     1       6.210   7.505  -5.371  1.00  0.00     0.037 A 
ATOM     31  C   UNL     1       8.111   9.602   0.658  1.00  0.00     0.049 A 
ATOM     32  C   UNL     1       6.963   8.707  -4.868  1.00  0.00     0.074 A 
ATOM     33  C   UNL     1       8.815  10.754   0.943  1.00  0.00     0.029 A 
ATOM     34  N   UNL     1       7.930   9.567  -0.722  1.00  0.00    -0.354 N 
ATOM     35  N   UNL     1       7.298   9.016  -3.636  1.00  0.00    -0.248 NA
ATOM     36  C   UNL     1       7.378   9.692  -5.870  1.00  0.00     0.031 C 
ATOM     37  C   UNL     1       9.018  11.439  -0.262  1.00  0.00     0.029 A 
ATOM     38  C   UNL     1       8.493  10.685  -1.304  1.00  0.00     0.049 A 
ATOM     39  H   UNL     1       7.467   8.849  -1.212  1.00  0.00     0.167 HD
ATOM     40  C   UNL     1       7.977  10.221  -3.711  1.00  0.00     0.074 A 
ATOM     41  C   UNL     1       8.019  10.577  -5.118  1.00  0.00     0.031 C 
ATOM     42  C   UNL     1       8.514  10.974  -2.718  1.00  0.00     0.037 A 
BRANCH  29  43
ATOM     43  C   UNL     1       7.875   8.687   3.026  1.00  0.00     0.064 A 
ATOM     44  C   UNL     1       8.696   7.784   3.719  1.00  0.00     0.173 A 
ATOM     45  C   UNL     1       7.207   9.668   3.776  1.00  0.00     0.173 A 
ATOM     46  F   UNL     1       9.330   6.803   3.058  1.00  0.00    -0.203 F 
ATOM     47  C   UNL     1       8.806   7.835   5.109  1.00  0.00     0.198 A 
ATOM     48  C   UNL     1       7.341   9.733   5.160  1.00  0.00     0.198 A 
ATOM     49  F   UNL     1       6.399  10.549   3.167  1.00  0.00    -0.203 F 
ATOM     50  F   UNL     1       9.535   6.915   5.756  1.00  0.00    -0.200 F 
ATOM     51  C   UNL     1       8.130   8.809   5.827  1.00  0.00     0.200 A 
ATOM     52  F   UNL     1       6.685  10.676   5.851  1.00  0.00    -0.200 F 
ATOM     53  F   UNL     1       8.222   8.845   7.164  1.00  0.00    -0.200 F 
ENDBRANCH  29  43
BRANCH  30  54
ATOM     54  C   UNL     1       5.905   7.295  -6.810  1.00  0.00     0.064 A 
ATOM     55  C   UNL     1       6.920   7.048  -7.742  1.00  0.00     0.173 A 
ATOM     56  C   UNL     1       4.583   7.327  -7.285  1.00  0.00     0.173 A 
ATOM     57  F   UNL     1       8.201   7.023  -7.346  1.00  0.00    -0.203 F 
ATOM     58  C   UNL     1       6.628   6.851  -9.092  1.00  0.00     0.198 A 
ATOM     59  C   UNL     1       4.288   7.097  -8.627  1.00  0.00     0.198 A 
ATOM     60  F   UNL     1       3.568   7.560  -6.439  1.00  0.00    -0.203 F 
ATOM     61  F   UNL     1       7.622   6.654  -9.968  1.00  0.00    -0.200 F 
ATOM     62  C   UNL     1       5.312   6.868  -9.532  1.00  0.00     0.200 A 
ATOM     63  F   UNL     1       3.014   7.096  -9.041  1.00  0.00    -0.200 F 
ATOM     64  F   UNL     1       5.032   6.669 -10.827  1.00  0.00    -0.200 F 
ENDBRANCH  30  54
BRANCH  42  65
ATOM     65  C   UNL     1       9.225  12.223  -3.135  1.00  0.00     0.064 A 
ATOM     66  C   UNL     1       8.525  13.359  -3.560  1.00  0.00     0.173 A 
ATOM     67  C   UNL     1      10.623  12.295  -3.045  1.00  0.00     0.173 A 
ATOM     68  F   UNL     1       7.189  13.326  -3.676  1.00  0.00    -0.203 F 
ATOM     69  C   UNL     1       9.204  14.524  -3.899  1.00  0.00     0.198 A 
ATOM     70  C   UNL     1      11.295  13.471  -3.354  1.00  0.00     0.198 A 
ATOM     71  F   UNL     1      11.330  11.231  -2.635  1.00  0.00    -0.203 F 
ATOM     72  F   UNL     1       8.522  15.588  -4.344  1.00  0.00    -0.200 F 
ATOM     73  C   UNL     1      10.586  14.582  -3.786  1.00  0.00     0.200 A 
ATOM     74  F   UNL     1      12.627  13.531  -3.229  1.00  0.00    -0.200 F 
ATOM     75  F   UNL     1      11.237  15.710  -4.099  1.00  0.00    -0.200 F 
ENDBRANCH  42  65
ENDBRANCH  16  17
ENDBRANCH   9  11
ENDBRANCH   8   9
ENDBRANCH   7   8
ENDBRANCH   6   7
ENDBRANCH   5   6
ENDBRANCH   4   5
ENDBRANCH   3   4
ENDBRANCH   2   3
ENDBRANCH   1   2
BRANCH   1  76
ATOM     76  C   UNL     1       5.456  -0.962  -2.776  1.00  0.00     0.188 C 
BRANCH  76  77
ATOM     77  O   UNL     1       4.396  -0.119  -3.156  1.00  0.00    -0.376 OA
BRANCH  77  78
ATOM     78  C   UNL     1       3.972  -0.190  -4.506  1.00  0.00     0.202 C 
BRANCH  78  79
ATOM     79  C   UNL     1       4.100  -1.476  -5.357  1.00  0.00     0.261 C 
BRANCH  79  80
ATOM     80  O   UNL     1       4.386  -2.720  -4.679  1.00  0.00    -0.463 OA
BRANCH  80  81
ATOM     81  C   UNL     1       4.937  -3.706  -5.434  1.00  0.00     0.310 C 
ATOM     82  O   UNL     1       5.247  -3.534  -6.614  1.00  0.00    -0.252 OA
BRANCH  81  83
ATOM     83  C   UNL     1       5.271  -5.014  -4.733  1.00  0.00     0.119 C 
ATOM     84  C   UNL     1       5.040  -6.347  -5.518  1.00  0.00     0.100 C 
ATOM     85  C   UNL     1       5.051  -5.468  -3.265  1.00  0.00     0.027 C 
ATOM     86  C   UNL     1       4.965  -7.415  -4.378  1.00  0.00     0.025 C 
ATOM     87  C   UNL     1       3.707  -6.089  -2.995  1.00  0.00    -0.027 C 
ATOM     88  C   UNL     1       5.863  -6.791  -3.310  1.00  0.00     0.017 C 
ATOM     89  C   UNL     1       3.679  -7.279  -3.612  1.00  0.00    -0.027 C 
BRANCH  84  90
ATOM     90  C   UNL     1       4.061  -6.660  -6.671  1.00  0.00     0.229 C 
ATOM     91  O   UNL     1       4.554  -7.080  -7.731  1.00  0.00    -0.274 OA
ATOM     92  N   UNL     1       2.705  -6.791  -6.566  1.00  0.00    -0.323 N 
ATOM     93  H   UNL     1       2.325  -7.465  -7.175  1.00  0.00     0.170 HD
BRANCH  92  94
ATOM     94  C   UNL     1       1.747  -6.157  -5.764  1.00  0.00     0.084 A 
ATOM     95  C   UNL     1       0.715  -6.930  -5.223  1.00  0.00     0.030 A 
ATOM     96  C   UNL     1       1.767  -4.797  -5.491  1.00  0.00     0.149 A 
ATOM     97  C   UNL     1      -0.108  -6.398  -4.223  1.00  0.00     0.002 A 
ATOM     98  C   UNL     1       0.995  -4.274  -4.452  1.00  0.00     0.049 A 
ATOM     99  C   UNL     1       0.074  -5.085  -3.795  1.00  0.00     0.004 A 
BRANCH  96 100
ATOM    100  O   UNL     1       2.535  -3.920  -6.179  1.00  0.00    -0.433 OA
BRANCH 100 101
ATOM    101  C   UNL     1       2.242  -3.741  -7.563  1.00  0.00     0.542 C 
ATOM    102  F   UNL     1       2.591  -4.824  -8.287  1.00  0.00    -0.167 F 
ATOM    103  F   UNL     1       0.916  -3.527  -7.728  1.00  0.00    -0.167 F 
ENDBRANCH 100 101
ENDBRANCH  96 100
ENDBRANCH  92  94
ENDBRANCH  84  90
ENDBRANCH  81  83
ENDBRANCH  80  81
ENDBRANCH  79  80
ENDBRANCH  78  79
ENDBRANCH  77  78
ENDBRANCH  76  77
ENDBRANCH   1  76
TORSDOF 24
