REMARK SMILES C[C@@H]1[C@H](C(=O)OCCOCCOCCOCCOC(=O)c2ccc(-c3c4nc(c(-c5c(F)c(F)c(F)c(F)c5F)c5ccc([nH]5)c(-c5c(F)c(F)c(F)c(F)c5F)c5nc(c(-c6c(F)c(F)c(F)c(F)c6F)c6ccc3[nH]6)C=C5)C=C4)cc2)CCN1S(=O)(=O)c1cc(F)cc(F)c1
REMARK SMILES IDX 12 1 11 2 10 3 9 4 8 5 7 6 6 7 4 8 5 9 3 10 1 11 2 12 86 13
REMARK SMILES IDX 84 14 85 15 87 16 88 17 89 18 90 19 91 20 97 21 92 22 95 23
REMARK SMILES IDX 93 24 94 25 96 26 13 27 14 28 15 29 16 30 17 31 18 32 19 33
REMARK SMILES IDX 20 34 21 35 22 36 83 37 23 38 82 39 24 40 25 41 26 42 76 43
REMARK SMILES IDX 27 44 81 45 75 46 77 47 28 48 80 49 74 50 73 51 29 53 61 54
REMARK SMILES IDX 41 55 60 56 42 57 45 58 59 59 78 60 43 61 44 62 58 64 79 65
REMARK SMILES IDX 46 66 30 67 31 68 39 69 32 70 33 71 37 72 40 73 34 74 35 75
REMARK SMILES IDX 38 76 36 77 62 78 63 79 71 80 64 81 65 82 69 83 72 84 66 85
REMARK SMILES IDX 67 86 70 87 68 88 47 89 48 90 56 91 49 92 50 93 54 94 57 95
REMARK SMILES IDX 51 96 52 97 55 98 53 99
REMARK H PARENT 77 52 45 63
REMARK Flexibility Score: inf
ROOT
ATOM      1  O   UNL     1       3.163   1.815  -0.645  1.00  0.00    -0.377 OA
ENDROOT
BRANCH   1   2
ATOM      2  C   UNL     1       2.431   2.294  -1.771  1.00  0.00     0.188 C 
BRANCH   2   3
ATOM      3  C   UNL     1       1.884   3.731  -1.738  1.00  0.00     0.188 C 
BRANCH   3   4
ATOM      4  O   UNL     1       2.572   4.558  -0.813  1.00  0.00    -0.376 OA
BRANCH   4   5
ATOM      5  C   UNL     1       1.787   5.176   0.191  1.00  0.00     0.202 C 
BRANCH   5   6
ATOM      6  C   UNL     1       1.105   4.261   1.220  1.00  0.00     0.261 C 
BRANCH   6   7
ATOM      7  O   UNL     1       0.878   2.916   0.773  1.00  0.00    -0.463 OA
BRANCH   7   8
ATOM      8  C   UNL     1      -0.398   2.521   0.580  1.00  0.00     0.310 C 
ATOM      9  O   UNL     1      -1.364   3.272   0.640  1.00  0.00    -0.252 OA
BRANCH   8  10
ATOM     10  C   UNL     1      -0.513   1.066   0.174  1.00  0.00     0.118 C 
ATOM     11  C   UNL     1       1.204   0.236   1.936  1.00  0.00     0.027 C 
ATOM     12  C   UNL     1       0.585   0.048   0.555  1.00  0.00     0.084 C 
ATOM     13  N   UNL     1      -0.115  -1.276   0.385  1.00  0.00    -0.194 NA
ATOM     14  C   UNL     1      -1.752   0.445   0.794  1.00  0.00     0.034 C 
ATOM     15  C   UNL     1      -1.588  -1.035   0.506  1.00  0.00     0.104 C 
BRANCH  13  16
ATOM     16  S   UNL     1       0.375  -2.749   1.068  1.00  0.00     0.243 S 
ATOM     17  O   UNL     1       0.558  -2.567   2.491  1.00  0.00    -0.207 OA
ATOM     18  O   UNL     1      -0.576  -3.732   0.581  1.00  0.00    -0.207 OA
BRANCH  16  19
ATOM     19  C   UNL     1       1.945  -3.239   0.393  1.00  0.00     0.088 A 
ATOM     20  C   UNL     1       2.168  -4.618   0.252  1.00  0.00     0.061 A 
ATOM     21  C   UNL     1       2.962  -2.343   0.066  1.00  0.00     0.061 A 
ATOM     22  C   UNL     1       3.401  -5.080  -0.193  1.00  0.00     0.127 A 
ATOM     23  C   UNL     1       4.187  -2.836  -0.384  1.00  0.00     0.127 A 
ATOM     24  F   UNL     1       3.614  -6.397  -0.296  1.00  0.00    -0.207 F 
ATOM     25  C   UNL     1       4.421  -4.198  -0.513  1.00  0.00     0.078 A 
ATOM     26  F   UNL     1       5.169  -1.976  -0.680  1.00  0.00    -0.207 F 
ENDBRANCH  16  19
ENDBRANCH  13  16
ENDBRANCH   8  10
ENDBRANCH   7   8
ENDBRANCH   6   7
ENDBRANCH   5   6
ENDBRANCH   4   5
ENDBRANCH   3   4
ENDBRANCH   2   3
ENDBRANCH   1   2
BRANCH   1  27
ATOM     27  C   UNL     1       4.287   2.565  -0.176  1.00  0.00     0.188 C 
BRANCH  27  28
ATOM     28  C   UNL     1       5.143   3.395  -1.161  1.00  0.00     0.188 C 
BRANCH  28  29
ATOM     29  O   UNL     1       4.971   3.059  -2.529  1.00  0.00    -0.376 OA
BRANCH  29  30
ATOM     30  C   UNL     1       5.963   2.220  -3.107  1.00  0.00     0.202 C 
BRANCH  30  31
ATOM     31  C   UNL     1       6.043   0.802  -2.527  1.00  0.00     0.261 C 
BRANCH  31  32
ATOM     32  O   UNL     1       6.486   0.729  -1.161  1.00  0.00    -0.460 OA
BRANCH  32  33
ATOM     33  C   UNL     1       7.701   1.234  -0.869  1.00  0.00     0.338 C 
ATOM     34  O   UNL     1       8.511   1.726  -1.635  1.00  0.00    -0.246 OA
BRANCH  33  35
ATOM     35  C   UNL     1       7.840   1.244   0.597  1.00  0.00     0.060 A 
ATOM     36  C   UNL     1       8.007   2.467   1.257  1.00  0.00     0.016 A 
ATOM     37  C   UNL     1       7.840   0.042   1.307  1.00  0.00     0.016 A 
ATOM     38  C   UNL     1       8.219   2.486   2.635  1.00  0.00     0.010 A 
ATOM     39  C   UNL     1       8.071   0.061   2.683  1.00  0.00     0.010 A 
ATOM     40  C   UNL     1       8.298   1.281   3.346  1.00  0.00    -0.014 A 
BRANCH  40  41
ATOM     41  C   UNL     1       8.817   1.278   4.734  1.00  0.00     0.031 A 
ATOM     42  C   UNL     1      10.281   1.010   4.947  1.00  0.00     0.074 A 
ATOM     43  C   UNL     1       8.013   1.520   5.784  1.00  0.00     0.049 A 
ATOM     44  N   UNL     1      10.959   0.920   6.062  1.00  0.00    -0.248 NA
ATOM     45  C   UNL     1      11.091   0.816   3.732  1.00  0.00     0.031 C 
ATOM     46  C   UNL     1       6.588   1.827   5.704  1.00  0.00     0.029 A 
ATOM     47  N   UNL     1       8.290   1.535   7.128  1.00  0.00    -0.354 N 
ATOM     48  C   UNL     1      12.270   0.659   5.685  1.00  0.00     0.074 A 
ATOM     49  C   UNL     1      12.289   0.573   4.241  1.00  0.00     0.031 C 
ATOM     50  C   UNL     1       6.108   1.987   6.951  1.00  0.00     0.029 A 
ATOM     51  C   UNL     1       7.188   1.766   7.913  1.00  0.00     0.049 A 
ATOM     52  H   UNL     1       9.192   1.393   7.495  1.00  0.00     0.167 HD
ATOM     53  C   UNL     1      13.362   0.513   6.471  1.00  0.00     0.037 A 
ATOM     54  C   UNL     1       7.066   1.777   9.255  1.00  0.00     0.037 A 
ATOM     55  C   UNL     1      13.341   0.589   7.907  1.00  0.00     0.049 A 
ATOM     56  C   UNL     1       8.284   1.534  10.112  1.00  0.00     0.074 A 
ATOM     57  C   UNL     1      14.397   0.468   8.793  1.00  0.00     0.029 A 
ATOM     58  N   UNL     1      12.200   0.795   8.668  1.00  0.00    -0.354 N 
ATOM     59  N   UNL     1       9.526   1.322   9.749  1.00  0.00    -0.248 NA
ATOM     60  C   UNL     1       8.081   1.534  11.568  1.00  0.00     0.031 C 
ATOM     61  C   UNL     1      13.887   0.549  10.093  1.00  0.00     0.029 A 
ATOM     62  C   UNL     1      12.523   0.778  10.016  1.00  0.00     0.049 A 
ATOM     63  H   UNL     1      11.296   0.933   8.305  1.00  0.00     0.167 HD
ATOM     64  C   UNL     1      10.254   1.197  10.925  1.00  0.00     0.074 A 
ATOM     65  C   UNL     1       9.317   1.368  12.016  1.00  0.00     0.031 C 
ATOM     66  C   UNL     1      11.580   0.962  11.089  1.00  0.00     0.037 A 
BRANCH  53  67
ATOM     67  C   UNL     1      14.668   0.230   5.791  1.00  0.00     0.064 A 
ATOM     68  C   UNL     1      15.339   1.212   5.046  1.00  0.00     0.173 A 
ATOM     69  C   UNL     1      15.270  -1.031   5.908  1.00  0.00     0.173 A 
ATOM     70  F   UNL     1      14.796   2.430   4.891  1.00  0.00    -0.203 F 
ATOM     71  C   UNL     1      16.552   0.933   4.423  1.00  0.00     0.198 A 
ATOM     72  C   UNL     1      16.497  -1.298   5.307  1.00  0.00     0.198 A 
ATOM     73  F   UNL     1      14.671  -2.005   6.609  1.00  0.00    -0.203 F 
ATOM     74  F   UNL     1      17.152   1.872   3.678  1.00  0.00    -0.200 F 
ATOM     75  C   UNL     1      17.134  -0.318   4.560  1.00  0.00     0.200 A 
ATOM     76  F   UNL     1      17.063  -2.505   5.449  1.00  0.00    -0.200 F 
ATOM     77  F   UNL     1      18.305  -0.583   3.964  1.00  0.00    -0.200 F 
ENDBRANCH  53  67
BRANCH  54  78
ATOM     78  C   UNL     1       5.739   2.015   9.882  1.00  0.00     0.064 A 
ATOM     79  C   UNL     1       5.484   3.181  10.617  1.00  0.00     0.173 A 
ATOM     80  C   UNL     1       4.709   1.067   9.786  1.00  0.00     0.173 A 
ATOM     81  F   UNL     1       6.446   4.104  10.761  1.00  0.00    -0.203 F 
ATOM     82  C   UNL     1       4.258   3.381  11.249  1.00  0.00     0.198 A 
ATOM     83  C   UNL     1       3.474   1.281  10.394  1.00  0.00     0.198 A 
ATOM     84  F   UNL     1       4.903  -0.068   9.099  1.00  0.00    -0.203 F 
ATOM     85  F   UNL     1       4.059   4.481  11.987  1.00  0.00    -0.200 F 
ATOM     86  C   UNL     1       3.252   2.434  11.132  1.00  0.00     0.200 A 
ATOM     87  F   UNL     1       2.502   0.368  10.271  1.00  0.00    -0.200 F 
ATOM     88  F   UNL     1       2.074   2.627  11.740  1.00  0.00    -0.200 F 
ENDBRANCH  54  78
BRANCH  66  89
ATOM     89  C   UNL     1      12.108   0.919  12.495  1.00  0.00     0.064 A 
ATOM     90  C   UNL     1      11.830  -0.151  13.357  1.00  0.00     0.173 A 
ATOM     91  C   UNL     1      12.945   1.942  12.968  1.00  0.00     0.173 A 
ATOM     92  F   UNL     1      11.024  -1.147  12.957  1.00  0.00    -0.203 F 
ATOM     93  C   UNL     1      12.349  -0.184  14.648  1.00  0.00     0.198 A 
ATOM     94  C   UNL     1      13.488   1.890  14.249  1.00  0.00     0.198 A 
ATOM     95  F   UNL     1      13.251   2.985  12.181  1.00  0.00    -0.203 F 
ATOM     96  F   UNL     1      12.032  -1.194  15.470  1.00  0.00    -0.200 F 
ATOM     97  C   UNL     1      13.183   0.832  15.091  1.00  0.00     0.200 A 
ATOM     98  F   UNL     1      14.306   2.865  14.668  1.00  0.00    -0.200 F 
ATOM     99  F   UNL     1      13.689   0.793  16.331  1.00  0.00    -0.200 F 
ENDBRANCH  66  89
ENDBRANCH  40  41
ENDBRANCH  33  35
ENDBRANCH  32  33
ENDBRANCH  31  32
ENDBRANCH  30  31
ENDBRANCH  29  30
ENDBRANCH  28  29
ENDBRANCH  27  28
ENDBRANCH   1  27
TORSDOF 22
