REMARK SMILES Cn1c(=O)c(=O)n(C)c2cc(S(=O)(=O)N3CCC[C@H]3C(=O)OCCOCCOCCOCCOC(=O)c3ccc(-c4c5nc(c(-c6c(F)c(F)c(F)c(F)c6F)c6ccc([nH]6)c(-c6c(F)c(F)c(F)c(F)c6F)c6nc(c(-c7c(F)c(F)c(F)c(F)c7F)c7ccc4[nH]7)C=C6)C=C5)cc3)ccc21
REMARK SMILES IDX 28 1 27 2 26 3 25 4 24 5 23 6 22 7 20 8 21 9 19 10 15 11
REMARK SMILES IDX 16 12 17 13 18 14 12 15 13 16 14 17 11 18 1 19 2 20 3 21
REMARK SMILES IDX 102 22 4 23 5 24 9 25 101 26 6 27 7 28 10 29 100 30 8 31
REMARK SMILES IDX 29 32 30 33 31 34 32 35 33 36 34 37 35 38 36 39 37 40 38 41
REMARK SMILES IDX 99 42 39 43 98 44 40 45 41 46 42 47 92 48 43 49 97 50 91 51
REMARK SMILES IDX 93 52 44 53 96 54 90 55 89 56 45 58 77 59 57 60 76 61 58 62
REMARK SMILES IDX 61 63 75 64 94 65 59 66 60 67 74 69 95 70 62 71 46 72 47 73
REMARK SMILES IDX 55 74 48 75 49 76 53 77 56 78 50 79 51 80 54 81 52 82 78 83
REMARK SMILES IDX 79 84 87 85 80 86 81 87 85 88 88 89 82 90 83 91 86 92 84 93
REMARK SMILES IDX 63 94 64 95 72 96 65 97 66 98 70 99 73 100 67 101 68 102
REMARK SMILES IDX 71 103 69 104
REMARK H PARENT 93 57 61 68
REMARK Flexibility Score: inf
ROOT
ATOM      1  O   UNL     1      -3.968   6.860   0.048  1.00  0.00    -0.377 OA
ENDROOT
BRANCH   1   2
ATOM      2  C   UNL     1      -2.638   7.244  -0.266  1.00  0.00     0.188 C 
BRANCH   2   3
ATOM      3  C   UNL     1      -2.329   8.652  -0.833  1.00  0.00     0.188 C 
BRANCH   3   4
ATOM      4  O   UNL     1      -3.477   9.412  -1.173  1.00  0.00    -0.376 OA
BRANCH   4   5
ATOM      5  C   UNL     1      -3.732   9.609  -2.554  1.00  0.00     0.202 C 
BRANCH   5   6
ATOM      6  C   UNL     1      -4.059   8.351  -3.369  1.00  0.00     0.261 C 
BRANCH   6   7
ATOM      7  O   UNL     1      -3.147   7.255  -3.189  1.00  0.00    -0.462 OA
BRANCH   7   8
ATOM      8  C   UNL     1      -1.911   7.340  -3.756  1.00  0.00     0.324 C 
ATOM      9  O   UNL     1      -1.520   8.277  -4.438  1.00  0.00    -0.250 OA
BRANCH   8  10
ATOM     10  C   UNL     1      -1.050   6.170  -3.267  1.00  0.00     0.183 C 
ATOM     11  N   UNL     1      -0.323   5.544  -4.377  1.00  0.00    -0.184 NA
ATOM     12  C   UNL     1       1.092   5.909  -4.329  1.00  0.00     0.103 C 
ATOM     13  C   UNL     1       1.373   6.093  -2.852  1.00  0.00     0.019 C 
ATOM     14  C   UNL     1       0.058   6.608  -2.286  1.00  0.00     0.034 C 
BRANCH  11  15
ATOM     15  S   UNL     1      -0.888   4.121  -5.031  1.00  0.00     0.243 S 
ATOM     16  O   UNL     1      -0.103   3.857  -6.221  1.00  0.00    -0.207 OA
ATOM     17  O   UNL     1      -2.329   4.201  -5.073  1.00  0.00    -0.207 OA
BRANCH  15  18
ATOM     18  C   UNL     1      -0.505   2.804  -3.886  1.00  0.00     0.084 A 
ATOM     19  C   UNL     1       1.011  -0.252  -0.036  1.00  0.00     0.154 C 
ATOM     20  N   UNL     1       0.564  -0.469  -1.405  1.00  0.00    -0.305 N 
ATOM     21  C   UNL     1       0.619  -1.773  -1.894  1.00  0.00     0.316 A 
ATOM     22  C   UNL     1       0.178   0.619  -2.233  1.00  0.00     0.068 A 
ATOM     23  O   UNL     1       1.033  -2.724  -1.235  1.00  0.00    -0.263 OA
ATOM     24  C   UNL     1       0.139  -2.024  -3.328  1.00  0.00     0.316 A 
ATOM     25  C   UNL     1      -0.183   0.401  -3.575  1.00  0.00     0.069 A 
ATOM     26  C   UNL     1       0.151   1.929  -1.734  1.00  0.00     0.030 A 
ATOM     27  O   UNL     1       0.097  -3.181  -3.738  1.00  0.00    -0.263 OA
ATOM     28  N   UNL     1      -0.222  -0.919  -4.097  1.00  0.00    -0.305 N 
ATOM     29  C   UNL     1      -0.507   1.502  -4.392  1.00  0.00     0.050 A 
ATOM     30  C   UNL     1      -0.209   3.006  -2.546  1.00  0.00     0.024 A 
ATOM     31  C   UNL     1      -0.680  -1.157  -5.458  1.00  0.00     0.154 C 
ENDBRANCH  15  18
ENDBRANCH  11  15
ENDBRANCH   8  10
ENDBRANCH   7   8
ENDBRANCH   6   7
ENDBRANCH   5   6
ENDBRANCH   4   5
ENDBRANCH   3   4
ENDBRANCH   2   3
ENDBRANCH   1   2
BRANCH   1  32
ATOM     32  C   UNL     1      -4.885   7.853   0.479  1.00  0.00     0.188 C 
BRANCH  32  33
ATOM     33  C   UNL     1      -4.404   8.934   1.474  1.00  0.00     0.188 C 
BRANCH  33  34
ATOM     34  O   UNL     1      -3.031   8.831   1.813  1.00  0.00    -0.376 OA
BRANCH  34  35
ATOM     35  C   UNL     1      -2.670   8.377   3.102  1.00  0.00     0.202 C 
BRANCH  35  36
ATOM     36  C   UNL     1      -3.086   6.963   3.524  1.00  0.00     0.261 C 
BRANCH  36  37
ATOM     37  O   UNL     1      -4.434   6.578   3.238  1.00  0.00    -0.460 OA
BRANCH  37  38
ATOM     38  C   UNL     1      -5.425   7.179   3.933  1.00  0.00     0.338 C 
ATOM     39  O   UNL     1      -5.313   8.043   4.783  1.00  0.00    -0.246 OA
BRANCH  38  40
ATOM     40  C   UNL     1      -6.693   6.739   3.312  1.00  0.00     0.060 A 
ATOM     41  C   UNL     1      -6.968   5.375   3.193  1.00  0.00     0.016 A 
ATOM     42  C   UNL     1      -7.563   7.691   2.761  1.00  0.00     0.016 A 
ATOM     43  C   UNL     1      -8.131   4.963   2.544  1.00  0.00     0.010 A 
ATOM     44  C   UNL     1      -8.713   7.276   2.087  1.00  0.00     0.010 A 
ATOM     45  C   UNL     1      -9.020   5.910   2.004  1.00  0.00    -0.014 A 
BRANCH  45  46
ATOM     46  C   UNL     1     -10.373   5.477   1.588  1.00  0.00     0.031 A 
ATOM     47  C   UNL     1     -10.761   5.282   0.158  1.00  0.00     0.074 A 
ATOM     48  C   UNL     1     -11.265   5.262   2.572  1.00  0.00     0.049 A 
ATOM     49  N   UNL     1     -11.884   4.813  -0.326  1.00  0.00    -0.248 NA
ATOM     50  C   UNL     1      -9.776   5.665  -0.861  1.00  0.00     0.031 C 
ATOM     51  C   UNL     1     -10.993   5.459   3.997  1.00  0.00     0.029 A 
ATOM     52  N   UNL     1     -12.562   4.822   2.535  1.00  0.00    -0.354 N 
ATOM     53  C   UNL     1     -11.737   4.819  -1.705  1.00  0.00     0.074 A 
ATOM     54  C   UNL     1     -10.432   5.387  -1.982  1.00  0.00     0.031 C 
ATOM     55  C   UNL     1     -12.076   5.108   4.702  1.00  0.00     0.029 A 
ATOM     56  C   UNL     1     -13.126   4.690   3.778  1.00  0.00     0.049 A 
ATOM     57  H   UNL     1     -13.041   4.621   1.699  1.00  0.00     0.167 HD
ATOM     58  C   UNL     1     -12.609   4.371  -2.642  1.00  0.00     0.037 A 
ATOM     59  C   UNL     1     -14.351   4.269   4.140  1.00  0.00     0.037 A 
ATOM     60  C   UNL     1     -13.915   3.830  -2.346  1.00  0.00     0.049 A 
ATOM     61  C   UNL     1     -15.312   3.821   3.078  1.00  0.00     0.074 A 
ATOM     62  C   UNL     1     -14.854   3.317  -3.225  1.00  0.00     0.029 A 
ATOM     63  N   UNL     1     -14.476   3.749  -1.078  1.00  0.00    -0.354 N 
ATOM     64  N   UNL     1     -15.133   3.751   1.782  1.00  0.00    -0.248 NA
ATOM     65  C   UNL     1     -16.639   3.385   3.528  1.00  0.00     0.031 C 
ATOM     66  C   UNL     1     -16.003   2.986  -2.499  1.00  0.00     0.029 A 
ATOM     67  C   UNL     1     -15.759   3.228  -1.157  1.00  0.00     0.049 A 
ATOM     68  H   UNL     1     -14.027   4.022  -0.245  1.00  0.00     0.167 HD
ATOM     69  C   UNL     1     -16.315   3.244   1.261  1.00  0.00     0.074 A 
ATOM     70  C   UNL     1     -17.197   3.007   2.386  1.00  0.00     0.031 C 
ATOM     71  C   UNL     1     -16.636   3.000  -0.033  1.00  0.00     0.037 A 
BRANCH  58  72
ATOM     72  C   UNL     1     -12.188   4.433  -4.084  1.00  0.00     0.064 A 
ATOM     73  C   UNL     1     -11.181   3.596  -4.588  1.00  0.00     0.173 A 
ATOM     74  C   UNL     1     -12.857   5.269  -4.992  1.00  0.00     0.173 A 
ATOM     75  F   UNL     1     -10.510   2.776  -3.765  1.00  0.00    -0.203 F 
ATOM     76  C   UNL     1     -10.847   3.606  -5.941  1.00  0.00     0.198 A 
ATOM     77  C   UNL     1     -12.542   5.255  -6.349  1.00  0.00     0.198 A 
ATOM     78  F   UNL     1     -13.838   6.080  -4.569  1.00  0.00    -0.203 F 
ATOM     79  F   UNL     1      -9.860   2.820  -6.391  1.00  0.00    -0.200 F 
ATOM     80  C   UNL     1     -11.534   4.428  -6.821  1.00  0.00     0.200 A 
ATOM     81  F   UNL     1     -13.221   6.034  -7.202  1.00  0.00    -0.200 F 
ATOM     82  F   UNL     1     -11.225   4.423  -8.125  1.00  0.00    -0.200 F 
ENDBRANCH  58  72
BRANCH  59  83
ATOM     83  C   UNL     1     -14.697   4.209   5.582  1.00  0.00     0.064 A 
ATOM     84  C   UNL     1     -14.837   2.978   6.235  1.00  0.00     0.173 A 
ATOM     85  C   UNL     1     -14.829   5.377   6.348  1.00  0.00     0.173 A 
ATOM     86  F   UNL     1     -14.729   1.836   5.541  1.00  0.00    -0.203 F 
ATOM     87  C   UNL     1     -15.101   2.917   7.601  1.00  0.00     0.198 A 
ATOM     88  C   UNL     1     -15.063   5.314   7.719  1.00  0.00     0.198 A 
ATOM     89  F   UNL     1     -14.690   6.579   5.770  1.00  0.00    -0.203 F 
ATOM     90  F   UNL     1     -15.255   1.727   8.198  1.00  0.00    -0.200 F 
ATOM     91  C   UNL     1     -15.202   4.084   8.344  1.00  0.00     0.200 A 
ATOM     92  F   UNL     1     -15.136   6.443   8.437  1.00  0.00    -0.200 F 
ATOM     93  F   UNL     1     -15.434   4.023   9.662  1.00  0.00    -0.200 F 
ENDBRANCH  59  83
BRANCH  71  94
ATOM     94  C   UNL     1     -17.999   2.434  -0.314  1.00  0.00     0.064 A 
ATOM     95  C   UNL     1     -19.162   3.204  -0.161  1.00  0.00     0.173 A 
ATOM     96  C   UNL     1     -18.141   1.126  -0.805  1.00  0.00     0.173 A 
ATOM     97  F   UNL     1     -19.084   4.455   0.320  1.00  0.00    -0.203 F 
ATOM     98  C   UNL     1     -20.415   2.682  -0.473  1.00  0.00     0.198 A 
ATOM     99  C   UNL     1     -19.392   0.619  -1.148  1.00  0.00     0.198 A 
ATOM    100  F   UNL     1     -17.062   0.347  -0.975  1.00  0.00    -0.203 F 
ATOM    101  F   UNL     1     -21.514   3.424  -0.279  1.00  0.00    -0.200 F 
ATOM    102  C   UNL     1     -20.527   1.395  -0.977  1.00  0.00     0.200 A 
ATOM    103  F   UNL     1     -19.496  -0.619  -1.651  1.00  0.00    -0.200 F 
ATOM    104  F   UNL     1     -21.732   0.901  -1.294  1.00  0.00    -0.200 F 
ENDBRANCH  71  94
ENDBRANCH  45  46
ENDBRANCH  38  40
ENDBRANCH  37  38
ENDBRANCH  36  37
ENDBRANCH  35  36
ENDBRANCH  34  35
ENDBRANCH  33  34
ENDBRANCH  32  33
ENDBRANCH   1  32
TORSDOF 22
