REMARK SMILES CCOc1ccc(-c2cc(Cl)cc3c2O[C@@H](C(F)(F)F)C(C(=O)OCCOCCOCCOCCOC(=O)c2ccc(-c4c5nc(c(-c6c(F)c(F)c(F)c(F)c6F)c6ccc([nH]6)c(-c6c(F)c(F)c(F)c(F)c6F)c6nc(c(-c7c(F)c(F)c(F)c(F)c7F)c7ccc4[nH]7)C=C6)C=C5)cc2)=C3)cc1
REMARK SMILES IDX 29 1 28 2 27 3 26 4 25 5 24 6 22 7 23 8 21 9 8 10 9 11 14 12
REMARK SMILES IDX 10 13 13 14 15 15 11 16 12 17 102 18 16 19 7 20 4 21 5 22
REMARK SMILES IDX 104 23 6 24 103 25 3 26 2 27 1 28 17 29 18 30 19 31 20 32
REMARK SMILES IDX 30 33 31 34 32 35 33 36 34 37 35 38 36 39 37 40 38 41 39 42
REMARK SMILES IDX 40 43 101 44 41 45 100 46 42 47 43 48 44 49 94 50 45 51
REMARK SMILES IDX 99 52 93 53 95 54 46 55 98 56 92 57 91 58 47 60 79 61 59 62
REMARK SMILES IDX 78 63 60 64 63 65 77 66 96 67 61 68 62 69 76 71 97 72 64 73
REMARK SMILES IDX 48 74 49 75 57 76 50 77 51 78 55 79 58 80 52 81 53 82 56 83
REMARK SMILES IDX 54 84 80 85 81 86 89 87 82 88 83 89 87 90 90 91 84 92 85 93
REMARK SMILES IDX 88 94 86 95 65 96 66 97 74 98 67 99 68 100 72 101 75 102
REMARK SMILES IDX 69 103 70 104 73 105 71 106
REMARK H PARENT 95 59 63 70
REMARK Flexibility Score: inf
ROOT
ATOM      1  C   UNL     1      10.767   6.699   1.225  1.00  0.00     0.188 C 
ENDROOT
BRANCH   1   2
ATOM      2  C   UNL     1      10.460   5.452   2.065  1.00  0.00     0.188 C 
BRANCH   2   3
ATOM      3  O   UNL     1      11.527   5.057   2.924  1.00  0.00    -0.376 OA
BRANCH   3   4
ATOM      4  C   UNL     1      12.411   4.042   2.453  1.00  0.00     0.202 C 
BRANCH   4   5
ATOM      5  C   UNL     1      13.018   4.233   1.058  1.00  0.00     0.261 C 
BRANCH   5   6
ATOM      6  O   UNL     1      11.997   4.089   0.045  1.00  0.00    -0.460 OA
BRANCH   6   7
ATOM      7  C   UNL     1      11.788   2.840  -0.401  1.00  0.00     0.338 C 
ATOM      8  O   UNL     1      12.499   1.878  -0.139  1.00  0.00    -0.246 OA
BRANCH   7   9
ATOM      9  C   UNL     1      10.488   2.696  -1.100  1.00  0.00     0.087 C 
ATOM     10  C   UNL     1       7.107   3.599   1.133  1.00  0.00     0.026 A 
ATOM     11  C   UNL     1       7.428   3.368   2.490  1.00  0.00     0.033 A 
ATOM     12  C   UNL     1       8.109   3.260   0.202  1.00  0.00     0.135 A 
ATOM     13  C   UNL     1       8.482   2.524   2.838  1.00  0.00     0.042 A 
ATOM     14  C   UNL     1       9.004   2.231   0.525  1.00  0.00     0.019 A 
ATOM     15  O   UNL     1       8.380   4.082  -0.888  1.00  0.00    -0.475 OA
ATOM     16  Cl  UNL     1       8.827   2.230   4.494  1.00  0.00    -0.084 Cl
ATOM     17  C   UNL     1       9.201   1.863   1.851  1.00  0.00     0.032 A 
ATOM     18  C   UNL     1       9.824   1.656  -0.562  1.00  0.00     0.027 C 
ATOM     19  C   UNL     1       9.601   3.777  -1.694  1.00  0.00     0.316 C 
BRANCH  10  20
ATOM     20  C   UNL     1       5.636   3.506   0.829  1.00  0.00    -0.014 A 
ATOM     21  C   UNL     1       2.909   2.667   0.814  1.00  0.00     0.119 A 
ATOM     22  C   UNL     1       3.316   3.731   1.615  1.00  0.00     0.047 A 
ATOM     23  C   UNL     1       3.826   2.078  -0.045  1.00  0.00     0.047 A 
ATOM     24  C   UNL     1       4.661   4.147   1.621  1.00  0.00     0.013 A 
ATOM     25  C   UNL     1       5.169   2.493  -0.037  1.00  0.00     0.013 A 
BRANCH  21  26
ATOM     26  O   UNL     1       1.586   2.321   0.825  1.00  0.00    -0.494 OA
BRANCH  26  27
ATOM     27  C   UNL     1       1.314   0.978   1.252  1.00  0.00     0.226 C 
ATOM     28  C   UNL     1       1.053   0.058   0.069  1.00  0.00     0.049 C 
ENDBRANCH  26  27
ENDBRANCH  21  26
ENDBRANCH  10  20
BRANCH  19  29
ATOM     29  C   UNL     1      10.291   4.999  -2.353  1.00  0.00     0.430 C 
ATOM     30  F   UNL     1      10.901   4.607  -3.505  1.00  0.00    -0.167 F 
ATOM     31  F   UNL     1       9.388   5.947  -2.702  1.00  0.00    -0.167 F 
ATOM     32  F   UNL     1      11.235   5.609  -1.623  1.00  0.00    -0.167 F 
ENDBRANCH  19  29
ENDBRANCH   7   9
ENDBRANCH   6   7
ENDBRANCH   5   6
ENDBRANCH   4   5
ENDBRANCH   3   4
ENDBRANCH   2   3
ENDBRANCH   1   2
BRANCH   1  33
ATOM     33  O   UNL     1      12.123   7.093   1.301  1.00  0.00    -0.377 OA
BRANCH  33  34
ATOM     34  C   UNL     1      12.518   7.871   2.427  1.00  0.00     0.188 C 
BRANCH  34  35
ATOM     35  C   UNL     1      11.720   7.849   3.751  1.00  0.00     0.188 C 
BRANCH  35  36
ATOM     36  O   UNL     1      10.307   7.950   3.593  1.00  0.00    -0.376 OA
BRANCH  36  37
ATOM     37  C   UNL     1       9.701   9.183   3.955  1.00  0.00     0.202 C 
BRANCH  37  38
ATOM     38  C   UNL     1       9.818  10.268   2.878  1.00  0.00     0.261 C 
BRANCH  38  39
ATOM     39  O   UNL     1      11.162  10.678   2.584  1.00  0.00    -0.460 OA
BRANCH  39  40
ATOM     40  C   UNL     1      11.882  11.198   3.600  1.00  0.00     0.338 C 
ATOM     41  O   UNL     1      11.500  11.437   4.734  1.00  0.00    -0.246 OA
BRANCH  40  42
ATOM     42  C   UNL     1      13.290  11.258   3.169  1.00  0.00     0.060 A 
ATOM     43  C   UNL     1      14.266  10.650   3.969  1.00  0.00     0.016 A 
ATOM     44  C   UNL     1      13.640  11.887   1.971  1.00  0.00     0.016 A 
ATOM     45  C   UNL     1      15.608  10.712   3.594  1.00  0.00     0.010 A 
ATOM     46  C   UNL     1      14.984  11.965   1.606  1.00  0.00     0.010 A 
ATOM     47  C   UNL     1      15.974  11.411   2.436  1.00  0.00    -0.014 A 
BRANCH  47  48
ATOM     48  C   UNL     1      17.392  11.772   2.214  1.00  0.00     0.031 A 
ATOM     49  C   UNL     1      17.866  13.101   2.731  1.00  0.00     0.074 A 
ATOM     50  C   UNL     1      18.237  10.950   1.571  1.00  0.00     0.049 A 
ATOM     51  N   UNL     1      19.044  13.662   2.638  1.00  0.00    -0.248 NA
ATOM     52  C   UNL     1      16.868  13.911   3.449  1.00  0.00     0.031 C 
ATOM     53  C   UNL     1      17.904   9.624   1.059  1.00  0.00     0.029 A 
ATOM     54  N   UNL     1      19.557  11.123   1.238  1.00  0.00    -0.354 N 
ATOM     55  C   UNL     1      18.927  14.886   3.281  1.00  0.00     0.074 A 
ATOM     56  C   UNL     1      17.558  15.004   3.731  1.00  0.00     0.031 C 
ATOM     57  C   UNL     1      18.995   9.100   0.472  1.00  0.00     0.029 A 
ATOM     58  C   UNL     1      20.091  10.067   0.544  1.00  0.00     0.049 A 
ATOM     59  H   UNL     1      20.072  11.927   1.476  1.00  0.00     0.167 HD
ATOM     60  C   UNL     1      19.878  15.827   3.485  1.00  0.00     0.037 A 
ATOM     61  C   UNL     1      21.321   9.913   0.017  1.00  0.00     0.037 A 
ATOM     62  C   UNL     1      21.235  15.715   3.025  1.00  0.00     0.049 A 
ATOM     63  C   UNL     1      22.337  11.016   0.176  1.00  0.00     0.074 A 
ATOM     64  C   UNL     1      22.284  16.599   3.201  1.00  0.00     0.029 A 
ATOM     65  N   UNL     1      21.725  14.653   2.277  1.00  0.00    -0.354 N 
ATOM     66  N   UNL     1      22.236  12.153   0.822  1.00  0.00    -0.248 NA
ATOM     67  C   UNL     1      23.640  10.813  -0.474  1.00  0.00     0.031 C 
ATOM     68  C   UNL     1      23.394  16.099   2.512  1.00  0.00     0.029 A 
ATOM     69  C   UNL     1      23.053  14.876   1.954  1.00  0.00     0.049 A 
ATOM     70  H   UNL     1      21.206  13.859   2.016  1.00  0.00     0.167 HD
ATOM     71  C   UNL     1      23.468  12.782   0.688  1.00  0.00     0.074 A 
ATOM     72  C   UNL     1      24.303  11.898  -0.099  1.00  0.00     0.031 C 
ATOM     73  C   UNL     1      23.873  13.981   1.177  1.00  0.00     0.037 A 
BRANCH  60  74
ATOM     74  C   UNL     1      19.459  17.075   4.206  1.00  0.00     0.064 A 
ATOM     75  C   UNL     1      19.141  17.067   5.572  1.00  0.00     0.173 A 
ATOM     76  C   UNL     1      19.360  18.291   3.515  1.00  0.00     0.173 A 
ATOM     77  F   UNL     1      19.200  15.925   6.274  1.00  0.00    -0.203 F 
ATOM     78  C   UNL     1      18.703  18.224   6.211  1.00  0.00     0.198 A 
ATOM     79  C   UNL     1      18.951  19.452   4.164  1.00  0.00     0.198 A 
ATOM     80  F   UNL     1      19.652  18.352   2.207  1.00  0.00    -0.203 F 
ATOM     81  F   UNL     1      18.343  18.180   7.502  1.00  0.00    -0.200 F 
ATOM     82  C   UNL     1      18.612  19.416   5.508  1.00  0.00     0.200 A 
ATOM     83  F   UNL     1      18.872  20.605   3.485  1.00  0.00    -0.200 F 
ATOM     84  F   UNL     1      18.186  20.528   6.123  1.00  0.00    -0.200 F 
ENDBRANCH  60  74
BRANCH  61  85
ATOM     85  C   UNL     1      21.672   8.661  -0.701  1.00  0.00     0.064 A 
ATOM     86  C   UNL     1      22.591   7.755  -0.154  1.00  0.00     0.173 A 
ATOM     87  C   UNL     1      21.114   8.351  -1.949  1.00  0.00     0.173 A 
ATOM     88  F   UNL     1      23.174   8.022   1.024  1.00  0.00    -0.203 F 
ATOM     89  C   UNL     1      22.947   6.591  -0.834  1.00  0.00     0.198 A 
ATOM     90  C   UNL     1      21.452   7.176  -2.617  1.00  0.00     0.198 A 
ATOM     91  F   UNL     1      20.236   9.190  -2.519  1.00  0.00    -0.203 F 
ATOM     92  F   UNL     1      23.859   5.763  -0.307  1.00  0.00    -0.200 F 
ATOM     93  C   UNL     1      22.373   6.300  -2.062  1.00  0.00     0.200 A 
ATOM     94  F   UNL     1      20.891   6.894  -3.801  1.00  0.00    -0.200 F 
ATOM     95  F   UNL     1      22.714   5.180  -2.714  1.00  0.00    -0.200 F 
ENDBRANCH  61  85
BRANCH  73  96
ATOM     96  C   UNL     1      25.293  14.391   0.915  1.00  0.00     0.064 A 
ATOM     97  C   UNL     1      25.723  14.794  -0.358  1.00  0.00     0.173 A 
ATOM     98  C   UNL     1      26.224  14.429   1.965  1.00  0.00     0.173 A 
ATOM     99  F   UNL     1      24.876  14.762  -1.398  1.00  0.00    -0.203 F 
ATOM    100  C   UNL     1      27.038  15.197  -0.574  1.00  0.00     0.198 A 
ATOM    101  C   UNL     1      27.530  14.862   1.751  1.00  0.00     0.198 A 
ATOM    102  F   UNL     1      25.862  14.062   3.203  1.00  0.00    -0.203 F 
ATOM    103  F   UNL     1      27.439  15.536  -1.808  1.00  0.00    -0.200 F 
ATOM    104  C   UNL     1      27.938  15.239   0.481  1.00  0.00     0.200 A 
ATOM    105  F   UNL     1      28.393  14.916   2.775  1.00  0.00    -0.200 F 
ATOM    106  F   UNL     1      29.200  15.637   0.272  1.00  0.00    -0.200 F 
ENDBRANCH  73  96
ENDBRANCH  47  48
ENDBRANCH  40  42
ENDBRANCH  39  40
ENDBRANCH  38  39
ENDBRANCH  37  38
ENDBRANCH  36  37
ENDBRANCH  35  36
ENDBRANCH  34  35
ENDBRANCH  33  34
ENDBRANCH   1  33
TORSDOF 24
