REMARK SMILES O=C(CNC(=O)[C@@H](CC1=c2ccccc2=NC1)N1C(=O)N=C2C=CC=C[C@H]2C1=O)OCCOCCOCCOCCOC(=O)c1ccc(-c2c3nc(c(-c4c(F)c(F)c(F)c(F)c4F)c4ccc([nH]4)c(-c4c(F)c(F)c(F)c(F)c4F)c4nc(c(-c5c(F)c(F)c(F)c(F)c5F)c5ccc2[nH]5)C=C4)C=C3)cc1
REMARK SMILES IDX 35 1 34 2 33 3 32 4 31 5 30 6 2 7 1 8 3 9 4 10 5 11 6 13
REMARK SMILES IDX 7 14 8 15 9 16 10 17 17 18 11 19 15 20 16 21 12 22 14 23
REMARK SMILES IDX 13 24 18 25 19 26 28 27 21 28 20 29 27 30 29 31 22 32 26 33
REMARK SMILES IDX 23 34 25 35 24 36 36 37 37 38 38 39 39 40 40 41 41 42 42 43
REMARK SMILES IDX 43 44 44 45 45 46 46 47 107 48 47 49 106 50 48 51 49 52
REMARK SMILES IDX 50 53 100 54 51 55 105 56 99 57 101 58 52 59 104 60 98 61
REMARK SMILES IDX 97 62 53 64 85 65 65 66 84 67 66 68 69 69 83 70 102 71 67 72
REMARK SMILES IDX 68 73 82 75 103 76 70 77 54 78 55 79 63 80 56 81 57 82 61 83
REMARK SMILES IDX 64 84 58 85 59 86 62 87 60 88 86 89 87 90 95 91 88 92 89 93
REMARK SMILES IDX 93 94 96 95 90 96 91 97 94 98 92 99 71 100 72 101 80 102
REMARK SMILES IDX 73 103 74 104 78 105 81 106 75 107 76 108 79 109 77 110
REMARK H PARENT 4 12 101 63 69 74
REMARK Flexibility Score: inf
ROOT
ATOM      1  C   UNL     1       2.447   0.194  -2.396  1.00  0.00     0.188 C 
ENDROOT
BRANCH   1   2
ATOM      2  C   UNL     1       2.341  -0.186  -0.192  1.00  0.00     0.188 C 
BRANCH   2   3
ATOM      3  O   UNL     1       3.472   0.105   0.847  1.00  0.00    -0.376 OA
BRANCH   3   4
ATOM      4  C   UNL     1       4.310  -0.931   1.389  1.00  0.00     0.202 C 
BRANCH   4   5
ATOM      5  C   UNL     1       3.797  -1.456   2.710  1.00  0.00     0.261 C 
BRANCH   5   6
ATOM      6  O   UNL     1       3.420  -0.377   3.582  1.00  0.00    -0.462 OA
BRANCH   6   7
ATOM      7  C   UNL     1       2.473   0.462   3.068  1.00  0.00     0.325 C 
ATOM      8  O   UNL     1       1.280   0.178   3.051  1.00  0.00    -0.250 OA
BRANCH   7   9
ATOM      9  C   UNL     1       3.053   1.847   2.653  1.00  0.00     0.238 C 
BRANCH   9  10
ATOM     10  N   UNL     1       4.513   2.021   2.474  1.00  0.00    -0.343 N 
ATOM     11  C   UNL     1       5.413   2.318   1.505  1.00  0.00     0.244 C 
ATOM     12  H   UNL     1       4.976   1.874   3.330  1.00  0.00     0.164 HD
ATOM     13  O   UNL     1       6.478   2.720   2.025  1.00  0.00    -0.273 OA
BRANCH  11  14
ATOM     14  C   UNL     1       5.406   2.207  -0.099  1.00  0.00     0.188 C 
BRANCH  14  15
ATOM     15  C   UNL     1       5.304   0.844  -0.906  1.00  0.00     0.069 C 
BRANCH  15  16
ATOM     16  C   UNL     1       3.967   0.232  -1.214  1.00  0.00    -0.037 C 
ATOM     17  C   UNL     1       3.369  -1.302  -1.424  1.00  0.00     0.001 A 
ATOM     18  C   UNL     1       2.402   1.513  -1.047  1.00  0.00     0.174 C 
ATOM     19  C   UNL     1       3.774  -2.687  -1.450  1.00  0.00     0.010 A 
ATOM     20  C   UNL     1       1.398  -1.172  -1.555  1.00  0.00     0.065 A 
ATOM     21  N   UNL     1       0.839   0.285  -1.303  1.00  0.00    -0.280 NA
ATOM     22  C   UNL     1       2.848  -3.670  -1.476  1.00  0.00     0.001 A 
ATOM     23  C   UNL     1       0.658  -2.426  -1.607  1.00  0.00     0.028 A 
ATOM     24  C   UNL     1       1.387  -3.547  -1.524  1.00  0.00     0.002 A 
ENDBRANCH  15  16
ENDBRANCH  14  15
BRANCH  14  25
ATOM     25  N   UNL     1       5.443   3.389  -1.062  1.00  0.00    -0.249 N 
ATOM     26  C   UNL     1       6.670   3.615  -1.712  1.00  0.00     0.351 C 
ATOM     27  C   UNL     1       4.319   4.145  -1.367  1.00  0.00     0.244 C 
ATOM     28  N   UNL     1       6.666   4.157  -2.958  1.00  0.00    -0.197 NA
ATOM     29  O   UNL     1       7.732   3.167  -1.291  1.00  0.00    -0.246 OA
ATOM     30  C   UNL     1       4.435   5.110  -2.573  1.00  0.00     0.151 C 
ATOM     31  O   UNL     1       3.309   4.127  -0.661  1.00  0.00    -0.273 OA
ATOM     32  C   UNL     1       5.598   4.688  -3.441  1.00  0.00     0.062 C 
ATOM     33  C   UNL     1       3.187   5.332  -3.414  1.00  0.00    -0.007 C 
ATOM     34  C   UNL     1       5.541   4.749  -4.917  1.00  0.00     0.025 C 
ATOM     35  C   UNL     1       3.180   5.280  -4.758  1.00  0.00    -0.003 C 
ATOM     36  C   UNL     1       4.362   4.949  -5.508  1.00  0.00     0.002 C 
ENDBRANCH  14  25
ENDBRANCH  11  14
ENDBRANCH   9  10
ENDBRANCH   7   9
ENDBRANCH   6   7
ENDBRANCH   5   6
ENDBRANCH   4   5
ENDBRANCH   3   4
ENDBRANCH   2   3
ENDBRANCH   1   2
BRANCH   1  37
ATOM     37  O   UNL     1       2.966  -0.734  -3.543  1.00  0.00    -0.377 OA
BRANCH  37  38
ATOM     38  C   UNL     1       4.345  -0.563  -3.933  1.00  0.00     0.188 C 
BRANCH  38  39
ATOM     39  C   UNL     1       4.869   0.750  -4.557  1.00  0.00     0.188 C 
BRANCH  39  40
ATOM     40  O   UNL     1       4.021   1.863  -4.746  1.00  0.00    -0.376 OA
BRANCH  40  41
ATOM     41  C   UNL     1       2.774   1.695  -5.402  1.00  0.00     0.202 C 
BRANCH  41  42
ATOM     42  C   UNL     1       2.697   0.956  -6.736  1.00  0.00     0.261 C 
BRANCH  42  43
ATOM     43  O   UNL     1       3.184  -0.388  -6.688  1.00  0.00    -0.460 OA
BRANCH  43  44
ATOM     44  C   UNL     1       4.354  -0.646  -7.327  1.00  0.00     0.338 C 
ATOM     45  O   UNL     1       5.058   0.136  -7.937  1.00  0.00    -0.246 OA
BRANCH  44  46
ATOM     46  C   UNL     1       4.745  -2.025  -6.960  1.00  0.00     0.060 A 
ATOM     47  C   UNL     1       3.798  -3.046  -7.056  1.00  0.00     0.016 A 
ATOM     48  C   UNL     1       6.005  -2.267  -6.384  1.00  0.00     0.016 A 
ATOM     49  C   UNL     1       4.117  -4.320  -6.601  1.00  0.00     0.010 A 
ATOM     50  C   UNL     1       6.314  -3.541  -5.899  1.00  0.00     0.010 A 
ATOM     51  C   UNL     1       5.383  -4.582  -6.045  1.00  0.00    -0.014 A 
BRANCH  51  52
ATOM     52  C   UNL     1       5.810  -5.995  -5.949  1.00  0.00     0.031 A 
ATOM     53  C   UNL     1       5.696  -6.807  -4.703  1.00  0.00     0.074 A 
ATOM     54  C   UNL     1       6.229  -6.550  -7.101  1.00  0.00     0.049 A 
ATOM     55  N   UNL     1       5.869  -8.096  -4.552  1.00  0.00    -0.248 NA
ATOM     56  C   UNL     1       5.350  -6.095  -3.467  1.00  0.00     0.031 C 
ATOM     57  C   UNL     1       6.367  -5.826  -8.368  1.00  0.00     0.029 A 
ATOM     58  N   UNL     1       6.577  -7.836  -7.411  1.00  0.00    -0.354 N 
ATOM     59  C   UNL     1       5.627  -8.361  -3.213  1.00  0.00     0.074 A 
ATOM     60  C   UNL     1       5.340  -7.087  -2.581  1.00  0.00     0.031 C 
ATOM     61  C   UNL     1       6.725  -6.686  -9.328  1.00  0.00     0.029 A 
ATOM     62  C   UNL     1       6.877  -8.010  -8.738  1.00  0.00     0.049 A 
ATOM     63  H   UNL     1       6.608  -8.564  -6.748  1.00  0.00     0.167 HD
ATOM     64  C   UNL     1       5.633  -9.565  -2.588  1.00  0.00     0.037 A 
ATOM     65  C   UNL     1       7.229  -9.118  -9.413  1.00  0.00     0.037 A 
ATOM     66  C   UNL     1       5.944 -10.816  -3.242  1.00  0.00     0.049 A 
ATOM     67  C   UNL     1       7.279 -10.423  -8.677  1.00  0.00     0.074 A 
ATOM     68  C   UNL     1       5.951 -12.091  -2.701  1.00  0.00     0.029 A 
ATOM     69  N   UNL     1       6.318 -10.950  -4.573  1.00  0.00    -0.354 N 
ATOM     70  N   UNL     1       6.976 -10.677  -7.428  1.00  0.00    -0.248 NA
ATOM     71  C   UNL     1       7.713 -11.596  -9.445  1.00  0.00     0.031 C 
ATOM     72  C   UNL     1       6.392 -12.983  -3.682  1.00  0.00     0.029 A 
ATOM     73  C   UNL     1       6.593 -12.280  -4.858  1.00  0.00     0.049 A 
ATOM     74  H   UNL     1       6.379 -10.210  -5.220  1.00  0.00     0.167 HD
ATOM     75  C   UNL     1       7.163 -12.041  -7.262  1.00  0.00     0.074 A 
ATOM     76  C   UNL     1       7.579 -12.563  -8.548  1.00  0.00     0.031 C 
ATOM     77  C   UNL     1       7.009 -12.789  -6.143  1.00  0.00     0.037 A 
BRANCH  64  78
ATOM     78  C   UNL     1       5.286  -9.614  -1.126  1.00  0.00     0.064 A 
ATOM     79  C   UNL     1       3.976  -9.383  -0.678  1.00  0.00     0.173 A 
ATOM     80  C   UNL     1       6.239 -10.013  -0.176  1.00  0.00     0.173 A 
ATOM     81  F   UNL     1       3.026  -8.994  -1.541  1.00  0.00    -0.203 F 
ATOM     82  C   UNL     1       3.638  -9.543   0.664  1.00  0.00     0.198 A 
ATOM     83  C   UNL     1       5.890 -10.200   1.160  1.00  0.00     0.198 A 
ATOM     84  F   UNL     1       7.505 -10.258  -0.549  1.00  0.00    -0.203 F 
ATOM     85  F   UNL     1       2.385  -9.291   1.071  1.00  0.00    -0.200 F 
ATOM     86  C   UNL     1       4.591  -9.963   1.579  1.00  0.00     0.200 A 
ATOM     87  F   UNL     1       6.809 -10.624   2.039  1.00  0.00    -0.200 F 
ATOM     88  F   UNL     1       4.257 -10.138   2.865  1.00  0.00    -0.200 F 
ENDBRANCH  64  78
BRANCH  65  89
ATOM     89  C   UNL     1       7.524  -9.023 -10.864  1.00  0.00     0.064 A 
ATOM     90  C   UNL     1       6.689  -9.625 -11.813  1.00  0.00     0.173 A 
ATOM     91  C   UNL     1       8.626  -8.290 -11.334  1.00  0.00     0.173 A 
ATOM     92  F   UNL     1       5.628 -10.341 -11.413  1.00  0.00    -0.203 F 
ATOM     93  C   UNL     1       6.953  -9.514 -13.176  1.00  0.00     0.198 A 
ATOM     94  C   UNL     1       8.869  -8.149 -12.697  1.00  0.00     0.198 A 
ATOM     95  F   UNL     1       9.448  -7.681 -10.466  1.00  0.00    -0.203 F 
ATOM     96  F   UNL     1       6.161 -10.133 -14.061  1.00  0.00    -0.200 F 
ATOM     97  C   UNL     1       8.037  -8.768 -13.617  1.00  0.00     0.200 A 
ATOM     98  F   UNL     1       9.902  -7.407 -13.117  1.00  0.00    -0.200 F 
ATOM     99  F   UNL     1       8.282  -8.649 -14.928  1.00  0.00    -0.200 F 
ENDBRANCH  65  89
BRANCH  77 100
ATOM    100  C   UNL     1       7.282 -14.263  -6.255  1.00  0.00     0.064 A 
ATOM    101  C   UNL     1       8.583 -14.756  -6.438  1.00  0.00     0.173 A 
ATOM    102  C   UNL     1       6.242 -15.194  -6.114  1.00  0.00     0.173 A 
ATOM    103  F   UNL     1       9.611 -13.908  -6.595  1.00  0.00    -0.203 F 
ATOM    104  C   UNL     1       8.829 -16.125  -6.495  1.00  0.00     0.198 A 
ATOM    105  C   UNL     1       6.497 -16.563  -6.133  1.00  0.00     0.198 A 
ATOM    106  F   UNL     1       4.980 -14.778  -5.931  1.00  0.00    -0.203 F 
ATOM    107  F   UNL     1      10.073 -16.571  -6.715  1.00  0.00    -0.200 F 
ATOM    108  C   UNL     1       7.789 -17.027  -6.329  1.00  0.00     0.200 A 
ATOM    109  F   UNL     1       5.494 -17.432  -5.954  1.00  0.00    -0.200 F 
ATOM    110  F   UNL     1       8.031 -18.344  -6.362  1.00  0.00    -0.200 F 
ENDBRANCH  77 100
ENDBRANCH  51  52
ENDBRANCH  44  46
ENDBRANCH  43  44
ENDBRANCH  42  43
ENDBRANCH  41  42
ENDBRANCH  40  41
ENDBRANCH  39  40
ENDBRANCH  38  39
ENDBRANCH  37  38
ENDBRANCH   1  37
TORSDOF 25
