REMARK SMILES Cc1ccc(-c2nc(C)cc(N3CCCC[C@H]3C(=O)OCCOCCOCCOCCOC(=O)c3ccc(-c4c5nc(c(-c6c(F)c(F)c(F)c(F)c6F)c6ccc([nH]6)c(-c6c(F)c(F)c(F)c(F)c6F)c6nc(c(-c7c(F)c(F)c(F)c(F)c7F)c7ccc4[nH]7)C=C6)C=C5)cc3)n2)cc1
REMARK SMILES IDX 26 1 25 2 24 3 23 4 22 5 21 6 20 7 18 8 19 9 17 10 12 11
REMARK SMILES IDX 13 12 14 13 16 14 15 15 11 16 6 17 7 18 98 19 8 20 9 21
REMARK SMILES IDX 10 22 5 23 1 24 2 25 3 26 100 27 4 28 99 29 27 30 28 31
REMARK SMILES IDX 29 32 30 33 31 34 32 35 33 36 34 37 35 38 36 39 97 40 37 41
REMARK SMILES IDX 96 42 38 43 39 44 40 45 90 46 41 47 95 48 89 49 91 50 42 51
REMARK SMILES IDX 94 52 88 53 87 54 43 56 75 57 55 58 74 59 56 60 59 61 73 62
REMARK SMILES IDX 92 63 57 64 58 65 72 67 93 68 60 69 44 70 45 71 53 72 46 73
REMARK SMILES IDX 47 74 51 75 54 76 48 77 49 78 52 79 50 80 76 81 77 82 85 83
REMARK SMILES IDX 78 84 79 85 83 86 86 87 80 88 81 89 84 90 82 91 61 92 62 93
REMARK SMILES IDX 70 94 63 95 64 96 68 97 71 98 65 99 66 100 69 101 67 102
REMARK H PARENT 91 55 59 66
REMARK Flexibility Score: inf
ROOT
ATOM      1  O   UNL     1      -7.920   1.179  -4.772  1.00  0.00    -0.377 OA
ENDROOT
BRANCH   1   2
ATOM      2  C   UNL     1      -6.887   0.837  -3.861  1.00  0.00     0.188 C 
BRANCH   2   3
ATOM      3  C   UNL     1      -7.028  -0.366  -2.888  1.00  0.00     0.188 C 
BRANCH   3   4
ATOM      4  O   UNL     1      -8.289  -0.832  -2.430  1.00  0.00    -0.376 OA
BRANCH   4   5
ATOM      5  C   UNL     1      -9.207   0.169  -2.044  1.00  0.00     0.202 C 
BRANCH   5   6
ATOM      6  C   UNL     1      -8.756   1.118  -0.935  1.00  0.00     0.261 C 
BRANCH   6   7
ATOM      7  O   UNL     1      -7.702   1.979  -1.383  1.00  0.00    -0.462 OA
BRANCH   7   8
ATOM      8  C   UNL     1      -6.893   2.531  -0.443  1.00  0.00     0.328 C 
ATOM      9  O   UNL     1      -7.187   2.634   0.741  1.00  0.00    -0.250 OA
BRANCH   8  10
ATOM     10  C   UNL     1      -5.470   2.780  -1.016  1.00  0.00     0.193 C 
ATOM     11  N   UNL     1      -4.901   1.524  -1.551  1.00  0.00    -0.343 N 
ATOM     12  C   UNL     1      -3.969   1.496  -2.689  1.00  0.00     0.119 C 
ATOM     13  C   UNL     1      -4.087   2.622  -3.707  1.00  0.00     0.022 C 
ATOM     14  C   UNL     1      -5.390   3.971  -1.978  1.00  0.00     0.037 C 
ATOM     15  C   UNL     1      -5.129   3.692  -3.450  1.00  0.00     0.005 C 
BRANCH  11  16
ATOM     16  C   UNL     1      -4.523   0.636  -0.533  1.00  0.00     0.133 A 
ATOM     17  C   UNL     1      -2.765  -0.257   0.625  1.00  0.00     0.161 A 
ATOM     18  N   UNL     1      -3.513  -0.948   1.493  1.00  0.00    -0.233 NA
ATOM     19  N   UNL     1      -3.225   0.504  -0.367  1.00  0.00    -0.211 NA
ATOM     20  C   UNL     1      -4.844  -0.807   1.328  1.00  0.00     0.043 A 
ATOM     21  C   UNL     1      -5.745  -1.474   2.328  1.00  0.00     0.067 C 
ATOM     22  C   UNL     1      -5.386  -0.031   0.315  1.00  0.00     0.070 A 
BRANCH  17  23
ATOM     23  C   UNL     1      -1.316  -0.253   0.649  1.00  0.00     0.019 A 
ATOM     24  C   UNL     1       2.916  -0.084  -0.087  1.00  0.00     0.044 C 
ATOM     25  C   UNL     1       1.445  -0.134   0.180  1.00  0.00    -0.051 A 
ATOM     26  C   UNL     1       0.794  -1.370   0.316  1.00  0.00     0.004 A 
ATOM     27  C   UNL     1       0.713   1.048   0.281  1.00  0.00     0.004 A 
ATOM     28  C   UNL     1      -0.578  -1.431   0.556  1.00  0.00     0.012 A 
ATOM     29  C   UNL     1      -0.651   0.986   0.519  1.00  0.00     0.012 A 
ENDBRANCH  17  23
ENDBRANCH  11  16
ENDBRANCH   8  10
ENDBRANCH   7   8
ENDBRANCH   6   7
ENDBRANCH   5   6
ENDBRANCH   4   5
ENDBRANCH   3   4
ENDBRANCH   2   3
ENDBRANCH   1   2
BRANCH   1  30
ATOM     30  C   UNL     1      -7.830   0.441  -5.971  1.00  0.00     0.188 C 
BRANCH  30  31
ATOM     31  C   UNL     1      -7.961  -1.011  -5.611  1.00  0.00     0.188 C 
BRANCH  31  32
ATOM     32  O   UNL     1      -6.679  -1.604  -5.645  1.00  0.00    -0.376 OA
BRANCH  32  33
ATOM     33  C   UNL     1      -6.591  -2.682  -6.578  1.00  0.00     0.202 C 
BRANCH  33  34
ATOM     34  C   UNL     1      -7.142  -2.352  -7.995  1.00  0.00     0.261 C 
BRANCH  34  35
ATOM     35  O   UNL     1      -8.595  -2.555  -8.038  1.00  0.00    -0.460 OA
BRANCH  35  36
ATOM     36  C   UNL     1      -9.327  -1.623  -8.739  1.00  0.00     0.338 C 
ATOM     37  O   UNL     1      -8.936  -1.066  -9.737  1.00  0.00    -0.246 OA
BRANCH  36  38
ATOM     38  C   UNL     1     -10.510  -1.118  -7.915  1.00  0.00     0.060 A 
ATOM     39  C   UNL     1     -10.984   0.178  -8.178  1.00  0.00     0.016 A 
ATOM     40  C   UNL     1     -10.830  -1.688  -6.683  1.00  0.00     0.016 A 
ATOM     41  C   UNL     1     -11.515   0.981  -7.141  1.00  0.00     0.010 A 
ATOM     42  C   UNL     1     -11.231  -0.845  -5.633  1.00  0.00     0.010 A 
ATOM     43  C   UNL     1     -11.508   0.526  -5.819  1.00  0.00    -0.014 A 
BRANCH  43  44
ATOM     44  C   UNL     1     -11.522   1.429  -4.614  1.00  0.00     0.031 A 
ATOM     45  C   UNL     1     -12.199   1.004  -3.318  1.00  0.00     0.074 A 
ATOM     46  C   UNL     1     -10.649   2.480  -4.546  1.00  0.00     0.049 A 
ATOM     47  N   UNL     1     -12.148   1.641  -2.187  1.00  0.00    -0.248 NA
ATOM     48  C   UNL     1     -12.988  -0.214  -3.181  1.00  0.00     0.031 C 
ATOM     49  C   UNL     1     -10.084   3.044  -3.313  1.00  0.00     0.029 A 
ATOM     50  N   UNL     1      -9.937   3.192  -5.540  1.00  0.00    -0.354 N 
ATOM     51  C   UNL     1     -12.592   0.828  -1.157  1.00  0.00     0.074 A 
ATOM     52  C   UNL     1     -13.170  -0.293  -1.856  1.00  0.00     0.031 C 
ATOM     53  C   UNL     1      -9.203   4.013  -3.569  1.00  0.00     0.029 A 
ATOM     54  C   UNL     1      -9.435   4.377  -4.932  1.00  0.00     0.049 A 
ATOM     55  H   UNL     1      -9.813   2.919  -6.478  1.00  0.00     0.167 HD
ATOM     56  C   UNL     1     -12.322   1.174   0.149  1.00  0.00     0.037 A 
ATOM     57  C   UNL     1      -9.896   5.621  -5.257  1.00  0.00     0.037 A 
ATOM     58  C   UNL     1     -11.799   2.561   0.244  1.00  0.00     0.049 A 
ATOM     59  C   UNL     1     -10.656   6.288  -4.120  1.00  0.00     0.074 A 
ATOM     60  C   UNL     1     -10.696   3.174   0.826  1.00  0.00     0.029 A 
ATOM     61  N   UNL     1     -12.422   3.571  -0.496  1.00  0.00    -0.354 N 
ATOM     62  N   UNL     1     -11.159   5.603  -3.119  1.00  0.00    -0.248 NA
ATOM     63  C   UNL     1     -10.856   7.722  -3.934  1.00  0.00     0.031 C 
ATOM     64  C   UNL     1     -10.591   4.500   0.321  1.00  0.00     0.029 A 
ATOM     65  C   UNL     1     -11.697   4.743  -0.475  1.00  0.00     0.049 A 
ATOM     66  H   UNL     1     -13.275   3.459  -0.975  1.00  0.00     0.167 HD
ATOM     67  C   UNL     1     -11.692   6.436  -2.182  1.00  0.00     0.074 A 
ATOM     68  C   UNL     1     -11.502   7.757  -2.750  1.00  0.00     0.031 C 
ATOM     69  C   UNL     1     -12.249   5.973  -1.022  1.00  0.00     0.037 A 
BRANCH  56  70
ATOM     70  C   UNL     1     -12.382   0.241   1.390  1.00  0.00     0.064 A 
ATOM     71  C   UNL     1     -11.974   0.688   2.677  1.00  0.00     0.173 A 
ATOM     72  C   UNL     1     -12.758  -1.121   1.386  1.00  0.00     0.173 A 
ATOM     73  F   UNL     1     -11.641   1.963   2.908  1.00  0.00    -0.203 F 
ATOM     74  C   UNL     1     -11.897  -0.147   3.807  1.00  0.00     0.198 A 
ATOM     75  C   UNL     1     -12.726  -1.946   2.525  1.00  0.00     0.198 A 
ATOM     76  F   UNL     1     -13.164  -1.746   0.283  1.00  0.00    -0.203 F 
ATOM     77  F   UNL     1     -11.448   0.344   4.971  1.00  0.00    -0.200 F 
ATOM     78  C   UNL     1     -12.279  -1.466   3.732  1.00  0.00     0.200 A 
ATOM     79  F   UNL     1     -13.127  -3.223   2.427  1.00  0.00    -0.200 F 
ATOM     80  F   UNL     1     -12.223  -2.263   4.808  1.00  0.00    -0.200 F 
ENDBRANCH  56  70
BRANCH  57  81
ATOM     81  C   UNL     1      -9.865   5.824  -6.735  1.00  0.00     0.064 A 
ATOM     82  C   UNL     1      -8.546   5.818  -7.247  1.00  0.00     0.173 A 
ATOM     83  C   UNL     1     -10.851   5.197  -7.515  1.00  0.00     0.173 A 
ATOM     84  F   UNL     1      -7.573   6.457  -6.577  1.00  0.00    -0.203 F 
ATOM     85  C   UNL     1      -8.180   4.942  -8.270  1.00  0.00     0.198 A 
ATOM     86  C   UNL     1     -10.482   4.350  -8.568  1.00  0.00     0.198 A 
ATOM     87  F   UNL     1     -12.133   5.216  -7.121  1.00  0.00    -0.203 F 
ATOM     88  F   UNL     1      -6.883   4.753  -8.553  1.00  0.00    -0.200 F 
ATOM     89  C   UNL     1      -9.143   4.164  -8.886  1.00  0.00     0.200 A 
ATOM     90  F   UNL     1     -11.411   3.601  -9.181  1.00  0.00    -0.200 F 
ATOM     91  F   UNL     1      -8.779   3.189  -9.732  1.00  0.00    -0.200 F 
ENDBRANCH  57  81
BRANCH  69  92
ATOM     92  C   UNL     1     -13.346   6.654  -0.229  1.00  0.00     0.064 A 
ATOM     93  C   UNL     1     -14.173   7.652  -0.765  1.00  0.00     0.173 A 
ATOM     94  C   UNL     1     -13.755   6.147   1.036  1.00  0.00     0.173 A 
ATOM     95  F   UNL     1     -13.973   8.143  -1.995  1.00  0.00    -0.203 F 
ATOM     96  C   UNL     1     -15.289   8.136  -0.079  1.00  0.00     0.198 A 
ATOM     97  C   UNL     1     -14.903   6.590   1.688  1.00  0.00     0.198 A 
ATOM     98  F   UNL     1     -13.087   5.170   1.665  1.00  0.00    -0.203 F 
ATOM     99  F   UNL     1     -16.027   9.109  -0.628  1.00  0.00    -0.200 F 
ATOM    100  C   UNL     1     -15.663   7.595   1.137  1.00  0.00     0.200 A 
ATOM    101  F   UNL     1     -15.283   6.007   2.834  1.00  0.00    -0.200 F 
ATOM    102  F   UNL     1     -16.767   8.025   1.761  1.00  0.00    -0.200 F 
ENDBRANCH  69  92
ENDBRANCH  43  44
ENDBRANCH  36  38
ENDBRANCH  35  36
ENDBRANCH  34  35
ENDBRANCH  33  34
ENDBRANCH  32  33
ENDBRANCH  31  32
ENDBRANCH  30  31
ENDBRANCH   1  30
TORSDOF 22
