REMARK SMILES O=C(CC1(CC(=O)OCCOCCOCCOCCOC(=O)c2ccc(-c3c4nc(c(-c5c(F)c(F)c(F)c(F)c5F)c5ccc([nH]5)c(-c5c(F)c(F)c(F)c(F)c5F)c5nc(c(-c6c(F)c(F)c(F)c(F)c6F)c6ccc3[nH]6)C=C5)C=C4)cc2)CCCCC1)Nc1ccc2ccccc2n1
REMARK SMILES IDX 13 1 12 2 11 3 10 4 9 5 8 6 6 7 7 8 5 9 4 10 86 11 90 12
REMARK SMILES IDX 87 13 89 14 88 15 3 16 2 17 1 18 91 19 92 21 93 22 101 23
REMARK SMILES IDX 94 24 100 25 95 26 99 27 96 28 98 29 97 30 14 31 15 32 16 33
REMARK SMILES IDX 17 34 18 35 19 36 20 37 21 38 22 39 23 40 24 41 85 42 25 43
REMARK SMILES IDX 84 44 26 45 27 46 28 47 78 48 29 49 83 50 77 51 79 52 30 53
REMARK SMILES IDX 82 54 76 55 75 56 31 58 63 59 43 60 62 61 44 62 47 63 61 64
REMARK SMILES IDX 80 65 45 66 46 67 60 69 81 70 48 71 32 72 33 73 41 74 34 75
REMARK SMILES IDX 35 76 39 77 42 78 36 79 37 80 40 81 38 82 64 83 65 84 73 85
REMARK SMILES IDX 66 86 67 87 71 88 74 89 68 90 69 91 72 92 70 93 49 94 50 95
REMARK SMILES IDX 58 96 51 97 52 98 56 99 59 100 53 101 54 102 57 103 55 104
REMARK H PARENT 91 20 79 57 47 68
REMARK Flexibility Score: inf
ROOT
ATOM      1  C   UNL     1       0.591  -2.477   0.446  1.00  0.00     0.188 C 
ENDROOT
BRANCH   1   2
ATOM      2  C   UNL     1       0.570  -1.978  -0.980  1.00  0.00     0.188 C 
BRANCH   2   3
ATOM      3  O   UNL     1       0.074  -3.005  -1.832  1.00  0.00    -0.376 OA
BRANCH   3   4
ATOM      4  C   UNL     1       0.891  -3.223  -2.975  1.00  0.00     0.202 C 
BRANCH   4   5
ATOM      5  C   UNL     1       2.067  -4.154  -2.646  1.00  0.00     0.261 C 
BRANCH   5   6
ATOM      6  O   UNL     1       3.121  -3.621  -1.807  1.00  0.00    -0.463 OA
BRANCH   6   7
ATOM      7  C   UNL     1       3.807  -2.535  -2.231  1.00  0.00     0.306 C 
ATOM      8  O   UNL     1       3.525  -1.881  -3.225  1.00  0.00    -0.252 OA
BRANCH   7   9
ATOM      9  C   UNL     1       4.981  -2.184  -1.335  1.00  0.00     0.130 C 
BRANCH   9  10
ATOM     10  C   UNL     1       4.694  -1.696   0.109  1.00  0.00    -0.010 C 
ATOM     11  C   UNL     1       6.045  -1.388   0.836  1.00  0.00     0.008 C 
ATOM     12  C   UNL     1       4.010  -2.816   0.954  1.00  0.00     0.008 C 
ATOM     13  C   UNL     1       6.902  -2.621   1.172  1.00  0.00     0.001 C 
ATOM     14  C   UNL     1       4.855  -4.054   1.237  1.00  0.00     0.001 C 
ATOM     15  C   UNL     1       6.131  -3.673   1.961  1.00  0.00     0.000 C 
BRANCH  10  16
ATOM     16  C   UNL     1       3.780  -0.419   0.185  1.00  0.00     0.108 C 
BRANCH  16  17
ATOM     17  C   UNL     1       3.723   0.736  -0.844  1.00  0.00     0.226 C 
ATOM     18  O   UNL     1       4.268   1.810  -0.598  1.00  0.00    -0.275 OA
ATOM     19  N   UNL     1       2.841   0.543  -1.888  1.00  0.00    -0.311 N 
ATOM     20  H   UNL     1       3.044  -0.176  -2.529  1.00  0.00     0.171 HD
BRANCH  19  21
ATOM     21  C   UNL     1       1.669   1.299  -2.108  1.00  0.00     0.133 A 
ATOM     22  C   UNL     1       1.430   2.522  -1.510  1.00  0.00     0.048 A 
ATOM     23  N   UNL     1       0.700   0.614  -2.759  1.00  0.00    -0.231 NA
ATOM     24  C   UNL     1       0.112   2.971  -1.425  1.00  0.00     0.014 A 
ATOM     25  C   UNL     1      -0.586   1.006  -2.610  1.00  0.00     0.073 A 
ATOM     26  C   UNL     1      -0.932   2.165  -1.893  1.00  0.00     0.000 A 
ATOM     27  C   UNL     1      -1.623   0.190  -3.060  1.00  0.00     0.029 A 
ATOM     28  C   UNL     1      -2.281   2.442  -1.590  1.00  0.00     0.010 A 
ATOM     29  C   UNL     1      -2.962   0.441  -2.732  1.00  0.00     0.002 A 
ATOM     30  C   UNL     1      -3.289   1.560  -1.978  1.00  0.00     0.001 A 
ENDBRANCH  19  21
ENDBRANCH  16  17
ENDBRANCH  10  16
ENDBRANCH   9  10
ENDBRANCH   7   9
ENDBRANCH   6   7
ENDBRANCH   5   6
ENDBRANCH   4   5
ENDBRANCH   3   4
ENDBRANCH   2   3
ENDBRANCH   1   2
BRANCH   1  31
ATOM     31  O   UNL     1      -0.698  -2.910   0.810  1.00  0.00    -0.377 OA
BRANCH  31  32
ATOM     32  C   UNL     1      -1.429  -1.958   1.550  1.00  0.00     0.188 C 
BRANCH  32  33
ATOM     33  C   UNL     1      -1.807  -0.642   0.856  1.00  0.00     0.188 C 
BRANCH  33  34
ATOM     34  O   UNL     1      -0.832   0.398   0.858  1.00  0.00    -0.376 OA
BRANCH  34  35
ATOM     35  C   UNL     1      -0.227   0.827   2.075  1.00  0.00     0.202 C 
BRANCH  35  36
ATOM     36  C   UNL     1      -1.126   1.220   3.257  1.00  0.00     0.261 C 
BRANCH  36  37
ATOM     37  O   UNL     1      -1.727   0.052   3.837  1.00  0.00    -0.460 OA
BRANCH  37  38
ATOM     38  C   UNL     1      -3.080  -0.009   3.812  1.00  0.00     0.338 C 
ATOM     39  O   UNL     1      -3.857   0.892   3.546  1.00  0.00    -0.246 OA
BRANCH  38  40
ATOM     40  C   UNL     1      -3.459  -1.439   3.853  1.00  0.00     0.060 A 
ATOM     41  C   UNL     1      -4.416  -1.879   2.922  1.00  0.00     0.016 A 
ATOM     42  C   UNL     1      -2.768  -2.362   4.652  1.00  0.00     0.016 A 
ATOM     43  C   UNL     1      -4.687  -3.240   2.792  1.00  0.00     0.010 A 
ATOM     44  C   UNL     1      -3.067  -3.721   4.553  1.00  0.00     0.010 A 
ATOM     45  C   UNL     1      -4.059  -4.154   3.654  1.00  0.00    -0.014 A 
BRANCH  45  46
ATOM     46  C   UNL     1      -4.758  -5.426   3.932  1.00  0.00     0.031 A 
ATOM     47  C   UNL     1      -5.907  -5.322   4.900  1.00  0.00     0.074 A 
ATOM     48  C   UNL     1      -4.417  -6.595   3.368  1.00  0.00     0.049 A 
ATOM     49  N   UNL     1      -6.734  -6.238   5.325  1.00  0.00    -0.248 NA
ATOM     50  C   UNL     1      -6.159  -3.981   5.464  1.00  0.00     0.031 C 
ATOM     51  C   UNL     1      -3.343  -6.798   2.399  1.00  0.00     0.029 A 
ATOM     52  N   UNL     1      -4.955  -7.844   3.545  1.00  0.00    -0.354 N 
ATOM     53  C   UNL     1      -7.612  -5.573   6.171  1.00  0.00     0.074 A 
ATOM     54  C   UNL     1      -7.202  -4.194   6.240  1.00  0.00     0.031 C 
ATOM     55  C   UNL     1      -3.297  -8.104   2.070  1.00  0.00     0.029 A 
ATOM     56  C   UNL     1      -4.327  -8.824   2.818  1.00  0.00     0.049 A 
ATOM     57  H   UNL     1      -5.721  -8.021   4.138  1.00  0.00     0.167 HD
ATOM     58  C   UNL     1      -8.679  -6.067   6.836  1.00  0.00     0.037 A 
ATOM     59  C   UNL     1      -4.570 -10.149   2.781  1.00  0.00     0.037 A 
ATOM     60  C   UNL     1      -9.033  -7.453   6.828  1.00  0.00     0.049 A 
ATOM     61  C   UNL     1      -5.698 -10.703   3.620  1.00  0.00     0.074 A 
ATOM     62  C   UNL     1     -10.050  -8.092   7.507  1.00  0.00     0.029 A 
ATOM     63  N   UNL     1      -8.345  -8.422   6.110  1.00  0.00    -0.354 N 
ATOM     64  N   UNL     1      -6.545 -10.068   4.397  1.00  0.00    -0.248 NA
ATOM     65  C   UNL     1      -5.905 -12.157   3.574  1.00  0.00     0.031 C 
ATOM     66  C   UNL     1      -9.953  -9.460   7.231  1.00  0.00     0.029 A 
ATOM     67  C   UNL     1      -8.907  -9.662   6.341  1.00  0.00     0.049 A 
ATOM     68  H   UNL     1      -7.573  -8.251   5.523  1.00  0.00     0.167 HD
ATOM     69  C   UNL     1      -7.405 -11.035   4.901  1.00  0.00     0.074 A 
ATOM     70  C   UNL     1      -6.977 -12.301   4.341  1.00  0.00     0.031 C 
ATOM     71  C   UNL     1      -8.458 -10.895   5.746  1.00  0.00     0.037 A 
BRANCH  58  72
ATOM     72  C   UNL     1      -9.468  -5.089   7.650  1.00  0.00     0.064 A 
ATOM     73  C   UNL     1     -10.261  -4.103   7.039  1.00  0.00     0.173 A 
ATOM     74  C   UNL     1      -9.362  -5.076   9.047  1.00  0.00     0.173 A 
ATOM     75  F   UNL     1     -10.355  -4.046   5.702  1.00  0.00    -0.203 F 
ATOM     76  C   UNL     1     -10.892  -3.121   7.797  1.00  0.00     0.198 A 
ATOM     77  C   UNL     1     -10.018  -4.109   9.804  1.00  0.00     0.198 A 
ATOM     78  F   UNL     1      -8.597  -5.981   9.675  1.00  0.00    -0.203 F 
ATOM     79  F   UNL     1     -11.583  -2.147   7.189  1.00  0.00    -0.200 F 
ATOM     80  C   UNL     1     -10.773  -3.127   9.179  1.00  0.00     0.200 A 
ATOM     81  F   UNL     1      -9.897  -4.111  11.138  1.00  0.00    -0.200 F 
ATOM     82  F   UNL     1     -11.367  -2.172   9.907  1.00  0.00    -0.200 F 
ENDBRANCH  58  72
BRANCH  59  83
ATOM     83  C   UNL     1      -3.752 -11.042   1.918  1.00  0.00     0.064 A 
ATOM     84  C   UNL     1      -4.306 -11.657   0.786  1.00  0.00     0.173 A 
ATOM     85  C   UNL     1      -2.409 -11.318   2.215  1.00  0.00     0.173 A 
ATOM     86  F   UNL     1      -5.594 -11.450   0.476  1.00  0.00    -0.203 F 
ATOM     87  C   UNL     1      -3.553 -12.520  -0.009  1.00  0.00     0.198 A 
ATOM     88  C   UNL     1      -1.650 -12.165   1.406  1.00  0.00     0.198 A 
ATOM     89  F   UNL     1      -1.832 -10.767   3.292  1.00  0.00    -0.203 F 
ATOM     90  F   UNL     1      -4.120 -13.125  -1.062  1.00  0.00    -0.200 F 
ATOM     91  C   UNL     1      -2.224 -12.769   0.298  1.00  0.00     0.200 A 
ATOM     92  F   UNL     1      -0.365 -12.401   1.706  1.00  0.00    -0.200 F 
ATOM     93  F   UNL     1      -1.500 -13.599  -0.466  1.00  0.00    -0.200 F 
ENDBRANCH  59  83
BRANCH  71  94
ATOM     94  C   UNL     1      -9.247 -12.126   6.072  1.00  0.00     0.064 A 
ATOM     95  C   UNL     1      -8.755 -13.106   6.944  1.00  0.00     0.173 A 
ATOM     96  C   UNL     1     -10.543 -12.284   5.559  1.00  0.00     0.173 A 
ATOM     97  F   UNL     1      -7.518 -13.000   7.452  1.00  0.00    -0.203 F 
ATOM     98  C   UNL     1      -9.528 -14.215   7.277  1.00  0.00     0.198 A 
ATOM     99  C   UNL     1     -11.323 -13.379   5.916  1.00  0.00     0.198 A 
ATOM    100  F   UNL     1     -11.060 -11.364   4.731  1.00  0.00    -0.203 F 
ATOM    101  F   UNL     1      -9.028 -15.160   8.083  1.00  0.00    -0.200 F 
ATOM    102  C   UNL     1     -10.813 -14.346   6.769  1.00  0.00     0.200 A 
ATOM    103  F   UNL     1     -12.570 -13.495   5.439  1.00  0.00    -0.200 F 
ATOM    104  F   UNL     1     -11.560 -15.408   7.101  1.00  0.00    -0.200 F 
ENDBRANCH  71  94
ENDBRANCH  45  46
ENDBRANCH  38  40
ENDBRANCH  37  38
ENDBRANCH  36  37
ENDBRANCH  35  36
ENDBRANCH  34  35
ENDBRANCH  33  34
ENDBRANCH  32  33
ENDBRANCH  31  32
ENDBRANCH   1  31
TORSDOF 24
