REMARK SMILES COc1ccc(NC(=O)N[C@@H]2C=C[C@H](C(=O)OCCOCCOCCOCCOC(=O)c3ccc(-c4c5nc(c(-c6c(F)c(F)c(F)c(F)c6F)c6ccc([nH]6)c(-c6c(F)c(F)c(F)c(F)c6F)c6nc(c(-c7c(F)c(F)c(F)c(F)c7F)c7ccc4[nH]7)C=C6)C=C5)cc3)C2)c(C)c1
REMARK SMILES IDX 22 1 21 2 20 3 19 4 18 5 17 6 15 7 16 8 14 9 11 10 12 11
REMARK SMILES IDX 95 12 13 13 10 14 7 15 8 16 9 18 6 20 3 21 4 22 98 23 5 24
REMARK SMILES IDX 96 25 97 26 2 27 1 28 23 29 24 30 25 31 26 32 27 33 28 34
REMARK SMILES IDX 29 35 30 36 31 37 32 38 33 39 94 40 34 41 93 42 35 43 36 44
REMARK SMILES IDX 37 45 87 46 38 47 92 48 86 49 88 50 39 51 91 52 85 53 84 54
REMARK SMILES IDX 40 56 72 57 52 58 71 59 53 60 56 61 70 62 89 63 54 64 55 65
REMARK SMILES IDX 69 67 90 68 57 69 41 70 42 71 50 72 43 73 44 74 48 75 51 76
REMARK SMILES IDX 45 77 46 78 49 79 47 80 73 81 74 82 82 83 75 84 76 85 80 86
REMARK SMILES IDX 83 87 77 88 78 89 81 90 79 91 58 92 59 93 67 94 60 95 61 96
REMARK SMILES IDX 65 97 68 98 62 99 63 100 66 101 64 102
REMARK H PARENT 7 17 10 19 88 55 56 66
REMARK Flexibility Score: inf
ROOT
ATOM      1  C   UNL     1       3.122   2.886   0.666  1.00  0.00     0.188 C 
ENDROOT
BRANCH   1   2
ATOM      2  C   UNL     1       4.176   1.883   0.128  1.00  0.00     0.188 C 
BRANCH   2   3
ATOM      3  O   UNL     1       3.850   0.821  -0.743  1.00  0.00    -0.376 OA
BRANCH   3   4
ATOM      4  C   UNL     1       2.894  -0.103  -0.257  1.00  0.00     0.202 C 
BRANCH   4   5
ATOM      5  C   UNL     1       3.174  -0.838   1.053  1.00  0.00     0.261 C 
BRANCH   5   6
ATOM      6  O   UNL     1       2.984   0.048   2.169  1.00  0.00    -0.463 OA
BRANCH   6   7
ATOM      7  C   UNL     1       3.042  -0.559   3.392  1.00  0.00     0.312 C 
ATOM      8  O   UNL     1       2.987  -1.756   3.578  1.00  0.00    -0.252 OA
BRANCH   7   9
ATOM      9  C   UNL     1       3.561   0.405   4.460  1.00  0.00     0.124 C 
ATOM     10  C   UNL     1       4.879   2.477   4.045  1.00  0.00     0.107 C 
ATOM     11  C   UNL     1       5.642   1.211   3.827  1.00  0.00    -0.006 C 
ATOM     12  C   UNL     1       3.433   1.925   4.207  1.00  0.00     0.048 C 
ATOM     13  C   UNL     1       5.022   0.134   4.296  1.00  0.00    -0.014 C 
BRANCH  10  14
ATOM     14  N   UNL     1       5.237   3.393   2.977  1.00  0.00    -0.332 N 
ATOM     15  N   UNL     1       6.992   4.892   3.662  1.00  0.00    -0.308 N 
ATOM     16  C   UNL     1       6.085   4.421   2.778  1.00  0.00     0.319 C 
ATOM     17  H   UNL     1       7.349   5.780   3.432  1.00  0.00     0.171 HD
ATOM     18  O   UNL     1       5.968   5.017   1.700  1.00  0.00    -0.248 OA
ATOM     19  H   UNL     1       4.709   3.212   2.167  1.00  0.00     0.165 HD
BRANCH  15  20
ATOM     20  C   UNL     1       7.520   4.357   4.842  1.00  0.00     0.046 A 
ATOM     21  C   UNL     1       7.348   3.342   7.389  1.00  0.00     0.119 A 
ATOM     22  C   UNL     1       7.410   2.478   6.312  1.00  0.00     0.048 A 
ATOM     23  C   UNL     1       7.790   4.653   7.191  1.00  0.00     0.052 A 
ATOM     24  C   UNL     1       7.602   3.005   5.044  1.00  0.00     0.030 A 
ATOM     25  C   UNL     1       7.956   5.154   5.886  1.00  0.00    -0.024 A 
ATOM     26  C   UNL     1       8.844   6.335   5.625  1.00  0.00     0.047 C 
BRANCH  21  27
ATOM     27  O   UNL     1       6.986   2.960   8.648  1.00  0.00    -0.497 OA
ATOM     28  C   UNL     1       5.986   1.935   8.680  1.00  0.00     0.278 C 
ENDBRANCH  21  27
ENDBRANCH  15  20
ENDBRANCH  10  14
ENDBRANCH   7   9
ENDBRANCH   6   7
ENDBRANCH   5   6
ENDBRANCH   4   5
ENDBRANCH   3   4
ENDBRANCH   2   3
ENDBRANCH   1   2
BRANCH   1  29
ATOM     29  O   UNL     1       1.780   2.959   0.250  1.00  0.00    -0.377 OA
BRANCH  29  30
ATOM     30  C   UNL     1       1.488   3.863  -0.798  1.00  0.00     0.188 C 
BRANCH  30  31
ATOM     31  C   UNL     1       2.445   4.982  -1.137  1.00  0.00     0.188 C 
BRANCH  31  32
ATOM     32  O   UNL     1       3.563   4.353  -1.754  1.00  0.00    -0.376 OA
BRANCH  32  33
ATOM     33  C   UNL     1       4.400   5.214  -2.510  1.00  0.00     0.202 C 
BRANCH  33  34
ATOM     34  C   UNL     1       3.679   5.824  -3.721  1.00  0.00     0.261 C 
BRANCH  34  35
ATOM     35  O   UNL     1       2.982   4.768  -4.421  1.00  0.00    -0.460 OA
BRANCH  35  36
ATOM     36  C   UNL     1       1.625   4.862  -4.476  1.00  0.00     0.338 C 
ATOM     37  O   UNL     1       0.987   5.902  -4.500  1.00  0.00    -0.246 OA
BRANCH  36  38
ATOM     38  C   UNL     1       1.004   3.523  -4.201  1.00  0.00     0.060 A 
ATOM     39  C   UNL     1      -0.344   3.460  -3.796  1.00  0.00     0.016 A 
ATOM     40  C   UNL     1       1.811   2.398  -4.024  1.00  0.00     0.016 A 
ATOM     41  C   UNL     1      -0.838   2.341  -3.086  1.00  0.00     0.010 A 
ATOM     42  C   UNL     1       1.327   1.313  -3.285  1.00  0.00     0.010 A 
ATOM     43  C   UNL     1       0.017   1.282  -2.754  1.00  0.00    -0.014 A 
BRANCH  43  44
ATOM     44  C   UNL     1      -0.266   0.271  -1.688  1.00  0.00     0.031 A 
ATOM     45  C   UNL     1       0.115  -1.180  -1.871  1.00  0.00     0.074 A 
ATOM     46  C   UNL     1      -0.497   0.689  -0.406  1.00  0.00     0.049 A 
ATOM     47  N   UNL     1      -0.044  -2.097  -0.967  1.00  0.00    -0.248 NA
ATOM     48  C   UNL     1       0.735  -1.735  -3.075  1.00  0.00     0.031 C 
ATOM     49  C   UNL     1      -0.096  -0.041   0.810  1.00  0.00     0.029 A 
ATOM     50  N   UNL     1      -0.928   1.924   0.127  1.00  0.00    -0.354 N 
ATOM     51  C   UNL     1       0.770  -3.166  -1.272  1.00  0.00     0.074 A 
ATOM     52  C   UNL     1       1.101  -2.957  -2.660  1.00  0.00     0.031 C 
ATOM     53  C   UNL     1      -0.342   0.678   1.908  1.00  0.00     0.029 A 
ATOM     54  C   UNL     1      -1.235   1.721   1.498  1.00  0.00     0.049 A 
ATOM     55  H   UNL     1      -1.001   2.774  -0.364  1.00  0.00     0.167 HD
ATOM     56  C   UNL     1       1.178  -4.014  -0.275  1.00  0.00     0.037 A 
ATOM     57  C   UNL     1      -2.494   1.856   2.007  1.00  0.00     0.037 A 
ATOM     58  C   UNL     1       0.485  -3.757   1.011  1.00  0.00     0.049 A 
ATOM     59  C   UNL     1      -3.062   0.552   2.523  1.00  0.00     0.074 A 
ATOM     60  C   UNL     1       0.898  -3.608   2.324  1.00  0.00     0.029 A 
ATOM     61  N   UNL     1      -0.891  -3.490   1.032  1.00  0.00    -0.354 N 
ATOM     62  N   UNL     1      -2.445  -0.583   2.322  1.00  0.00    -0.248 NA
ATOM     63  C   UNL     1      -4.297   0.350   3.273  1.00  0.00     0.031 C 
ATOM     64  C   UNL     1      -0.203  -3.150   3.103  1.00  0.00     0.029 A 
ATOM     65  C   UNL     1      -1.322  -3.111   2.290  1.00  0.00     0.049 A 
ATOM     66  H   UNL     1      -1.479  -3.563   0.247  1.00  0.00     0.167 HD
ATOM     67  C   UNL     1      -3.157  -1.628   2.803  1.00  0.00     0.074 A 
ATOM     68  C   UNL     1      -4.311  -0.993   3.412  1.00  0.00     0.031 C 
ATOM     69  C   UNL     1      -2.743  -2.909   2.578  1.00  0.00     0.037 A 
BRANCH  56  70
ATOM     70  C   UNL     1       2.342  -5.019  -0.377  1.00  0.00     0.064 A 
ATOM     71  C   UNL     1       2.571  -5.977   0.644  1.00  0.00     0.173 A 
ATOM     72  C   UNL     1       3.321  -5.042  -1.398  1.00  0.00     0.173 A 
ATOM     73  F   UNL     1       1.734  -6.100   1.683  1.00  0.00    -0.203 F 
ATOM     74  C   UNL     1       3.669  -6.854   0.646  1.00  0.00     0.198 A 
ATOM     75  C   UNL     1       4.373  -5.972  -1.435  1.00  0.00     0.198 A 
ATOM     76  F   UNL     1       3.347  -4.132  -2.375  1.00  0.00    -0.203 F 
ATOM     77  F   UNL     1       3.858  -7.687   1.680  1.00  0.00    -0.200 F 
ATOM     78  C   UNL     1       4.558  -6.867  -0.406  1.00  0.00     0.200 A 
ATOM     79  F   UNL     1       5.223  -5.971  -2.474  1.00  0.00    -0.200 F 
ATOM     80  F   UNL     1       5.590  -7.722  -0.422  1.00  0.00    -0.200 F 
ENDBRANCH  56  70
BRANCH  57  81
ATOM     81  C   UNL     1      -3.119   3.127   1.557  1.00  0.00     0.064 A 
ATOM     82  C   UNL     1      -2.526   4.275   2.129  1.00  0.00     0.173 A 
ATOM     83  C   UNL     1      -3.591   3.237   0.240  1.00  0.00     0.173 A 
ATOM     84  F   UNL     1      -2.087   4.232   3.398  1.00  0.00    -0.203 F 
ATOM     85  C   UNL     1      -2.179   5.372   1.344  1.00  0.00     0.198 A 
ATOM     86  C   UNL     1      -3.249   4.347  -0.542  1.00  0.00     0.198 A 
ATOM     87  F   UNL     1      -4.197   2.195  -0.347  1.00  0.00    -0.203 F 
ATOM     88  F   UNL     1      -1.427   6.355   1.863  1.00  0.00    -0.200 F 
ATOM     89  C   UNL     1      -2.494   5.381  -0.004  1.00  0.00     0.200 A 
ATOM     90  F   UNL     1      -3.539   4.358  -1.851  1.00  0.00    -0.200 F 
ATOM     91  F   UNL     1      -2.014   6.352  -0.796  1.00  0.00    -0.200 F 
ENDBRANCH  57  81
BRANCH  69  92
ATOM     92  C   UNL     1      -3.636  -4.119   2.620  1.00  0.00     0.064 A 
ATOM     93  C   UNL     1      -5.014  -4.058   2.356  1.00  0.00     0.173 A 
ATOM     94  C   UNL     1      -3.083  -5.420   2.706  1.00  0.00     0.173 A 
ATOM     95  F   UNL     1      -5.635  -2.890   2.148  1.00  0.00    -0.203 F 
ATOM     96  C   UNL     1      -5.788  -5.210   2.225  1.00  0.00     0.198 A 
ATOM     97  C   UNL     1      -3.849  -6.566   2.517  1.00  0.00     0.198 A 
ATOM     98  F   UNL     1      -1.776  -5.617   2.935  1.00  0.00    -0.203 F 
ATOM     99  F   UNL     1      -7.104  -5.098   1.995  1.00  0.00    -0.200 F 
ATOM    100  C   UNL     1      -5.205  -6.461   2.287  1.00  0.00     0.200 A 
ATOM    101  F   UNL     1      -3.260  -7.770   2.526  1.00  0.00    -0.200 F 
ATOM    102  F   UNL     1      -5.945  -7.562   2.103  1.00  0.00    -0.200 F 
ENDBRANCH  69  92
ENDBRANCH  43  44
ENDBRANCH  36  38
ENDBRANCH  35  36
ENDBRANCH  34  35
ENDBRANCH  33  34
ENDBRANCH  32  33
ENDBRANCH  31  32
ENDBRANCH  30  31
ENDBRANCH  29  30
ENDBRANCH   1  29
TORSDOF 23
