REMARK SMILES Cc1c(CC(=O)N[C@@H](CCO)C(=O)OCCOCCOCCOCCOC(=O)c2ccc(-c3c4nc(c(-c5c(F)c(F)c(F)c(F)c5F)c5ccc([nH]5)c(-c5c(F)c(F)c(F)c(F)c5F)c5nc(c(-c6c(F)c(F)c(F)c(F)c6F)c6ccc3[nH]6)C=C5)C=C4)cc2)cc(-c2ccc(S(C)(=O)=O)cc2)n1-c1ccc(F)cc1
REMARK SMILES IDX 18 1 17 2 16 3 15 4 14 5 12 6 13 7 8 8 7 9 5 10 6 11 4 13
REMARK SMILES IDX 3 14 1 15 2 16 104 17 92 18 93 19 105 20 106 21 111 22
REMARK SMILES IDX 107 23 110 24 108 25 109 26 94 27 95 28 103 29 96 30 102 31
REMARK SMILES IDX 97 32 98 33 99 34 100 35 101 36 9 37 10 38 11 39 19 41 20 42
REMARK SMILES IDX 21 43 22 44 23 45 24 46 25 47 26 48 27 49 28 50 29 51 30 52
REMARK SMILES IDX 91 53 31 54 90 55 32 56 33 57 34 58 84 59 35 60 89 61 83 62
REMARK SMILES IDX 85 63 36 64 88 65 82 66 81 67 37 69 69 70 49 71 68 72 50 73
REMARK SMILES IDX 53 74 67 75 86 76 51 77 52 78 66 80 87 81 54 82 38 83 39 84
REMARK SMILES IDX 47 85 40 86 41 87 45 88 48 89 42 90 43 91 46 92 44 93 70 94
REMARK SMILES IDX 71 95 79 96 72 97 73 98 77 99 80 100 74 101 75 102 78 103
REMARK SMILES IDX 76 104 55 105 56 106 64 107 57 108 58 109 62 110 65 111
REMARK SMILES IDX 59 112 60 113 63 114 61 115
REMARK H PARENT 7 12 11 40 85 68 53 79
REMARK Flexibility Score: inf
ROOT
ATOM      1  C   UNL     1       5.547  -5.585  -0.279  1.00  0.00     0.188 C 
ENDROOT
BRANCH   1   2
ATOM      2  O   UNL     1       6.006  -6.703  -1.025  1.00  0.00    -0.376 OA
BRANCH   2   3
ATOM      3  C   UNL     1       6.602  -6.506  -2.297  1.00  0.00     0.202 C 
BRANCH   3   4
ATOM      4  C   UNL     1       5.811  -5.771  -3.396  1.00  0.00     0.261 C 
BRANCH   4   5
ATOM      5  O   UNL     1       5.102  -4.584  -2.981  1.00  0.00    -0.462 OA
BRANCH   5   6
ATOM      6  C   UNL     1       3.748  -4.678  -2.949  1.00  0.00     0.328 C 
ATOM      7  O   UNL     1       3.111  -5.663  -3.306  1.00  0.00    -0.250 OA
BRANCH   6   8
ATOM      8  C   UNL     1       3.055  -3.371  -2.502  1.00  0.00     0.194 C 
BRANCH   8   9
ATOM      9  N   UNL     1       3.773  -2.371  -1.691  1.00  0.00    -0.342 N 
ATOM     10  C   UNL     1       3.562  -1.951  -0.403  1.00  0.00     0.225 C 
ATOM     11  O   UNL     1       4.339  -1.108   0.056  1.00  0.00    -0.275 OA
ATOM     12  H   UNL     1       4.527  -1.933  -2.148  1.00  0.00     0.164 HD
BRANCH  10  13
ATOM     13  C   UNL     1       2.482  -2.568   0.476  1.00  0.00     0.137 C 
BRANCH  13  14
ATOM     14  C   UNL     1       1.113  -2.422  -0.099  1.00  0.00    -0.017 A 
ATOM     15  C   UNL     1       0.852   0.150  -0.095  1.00  0.00     0.065 C 
ATOM     16  C   UNL     1       0.458  -1.250  -0.448  1.00  0.00     0.024 A 
ATOM     17  N   UNL     1      -0.709  -1.598  -1.121  1.00  0.00    -0.314 N 
ATOM     18  C   UNL     1       0.238  -3.493  -0.405  1.00  0.00     0.033 A 
ATOM     19  C   UNL     1      -0.837  -2.987  -1.107  1.00  0.00     0.053 A 
BRANCH  17  20
ATOM     20  C   UNL     1      -1.617  -0.700  -1.736  1.00  0.00     0.046 A 
ATOM     21  C   UNL     1      -2.984  -0.803  -1.453  1.00  0.00     0.029 A 
ATOM     22  C   UNL     1      -1.144   0.247  -2.656  1.00  0.00     0.029 A 
ATOM     23  C   UNL     1      -3.879   0.064  -2.075  1.00  0.00     0.041 A 
ATOM     24  C   UNL     1      -2.049   1.103  -3.281  1.00  0.00     0.041 A 
ATOM     25  C   UNL     1      -3.404   1.007  -2.982  1.00  0.00     0.123 A 
ATOM     26  F   UNL     1      -4.270   1.833  -3.583  1.00  0.00    -0.207 F 
ENDBRANCH  17  20
BRANCH  19  27
ATOM     27  C   UNL     1      -1.844  -3.766  -1.835  1.00  0.00    -0.001 A 
ATOM     28  C   UNL     1      -1.996  -3.631  -3.224  1.00  0.00     0.011 A 
ATOM     29  C   UNL     1      -2.627  -4.702  -1.149  1.00  0.00     0.011 A 
ATOM     30  C   UNL     1      -2.945  -4.390  -3.912  1.00  0.00     0.021 A 
ATOM     31  C   UNL     1      -3.580  -5.463  -1.829  1.00  0.00     0.021 A 
ATOM     32  C   UNL     1      -3.743  -5.292  -3.205  1.00  0.00     0.067 A 
BRANCH  32  33
ATOM     33  S   UNL     1      -4.948  -6.264  -4.077  1.00  0.00     0.175 S 
ATOM     34  C   UNL     1      -6.116  -5.070  -4.672  1.00  0.00     0.163 C 
ATOM     35  O   UNL     1      -4.267  -6.845  -5.229  1.00  0.00    -0.224 OA
ATOM     36  O   UNL     1      -5.626  -7.098  -3.114  1.00  0.00    -0.224 OA
ENDBRANCH  32  33
ENDBRANCH  19  27
ENDBRANCH  13  14
ENDBRANCH  10  13
ENDBRANCH   8   9
BRANCH   8  37
ATOM     37  C   UNL     1       2.451  -2.679  -3.731  1.00  0.00     0.065 C 
BRANCH  37  38
ATOM     38  C   UNL     1       3.476  -1.972  -4.618  1.00  0.00     0.159 C 
BRANCH  38  39
ATOM     39  O   UNL     1       4.416  -2.879  -5.170  1.00  0.00    -0.396 OA
ATOM     40  H   UNL     1       4.906  -3.312  -4.453  1.00  0.00     0.210 HD
ENDBRANCH  38  39
ENDBRANCH  37  38
ENDBRANCH   8  37
ENDBRANCH   6   8
ENDBRANCH   5   6
ENDBRANCH   4   5
ENDBRANCH   3   4
ENDBRANCH   2   3
ENDBRANCH   1   2
BRANCH   1  41
ATOM     41  C   UNL     1       6.205  -4.201  -0.415  1.00  0.00     0.188 C 
BRANCH  41  42
ATOM     42  O   UNL     1       7.224  -4.066  -1.381  1.00  0.00    -0.377 OA
BRANCH  42  43
ATOM     43  C   UNL     1       8.521  -3.689  -0.947  1.00  0.00     0.188 C 
BRANCH  43  44
ATOM     44  C   UNL     1       9.128  -4.492   0.198  1.00  0.00     0.188 C 
BRANCH  44  45
ATOM     45  O   UNL     1       8.379  -4.529   1.388  1.00  0.00    -0.376 OA
BRANCH  45  46
ATOM     46  C   UNL     1       8.173  -3.402   2.218  1.00  0.00     0.202 C 
BRANCH  46  47
ATOM     47  C   UNL     1       8.902  -2.014   2.259  1.00  0.00     0.261 C 
BRANCH  47  48
ATOM     48  O   UNL     1       9.109  -1.052   1.166  1.00  0.00    -0.460 OA
BRANCH  48  49
ATOM     49  C   UNL     1      10.404  -0.558   1.062  1.00  0.00     0.338 C 
ATOM     50  O   UNL     1      11.377  -1.252   1.338  1.00  0.00    -0.246 OA
BRANCH  49  51
ATOM     51  C   UNL     1      10.630   0.924   0.640  1.00  0.00     0.060 A 
ATOM     52  C   UNL     1      10.976   1.268  -0.665  1.00  0.00     0.016 A 
ATOM     53  C   UNL     1      10.889   1.962   1.569  1.00  0.00     0.016 A 
ATOM     54  C   UNL     1      11.478   2.598  -1.016  1.00  0.00     0.010 A 
ATOM     55  C   UNL     1      11.444   3.300   1.215  1.00  0.00     0.010 A 
ATOM     56  C   UNL     1      11.758   3.691  -0.105  1.00  0.00    -0.014 A 
BRANCH  56  57
ATOM     57  C   UNL     1      12.837   4.876  -0.601  1.00  0.00     0.031 A 
ATOM     58  C   UNL     1      13.915   4.031  -1.195  1.00  0.00     0.074 A 
ATOM     59  C   UNL     1      13.150   6.261  -0.591  1.00  0.00     0.049 A 
ATOM     60  N   UNL     1      14.495   3.111  -0.472  1.00  0.00    -0.248 NA
ATOM     61  C   UNL     1      14.107   3.892  -2.638  1.00  0.00     0.031 C 
ATOM     62  C   UNL     1      12.412   7.362   0.063  1.00  0.00     0.029 A 
ATOM     63  N   UNL     1      14.227   7.056  -1.176  1.00  0.00    -0.354 N 
ATOM     64  C   UNL     1      15.358   2.455  -1.315  1.00  0.00     0.074 A 
ATOM     65  C   UNL     1      14.906   2.819  -2.652  1.00  0.00     0.031 C 
ATOM     66  C   UNL     1      12.916   8.600  -0.246  1.00  0.00     0.029 A 
ATOM     67  C   UNL     1      14.107   8.514  -1.096  1.00  0.00     0.049 A 
ATOM     68  H   UNL     1      15.002   6.629  -1.607  1.00  0.00     0.167 HD
ATOM     69  C   UNL     1      16.642   2.367  -0.861  1.00  0.00     0.037 A 
ATOM     70  C   UNL     1      14.908   9.571  -1.582  1.00  0.00     0.037 A 
ATOM     71  C   UNL     1      17.477   3.392  -1.422  1.00  0.00     0.049 A 
ATOM     72  C   UNL     1      16.253   9.018  -1.755  1.00  0.00     0.074 A 
ATOM     73  C   UNL     1      17.625   3.862  -2.711  1.00  0.00     0.029 A 
ATOM     74  N   UNL     1      17.922   4.388  -0.580  1.00  0.00    -0.354 N 
ATOM     75  N   UNL     1      17.055   8.864  -0.747  1.00  0.00    -0.248 NA
ATOM     76  C   UNL     1      16.829   8.742  -3.067  1.00  0.00     0.031 C 
ATOM     77  C   UNL     1      17.616   5.263  -2.571  1.00  0.00     0.029 A 
ATOM     78  C   UNL     1      17.917   5.586  -1.254  1.00  0.00     0.049 A 
ATOM     79  H   UNL     1      18.201   4.261   0.356  1.00  0.00     0.167 HD
ATOM     80  C   UNL     1      17.947   7.962  -1.225  1.00  0.00     0.074 A 
ATOM     81  C   UNL     1      17.956   8.152  -2.664  1.00  0.00     0.031 C 
ATOM     82  C   UNL     1      18.017   6.813  -0.512  1.00  0.00     0.037 A 
BRANCH  69  83
ATOM     83  C   UNL     1      16.737   1.869   0.549  1.00  0.00     0.064 A 
ATOM     84  C   UNL     1      17.147   0.551   0.767  1.00  0.00     0.173 A 
ATOM     85  C   UNL     1      16.281   2.603   1.663  1.00  0.00     0.173 A 
ATOM     86  F   UNL     1      17.642  -0.175  -0.247  1.00  0.00    -0.203 F 
ATOM     87  C   UNL     1      17.043  -0.030   2.029  1.00  0.00     0.198 A 
ATOM     88  C   UNL     1      16.119   2.002   2.905  1.00  0.00     0.198 A 
ATOM     89  F   UNL     1      15.993   3.911   1.551  1.00  0.00    -0.203 F 
ATOM     90  F   UNL     1      17.461  -1.289   2.220  1.00  0.00    -0.200 F 
ATOM     91  C   UNL     1      16.495   0.683   3.087  1.00  0.00     0.200 A 
ATOM     92  F   UNL     1      15.597   2.703   3.922  1.00  0.00    -0.200 F 
ATOM     93  F   UNL     1      16.347   0.104   4.286  1.00  0.00    -0.200 F 
ENDBRANCH  69  83
BRANCH  70  94
ATOM     94  C   UNL     1      15.028  11.131  -1.852  1.00  0.00     0.064 A 
ATOM     95  C   UNL     1      16.311  11.809  -1.843  1.00  0.00     0.173 A 
ATOM     96  C   UNL     1      14.042  11.871  -2.521  1.00  0.00     0.173 A 
ATOM     97  F   UNL     1      17.372  11.297  -1.205  1.00  0.00    -0.203 F 
ATOM     98  C   UNL     1      16.595  13.002  -2.540  1.00  0.00     0.198 A 
ATOM     99  C   UNL     1      14.323  13.100  -3.191  1.00  0.00     0.198 A 
ATOM    100  F   UNL     1      12.799  11.384  -2.619  1.00  0.00    -0.203 F 
ATOM    101  F   UNL     1      17.851  13.480  -2.585  1.00  0.00    -0.200 F 
ATOM    102  C   UNL     1      15.600  13.640  -3.235  1.00  0.00     0.200 A 
ATOM    103  F   UNL     1      13.349  13.732  -3.863  1.00  0.00    -0.200 F 
ATOM    104  F   UNL     1      15.873  14.737  -3.959  1.00  0.00    -0.200 F 
ENDBRANCH  70  94
BRANCH  82 105
ATOM    105  C   UNL     1      18.031   6.958   0.999  1.00  0.00     0.064 A 
ATOM    106  C   UNL     1      17.101   7.669   1.798  1.00  0.00     0.173 A 
ATOM    107  C   UNL     1      19.135   6.423   1.674  1.00  0.00     0.173 A 
ATOM    108  F   UNL     1      15.947   8.138   1.303  1.00  0.00    -0.203 F 
ATOM    109  C   UNL     1      17.325   7.903   3.158  1.00  0.00     0.198 A 
ATOM    110  C   UNL     1      19.328   6.610   3.042  1.00  0.00     0.198 A 
ATOM    111  F   UNL     1      20.040   5.697   1.000  1.00  0.00    -0.203 F 
ATOM    112  F   UNL     1      16.457   8.643   3.867  1.00  0.00    -0.200 F 
ATOM    113  C   UNL     1      18.439   7.372   3.779  1.00  0.00     0.200 A 
ATOM    114  F   UNL     1      20.385   6.049   3.643  1.00  0.00    -0.200 F 
ATOM    115  F   UNL     1      18.647   7.578   5.087  1.00  0.00    -0.200 F 
ENDBRANCH  82 105
ENDBRANCH  56  57
ENDBRANCH  49  51
ENDBRANCH  48  49
ENDBRANCH  47  48
ENDBRANCH  46  47
ENDBRANCH  45  46
ENDBRANCH  44  45
ENDBRANCH  43  44
ENDBRANCH  42  43
ENDBRANCH  41  42
ENDBRANCH   1  41
TORSDOF 29
