REMARK SMILES O=C(Cn1nc(C(=O)OCCOCCOCCOCCOC(=O)c2ccc(-c3c4nc(c(-c5c(F)c(F)c(F)c(F)c5F)c5ccc([nH]5)c(-c5c(F)c(F)c(F)c(F)c5F)c5nc(c(-c6c(F)c(F)c(F)c(F)c6F)c6ccc3[nH]6)C=C5)C=C4)cc2)c2ccccc2c1=O)Nc1ccc2c(c1)C(=O)c1ccccc1C2=O
REMARK SMILES IDX 14 1 13 2 12 3 11 4 10 5 9 6 7 7 8 8 6 9 4 10 5 11 93 12
REMARK SMILES IDX 92 13 94 14 87 15 91 16 88 17 90 18 89 19 3 20 2 21 1 22
REMARK SMILES IDX 95 23 96 25 97 26 101 27 98 28 100 29 99 30 102 31 110 32
REMARK SMILES IDX 103 33 104 34 109 35 111 36 105 37 108 38 106 39 107 40
REMARK SMILES IDX 15 41 16 42 17 43 18 44 19 45 20 46 21 47 22 48 23 49 24 50
REMARK SMILES IDX 25 51 86 52 26 53 85 54 27 55 28 56 29 57 79 58 30 59 84 60
REMARK SMILES IDX 78 61 80 62 31 63 83 64 77 65 76 66 32 68 64 69 44 70 63 71
REMARK SMILES IDX 45 72 48 73 62 74 81 75 46 76 47 77 61 79 82 80 49 81 33 82
REMARK SMILES IDX 34 83 42 84 35 85 36 86 40 87 43 88 37 89 38 90 41 91 39 92
REMARK SMILES IDX 65 93 66 94 74 95 67 96 68 97 72 98 75 99 69 100 70 101
REMARK SMILES IDX 73 102 71 103 50 104 51 105 59 106 52 107 53 108 57 109
REMARK SMILES IDX 60 110 54 111 55 112 58 113 56 114
REMARK H PARENT 95 24 80 67 48 78
REMARK Flexibility Score: inf
ROOT
ATOM      1  C   UNL     1       3.441  -5.163  -0.286  1.00  0.00     0.188 C 
ENDROOT
BRANCH   1   2
ATOM      2  C   UNL     1       3.810  -6.381   0.569  1.00  0.00     0.188 C 
BRANCH   2   3
ATOM      3  O   UNL     1       2.670  -7.174   0.892  1.00  0.00    -0.376 OA
BRANCH   3   4
ATOM      4  C   UNL     1       2.232  -7.154   2.242  1.00  0.00     0.202 C 
BRANCH   4   5
ATOM      5  C   UNL     1       1.447  -5.899   2.632  1.00  0.00     0.261 C 
BRANCH   5   6
ATOM      6  O   UNL     1       2.150  -4.674   2.377  1.00  0.00    -0.458 OA
BRANCH   6   7
ATOM      7  C   UNL     1       3.103  -4.291   3.244  1.00  0.00     0.359 C 
ATOM      8  O   UNL     1       3.459  -4.866   4.254  1.00  0.00    -0.244 OA
BRANCH   7   9
ATOM      9  C   UNL     1       3.801  -3.048   2.686  1.00  0.00     0.176 A 
ATOM     10  N   UNL     1       3.626  -0.874   1.903  1.00  0.00    -0.219 N 
ATOM     11  N   UNL     1       3.059  -2.001   2.463  1.00  0.00    -0.161 NA
ATOM     12  C   UNL     1       4.964  -0.781   1.537  1.00  0.00     0.275 A 
ATOM     13  C   UNL     1       5.816  -1.946   1.851  1.00  0.00     0.051 A 
ATOM     14  O   UNL     1       5.452   0.202   0.984  1.00  0.00    -0.267 OA
ATOM     15  C   UNL     1       5.247  -3.090   2.403  1.00  0.00     0.022 A 
ATOM     16  C   UNL     1       7.194  -1.896   1.595  1.00  0.00     0.014 A 
ATOM     17  C   UNL     1       6.056  -4.205   2.667  1.00  0.00     0.011 A 
ATOM     18  C   UNL     1       7.996  -3.006   1.864  1.00  0.00     0.001 A 
ATOM     19  C   UNL     1       7.424  -4.163   2.386  1.00  0.00     0.001 A 
BRANCH  10  20
ATOM     20  C   UNL     1       2.735   0.271   1.674  1.00  0.00     0.248 C 
BRANCH  20  21
ATOM     21  C   UNL     1       1.861   0.044   0.443  1.00  0.00     0.246 C 
ATOM     22  O   UNL     1       0.896  -0.720   0.475  1.00  0.00    -0.273 OA
ATOM     23  N   UNL     1       2.270   0.702  -0.711  1.00  0.00    -0.324 N 
ATOM     24  H   UNL     1       2.827   1.509  -0.620  1.00  0.00     0.169 HD
BRANCH  23  25
ATOM     25  C   UNL     1       1.924   0.267  -2.008  1.00  0.00     0.042 A 
ATOM     26  C   UNL     1       1.901   1.168  -3.086  1.00  0.00     0.027 A 
ATOM     27  C   UNL     1       1.800  -1.096  -2.254  1.00  0.00     0.039 A 
ATOM     28  C   UNL     1       1.837   0.710  -4.416  1.00  0.00     0.015 A 
ATOM     29  C   UNL     1       1.840  -1.530  -3.571  1.00  0.00     0.036 A 
ATOM     30  C   UNL     1       1.905  -0.658  -4.651  1.00  0.00     0.034 A 
ATOM     31  C   UNL     1       2.141  -2.935  -3.812  1.00  0.00     0.194 C 
ATOM     32  C   UNL     1       2.353  -1.209  -5.963  1.00  0.00     0.194 C 
ATOM     33  O   UNL     1       1.499  -3.807  -3.305  1.00  0.00    -0.289 OA
ATOM     34  C   UNL     1       3.280  -3.135  -4.718  1.00  0.00     0.034 A 
ATOM     35  C   UNL     1       3.325  -2.338  -5.861  1.00  0.00     0.034 A 
ATOM     36  O   UNL     1       2.072  -0.683  -7.026  1.00  0.00    -0.289 OA
ATOM     37  C   UNL     1       4.348  -3.944  -4.351  1.00  0.00     0.013 A 
ATOM     38  C   UNL     1       4.398  -2.459  -6.740  1.00  0.00     0.013 A 
ATOM     39  C   UNL     1       5.461  -4.003  -5.186  1.00  0.00     0.001 A 
ATOM     40  C   UNL     1       5.469  -3.293  -6.393  1.00  0.00     0.001 A 
ENDBRANCH  23  25
ENDBRANCH  20  21
ENDBRANCH  10  20
ENDBRANCH   7   9
ENDBRANCH   6   7
ENDBRANCH   5   6
ENDBRANCH   4   5
ENDBRANCH   3   4
ENDBRANCH   2   3
ENDBRANCH   1   2
BRANCH   1  41
ATOM     41  O   UNL     1       2.914  -5.506  -1.557  1.00  0.00    -0.377 OA
BRANCH  41  42
ATOM     42  C   UNL     1       1.688  -6.227  -1.517  1.00  0.00     0.188 C 
BRANCH  42  43
ATOM     43  C   UNL     1       1.822  -7.736  -1.804  1.00  0.00     0.188 C 
BRANCH  43  44
ATOM     44  O   UNL     1       3.081  -8.300  -2.161  1.00  0.00    -0.376 OA
BRANCH  44  45
ATOM     45  C   UNL     1       3.910  -7.625  -3.097  1.00  0.00     0.202 C 
BRANCH  45  46
ATOM     46  C   UNL     1       3.366  -7.362  -4.506  1.00  0.00     0.261 C 
BRANCH  46  47
ATOM     47  O   UNL     1       2.116  -6.660  -4.528  1.00  0.00    -0.460 OA
BRANCH  47  48
ATOM     48  C   UNL     1       1.069  -7.349  -5.043  1.00  0.00     0.338 C 
ATOM     49  O   UNL     1       1.094  -8.451  -5.565  1.00  0.00    -0.246 OA
BRANCH  48  50
ATOM     50  C   UNL     1      -0.192  -6.654  -4.719  1.00  0.00     0.060 A 
ATOM     51  C   UNL     1      -0.434  -5.346  -5.135  1.00  0.00     0.016 A 
ATOM     52  C   UNL     1      -1.166  -7.359  -3.999  1.00  0.00     0.016 A 
ATOM     53  C   UNL     1      -1.661  -4.745  -4.835  1.00  0.00     0.010 A 
ATOM     54  C   UNL     1      -2.392  -6.762  -3.706  1.00  0.00     0.010 A 
ATOM     55  C   UNL     1      -2.661  -5.460  -4.148  1.00  0.00    -0.014 A 
BRANCH  55  56
ATOM     56  C   UNL     1      -4.049  -4.936  -4.074  1.00  0.00     0.031 A 
ATOM     57  C   UNL     1      -4.674  -4.495  -2.784  1.00  0.00     0.074 A 
ATOM     58  C   UNL     1      -4.772  -4.932  -5.211  1.00  0.00     0.049 A 
ATOM     59  N   UNL     1      -5.899  -4.084  -2.563  1.00  0.00    -0.248 NA
ATOM     60  C   UNL     1      -3.825  -4.528  -1.585  1.00  0.00     0.031 C 
ATOM     61  C   UNL     1      -4.277  -5.373  -6.516  1.00  0.00     0.029 A 
ATOM     62  N   UNL     1      -6.066  -4.549  -5.458  1.00  0.00    -0.354 N 
ATOM     63  C   UNL     1      -5.971  -3.805  -1.205  1.00  0.00     0.074 A 
ATOM     64  C   UNL     1      -4.673  -4.125  -0.644  1.00  0.00     0.031 C 
ATOM     65  C   UNL     1      -5.238  -5.199  -7.433  1.00  0.00     0.029 A 
ATOM     66  C   UNL     1      -6.435  -4.689  -6.773  1.00  0.00     0.049 A 
ATOM     67  H   UNL     1      -6.671  -4.207  -4.761  1.00  0.00     0.167 HD
ATOM     68  C   UNL     1      -7.022  -3.316  -0.503  1.00  0.00     0.037 A 
ATOM     69  C   UNL     1      -7.610  -4.449  -7.384  1.00  0.00     0.037 A 
ATOM     70  C   UNL     1      -8.308  -2.994  -1.075  1.00  0.00     0.049 A 
ATOM     71  C   UNL     1      -8.765  -3.940  -6.572  1.00  0.00     0.074 A 
ATOM     72  C   UNL     1      -9.423  -2.464  -0.445  1.00  0.00     0.029 A 
ATOM     73  N   UNL     1      -8.653  -3.169  -2.407  1.00  0.00    -0.354 N 
ATOM     74  N   UNL     1      -8.811  -3.652  -5.295  1.00  0.00    -0.248 NA
ATOM     75  C   UNL     1     -10.033  -3.730  -7.283  1.00  0.00     0.031 C 
ATOM     76  C   UNL     1     -10.454  -2.363  -1.384  1.00  0.00     0.029 A 
ATOM     77  C   UNL     1      -9.969  -2.780  -2.612  1.00  0.00     0.049 A 
ATOM     78  H   UNL     1      -8.052  -3.519  -3.105  1.00  0.00     0.167 HD
ATOM     79  C   UNL     1     -10.104  -3.215  -5.050  1.00  0.00     0.074 A 
ATOM     80  C   UNL     1     -10.805  -3.252  -6.317  1.00  0.00     0.031 C 
ATOM     81  C   UNL     1     -10.658  -2.824  -3.877  1.00  0.00     0.037 A 
BRANCH  68  82
ATOM     82  C   UNL     1      -6.846  -3.080   0.971  1.00  0.00     0.064 A 
ATOM     83  C   UNL     1      -6.080  -2.009   1.452  1.00  0.00     0.173 A 
ATOM     84  C   UNL     1      -7.544  -3.859   1.908  1.00  0.00     0.173 A 
ATOM     85  F   UNL     1      -5.397  -1.230   0.599  1.00  0.00    -0.203 F 
ATOM     86  C   UNL     1      -6.012  -1.731   2.816  1.00  0.00     0.198 A 
ATOM     87  C   UNL     1      -7.494  -3.562   3.268  1.00  0.00     0.198 A 
ATOM     88  F   UNL     1      -8.306  -4.885   1.501  1.00  0.00    -0.203 F 
ATOM     89  F   UNL     1      -5.261  -0.710   3.254  1.00  0.00    -0.200 F 
ATOM     90  C   UNL     1      -6.727  -2.500   3.721  1.00  0.00     0.200 A 
ATOM     91  F   UNL     1      -8.204  -4.293   4.139  1.00  0.00    -0.200 F 
ATOM     92  F   UNL     1      -6.682  -2.214   5.030  1.00  0.00    -0.200 F 
ENDBRANCH  68  82
BRANCH  69  93
ATOM     93  C   UNL     1      -7.732  -4.672  -8.847  1.00  0.00     0.064 A 
ATOM     94  C   UNL     1      -7.869  -3.590  -9.726  1.00  0.00     0.173 A 
ATOM     95  C   UNL     1      -7.673  -5.960  -9.399  1.00  0.00     0.173 A 
ATOM     96  F   UNL     1      -7.950  -2.341  -9.244  1.00  0.00    -0.203 F 
ATOM     97  C   UNL     1      -7.947  -3.788 -11.102  1.00  0.00     0.198 A 
ATOM     98  C   UNL     1      -7.720  -6.155 -10.777  1.00  0.00     0.198 A 
ATOM     99  F   UNL     1      -7.538  -7.029  -8.599  1.00  0.00    -0.203 F 
ATOM    100  F   UNL     1      -8.111  -2.739 -11.920  1.00  0.00    -0.200 F 
ATOM    101  C   UNL     1      -7.862  -5.069 -11.627  1.00  0.00     0.200 A 
ATOM    102  F   UNL     1      -7.619  -7.393 -11.281  1.00  0.00    -0.200 F 
ATOM    103  F   UNL     1      -7.921  -5.258 -12.953  1.00  0.00    -0.200 F 
ENDBRANCH  69  93
BRANCH  81 104
ATOM    104  C   UNL     1     -12.095  -2.393  -3.906  1.00  0.00     0.064 A 
ATOM    105  C   UNL     1     -13.134  -3.321  -4.065  1.00  0.00     0.173 A 
ATOM    106  C   UNL     1     -12.440  -1.045  -3.720  1.00  0.00     0.173 A 
ATOM    107  F   UNL     1     -12.856  -4.619  -4.263  1.00  0.00    -0.203 F 
ATOM    108  C   UNL     1     -14.466  -2.914  -4.054  1.00  0.00     0.198 A 
ATOM    109  C   UNL     1     -13.773  -0.646  -3.680  1.00  0.00     0.198 A 
ATOM    110  F   UNL     1     -11.484  -0.118  -3.559  1.00  0.00    -0.203 F 
ATOM    111  F   UNL     1     -15.441  -3.813  -4.247  1.00  0.00    -0.200 F 
ATOM    112  C   UNL     1     -14.784  -1.579  -3.852  1.00  0.00     0.200 A 
ATOM    113  F   UNL     1     -14.079   0.642  -3.472  1.00  0.00    -0.200 F 
ATOM    114  F   UNL     1     -16.066  -1.191  -3.828  1.00  0.00    -0.200 F 
ENDBRANCH  81 104
ENDBRANCH  55  56
ENDBRANCH  48  50
ENDBRANCH  47  48
ENDBRANCH  46  47
ENDBRANCH  45  46
ENDBRANCH  44  45
ENDBRANCH  43  44
ENDBRANCH  42  43
ENDBRANCH  41  42
ENDBRANCH   1  41
TORSDOF 23
