REMARK SMILES CCOC(=O)C1=NN(c2ccc([N+](=O)[O-])cc2C(F)(F)F)[C@@](C)(C(=O)OCCOCCOCCOCCOC(=O)c2ccc(-c3c4nc(c(-c5c(F)c(F)c(F)c(F)c5F)c5ccc([nH]5)c(-c5c(F)c(F)c(F)c(F)c5F)c5nc(c(-c6c(F)c(F)c(F)c(F)c6F)c6ccc3[nH]6)C=C5)C=C4)cc2)C1
REMARK SMILES IDX 31 1 30 2 29 3 28 4 27 5 26 6 24 7 25 8 22 9 6 10 7 11
REMARK SMILES IDX 104 12 8 13 23 14 4 15 5 16 3 17 2 18 1 19 9 20 10 21 17 22
REMARK SMILES IDX 11 23 16 24 12 25 18 26 19 27 20 28 21 29 13 30 14 31 15 32
REMARK SMILES IDX 32 33 33 34 34 35 35 36 36 37 37 38 38 39 39 40 40 41 41 42
REMARK SMILES IDX 42 43 103 44 43 45 102 46 44 47 45 48 46 49 96 50 47 51
REMARK SMILES IDX 101 52 95 53 97 54 48 55 100 56 94 57 93 58 49 60 81 61
REMARK SMILES IDX 61 62 80 63 62 64 65 65 79 66 98 67 63 68 64 69 78 71 99 72
REMARK SMILES IDX 66 73 50 74 51 75 59 76 52 77 53 78 57 79 60 80 54 81 55 82
REMARK SMILES IDX 58 83 56 84 82 85 83 86 91 87 84 88 85 89 89 90 92 91 86 92
REMARK SMILES IDX 87 93 90 94 88 95 67 96 68 97 76 98 69 99 70 100 74 101
REMARK SMILES IDX 77 102 71 103 72 104 75 105 73 106
REMARK H PARENT 97 59 65 70
REMARK Flexibility Score: inf
ROOT
ATOM      1  C   UNL     1       4.722  -6.214  -1.140  1.00  0.00     0.188 C 
ENDROOT
BRANCH   1   2
ATOM      2  C   UNL     1       5.699  -5.029  -1.199  1.00  0.00     0.188 C 
BRANCH   2   3
ATOM      3  O   UNL     1       7.091  -5.186  -0.940  1.00  0.00    -0.376 OA
BRANCH   3   4
ATOM      4  C   UNL     1       7.619  -6.429  -0.518  1.00  0.00     0.202 C 
BRANCH   4   5
ATOM      5  C   UNL     1       7.279  -6.919   0.905  1.00  0.00     0.261 C 
BRANCH   5   6
ATOM      6  O   UNL     1       5.926  -6.733   1.381  1.00  0.00    -0.461 OA
BRANCH   6   7
ATOM      7  C   UNL     1       5.685  -5.517   1.930  1.00  0.00     0.334 C 
ATOM      8  O   UNL     1       6.562  -4.659   2.042  1.00  0.00    -0.249 OA
BRANCH   7   9
ATOM      9  C   UNL     1       4.282  -5.308   2.550  1.00  0.00     0.163 C 
ATOM     10  C   UNL     1       2.922  -3.956   1.232  1.00  0.00     0.149 C 
ATOM     11  N   UNL     1       2.423  -5.137   1.054  1.00  0.00    -0.169 NA
ATOM     12  C   UNL     1       3.930  -3.813   2.319  1.00  0.00     0.108 C 
ATOM     13  N   UNL     1       3.089  -5.980   1.917  1.00  0.00    -0.247 N 
ATOM     14  C   UNL     1       4.504  -5.629   4.021  1.00  0.00     0.050 C 
BRANCH  10  15
ATOM     15  C   UNL     1       2.560  -2.779   0.364  1.00  0.00     0.354 C 
ATOM     16  O   UNL     1       3.403  -2.232  -0.324  1.00  0.00    -0.245 OA
BRANCH  15  17
ATOM     17  O   UNL     1       1.248  -2.498   0.452  1.00  0.00    -0.461 OA
BRANCH  17  18
ATOM     18  C   UNL     1       0.775  -1.495  -0.461  1.00  0.00     0.230 C 
ATOM     19  C   UNL     1       1.027  -0.100   0.082  1.00  0.00     0.049 C 
ENDBRANCH  17  18
ENDBRANCH  15  17
ENDBRANCH  10  15
BRANCH  13  20
ATOM     20  C   UNL     1       2.516  -7.241   2.046  1.00  0.00     0.073 A 
ATOM     21  C   UNL     1       2.357  -8.029   0.876  1.00  0.00     0.036 A 
ATOM     22  C   UNL     1       1.879  -7.729   3.204  1.00  0.00     0.088 A 
ATOM     23  C   UNL     1       1.723  -9.278   0.857  1.00  0.00     0.088 A 
ATOM     24  C   UNL     1       1.299  -9.029   3.211  1.00  0.00     0.101 A 
ATOM     25  C   UNL     1       1.222  -9.792   2.043  1.00  0.00     0.270 A 
BRANCH  22  26
ATOM     26  C   UNL     1       1.629  -6.898   4.438  1.00  0.00     0.418 C 
ATOM     27  F   UNL     1       0.427  -7.186   5.021  1.00  0.00    -0.166 F 
ATOM     28  F   UNL     1       2.554  -7.126   5.410  1.00  0.00    -0.166 F 
ATOM     29  F   UNL     1       1.600  -5.553   4.232  1.00  0.00    -0.166 F 
ENDBRANCH  22  26
BRANCH  25  30
ATOM     30  N   UNL     1       0.553 -11.099   2.058  1.00  0.00     0.062 N 
ATOM     31  O   UNL     1       0.370 -11.666   0.971  1.00  0.00    -0.258 OA
ATOM     32  O   UNL     1       0.211 -11.555   3.158  1.00  0.00    -0.258 OA
ENDBRANCH  25  30
ENDBRANCH  13  20
ENDBRANCH   7   9
ENDBRANCH   6   7
ENDBRANCH   5   6
ENDBRANCH   4   5
ENDBRANCH   3   4
ENDBRANCH   2   3
ENDBRANCH   1   2
BRANCH   1  33
ATOM     33  O   UNL     1       5.299  -7.503  -1.225  1.00  0.00    -0.377 OA
BRANCH  33  34
ATOM     34  C   UNL     1       5.250  -8.138  -2.488  1.00  0.00     0.188 C 
BRANCH  34  35
ATOM     35  C   UNL     1       5.620  -7.267  -3.696  1.00  0.00     0.188 C 
BRANCH  35  36
ATOM     36  O   UNL     1       4.841  -6.081  -3.780  1.00  0.00    -0.376 OA
BRANCH  36  37
ATOM     37  C   UNL     1       3.714  -6.046  -4.640  1.00  0.00     0.202 C 
BRANCH  37  38
ATOM     38  C   UNL     1       2.493  -6.909  -4.276  1.00  0.00     0.261 C 
BRANCH  38  39
ATOM     39  O   UNL     1       2.714  -8.317  -4.094  1.00  0.00    -0.460 OA
BRANCH  39  40
ATOM     40  C   UNL     1       3.247  -9.018  -5.115  1.00  0.00     0.338 C 
ATOM     41  O   UNL     1       3.518  -8.604  -6.229  1.00  0.00    -0.246 OA
BRANCH  40  42
ATOM     42  C   UNL     1       3.655 -10.340  -4.589  1.00  0.00     0.060 A 
ATOM     43  C   UNL     1       5.000 -10.721  -4.691  1.00  0.00     0.016 A 
ATOM     44  C   UNL     1       2.729 -11.188  -3.975  1.00  0.00     0.016 A 
ATOM     45  C   UNL     1       5.418 -11.962  -4.209  1.00  0.00     0.010 A 
ATOM     46  C   UNL     1       3.142 -12.445  -3.521  1.00  0.00     0.010 A 
ATOM     47  C   UNL     1       4.481 -12.850  -3.667  1.00  0.00    -0.014 A 
BRANCH  47  48
ATOM     48  C   UNL     1       4.858 -14.270  -3.459  1.00  0.00     0.031 A 
ATOM     49  C   UNL     1       4.518 -15.258  -4.541  1.00  0.00     0.074 A 
ATOM     50  C   UNL     1       5.513 -14.673  -2.356  1.00  0.00     0.049 A 
ATOM     51  N   UNL     1       4.700 -16.553  -4.578  1.00  0.00    -0.248 NA
ATOM     52  C   UNL     1       3.884 -14.706  -5.750  1.00  0.00     0.031 C 
ATOM     53  C   UNL     1       5.941 -13.805  -1.263  1.00  0.00     0.029 A 
ATOM     54  N   UNL     1       5.923 -15.927  -1.974  1.00  0.00    -0.354 N 
ATOM     55  C   UNL     1       4.198 -16.969  -5.804  1.00  0.00     0.074 A 
ATOM     56  C   UNL     1       3.677 -15.797  -6.472  1.00  0.00     0.031 C 
ATOM     57  C   UNL     1       6.541 -14.556  -0.321  1.00  0.00     0.029 A 
ATOM     58  C   UNL     1       6.506 -15.960  -0.731  1.00  0.00     0.049 A 
ATOM     59  H   UNL     1       5.810 -16.726  -2.537  1.00  0.00     0.167 HD
ATOM     60  C   UNL     1       4.179 -18.216  -6.329  1.00  0.00     0.037 A 
ATOM     61  C   UNL     1       6.934 -17.009  -0.000  1.00  0.00     0.037 A 
ATOM     62  C   UNL     1       4.695 -19.381  -5.660  1.00  0.00     0.049 A 
ATOM     63  C   UNL     1       6.824 -18.402  -0.574  1.00  0.00     0.074 A 
ATOM     64  C   UNL     1       4.738 -20.687  -6.114  1.00  0.00     0.029 A 
ATOM     65  N   UNL     1       5.246 -19.380  -4.388  1.00  0.00    -0.354 N 
ATOM     66  N   UNL     1       6.376 -18.785  -1.746  1.00  0.00    -0.248 NA
ATOM     67  C   UNL     1       7.284 -19.509   0.278  1.00  0.00     0.031 C 
ATOM     68  C   UNL     1       5.256 -21.487  -5.091  1.00  0.00     0.029 A 
ATOM     69  C   UNL     1       5.604 -20.669  -4.028  1.00  0.00     0.049 A 
ATOM     70  H   UNL     1       5.366 -18.582  -3.824  1.00  0.00     0.167 HD
ATOM     71  C   UNL     1       6.534 -20.166  -1.785  1.00  0.00     0.074 A 
ATOM     72  C   UNL     1       7.132 -20.552  -0.525  1.00  0.00     0.031 C 
ATOM     73  C   UNL     1       6.214 -21.036  -2.775  1.00  0.00     0.037 A 
BRANCH  60  74
ATOM     74  C   UNL     1       3.552 -18.394  -7.681  1.00  0.00     0.064 A 
ATOM     75  C   UNL     1       4.155 -17.901  -8.848  1.00  0.00     0.173 A 
ATOM     76  C   UNL     1       2.349 -19.104  -7.815  1.00  0.00     0.173 A 
ATOM     77  F   UNL     1       5.298 -17.202  -8.775  1.00  0.00    -0.203 F 
ATOM     78  C   UNL     1       3.566 -18.094 -10.096  1.00  0.00     0.198 A 
ATOM     79  C   UNL     1       1.780 -19.323  -9.066  1.00  0.00     0.198 A 
ATOM     80  F   UNL     1       1.730 -19.597  -6.731  1.00  0.00    -0.203 F 
ATOM     81  F   UNL     1       4.136 -17.575 -11.192  1.00  0.00    -0.200 F 
ATOM     82  C   UNL     1       2.385 -18.813 -10.204  1.00  0.00     0.200 A 
ATOM     83  F   UNL     1       0.645 -20.029  -9.170  1.00  0.00    -0.200 F 
ATOM     84  F   UNL     1       1.826 -19.008 -11.407  1.00  0.00    -0.200 F 
ENDBRANCH  60  74
BRANCH  61  85
ATOM     85  C   UNL     1       7.487 -16.797   1.365  1.00  0.00     0.064 A 
ATOM     86  C   UNL     1       8.828 -17.082   1.658  1.00  0.00     0.173 A 
ATOM     87  C   UNL     1       6.675 -16.346   2.417  1.00  0.00     0.173 A 
ATOM     88  F   UNL     1       9.641 -17.541   0.695  1.00  0.00    -0.203 F 
ATOM     89  C   UNL     1       9.328 -16.949   2.953  1.00  0.00     0.198 A 
ATOM     90  C   UNL     1       7.184 -16.181   3.703  1.00  0.00     0.198 A 
ATOM     91  F   UNL     1       5.383 -16.062   2.194  1.00  0.00    -0.203 F 
ATOM     92  F   UNL     1      10.598 -17.286   3.216  1.00  0.00    -0.200 F 
ATOM     93  C   UNL     1       8.507 -16.494   3.973  1.00  0.00     0.200 A 
ATOM     94  F   UNL     1       6.390 -15.728   4.683  1.00  0.00    -0.200 F 
ATOM     95  F   UNL     1       8.988 -16.367   5.217  1.00  0.00    -0.200 F 
ENDBRANCH  61  85
BRANCH  73  96
ATOM     96  C   UNL     1       6.551 -22.486  -2.564  1.00  0.00     0.064 A 
ATOM     97  C   UNL     1       5.865 -23.281  -1.635  1.00  0.00     0.173 A 
ATOM     98  C   UNL     1       7.546 -23.100  -3.343  1.00  0.00     0.173 A 
ATOM     99  F   UNL     1       4.914 -22.742  -0.857  1.00  0.00    -0.203 F 
ATOM    100  C   UNL     1       6.181 -24.628  -1.473  1.00  0.00     0.198 A 
ATOM    101  C   UNL     1       7.834 -24.454  -3.204  1.00  0.00     0.198 A 
ATOM    102  F   UNL     1       8.226 -22.389  -4.255  1.00  0.00    -0.203 F 
ATOM    103  F   UNL     1       5.548 -25.355  -0.542  1.00  0.00    -0.200 F 
ATOM    104  C   UNL     1       7.158 -25.215  -2.263  1.00  0.00     0.200 A 
ATOM    105  F   UNL     1       8.764 -25.023  -3.983  1.00  0.00    -0.200 F 
ATOM    106  F   UNL     1       7.453 -26.514  -2.113  1.00  0.00    -0.200 F 
ENDBRANCH  73  96
ENDBRANCH  47  48
ENDBRANCH  40  42
ENDBRANCH  39  40
ENDBRANCH  38  39
ENDBRANCH  37  38
ENDBRANCH  36  37
ENDBRANCH  35  36
ENDBRANCH  34  35
ENDBRANCH  33  34
ENDBRANCH   1  33
TORSDOF 26
