REMARK SMILES NS(=O)(=O)c1ccc(-n2nc(C(F)F)cc2-c2ccc(C(=O)OCCOCCOCCOCCOC(=O)c3ccc(-c4c5nc(c(-c6c(F)c(F)c(F)c(F)c6F)c6ccc([nH]6)c(-c6c(F)c(F)c(F)c(F)c6F)c6nc(c(-c7c(F)c(F)c(F)c(F)c7F)c7ccc4[nH]7)C=C6)C=C5)cc3)cc2)cc1
REMARK SMILES IDX 28 1 27 2 26 3 25 4 24 5 23 6 21 7 22 8 20 9 17 10 18 11
REMARK SMILES IDX 102 12 19 13 101 14 16 15 9 16 10 17 11 18 15 19 8 20 5 21
REMARK SMILES IDX 6 22 104 23 7 24 103 25 2 26 3 27 4 28 1 29 12 32 13 33
REMARK SMILES IDX 14 34 29 35 30 36 31 37 32 38 33 39 34 40 35 41 36 42 37 43
REMARK SMILES IDX 38 44 39 45 100 46 40 47 99 48 41 49 42 50 43 51 93 52 44 53
REMARK SMILES IDX 98 54 92 55 94 56 45 57 97 58 91 59 90 60 46 62 78 63 58 64
REMARK SMILES IDX 77 65 59 66 62 67 76 68 95 69 60 70 61 71 75 73 96 74 63 75
REMARK SMILES IDX 47 76 48 77 56 78 49 79 50 80 54 81 57 82 51 83 52 84 55 85
REMARK SMILES IDX 53 86 79 87 80 88 88 89 81 90 82 91 86 92 89 93 83 94 84 95
REMARK SMILES IDX 87 96 85 97 64 98 65 99 73 100 66 101 67 102 71 103 74 104
REMARK SMILES IDX 68 105 69 106 72 107 70 108
REMARK H PARENT 1 30 1 31 94 61 62 72
REMARK Flexibility Score: inf
ROOT
ATOM      1  C   UNL     1       5.196  -3.462   1.919  1.00  0.00     0.188 C 
ENDROOT
BRANCH   1   2
ATOM      2  C   UNL     1       6.616  -2.891   1.679  1.00  0.00     0.188 C 
BRANCH   2   3
ATOM      3  O   UNL     1       7.573  -3.850   1.262  1.00  0.00    -0.376 OA
BRANCH   3   4
ATOM      4  C   UNL     1       8.680  -4.099   2.102  1.00  0.00     0.202 C 
BRANCH   4   5
ATOM      5  C   UNL     1       8.350  -4.844   3.400  1.00  0.00     0.261 C 
BRANCH   5   6
ATOM      6  O   UNL     1       7.300  -4.258   4.183  1.00  0.00    -0.460 OA
BRANCH   6   7
ATOM      7  C   UNL     1       7.575  -3.061   4.748  1.00  0.00     0.338 C 
ATOM      8  O   UNL     1       8.632  -2.457   4.694  1.00  0.00    -0.246 OA
BRANCH   7   9
ATOM      9  C   UNL     1       6.316  -2.492   5.282  1.00  0.00     0.060 A 
ATOM     10  C   UNL     1       4.012  -1.325   6.365  1.00  0.00     0.000 A 
ATOM     11  C   UNL     1       4.921  -0.548   5.632  1.00  0.00     0.011 A 
ATOM     12  C   UNL     1       4.231  -2.703   6.491  1.00  0.00     0.011 A 
ATOM     13  C   UNL     1       6.075  -1.127   5.101  1.00  0.00     0.016 A 
ATOM     14  C   UNL     1       5.375  -3.290   5.941  1.00  0.00     0.016 A 
BRANCH  10  15
ATOM     15  C   UNL     1       2.969  -0.667   7.150  1.00  0.00     0.075 A 
ATOM     16  N   UNL     1       2.052   0.273   6.696  1.00  0.00    -0.233 N 
ATOM     17  N   UNL     1       1.558   1.020   7.716  1.00  0.00    -0.166 NA
ATOM     18  C   UNL     1       1.990   0.416   8.835  1.00  0.00     0.129 A 
ATOM     19  C   UNL     1       2.869  -0.644   8.528  1.00  0.00     0.060 A 
BRANCH  16  20
ATOM     20  C   UNL     1       1.617   0.507   5.365  1.00  0.00     0.065 A 
ATOM     21  C   UNL     1       0.806   0.992   2.745  1.00  0.00     0.082 A 
ATOM     22  C   UNL     1       1.044  -0.321   3.162  1.00  0.00     0.024 A 
ATOM     23  C   UNL     1       0.947   2.062   3.635  1.00  0.00     0.024 A 
ATOM     24  C   UNL     1       1.470  -0.562   4.470  1.00  0.00     0.030 A 
ATOM     25  C   UNL     1       1.320   1.816   4.958  1.00  0.00     0.030 A 
BRANCH  21  26
ATOM     26  S   UNL     1       0.368   1.326   1.065  1.00  0.00     0.238 S 
ATOM     27  O   UNL     1       1.014   2.556   0.653  1.00  0.00    -0.207 OA
ATOM     28  O   UNL     1      -1.039   1.081   0.894  1.00  0.00    -0.207 OA
BRANCH  26  29
ATOM     29  N   UNL     1       1.161   0.120   0.194  1.00  0.00    -0.225 NA
ATOM     30  H   UNL     1       0.964   0.234  -0.801  1.00  0.00     0.137 HD
ATOM     31  H   UNL     1       0.832  -0.795   0.503  1.00  0.00     0.137 HD
ENDBRANCH  26  29
ENDBRANCH  21  26
ENDBRANCH  16  20
BRANCH  18  32
ATOM     32  C   UNL     1       1.613   0.878  10.212  1.00  0.00     0.393 C 
ATOM     33  F   UNL     1       1.644   2.232  10.337  1.00  0.00    -0.203 F 
ATOM     34  F   UNL     1       0.355   0.481  10.545  1.00  0.00    -0.203 F 
ENDBRANCH  18  32
ENDBRANCH  10  15
ENDBRANCH   7   9
ENDBRANCH   6   7
ENDBRANCH   5   6
ENDBRANCH   4   5
ENDBRANCH   3   4
ENDBRANCH   2   3
ENDBRANCH   1   2
BRANCH   1  35
ATOM     35  O   UNL     1       4.873  -4.831   1.684  1.00  0.00    -0.377 OA
BRANCH  35  36
ATOM     36  C   UNL     1       5.625  -5.586   0.742  1.00  0.00     0.188 C 
BRANCH  36  37
ATOM     37  C   UNL     1       5.944  -4.980  -0.650  1.00  0.00     0.188 C 
BRANCH  37  38
ATOM     38  O   UNL     1       5.739  -3.578  -0.744  1.00  0.00    -0.376 OA
BRANCH  38  39
ATOM     39  C   UNL     1       4.717  -3.020  -1.546  1.00  0.00     0.202 C 
BRANCH  39  40
ATOM     40  C   UNL     1       3.266  -3.313  -1.179  1.00  0.00     0.261 C 
BRANCH  40  41
ATOM     41  O   UNL     1       3.052  -4.636  -0.739  1.00  0.00    -0.460 OA
BRANCH  41  42
ATOM     42  C   UNL     1       3.200  -5.575  -1.688  1.00  0.00     0.338 C 
ATOM     43  O   UNL     1       3.523  -5.407  -2.851  1.00  0.00    -0.246 OA
BRANCH  42  44
ATOM     44  C   UNL     1       2.824  -6.865  -1.103  1.00  0.00     0.060 A 
ATOM     45  C   UNL     1       2.910  -7.953  -1.969  1.00  0.00     0.016 A 
ATOM     46  C   UNL     1       2.002  -6.856   0.034  1.00  0.00     0.016 A 
ATOM     47  C   UNL     1       1.890  -8.862  -1.918  1.00  0.00     0.010 A 
ATOM     48  C   UNL     1       0.967  -7.747   0.068  1.00  0.00     0.010 A 
ATOM     49  C   UNL     1       0.867  -8.643  -0.990  1.00  0.00    -0.014 A 
BRANCH  49  50
ATOM     50  C   UNL     1      -0.368  -9.348  -1.206  1.00  0.00     0.031 A 
ATOM     51  C   UNL     1      -0.322 -10.740  -0.740  1.00  0.00     0.074 A 
ATOM     52  C   UNL     1      -1.438  -8.730  -1.737  1.00  0.00     0.049 A 
ATOM     53  N   UNL     1      -0.372 -11.818  -1.446  1.00  0.00    -0.248 NA
ATOM     54  C   UNL     1      -0.009 -10.949   0.682  1.00  0.00     0.031 C 
ATOM     55  C   UNL     1      -1.654  -7.293  -1.946  1.00  0.00     0.029 A 
ATOM     56  N   UNL     1      -2.619  -9.276  -2.116  1.00  0.00    -0.354 N 
ATOM     57  C   UNL     1      -0.289 -12.853  -0.526  1.00  0.00     0.074 A 
ATOM     58  C   UNL     1       0.126 -12.272   0.723  1.00  0.00     0.031 C 
ATOM     59  C   UNL     1      -2.967  -7.077  -2.193  1.00  0.00     0.029 A 
ATOM     60  C   UNL     1      -3.642  -8.360  -2.289  1.00  0.00     0.049 A 
ATOM     61  H   UNL     1      -2.739 -10.243  -2.256  1.00  0.00     0.167 HD
ATOM     62  C   UNL     1      -0.847 -14.062  -0.788  1.00  0.00     0.037 A 
ATOM     63  C   UNL     1      -4.957  -8.668  -2.386  1.00  0.00     0.037 A 
ATOM     64  C   UNL     1      -1.030 -14.266  -2.201  1.00  0.00     0.049 A 
ATOM     65  C   UNL     1      -5.053 -10.111  -2.733  1.00  0.00     0.074 A 
ATOM     66  C   UNL     1      -0.179 -14.321  -3.288  1.00  0.00     0.029 A 
ATOM     67  N   UNL     1      -2.288 -14.089  -2.723  1.00  0.00    -0.354 N 
ATOM     68  N   UNL     1      -4.673 -10.617  -3.875  1.00  0.00    -0.248 NA
ATOM     69  C   UNL     1      -5.160 -11.066  -1.639  1.00  0.00     0.031 C 
ATOM     70  C   UNL     1      -0.901 -13.722  -4.362  1.00  0.00     0.029 A 
ATOM     71  C   UNL     1      -2.161 -13.365  -3.881  1.00  0.00     0.049 A 
ATOM     72  H   UNL     1      -3.129 -14.422  -2.336  1.00  0.00     0.167 HD
ATOM     73  C   UNL     1      -4.109 -11.845  -3.555  1.00  0.00     0.074 A 
ATOM     74  C   UNL     1      -4.522 -12.106  -2.180  1.00  0.00     0.031 C 
ATOM     75  C   UNL     1      -3.131 -12.395  -4.334  1.00  0.00     0.037 A 
BRANCH  62  76
ATOM     76  C   UNL     1      -1.572 -14.860   0.262  1.00  0.00     0.064 A 
ATOM     77  C   UNL     1      -1.970 -16.174  -0.036  1.00  0.00     0.173 A 
ATOM     78  C   UNL     1      -2.141 -14.298   1.429  1.00  0.00     0.173 A 
ATOM     79  F   UNL     1      -1.515 -16.791  -1.137  1.00  0.00    -0.203 F 
ATOM     80  C   UNL     1      -2.917 -16.848   0.740  1.00  0.00     0.198 A 
ATOM     81  C   UNL     1      -3.036 -14.995   2.233  1.00  0.00     0.198 A 
ATOM     82  F   UNL     1      -1.951 -13.020   1.778  1.00  0.00    -0.203 F 
ATOM     83  F   UNL     1      -3.361 -18.048   0.347  1.00  0.00    -0.200 F 
ATOM     84  C   UNL     1      -3.450 -16.257   1.871  1.00  0.00     0.200 A 
ATOM     85  F   UNL     1      -3.555 -14.394   3.314  1.00  0.00    -0.200 F 
ATOM     86  F   UNL     1      -4.400 -16.878   2.582  1.00  0.00    -0.200 F 
ENDBRANCH  62  76
BRANCH  63  87
ATOM     87  C   UNL     1      -6.088  -7.909  -1.804  1.00  0.00     0.064 A 
ATOM     88  C   UNL     1      -7.404  -8.126  -2.237  1.00  0.00     0.173 A 
ATOM     89  C   UNL     1      -5.932  -7.150  -0.625  1.00  0.00     0.173 A 
ATOM     90  F   UNL     1      -7.640  -8.882  -3.319  1.00  0.00    -0.203 F 
ATOM     91  C   UNL     1      -8.501  -7.626  -1.526  1.00  0.00     0.198 A 
ATOM     92  C   UNL     1      -7.025  -6.644   0.078  1.00  0.00     0.198 A 
ATOM     93  F   UNL     1      -4.722  -6.966  -0.079  1.00  0.00    -0.203 F 
ATOM     94  F   UNL     1      -9.746  -7.902  -1.936  1.00  0.00    -0.200 F 
ATOM     95  C   UNL     1      -8.310  -6.892  -0.365  1.00  0.00     0.200 A 
ATOM     96  F   UNL     1      -6.826  -5.972   1.220  1.00  0.00    -0.200 F 
ATOM     97  F   UNL     1      -9.360  -6.463   0.347  1.00  0.00    -0.200 F 
ENDBRANCH  63  87
BRANCH  75  98
ATOM     98  C   UNL     1      -2.885 -11.769  -5.679  1.00  0.00     0.064 A 
ATOM     99  C   UNL     1      -2.395 -10.463  -5.853  1.00  0.00     0.173 A 
ATOM    100  C   UNL     1      -3.015 -12.566  -6.823  1.00  0.00     0.173 A 
ATOM    101  F   UNL     1      -2.146  -9.676  -4.799  1.00  0.00    -0.203 F 
ATOM    102  C   UNL     1      -2.094  -9.966  -7.120  1.00  0.00     0.198 A 
ATOM    103  C   UNL     1      -2.679 -12.081  -8.084  1.00  0.00     0.198 A 
ATOM    104  F   UNL     1      -3.422 -13.841  -6.710  1.00  0.00    -0.203 F 
ATOM    105  F   UNL     1      -1.638  -8.713  -7.261  1.00  0.00    -0.200 F 
ATOM    106  C   UNL     1      -2.229 -10.778  -8.233  1.00  0.00     0.200 A 
ATOM    107  F   UNL     1      -2.763 -12.886  -9.152  1.00  0.00    -0.200 F 
ATOM    108  F   UNL     1      -1.899 -10.317  -9.448  1.00  0.00    -0.200 F 
ENDBRANCH  75  98
ENDBRANCH  49  50
ENDBRANCH  42  44
ENDBRANCH  41  42
ENDBRANCH  40  41
ENDBRANCH  39  40
ENDBRANCH  38  39
ENDBRANCH  37  38
ENDBRANCH  36  37
ENDBRANCH  35  36
ENDBRANCH   1  35
TORSDOF 25
