REMARK SMILES O=C(OCCOCCOCCOCCOC(=O)[C@H]1Cc2c([nH]c3ccccc23)[C@H](c2c[nH]c3ccccc23)[NH2+]1)c1ccc(-c2c3nc(c(-c4c(F)c(F)c(F)c(F)c4F)c4ccc([nH]4)c(-c4c(F)c(F)c(F)c(F)c4F)c4nc(c(-c5c(F)c(F)c(F)c(F)c5F)c5ccc2[nH]5)C=C4)C=C3)cc1
REMARK SMILES IDX 8 1 7 2 6 3 5 4 4 5 3 6 2 7 1 8 40 9 41 10 102 11 42 12
REMARK SMILES IDX 101 13 43 14 44 15 45 16 95 17 46 18 100 19 94 20 96 21
REMARK SMILES IDX 47 22 99 23 93 24 92 25 48 27 80 28 60 29 79 30 61 31 64 32
REMARK SMILES IDX 78 33 97 34 62 35 63 36 77 38 98 39 65 40 49 41 50 42 58 43
REMARK SMILES IDX 51 44 52 45 56 46 59 47 53 48 54 49 57 50 55 51 81 52 82 53
REMARK SMILES IDX 90 54 83 55 84 56 88 57 91 58 85 59 86 60 89 61 87 62 66 63
REMARK SMILES IDX 67 64 75 65 68 66 69 67 73 68 76 69 70 70 71 71 74 72 72 73
REMARK SMILES IDX 9 74 10 75 11 76 12 77 13 78 14 79 15 80 16 81 17 82 18 83
REMARK SMILES IDX 19 84 39 85 20 86 29 87 21 90 28 91 22 92 23 93 27 94 24 96
REMARK SMILES IDX 26 97 25 98 30 99 31 100 38 101 32 102 33 103 37 104 34 106
REMARK SMILES IDX 36 107 35 108
REMARK H PARENT 96 26 64 37 39 88 39 89 22 95 32 105
REMARK Flexibility Score: inf
ROOT
ATOM      1  C   UNL     1       1.742  -2.263   0.694  1.00  0.00     0.188 C 
ENDROOT
BRANCH   1   2
ATOM      2  C   UNL     1       2.229  -0.814   0.684  1.00  0.00     0.188 C 
BRANCH   2   3
ATOM      3  O   UNL     1       3.592  -0.699   0.258  1.00  0.00    -0.376 OA
BRANCH   3   4
ATOM      4  C   UNL     1       4.440   0.123   1.069  1.00  0.00     0.202 C 
BRANCH   4   5
ATOM      5  C   UNL     1       4.235   1.629   0.923  1.00  0.00     0.261 C 
BRANCH   5   6
ATOM      6  O   UNL     1       2.914   2.000   0.512  1.00  0.00    -0.460 OA
BRANCH   6   7
ATOM      7  C   UNL     1       2.372   1.998  -0.729  1.00  0.00     0.338 C 
ATOM      8  O   UNL     1       1.210   2.387  -0.846  1.00  0.00    -0.246 OA
BRANCH   7   9
ATOM      9  C   UNL     1       3.062   1.508  -1.969  1.00  0.00     0.060 A 
ATOM     10  C   UNL     1       4.269   0.811  -2.010  1.00  0.00     0.016 A 
ATOM     11  C   UNL     1       2.402   1.728  -3.193  1.00  0.00     0.016 A 
ATOM     12  C   UNL     1       4.791   0.306  -3.183  1.00  0.00     0.010 A 
ATOM     13  C   UNL     1       2.951   1.286  -4.401  1.00  0.00     0.010 A 
ATOM     14  C   UNL     1       4.159   0.585  -4.384  1.00  0.00    -0.014 A 
BRANCH  14  15
ATOM     15  C   UNL     1       4.981   0.381  -5.580  1.00  0.00     0.031 A 
ATOM     16  C   UNL     1       5.788   1.556  -6.040  1.00  0.00     0.074 A 
ATOM     17  C   UNL     1       5.184  -0.861  -6.044  1.00  0.00     0.049 A 
ATOM     18  N   UNL     1       6.585   1.669  -7.064  1.00  0.00    -0.248 NA
ATOM     19  C   UNL     1       5.715   2.767  -5.199  1.00  0.00     0.031 C 
ATOM     20  C   UNL     1       4.611  -2.081  -5.468  1.00  0.00     0.029 A 
ATOM     21  N   UNL     1       5.965  -1.309  -7.071  1.00  0.00    -0.354 N 
ATOM     22  C   UNL     1       7.077   2.966  -7.008  1.00  0.00     0.074 A 
ATOM     23  C   UNL     1       6.511   3.601  -5.844  1.00  0.00     0.031 C 
ATOM     24  C   UNL     1       5.061  -3.142  -6.158  1.00  0.00     0.029 A 
ATOM     25  C   UNL     1       5.887  -2.666  -7.261  1.00  0.00     0.049 A 
ATOM     26  H   UNL     1       6.528  -0.717  -7.620  1.00  0.00     0.167 HD
ATOM     27  C   UNL     1       7.914   3.567  -7.880  1.00  0.00     0.037 A 
ATOM     28  C   UNL     1       6.393  -3.409  -8.262  1.00  0.00     0.037 A 
ATOM     29  C   UNL     1       8.435   2.887  -9.032  1.00  0.00     0.049 A 
ATOM     30  C   UNL     1       7.187  -2.683  -9.317  1.00  0.00     0.074 A 
ATOM     31  C   UNL     1       9.190   3.385 -10.073  1.00  0.00     0.029 A 
ATOM     32  N   UNL     1       8.237   1.532  -9.282  1.00  0.00    -0.354 N 
ATOM     33  N   UNL     1       7.550  -1.420  -9.356  1.00  0.00    -0.248 NA
ATOM     34  C   UNL     1       7.622  -3.468 -10.476  1.00  0.00     0.031 C 
ATOM     35  C   UNL     1       9.402   2.342 -10.982  1.00  0.00     0.029 A 
ATOM     36  C   UNL     1       8.836   1.179 -10.475  1.00  0.00     0.049 A 
ATOM     37  H   UNL     1       7.741   0.916  -8.695  1.00  0.00     0.167 HD
ATOM     38  C   UNL     1       8.272  -1.261 -10.528  1.00  0.00     0.074 A 
ATOM     39  C   UNL     1       8.309  -2.566 -11.163  1.00  0.00     0.031 C 
ATOM     40  C   UNL     1       8.848  -0.147 -11.045  1.00  0.00     0.037 A 
BRANCH  27  41
ATOM     41  C   UNL     1       8.186   5.025  -7.667  1.00  0.00     0.064 A 
ATOM     42  C   UNL     1       8.973   5.495  -6.604  1.00  0.00     0.173 A 
ATOM     43  C   UNL     1       7.575   5.976  -8.498  1.00  0.00     0.173 A 
ATOM     44  F   UNL     1       9.544   4.630  -5.752  1.00  0.00    -0.203 F 
ATOM     45  C   UNL     1       9.112   6.862  -6.365  1.00  0.00     0.198 A 
ATOM     46  C   UNL     1       7.738   7.341  -8.273  1.00  0.00     0.198 A 
ATOM     47  F   UNL     1       6.795   5.582  -9.516  1.00  0.00    -0.203 F 
ATOM     48  F   UNL     1       9.809   7.288  -5.302  1.00  0.00    -0.200 F 
ATOM     49  C   UNL     1       8.497   7.782  -7.200  1.00  0.00     0.200 A 
ATOM     50  F   UNL     1       7.138   8.227  -9.079  1.00  0.00    -0.200 F 
ATOM     51  F   UNL     1       8.618   9.095  -6.959  1.00  0.00    -0.200 F 
ENDBRANCH  27  41
BRANCH  28  52
ATOM     52  C   UNL     1       6.095  -4.864  -8.356  1.00  0.00     0.064 A 
ATOM     53  C   UNL     1       7.114  -5.824  -8.314  1.00  0.00     0.173 A 
ATOM     54  C   UNL     1       4.779  -5.327  -8.521  1.00  0.00     0.173 A 
ATOM     55  F   UNL     1       8.392  -5.440  -8.181  1.00  0.00    -0.203 F 
ATOM     56  C   UNL     1       6.832  -7.184  -8.454  1.00  0.00     0.198 A 
ATOM     57  C   UNL     1       4.494  -6.686  -8.628  1.00  0.00     0.198 A 
ATOM     58  F   UNL     1       3.760  -4.455  -8.578  1.00  0.00    -0.203 F 
ATOM     59  F   UNL     1       7.832  -8.076  -8.465  1.00  0.00    -0.200 F 
ATOM     60  C   UNL     1       5.522  -7.614  -8.606  1.00  0.00     0.200 A 
ATOM     61  F   UNL     1       3.225  -7.095  -8.762  1.00  0.00    -0.200 F 
ATOM     62  F   UNL     1       5.253  -8.919  -8.745  1.00  0.00    -0.200 F 
ENDBRANCH  28  52
BRANCH  40  63
ATOM     63  C   UNL     1       9.601  -0.314 -12.328  1.00  0.00     0.064 A 
ATOM     64  C   UNL     1       8.940  -0.508 -13.548  1.00  0.00     0.173 A 
ATOM     65  C   UNL     1      11.000  -0.211 -12.337  1.00  0.00     0.173 A 
ATOM     66  F   UNL     1       7.604  -0.627 -13.582  1.00  0.00    -0.203 F 
ATOM     67  C   UNL     1       9.658  -0.615 -14.734  1.00  0.00     0.198 A 
ATOM     68  C   UNL     1      11.710  -0.282 -13.528  1.00  0.00     0.198 A 
ATOM     69  F   UNL     1      11.671  -0.014 -11.192  1.00  0.00    -0.203 F 
ATOM     70  F   UNL     1       9.013  -0.847 -15.885  1.00  0.00    -0.200 F 
ATOM     71  C   UNL     1      11.040  -0.492 -14.724  1.00  0.00     0.200 A 
ATOM     72  F   UNL     1      13.043  -0.143 -13.520  1.00  0.00    -0.200 F 
ATOM     73  F   UNL     1      11.728  -0.578 -15.870  1.00  0.00    -0.200 F 
ENDBRANCH  40  63
ENDBRANCH  14  15
ENDBRANCH   7   9
ENDBRANCH   6   7
ENDBRANCH   5   6
ENDBRANCH   4   5
ENDBRANCH   3   4
ENDBRANCH   2   3
ENDBRANCH   1   2
BRANCH   1  74
ATOM     74  O   UNL     1       2.374  -3.098   1.648  1.00  0.00    -0.377 OA
BRANCH  74  75
ATOM     75  C   UNL     1       3.783  -2.968   1.724  1.00  0.00     0.188 C 
BRANCH  75  76
ATOM     76  C   UNL     1       4.669  -3.406   0.554  1.00  0.00     0.188 C 
BRANCH  76  77
ATOM     77  O   UNL     1       3.915  -3.748  -0.594  1.00  0.00    -0.376 OA
BRANCH  77  78
ATOM     78  C   UNL     1       3.625  -5.133  -0.740  1.00  0.00     0.202 C 
BRANCH  78  79
ATOM     79  C   UNL     1       2.947  -5.897   0.418  1.00  0.00     0.261 C 
BRANCH  79  80
ATOM     80  O   UNL     1       3.527  -5.782   1.736  1.00  0.00    -0.459 OA
BRANCH  80  81
ATOM     81  C   UNL     1       4.691  -6.431   2.006  1.00  0.00     0.365 C 
ATOM     82  O   UNL     1       5.281  -7.124   1.181  1.00  0.00    -0.245 OA
BRANCH  81  83
ATOM     83  C   UNL     1       5.136  -6.200   3.476  1.00  0.00     0.298 C 
ATOM     84  C   UNL     1       6.338  -7.090   3.764  1.00  0.00     0.115 C 
ATOM     85  N   UNL     1       5.332  -4.745   3.762  1.00  0.00    -0.323 N 
ATOM     86  C   UNL     1       6.913  -6.711   5.069  1.00  0.00    -0.006 A 
ATOM     87  C   UNL     1       6.160  -4.275   4.880  1.00  0.00     0.264 C 
ATOM     88  H   UNL     1       4.402  -4.356   3.912  1.00  0.00     0.347 HD
ATOM     89  H   UNL     1       5.873  -4.439   2.952  1.00  0.00     0.347 HD
ATOM     90  C   UNL     1       6.841  -5.420   5.551  1.00  0.00     0.083 A 
ATOM     91  C   UNL     1       7.574  -7.508   6.020  1.00  0.00     0.003 A 
ATOM     92  N   UNL     1       7.618  -5.374   6.678  1.00  0.00    -0.353 N 
ATOM     93  C   UNL     1       8.049  -6.644   7.005  1.00  0.00     0.046 A 
ATOM     94  C   UNL     1       7.823  -8.885   6.121  1.00  0.00     0.010 A 
ATOM     95  H   UNL     1       7.836  -4.556   7.181  1.00  0.00     0.166 HD
ATOM     96  C   UNL     1       8.816  -7.096   8.081  1.00  0.00     0.026 A 
ATOM     97  C   UNL     1       8.547  -9.359   7.213  1.00  0.00     0.001 A 
ATOM     98  C   UNL     1       9.047  -8.475   8.168  1.00  0.00     0.002 A 
BRANCH  87  99
ATOM     99  C   UNL     1       5.392  -3.293   5.807  1.00  0.00     0.041 A 
ATOM    100  C   UNL     1       6.029  -2.539   6.791  1.00  0.00     0.093 A 
ATOM    101  C   UNL     1       3.998  -2.815   5.827  1.00  0.00     0.009 A 
ATOM    102  N   UNL     1       5.122  -1.748   7.436  1.00  0.00    -0.361 N 
ATOM    103  C   UNL     1       3.894  -1.849   6.838  1.00  0.00     0.046 A 
ATOM    104  C   UNL     1       2.803  -3.055   5.095  1.00  0.00     0.011 A 
ATOM    105  H   UNL     1       5.322  -1.185   8.218  1.00  0.00     0.166 HD
ATOM    106  C   UNL     1       2.715  -1.141   7.131  1.00  0.00     0.026 A 
ATOM    107  C   UNL     1       1.631  -2.322   5.339  1.00  0.00     0.001 A 
ATOM    108  C   UNL     1       1.587  -1.378   6.350  1.00  0.00     0.002 A 
ENDBRANCH  87  99
ENDBRANCH  81  83
ENDBRANCH  80  81
ENDBRANCH  79  80
ENDBRANCH  78  79
ENDBRANCH  77  78
ENDBRANCH  76  77
ENDBRANCH  75  76
ENDBRANCH  74  75
ENDBRANCH   1  74
TORSDOF 21
