REMARK SMILES CC[C@@H]1C=CCN1S(=O)(=O)c1sc2c(c1C(=O)OCCOCCOCCOCCOC(=O)c1ccc(-c3c4nc(c(-c5c(F)c(F)c(F)c(F)c5F)c5ccc([nH]5)c(-c5c(F)c(F)c(F)c(F)c5F)c5nc(c(-c6c(F)c(F)c(F)c(F)c6F)c6ccc3[nH]6)C=C5)C=C4)cc1)CC[NH2+]C2
REMARK SMILES IDX 23 1 22 2 21 3 20 4 19 5 18 6 16 7 17 8 15 9 11 10 12 11
REMARK SMILES IDX 13 12 14 13 99 14 96 15 98 16 97 17 8 20 9 21 10 22 7 23
REMARK SMILES IDX 3 24 4 25 5 26 6 27 2 28 1 29 24 30 25 31 26 32 27 33 28 34
REMARK SMILES IDX 29 35 30 36 31 37 32 38 33 39 34 40 95 41 35 42 94 43 36 44
REMARK SMILES IDX 37 45 38 46 88 47 39 48 93 49 87 50 89 51 40 52 92 53 86 54
REMARK SMILES IDX 85 55 41 57 73 58 53 59 72 60 54 61 57 62 71 63 90 64 55 65
REMARK SMILES IDX 56 66 70 68 91 69 58 70 42 71 43 72 51 73 44 74 45 75 49 76
REMARK SMILES IDX 52 77 46 78 47 79 50 80 48 81 74 82 75 83 83 84 76 85 77 86
REMARK SMILES IDX 81 87 84 88 78 89 79 90 82 91 80 92 59 93 60 94 68 95 61 96
REMARK SMILES IDX 62 97 66 98 69 99 63 100 64 101 67 102 65 103
REMARK H PARENT 98 18 98 19 89 56 57 67
REMARK Flexibility Score: inf
ROOT
ATOM      1  C   UNL     1      -3.686   3.486   3.589  1.00  0.00     0.188 C 
ENDROOT
BRANCH   1   2
ATOM      2  C   UNL     1      -4.914   3.991   2.791  1.00  0.00     0.188 C 
BRANCH   2   3
ATOM      3  O   UNL     1      -5.833   2.974   2.411  1.00  0.00    -0.376 OA
BRANCH   3   4
ATOM      4  C   UNL     1      -5.971   2.725   1.022  1.00  0.00     0.202 C 
BRANCH   4   5
ATOM      5  C   UNL     1      -4.820   1.900   0.442  1.00  0.00     0.261 C 
BRANCH   5   6
ATOM      6  O   UNL     1      -3.525   2.448   0.726  1.00  0.00    -0.460 OA
BRANCH   6   7
ATOM      7  C   UNL     1      -3.131   3.531   0.024  1.00  0.00     0.340 C 
ATOM      8  O   UNL     1      -3.823   4.081  -0.828  1.00  0.00    -0.246 OA
BRANCH   7   9
ATOM      9  C   UNL     1      -1.876   4.104   0.511  1.00  0.00     0.095 A 
ATOM     10  C   UNL     1      -0.708   3.385   0.794  1.00  0.00     0.150 A 
ATOM     11  S   UNL     1       0.596   4.458   1.128  1.00  0.00    -0.120 S 
ATOM     12  C   UNL     1      -0.381   5.825   1.074  1.00  0.00     0.064 A 
ATOM     13  C   UNL     1      -1.695   5.518   0.799  1.00  0.00    -0.007 A 
ATOM     14  C   UNL     1       0.159   7.208   1.279  1.00  0.00     0.308 C 
ATOM     15  C   UNL     1      -2.734   6.608   0.855  1.00  0.00     0.099 C 
ATOM     16  N   UNL     1      -0.905   8.122   1.727  1.00  0.00    -0.342 N 
ATOM     17  C   UNL     1      -2.086   8.013   0.846  1.00  0.00     0.265 C 
ATOM     18  H   UNL     1      -1.175   7.882   2.681  1.00  0.00     0.346 HD
ATOM     19  H   UNL     1      -0.555   9.080   1.691  1.00  0.00     0.346 HD
BRANCH  10  20
ATOM     20  S   UNL     1      -0.240   1.642   0.734  1.00  0.00     0.254 S 
ATOM     21  O   UNL     1       0.584   1.534  -0.461  1.00  0.00    -0.206 OA
ATOM     22  O   UNL     1      -1.467   0.900   0.830  1.00  0.00    -0.206 OA
BRANCH  20  23
ATOM     23  N   UNL     1       0.722   1.194   2.087  1.00  0.00    -0.186 NA
ATOM     24  C   UNL     1       0.868  -0.296   2.243  1.00  0.00     0.096 C 
ATOM     25  C   UNL     1       2.353  -0.497   2.312  1.00  0.00    -0.010 C 
ATOM     26  C   UNL     1       3.006   0.664   2.317  1.00  0.00    -0.013 C 
ATOM     27  C   UNL     1       2.078   1.808   2.154  1.00  0.00     0.130 C 
BRANCH  24  28
ATOM     28  C   UNL     1       0.258  -0.826   3.551  1.00  0.00     0.021 C 
ATOM     29  C   UNL     1      -1.078  -0.234   3.962  1.00  0.00     0.006 C 
ENDBRANCH  24  28
ENDBRANCH  20  23
ENDBRANCH  10  20
ENDBRANCH   7   9
ENDBRANCH   6   7
ENDBRANCH   5   6
ENDBRANCH   4   5
ENDBRANCH   3   4
ENDBRANCH   2   3
ENDBRANCH   1   2
BRANCH   1  30
ATOM     30  O   UNL     1      -3.759   2.435   4.549  1.00  0.00    -0.377 OA
BRANCH  30  31
ATOM     31  C   UNL     1      -4.896   1.589   4.541  1.00  0.00     0.188 C 
BRANCH  31  32
ATOM     32  C   UNL     1      -6.156   2.228   5.164  1.00  0.00     0.188 C 
BRANCH  32  33
ATOM     33  O   UNL     1      -6.106   3.651   5.247  1.00  0.00    -0.376 OA
BRANCH  33  34
ATOM     34  C   UNL     1      -5.882   4.248   6.516  1.00  0.00     0.202 C 
BRANCH  34  35
ATOM     35  C   UNL     1      -4.482   4.087   7.104  1.00  0.00     0.261 C 
BRANCH  35  36
ATOM     36  O   UNL     1      -4.052   2.743   7.256  1.00  0.00    -0.460 OA
BRANCH  36  37
ATOM     37  C   UNL     1      -4.818   1.935   8.002  1.00  0.00     0.338 C 
ATOM     38  O   UNL     1      -5.893   2.191   8.522  1.00  0.00    -0.246 OA
BRANCH  37  39
ATOM     39  C   UNL     1      -4.087   0.687   8.221  1.00  0.00     0.060 A 
ATOM     40  C   UNL     1      -4.759  -0.300   8.942  1.00  0.00     0.016 A 
ATOM     41  C   UNL     1      -2.697   0.665   8.026  1.00  0.00     0.016 A 
ATOM     42  C   UNL     1      -4.007  -1.164   9.698  1.00  0.00     0.010 A 
ATOM     43  C   UNL     1      -1.947  -0.179   8.804  1.00  0.00     0.010 A 
ATOM     44  C   UNL     1      -2.617  -1.010   9.697  1.00  0.00    -0.014 A 
BRANCH  44  45
ATOM     45  C   UNL     1      -1.876  -1.729  10.704  1.00  0.00     0.031 A 
ATOM     46  C   UNL     1      -1.612  -3.140  10.381  1.00  0.00     0.074 A 
ATOM     47  C   UNL     1      -1.407  -1.117  11.806  1.00  0.00     0.049 A 
ATOM     48  N   UNL     1      -1.990  -4.184  11.039  1.00  0.00    -0.248 NA
ATOM     49  C   UNL     1      -0.921  -3.425   9.116  1.00  0.00     0.031 C 
ATOM     50  C   UNL     1      -1.351   0.322  12.077  1.00  0.00     0.029 A 
ATOM     51  N   UNL     1      -0.774  -1.666  12.878  1.00  0.00    -0.354 N 
ATOM     52  C   UNL     1      -1.430  -5.261  10.366  1.00  0.00     0.074 A 
ATOM     53  C   UNL     1      -0.911  -4.757   9.121  1.00  0.00     0.031 C 
ATOM     54  C   UNL     1      -0.534   0.538  13.132  1.00  0.00     0.029 A 
ATOM     55  C   UNL     1      -0.108  -0.745  13.668  1.00  0.00     0.049 A 
ATOM     56  H   UNL     1      -0.787  -2.631  13.073  1.00  0.00     0.167 HD
ATOM     57  C   UNL     1      -1.206  -6.437  11.003  1.00  0.00     0.037 A 
ATOM     58  C   UNL     1       0.799  -1.029  14.633  1.00  0.00     0.037 A 
ATOM     59  C   UNL     1      -2.037  -6.584  12.169  1.00  0.00     0.049 A 
ATOM     60  C   UNL     1       0.617  -2.450  15.025  1.00  0.00     0.074 A 
ATOM     61  C   UNL     1      -3.400  -6.585  12.392  1.00  0.00     0.029 A 
ATOM     62  N   UNL     1      -1.458  -6.436  13.404  1.00  0.00    -0.354 N 
ATOM     63  N   UNL     1      -0.402  -2.909  15.695  1.00  0.00    -0.248 NA
ATOM     64  C   UNL     1       1.419  -3.459  14.346  1.00  0.00     0.031 C 
ATOM     65  C   UNL     1      -3.575  -6.000  13.680  1.00  0.00     0.029 A 
ATOM     66  C   UNL     1      -2.309  -5.690  14.176  1.00  0.00     0.049 A 
ATOM     67  H   UNL     1      -0.588  -6.801  13.685  1.00  0.00     0.167 HD
ATOM     68  C   UNL     1      -0.614  -4.181  15.186  1.00  0.00     0.074 A 
ATOM     69  C   UNL     1       0.609  -4.513  14.467  1.00  0.00     0.031 C 
ATOM     70  C   UNL     1      -1.867  -4.723  15.153  1.00  0.00     0.037 A 
BRANCH  57  71
ATOM     71  C   UNL     1       0.037  -7.256  10.775  1.00  0.00     0.064 A 
ATOM     72  C   UNL     1       0.115  -8.547  11.325  1.00  0.00     0.173 A 
ATOM     73  C   UNL     1       1.254  -6.713  10.304  1.00  0.00     0.173 A 
ATOM     74  F   UNL     1      -0.977  -9.140  11.829  1.00  0.00    -0.203 F 
ATOM     75  C   UNL     1       1.335  -9.213  11.461  1.00  0.00     0.198 A 
ATOM     76  C   UNL     1       2.459  -7.406  10.386  1.00  0.00     0.198 A 
ATOM     77  F   UNL     1       1.352  -5.455   9.857  1.00  0.00    -0.203 F 
ATOM     78  F   UNL     1       1.382 -10.383  12.111  1.00  0.00    -0.200 F 
ATOM     79  C   UNL     1       2.505  -8.641  10.995  1.00  0.00     0.200 A 
ATOM     80  F   UNL     1       3.584  -6.824   9.947  1.00  0.00    -0.200 F 
ATOM     81  F   UNL     1       3.683  -9.251  11.180  1.00  0.00    -0.200 F 
ENDBRANCH  57  71
BRANCH  58  82
ATOM     82  C   UNL     1       1.975  -0.232  15.052  1.00  0.00     0.064 A 
ATOM     83  C   UNL     1       2.640  -0.510  16.256  1.00  0.00     0.173 A 
ATOM     84  C   UNL     1       2.627   0.650  14.167  1.00  0.00     0.173 A 
ATOM     85  F   UNL     1       2.114  -1.376  17.134  1.00  0.00    -0.203 F 
ATOM     86  C   UNL     1       3.890   0.044  16.548  1.00  0.00     0.198 A 
ATOM     87  C   UNL     1       3.865   1.216  14.467  1.00  0.00     0.198 A 
ATOM     88  F   UNL     1       2.125   0.909  12.951  1.00  0.00    -0.203 F 
ATOM     89  F   UNL     1       4.524  -0.298  17.678  1.00  0.00    -0.200 F 
ATOM     90  C   UNL     1       4.504   0.902  15.651  1.00  0.00     0.200 A 
ATOM     91  F   UNL     1       4.462   2.019  13.574  1.00  0.00    -0.200 F 
ATOM     92  F   UNL     1       5.725   1.391  15.906  1.00  0.00    -0.200 F 
ENDBRANCH  58  82
BRANCH  70  93
ATOM     93  C   UNL     1      -2.921  -4.081  16.006  1.00  0.00     0.064 A 
ATOM     94  C   UNL     1      -3.376  -2.763  15.833  1.00  0.00     0.173 A 
ATOM     95  C   UNL     1      -3.575  -4.872  16.961  1.00  0.00     0.173 A 
ATOM     96  F   UNL     1      -2.873  -1.982  14.868  1.00  0.00    -0.203 F 
ATOM     97  C   UNL     1      -4.398  -2.245  16.626  1.00  0.00     0.198 A 
ATOM     98  C   UNL     1      -4.622  -4.364  17.724  1.00  0.00     0.198 A 
ATOM     99  F   UNL     1      -3.222  -6.157  17.127  1.00  0.00    -0.203 F 
ATOM    100  F   UNL     1      -4.799  -0.976  16.461  1.00  0.00    -0.200 F 
ATOM    101  C   UNL     1      -5.023  -3.047  17.567  1.00  0.00     0.200 A 
ATOM    102  F   UNL     1      -5.257  -5.158  18.598  1.00  0.00    -0.200 F 
ATOM    103  F   UNL     1      -6.029  -2.559  18.306  1.00  0.00    -0.200 F 
ENDBRANCH  70  93
ENDBRANCH  44  45
ENDBRANCH  37  39
ENDBRANCH  36  37
ENDBRANCH  35  36
ENDBRANCH  34  35
ENDBRANCH  33  34
ENDBRANCH  32  33
ENDBRANCH  31  32
ENDBRANCH  30  31
ENDBRANCH   1  30
TORSDOF 23
