REMARK SMILES C=CC[C@@]1(C(=O)OCCOCCOCCOCCOC(=O)c2ccc(-c3c4nc(c(-c5c(F)c(F)c(F)c(F)c5F)c5ccc([nH]5)c(-c5c(F)c(F)c(F)c(F)c5F)c5nc(c(-c6c(F)c(F)c(F)c(F)c6F)c6ccc3[nH]6)C=C5)C=C4)cc2)CCCN(C(=O)c2ccc3c(c2)OCO3)C1
REMARK SMILES IDX 13 1 12 2 11 3 10 4 9 5 8 6 7 7 5 8 6 9 4 10 85 11 100 12
REMARK SMILES IDX 86 13 88 14 87 15 3 16 2 17 1 18 89 19 90 20 91 21 92 22
REMARK SMILES IDX 96 23 93 24 95 25 94 26 97 27 99 28 98 29 14 30 15 31 16 32
REMARK SMILES IDX 17 33 18 34 19 35 20 36 21 37 22 38 23 39 84 40 24 41 83 42
REMARK SMILES IDX 25 43 26 44 27 45 77 46 28 47 82 48 76 49 78 50 29 51 81 52
REMARK SMILES IDX 75 53 74 54 30 56 62 57 42 58 61 59 43 60 46 61 60 62 79 63
REMARK SMILES IDX 44 64 45 65 59 67 80 68 47 69 31 70 32 71 40 72 33 73 34 74
REMARK SMILES IDX 38 75 41 76 35 77 36 78 39 79 37 80 63 81 64 82 72 83 65 84
REMARK SMILES IDX 66 85 70 86 73 87 67 88 68 89 71 90 69 91 48 92 49 93 57 94
REMARK SMILES IDX 50 95 51 96 55 97 58 98 52 99 53 100 56 101 54 102
REMARK H PARENT 78 55 46 66
REMARK Flexibility Score: inf
ROOT
ATOM      1  O   UNL     1      -0.610   2.120   0.620  1.00  0.00    -0.377 OA
ENDROOT
BRANCH   1   2
ATOM      2  C   UNL     1      -1.628   1.160   0.382  1.00  0.00     0.188 C 
BRANCH   2   3
ATOM      3  C   UNL     1      -1.927  -0.021   1.336  1.00  0.00     0.188 C 
BRANCH   3   4
ATOM      4  O   UNL     1      -0.875  -0.353   2.224  1.00  0.00    -0.376 OA
BRANCH   4   5
ATOM      5  C   UNL     1      -0.045  -1.439   1.848  1.00  0.00     0.202 C 
BRANCH   5   6
ATOM      6  C   UNL     1       0.791  -1.265   0.566  1.00  0.00     0.261 C 
BRANCH   6   7
ATOM      7  O   UNL     1       0.091  -0.891  -0.643  1.00  0.00    -0.463 OA
BRANCH   7   8
ATOM      8  C   UNL     1      -0.841  -1.766  -1.101  1.00  0.00     0.314 C 
ATOM      9  O   UNL     1      -1.102  -2.777  -0.464  1.00  0.00    -0.252 OA
BRANCH   8  10
ATOM     10  C   UNL     1      -1.488  -1.368  -2.467  1.00  0.00     0.089 C 
ATOM     11  C   UNL     1      -2.587  -0.254  -2.506  1.00  0.00     0.023 C 
ATOM     12  C   UNL     1      -2.215  -2.659  -2.934  1.00  0.00     0.138 C 
ATOM     13  C   UNL     1      -3.871  -0.540  -1.740  1.00  0.00     0.023 C 
ATOM     14  N   UNL     1      -3.415  -2.930  -2.114  1.00  0.00    -0.337 N 
ATOM     15  C   UNL     1      -4.448  -1.893  -2.116  1.00  0.00     0.120 C 
BRANCH  10  16
ATOM     16  C   UNL     1      -0.304  -0.983  -3.428  1.00  0.00     0.047 C 
BRANCH  16  17
ATOM     17  C   UNL     1      -0.563   0.116  -4.436  1.00  0.00    -0.034 C 
ATOM     18  C   UNL     1      -0.131   1.378  -4.293  1.00  0.00     0.004 C 
ENDBRANCH  16  17
ENDBRANCH  10  16
BRANCH  14  19
ATOM     19  C   UNL     1      -3.485  -4.111  -1.361  1.00  0.00     0.254 C 
ATOM     20  O   UNL     1      -2.634  -4.994  -1.345  1.00  0.00    -0.269 OA
BRANCH  19  21
ATOM     21  C   UNL     1      -4.726  -4.346  -0.606  1.00  0.00     0.043 A 
ATOM     22  C   UNL     1      -4.835  -4.023   0.764  1.00  0.00     0.018 A 
ATOM     23  C   UNL     1      -5.828  -4.764  -1.356  1.00  0.00     0.064 A 
ATOM     24  C   UNL     1      -6.090  -4.070   1.385  1.00  0.00     0.051 A 
ATOM     25  C   UNL     1      -7.045  -4.750  -0.727  1.00  0.00     0.166 A 
ATOM     26  C   UNL     1      -7.178  -4.404   0.601  1.00  0.00     0.165 A 
ATOM     27  O   UNL     1      -8.239  -4.989  -1.330  1.00  0.00    -0.454 OA
ATOM     28  O   UNL     1      -8.483  -4.390   0.989  1.00  0.00    -0.454 OA
ATOM     29  C   UNL     1      -9.139  -4.571  -0.286  1.00  0.00     0.468 C 
ENDBRANCH  19  21
ENDBRANCH  14  19
ENDBRANCH   8  10
ENDBRANCH   7   8
ENDBRANCH   6   7
ENDBRANCH   5   6
ENDBRANCH   4   5
ENDBRANCH   3   4
ENDBRANCH   2   3
ENDBRANCH   1   2
BRANCH   1  30
ATOM     30  C   UNL     1      -0.044   2.186   1.911  1.00  0.00     0.188 C 
BRANCH  30  31
ATOM     31  C   UNL     1      -1.037   2.443   3.057  1.00  0.00     0.188 C 
BRANCH  31  32
ATOM     32  O   UNL     1      -2.399   2.393   2.652  1.00  0.00    -0.376 OA
BRANCH  32  33
ATOM     33  C   UNL     1      -3.071   3.620   2.420  1.00  0.00     0.202 C 
BRANCH  33  34
ATOM     34  C   UNL     1      -2.557   4.555   1.311  1.00  0.00     0.261 C 
BRANCH  34  35
ATOM     35  O   UNL     1      -1.167   4.905   1.347  1.00  0.00    -0.460 OA
BRANCH  35  36
ATOM     36  C   UNL     1      -0.709   5.589   2.414  1.00  0.00     0.338 C 
ATOM     37  O   UNL     1      -1.349   5.984   3.373  1.00  0.00    -0.246 OA
BRANCH  36  38
ATOM     38  C   UNL     1       0.766   5.601   2.317  1.00  0.00     0.060 A 
ATOM     39  C   UNL     1       1.520   4.974   3.320  1.00  0.00     0.016 A 
ATOM     40  C   UNL     1       1.397   6.173   1.210  1.00  0.00     0.016 A 
ATOM     41  C   UNL     1       2.909   4.918   3.218  1.00  0.00     0.010 A 
ATOM     42  C   UNL     1       2.791   6.159   1.132  1.00  0.00     0.010 A 
ATOM     43  C   UNL     1       3.551   5.554   2.149  1.00  0.00    -0.014 A 
BRANCH  43  44
ATOM     44  C   UNL     1       5.008   5.803   2.226  1.00  0.00     0.031 A 
ATOM     45  C   UNL     1       5.458   7.113   2.811  1.00  0.00     0.074 A 
ATOM     46  C   UNL     1       5.908   4.891   1.820  1.00  0.00     0.049 A 
ATOM     47  N   UNL     1       6.664   7.598   2.944  1.00  0.00    -0.248 NA
ATOM     48  C   UNL     1       4.394   7.998   3.315  1.00  0.00     0.031 C 
ATOM     49  C   UNL     1       5.593   3.566   1.294  1.00  0.00     0.029 A 
ATOM     50  N   UNL     1       7.279   4.953   1.785  1.00  0.00    -0.354 N 
ATOM     51  C   UNL     1       6.503   8.842   3.538  1.00  0.00     0.074 A 
ATOM     52  C   UNL     1       5.084   9.053   3.716  1.00  0.00     0.031 C 
ATOM     53  C   UNL     1       6.741   2.940   0.979  1.00  0.00     0.029 A 
ATOM     54  C   UNL     1       7.866   3.836   1.246  1.00  0.00     0.049 A 
ATOM     55  H   UNL     1       7.792   5.726   2.116  1.00  0.00     0.167 HD
ATOM     56  C   UNL     1       7.456   9.728   3.907  1.00  0.00     0.037 A 
ATOM     57  C   UNL     1       9.164   3.584   0.981  1.00  0.00     0.037 A 
ATOM     58  C   UNL     1       8.866   9.515   3.721  1.00  0.00     0.049 A 
ATOM     59  C   UNL     1      10.200   4.629   1.315  1.00  0.00     0.074 A 
ATOM     60  C   UNL     1       9.915  10.347   4.066  1.00  0.00     0.029 A 
ATOM     61  N   UNL     1       9.421   8.391   3.127  1.00  0.00    -0.354 N 
ATOM     62  N   UNL     1      10.046   5.798   1.891  1.00  0.00    -0.248 NA
ATOM     63  C   UNL     1      11.593   4.319   0.962  1.00  0.00     0.031 C 
ATOM     64  C   UNL     1      11.102   9.754   3.626  1.00  0.00     0.029 A 
ATOM     65  C   UNL     1      10.799   8.521   3.069  1.00  0.00     0.049 A 
ATOM     66  H   UNL     1       8.912   7.617   2.796  1.00  0.00     0.167 HD
ATOM     67  C   UNL     1      11.320   6.343   2.002  1.00  0.00     0.074 A 
ATOM     68  C   UNL     1      12.237   5.372   1.443  1.00  0.00     0.031 C 
ATOM     69  C   UNL     1      11.698   7.537   2.522  1.00  0.00     0.037 A 
BRANCH  56  70
ATOM     70  C   UNL     1       7.003  11.023   4.513  1.00  0.00     0.064 A 
ATOM     71  C   UNL     1       6.442  11.083   5.798  1.00  0.00     0.173 A 
ATOM     72  C   UNL     1       7.164  12.226   3.810  1.00  0.00     0.173 A 
ATOM     73  F   UNL     1       6.248   9.959   6.504  1.00  0.00    -0.203 F 
ATOM     74  C   UNL     1       6.042  12.298   6.348  1.00  0.00     0.198 A 
ATOM     75  C   UNL     1       6.792  13.442   4.375  1.00  0.00     0.198 A 
ATOM     76  F   UNL     1       7.692  12.224   2.577  1.00  0.00    -0.203 F 
ATOM     77  F   UNL     1       5.466  12.327   7.558  1.00  0.00    -0.200 F 
ATOM     78  C   UNL     1       6.226  13.477   5.641  1.00  0.00     0.200 A 
ATOM     79  F   UNL     1       6.981  14.581   3.695  1.00  0.00    -0.200 F 
ATOM     80  F   UNL     1       5.851  14.647   6.176  1.00  0.00    -0.200 F 
ENDBRANCH  56  70
BRANCH  57  81
ATOM     81  C   UNL     1       9.566   2.295   0.354  1.00  0.00     0.064 A 
ATOM     82  C   UNL     1      10.351   1.366   1.051  1.00  0.00     0.173 A 
ATOM     83  C   UNL     1       9.205   1.981  -0.965  1.00  0.00     0.173 A 
ATOM     84  F   UNL     1      10.747   1.632   2.305  1.00  0.00    -0.203 F 
ATOM     85  C   UNL     1      10.778   0.185   0.448  1.00  0.00     0.198 A 
ATOM     86  C   UNL     1       9.606   0.785  -1.557  1.00  0.00     0.198 A 
ATOM     87  F   UNL     1       8.461   2.837  -1.681  1.00  0.00    -0.203 F 
ATOM     88  F   UNL     1      11.574  -0.659   1.119  1.00  0.00    -0.200 F 
ATOM     89  C   UNL     1      10.400  -0.108  -0.854  1.00  0.00     0.200 A 
ATOM     90  F   UNL     1       9.230   0.502  -2.812  1.00  0.00    -0.200 F 
ATOM     91  F   UNL     1      10.811  -1.244  -1.434  1.00  0.00    -0.200 F 
ENDBRANCH  57  81
BRANCH  69  92
ATOM     92  C   UNL     1      13.168   7.846   2.562  1.00  0.00     0.064 A 
ATOM     93  C   UNL     1      13.900   8.120   1.397  1.00  0.00     0.173 A 
ATOM     94  C   UNL     1      13.841   7.921   3.792  1.00  0.00     0.173 A 
ATOM     95  F   UNL     1      13.308   8.051   0.195  1.00  0.00    -0.203 F 
ATOM     96  C   UNL     1      15.257   8.430   1.461  1.00  0.00     0.198 A 
ATOM     97  C   UNL     1      15.187   8.267   3.854  1.00  0.00     0.198 A 
ATOM     98  F   UNL     1      13.185   7.680   4.937  1.00  0.00    -0.203 F 
ATOM     99  F   UNL     1      15.948   8.639   0.332  1.00  0.00    -0.200 F 
ATOM    100  C   UNL     1      15.896   8.513   2.689  1.00  0.00     0.200 A 
ATOM    101  F   UNL     1      15.798   8.366   5.044  1.00  0.00    -0.200 F 
ATOM    102  F   UNL     1      17.198   8.823   2.749  1.00  0.00    -0.200 F 
ENDBRANCH  69  92
ENDBRANCH  43  44
ENDBRANCH  36  38
ENDBRANCH  35  36
ENDBRANCH  34  35
ENDBRANCH  33  34
ENDBRANCH  32  33
ENDBRANCH  31  32
ENDBRANCH  30  31
ENDBRANCH   1  30
TORSDOF 24
