REMARK SMILES C[C@H](CNS(=O)(=O)CCC(=O)OCCOCCOCCOCCOC(=O)c1ccc(-c2c3nc(c(-c4c(F)c(F)c(F)c(F)c4F)c4ccc([nH]4)c(-c4c(F)c(F)c(F)c(F)c4F)c4nc(c(-c5c(F)c(F)c(F)c(F)c5F)c5ccc2[nH]5)C=C4)C=C3)cc1)c1ccccc1
REMARK SMILES IDX 16 1 15 2 14 3 13 4 12 5 10 6 11 7 9 8 8 9 5 10 6 11 7 12
REMARK SMILES IDX 4 13 3 15 2 16 1 17 90 18 91 19 95 20 92 21 94 22 93 23
REMARK SMILES IDX 17 24 18 25 19 26 20 27 21 28 22 29 23 30 24 31 25 32 26 33
REMARK SMILES IDX 27 34 28 35 89 36 29 37 88 38 30 39 31 40 32 41 82 42 33 43
REMARK SMILES IDX 87 44 81 45 83 46 34 47 86 48 80 49 79 50 35 52 67 53 47 54
REMARK SMILES IDX 66 55 48 56 51 57 65 58 84 59 49 60 50 61 64 63 85 64 52 65
REMARK SMILES IDX 36 66 37 67 45 68 38 69 39 70 43 71 46 72 40 73 41 74 44 75
REMARK SMILES IDX 42 76 68 77 69 78 77 79 70 80 71 81 75 82 78 83 72 84 73 85
REMARK SMILES IDX 76 86 74 87 53 88 54 89 62 90 55 91 56 92 60 93 63 94 57 95
REMARK SMILES IDX 58 96 61 97 59 98
REMARK H PARENT 4 14 83 51 51 62
REMARK Flexibility Score: inf
ROOT
ATOM      1  C   UNL     1       4.740  -2.161  -0.335  1.00  0.00     0.188 C 
ENDROOT
BRANCH   1   2
ATOM      2  O   UNL     1       4.715  -2.717   0.979  1.00  0.00    -0.376 OA
BRANCH   2   3
ATOM      3  C   UNL     1       4.126  -1.919   2.004  1.00  0.00     0.202 C 
BRANCH   3   4
ATOM      4  C   UNL     1       4.837  -0.614   2.391  1.00  0.00     0.261 C 
BRANCH   4   5
ATOM      5  O   UNL     1       4.578   0.423   1.418  1.00  0.00    -0.463 OA
BRANCH   5   6
ATOM      6  C   UNL     1       5.622   0.882   0.698  1.00  0.00     0.306 C 
ATOM      7  O   UNL     1       6.786   0.548   0.882  1.00  0.00    -0.252 OA
BRANCH   6   8
ATOM      8  C   UNL     1       5.230   1.814  -0.426  1.00  0.00     0.140 C 
BRANCH   8   9
ATOM      9  C   UNL     1       3.806   1.779  -0.947  1.00  0.00     0.165 C 
BRANCH   9  10
ATOM     10  S   UNL     1       2.627   2.725   0.013  1.00  0.00     0.212 S 
ATOM     11  O   UNL     1       1.460   2.964  -0.809  1.00  0.00    -0.212 OA
ATOM     12  O   UNL     1       3.296   3.826   0.665  1.00  0.00    -0.212 OA
BRANCH  10  13
ATOM     13  N   UNL     1       2.102   1.689   1.237  1.00  0.00    -0.215 NA
ATOM     14  H   UNL     1       2.889   1.526   1.866  1.00  0.00     0.141 HD
BRANCH  13  15
ATOM     15  C   UNL     1       1.592   0.368   0.796  1.00  0.00     0.106 C 
BRANCH  15  16
ATOM     16  C   UNL     1       0.834  -0.447   1.877  1.00  0.00     0.031 C 
ATOM     17  C   UNL     1       0.727   0.223   3.257  1.00  0.00     0.014 C 
BRANCH  16  18
ATOM     18  C   UNL     1      -0.549  -0.722   1.323  1.00  0.00    -0.044 A 
ATOM     19  C   UNL     1      -1.328   0.776   0.924  1.00  0.00     0.004 A 
ATOM     20  C   UNL     1      -1.399  -2.288   1.548  1.00  0.00     0.004 A 
ATOM     21  C   UNL     1      -3.055   0.774   0.799  1.00  0.00     0.000 A 
ATOM     22  C   UNL     1      -3.178  -2.437   1.436  1.00  0.00     0.000 A 
ATOM     23  C   UNL     1      -4.113  -0.932   1.060  1.00  0.00     0.000 A 
ENDBRANCH  16  18
ENDBRANCH  15  16
ENDBRANCH  13  15
ENDBRANCH  10  13
ENDBRANCH   9  10
ENDBRANCH   8   9
ENDBRANCH   6   8
ENDBRANCH   5   6
ENDBRANCH   4   5
ENDBRANCH   3   4
ENDBRANCH   2   3
ENDBRANCH   1   2
BRANCH   1  24
ATOM     24  C   UNL     1       3.769  -2.820  -1.319  1.00  0.00     0.188 C 
BRANCH  24  25
ATOM     25  O   UNL     1       2.522  -2.134  -1.332  1.00  0.00    -0.377 OA
BRANCH  25  26
ATOM     26  C   UNL     1       1.499  -2.704  -0.532  1.00  0.00     0.188 C 
BRANCH  26  27
ATOM     27  C   UNL     1       0.849  -4.001  -1.003  1.00  0.00     0.188 C 
BRANCH  27  28
ATOM     28  O   UNL     1       0.394  -4.130  -2.341  1.00  0.00    -0.376 OA
BRANCH  28  29
ATOM     29  C   UNL     1       0.308  -2.990  -3.180  1.00  0.00     0.202 C 
BRANCH  29  30
ATOM     30  C   UNL     1      -0.952  -2.123  -3.058  1.00  0.00     0.261 C 
BRANCH  30  31
ATOM     31  O   UNL     1      -1.093  -1.357  -1.840  1.00  0.00    -0.460 OA
BRANCH  31  32
ATOM     32  C   UNL     1      -1.908  -1.942  -0.921  1.00  0.00     0.338 C 
ATOM     33  O   UNL     1      -2.335  -3.086  -1.018  1.00  0.00    -0.246 OA
BRANCH  32  34
ATOM     34  C   UNL     1      -2.491  -0.895   0.073  1.00  0.00     0.060 A 
ATOM     35  C   UNL     1      -2.574  -0.547   2.074  1.00  0.00     0.016 A 
ATOM     36  C   UNL     1      -3.822  -0.170  -0.925  1.00  0.00     0.016 A 
ATOM     37  C   UNL     1      -3.887   0.388   2.766  1.00  0.00     0.010 A 
ATOM     38  C   UNL     1      -5.057   0.789  -0.102  1.00  0.00     0.010 A 
ATOM     39  C   UNL     1      -5.038   1.071   1.669  1.00  0.00    -0.014 A 
BRANCH  39  40
ATOM     40  C   UNL     1      -5.804   2.165   2.262  1.00  0.00     0.031 A 
ATOM     41  C   UNL     1      -7.265   2.035   2.154  1.00  0.00     0.074 A 
ATOM     42  C   UNL     1      -5.145   3.167   2.890  1.00  0.00     0.049 A 
ATOM     43  N   UNL     1      -8.188   2.860   2.537  1.00  0.00    -0.248 NA
ATOM     44  C   UNL     1      -7.762   0.810   1.501  1.00  0.00     0.031 C 
ATOM     45  C   UNL     1      -3.683   3.301   3.037  1.00  0.00     0.029 A 
ATOM     46  N   UNL     1      -5.608   4.268   3.557  1.00  0.00    -0.354 N 
ATOM     47  C   UNL     1      -9.374   2.254   2.168  1.00  0.00     0.074 A 
ATOM     48  C   UNL     1      -9.058   1.047   1.447  1.00  0.00     0.031 C 
ATOM     49  C   UNL     1      -3.382   4.375   3.779  1.00  0.00     0.029 A 
ATOM     50  C   UNL     1      -4.615   5.057   4.102  1.00  0.00     0.049 A 
ATOM     51  H   UNL     1      -6.566   4.479   3.640  1.00  0.00     0.167 HD
ATOM     52  C   UNL     1     -10.619   2.675   2.460  1.00  0.00     0.037 A 
ATOM     53  C   UNL     1      -4.713   6.218   4.774  1.00  0.00     0.037 A 
ATOM     54  C   UNL     1     -10.846   3.907   3.152  1.00  0.00     0.049 A 
ATOM     55  C   UNL     1      -6.114   6.720   4.978  1.00  0.00     0.074 A 
ATOM     56  C   UNL     1     -12.031   4.552   3.419  1.00  0.00     0.029 A 
ATOM     57  N   UNL     1      -9.819   4.693   3.677  1.00  0.00    -0.354 N 
ATOM     58  N   UNL     1      -7.245   6.157   4.614  1.00  0.00    -0.248 NA
ATOM     59  C   UNL     1      -6.271   8.001   5.670  1.00  0.00     0.031 C 
ATOM     60  C   UNL     1     -11.717   5.754   4.063  1.00  0.00     0.029 A 
ATOM     61  C   UNL     1     -10.341   5.827   4.260  1.00  0.00     0.049 A 
ATOM     62  H   UNL     1      -8.861   4.469   3.638  1.00  0.00     0.167 HD
ATOM     63  C   UNL     1      -8.252   6.987   5.064  1.00  0.00     0.074 A 
ATOM     64  C   UNL     1      -7.592   8.097   5.733  1.00  0.00     0.031 C 
ATOM     65  C   UNL     1      -9.595   6.859   4.942  1.00  0.00     0.037 A 
BRANCH  52  66
ATOM     66  C   UNL     1     -11.727   1.806   1.955  1.00  0.00     0.064 A 
ATOM     67  C   UNL     1     -11.924   0.509   2.464  1.00  0.00     0.173 A 
ATOM     68  C   UNL     1     -12.462   2.187   0.826  1.00  0.00     0.173 A 
ATOM     69  F   UNL     1     -11.195   0.074   3.504  1.00  0.00    -0.203 F 
ATOM     70  C   UNL     1     -12.771  -0.391   1.822  1.00  0.00     0.198 A 
ATOM     71  C   UNL     1     -13.333   1.293   0.207  1.00  0.00     0.198 A 
ATOM     72  F   UNL     1     -12.284   3.399   0.281  1.00  0.00    -0.203 F 
ATOM     73  F   UNL     1     -12.852  -1.658   2.255  1.00  0.00    -0.200 F 
ATOM     74  C   UNL     1     -13.472   0.001   0.693  1.00  0.00     0.200 A 
ATOM     75  F   UNL     1     -13.999   1.667  -0.894  1.00  0.00    -0.200 F 
ATOM     76  F   UNL     1     -14.255  -0.877   0.052  1.00  0.00    -0.200 F 
ENDBRANCH  52  66
BRANCH  53  77
ATOM     77  C   UNL     1      -3.512   6.949   5.278  1.00  0.00     0.064 A 
ATOM     78  C   UNL     1      -3.311   7.159   6.651  1.00  0.00     0.173 A 
ATOM     79  C   UNL     1      -2.544   7.476   4.406  1.00  0.00     0.173 A 
ATOM     80  F   UNL     1      -4.196   6.679   7.537  1.00  0.00    -0.203 F 
ATOM     81  C   UNL     1      -2.223   7.896   7.126  1.00  0.00     0.198 A 
ATOM     82  C   UNL     1      -1.441   8.189   4.882  1.00  0.00     0.198 A 
ATOM     83  F   UNL     1      -2.664   7.298   3.082  1.00  0.00    -0.203 F 
ATOM     84  F   UNL     1      -2.094   8.124   8.440  1.00  0.00    -0.200 F 
ATOM     85  C   UNL     1      -1.289   8.411   6.241  1.00  0.00     0.200 A 
ATOM     86  F   UNL     1      -0.532   8.669   4.023  1.00  0.00    -0.200 F 
ATOM     87  F   UNL     1      -0.252   9.127   6.697  1.00  0.00    -0.200 F 
ENDBRANCH  53  77
BRANCH  65  88
ATOM     88  C   UNL     1     -10.421   7.903   5.614  1.00  0.00     0.064 A 
ATOM     89  C   UNL     1     -10.576   9.179   5.062  1.00  0.00     0.173 A 
ATOM     90  C   UNL     1     -11.164   7.562   6.753  1.00  0.00     0.173 A 
ATOM     91  F   UNL     1      -9.864   9.542   3.984  1.00  0.00    -0.203 F 
ATOM     92  C   UNL     1     -11.462  10.085   5.628  1.00  0.00     0.198 A 
ATOM     93  C   UNL     1     -12.074   8.458   7.294  1.00  0.00     0.198 A 
ATOM     94  F   UNL     1     -11.040   6.344   7.303  1.00  0.00    -0.203 F 
ATOM     95  F   UNL     1     -11.590  11.310   5.101  1.00  0.00    -0.200 F 
ATOM     96  C   UNL     1     -12.223   9.718   6.730  1.00  0.00     0.200 A 
ATOM     97  F   UNL     1     -12.823   8.096   8.343  1.00  0.00    -0.200 F 
ATOM     98  F   UNL     1     -13.107  10.579   7.249  1.00  0.00    -0.200 F 
ENDBRANCH  65  88
ENDBRANCH  39  40
ENDBRANCH  32  34
ENDBRANCH  31  32
ENDBRANCH  30  31
ENDBRANCH  29  30
ENDBRANCH  28  29
ENDBRANCH  27  28
ENDBRANCH  26  27
ENDBRANCH  25  26
ENDBRANCH  24  25
ENDBRANCH   1  24
TORSDOF 26
