REMARK SMILES CC[NH2+][C@]1(C(=O)OCCOCCOCCOCCOC(=O)c2ccc(-c3c4nc(c(-c5c(F)c(F)c(F)c(F)c5F)c5ccc([nH]5)c(-c5c(F)c(F)c(F)c(F)c5F)c5nc(c(-c6c(F)c(F)c(F)c(F)c6F)c6ccc3[nH]6)C=C5)C=C4)cc2)CCC[C@H]([N@@H+]2CCC[C@@H]2C(C)C)C1
REMARK SMILES IDX 13 1 12 2 11 3 10 4 9 5 8 6 7 7 5 8 6 9 4 10 85 11 97 12
REMARK SMILES IDX 86 13 88 14 87 15 3 16 2 19 1 20 89 21 90 22 93 23 91 25
REMARK SMILES IDX 92 26 94 27 95 28 96 29 14 30 15 31 16 32 17 33 18 34 19 35
REMARK SMILES IDX 20 36 21 37 22 38 23 39 84 40 24 41 83 42 25 43 26 44 27 45
REMARK SMILES IDX 77 46 28 47 82 48 76 49 78 50 29 51 81 52 75 53 74 54 30 56
REMARK SMILES IDX 62 57 42 58 61 59 43 60 46 61 60 62 79 63 44 64 45 65 59 67
REMARK SMILES IDX 80 68 47 69 31 70 32 71 40 72 33 73 34 74 38 75 41 76 35 77
REMARK SMILES IDX 36 78 39 79 37 80 63 81 64 82 72 83 65 84 66 85 70 86 73 87
REMARK SMILES IDX 67 88 68 89 71 90 69 91 48 92 49 93 57 94 50 95 51 96 55 97
REMARK SMILES IDX 58 98 52 99 53 100 56 101 54 102
REMARK H PARENT 3 17 3 18 89 24 78 55 46 66
REMARK Flexibility Score: inf
ROOT
ATOM      1  O   UNL     1       4.500  -1.754   0.839  1.00  0.00    -0.377 OA
ENDROOT
BRANCH   1   2
ATOM      2  C   UNL     1       3.391  -2.050   0.013  1.00  0.00     0.188 C 
BRANCH   2   3
ATOM      3  C   UNL     1       2.697  -0.778  -0.469  1.00  0.00     0.188 C 
BRANCH   3   4
ATOM      4  O   UNL     1       2.484   0.285   0.462  1.00  0.00    -0.376 OA
BRANCH   4   5
ATOM      5  C   UNL     1       2.352  -0.038   1.841  1.00  0.00     0.202 C 
BRANCH   5   6
ATOM      6  C   UNL     1       1.051  -0.741   2.254  1.00  0.00     0.261 C 
BRANCH   6   7
ATOM      7  O   UNL     1       0.768  -1.883   1.437  1.00  0.00    -0.459 OA
BRANCH   7   8
ATOM      8  C   UNL     1      -0.535  -2.235   1.202  1.00  0.00     0.368 C 
ATOM      9  O   UNL     1      -1.510  -1.635   1.634  1.00  0.00    -0.245 OA
BRANCH   8  10
ATOM     10  C   UNL     1      -0.575  -3.468   0.237  1.00  0.00     0.200 C 
ATOM     11  C   UNL     1       0.523  -4.469   0.793  1.00  0.00     0.081 C 
ATOM     12  C   UNL     1      -1.880  -4.249   0.178  1.00  0.00     0.146 C 
ATOM     13  C   UNL     1       0.414  -6.001   0.678  1.00  0.00     0.013 C 
ATOM     14  C   UNL     1      -1.703  -5.614  -0.583  1.00  0.00     0.191 C 
ATOM     15  C   UNL     1      -0.946  -6.543   0.345  1.00  0.00     0.065 C 
BRANCH  10  16
ATOM     16  N   UNL     1      -0.385  -2.973  -1.153  1.00  0.00    -0.332 N 
ATOM     17  H   UNL     1       0.605  -2.756  -1.267  1.00  0.00     0.347 HD
ATOM     18  H   UNL     1      -0.740  -3.723  -1.746  1.00  0.00     0.347 HD
BRANCH  16  19
ATOM     19  C   UNL     1      -1.147  -1.781  -1.560  1.00  0.00     0.257 C 
ATOM     20  C   UNL     1      -1.174  -1.665  -3.086  1.00  0.00     0.071 C 
ENDBRANCH  16  19
ENDBRANCH  10  16
BRANCH  14  21
ATOM     21  N   UNL     1      -1.326  -5.559  -2.042  1.00  0.00    -0.330 N 
ATOM     22  C   UNL     1      -2.184  -6.563  -2.754  1.00  0.00     0.262 C 
ATOM     23  C   UNL     1       0.020  -5.779  -2.733  1.00  0.00     0.187 C 
ATOM     24  H   UNL     1      -1.397  -4.543  -2.091  1.00  0.00     0.348 HD
ATOM     25  C   UNL     1      -1.333  -7.806  -2.904  1.00  0.00     0.067 C 
ATOM     26  C   UNL     1       0.062  -7.273  -3.099  1.00  0.00     0.071 C 
BRANCH  23  27
ATOM     27  C   UNL     1       1.501  -5.218  -2.500  1.00  0.00     0.041 C 
ATOM     28  C   UNL     1       2.579  -5.909  -3.371  1.00  0.00     0.014 C 
ATOM     29  C   UNL     1       1.724  -3.730  -2.803  1.00  0.00     0.014 C 
ENDBRANCH  23  27
ENDBRANCH  14  21
ENDBRANCH   8  10
ENDBRANCH   7   8
ENDBRANCH   6   7
ENDBRANCH   5   6
ENDBRANCH   4   5
ENDBRANCH   3   4
ENDBRANCH   2   3
ENDBRANCH   1   2
BRANCH   1  30
ATOM     30  C   UNL     1       5.657  -2.492   0.510  1.00  0.00     0.188 C 
BRANCH  30  31
ATOM     31  C   UNL     1       6.501  -1.716  -0.503  1.00  0.00     0.188 C 
BRANCH  31  32
ATOM     32  O   UNL     1       6.054  -1.628  -1.847  1.00  0.00    -0.376 OA
BRANCH  32  33
ATOM     33  C   UNL     1       5.753  -2.770  -2.633  1.00  0.00     0.202 C 
BRANCH  33  34
ATOM     34  C   UNL     1       6.608  -4.042  -2.620  1.00  0.00     0.261 C 
BRANCH  34  35
ATOM     35  O   UNL     1       6.782  -4.620  -1.322  1.00  0.00    -0.460 OA
BRANCH  35  36
ATOM     36  C   UNL     1       8.047  -4.536  -0.833  1.00  0.00     0.338 C 
ATOM     37  O   UNL     1       9.019  -4.058  -1.363  1.00  0.00    -0.246 OA
BRANCH  36  38
ATOM     38  C   UNL     1       8.026  -4.954   0.580  1.00  0.00     0.060 A 
ATOM     39  C   UNL     1       8.420  -4.017   1.544  1.00  0.00     0.016 A 
ATOM     40  C   UNL     1       7.684  -6.257   0.939  1.00  0.00     0.016 A 
ATOM     41  C   UNL     1       8.484  -4.381   2.883  1.00  0.00     0.010 A 
ATOM     42  C   UNL     1       7.806  -6.641   2.274  1.00  0.00     0.010 A 
ATOM     43  C   UNL     1       8.244  -5.712   3.236  1.00  0.00    -0.014 A 
BRANCH  43  44
ATOM     44  C   UNL     1       8.755  -6.199   4.533  1.00  0.00     0.031 A 
ATOM     45  C   UNL     1      10.166  -6.715   4.559  1.00  0.00     0.074 A 
ATOM     46  C   UNL     1       8.002  -6.168   5.642  1.00  0.00     0.049 A 
ATOM     47  N   UNL     1      10.826  -7.291   5.528  1.00  0.00    -0.248 NA
ATOM     48  C   UNL     1      10.939  -6.559   3.314  1.00  0.00     0.031 C 
ATOM     49  C   UNL     1       6.653  -5.618   5.736  1.00  0.00     0.029 A 
ATOM     50  N   UNL     1       8.272  -6.628   6.905  1.00  0.00    -0.354 N 
ATOM     51  C   UNL     1      12.081  -7.573   5.006  1.00  0.00     0.074 A 
ATOM     52  C   UNL     1      12.089  -7.128   3.633  1.00  0.00     0.031 C 
ATOM     53  C   UNL     1       6.198  -5.797   6.989  1.00  0.00     0.029 A 
ATOM     54  C   UNL     1       7.212  -6.508   7.768  1.00  0.00     0.049 A 
ATOM     55  H   UNL     1       9.142  -7.006   7.168  1.00  0.00     0.167 HD
ATOM     56  C   UNL     1      13.134  -8.154   5.624  1.00  0.00     0.037 A 
ATOM     57  C   UNL     1       7.077  -6.958   9.030  1.00  0.00     0.037 A 
ATOM     58  C   UNL     1      13.103  -8.607   6.986  1.00  0.00     0.049 A 
ATOM     59  C   UNL     1       8.233  -7.692   9.667  1.00  0.00     0.074 A 
ATOM     60  C   UNL     1      14.101  -9.227   7.714  1.00  0.00     0.029 A 
ATOM     61  N   UNL     1      12.002  -8.495   7.824  1.00  0.00    -0.354 N 
ATOM     62  N   UNL     1       9.418  -7.962   9.173  1.00  0.00    -0.248 NA
ATOM     63  C   UNL     1       8.031  -8.183  11.037  1.00  0.00     0.031 C 
ATOM     64  C   UNL     1      13.586  -9.537   8.976  1.00  0.00     0.029 A 
ATOM     65  C   UNL     1      12.290  -9.052   9.056  1.00  0.00     0.049 A 
ATOM     66  H   UNL     1      11.144  -8.080   7.577  1.00  0.00     0.167 HD
ATOM     67  C   UNL     1      10.116  -8.614  10.183  1.00  0.00     0.074 A 
ATOM     68  C   UNL     1       9.220  -8.698  11.318  1.00  0.00     0.031 C 
ATOM     69  C   UNL     1      11.384  -9.095  10.177  1.00  0.00     0.037 A 
BRANCH  56  70
ATOM     70  C   UNL     1      14.378  -8.369   4.813  1.00  0.00     0.064 A 
ATOM     71  C   UNL     1      15.187  -7.299   4.400  1.00  0.00     0.173 A 
ATOM     72  C   UNL     1      14.767  -9.666   4.446  1.00  0.00     0.173 A 
ATOM     73  F   UNL     1      14.845  -6.038   4.703  1.00  0.00    -0.203 F 
ATOM     74  C   UNL     1      16.325  -7.519   3.628  1.00  0.00     0.198 A 
ATOM     75  C   UNL     1      15.923  -9.884   3.702  1.00  0.00     0.198 A 
ATOM     76  F   UNL     1      14.025 -10.723   4.809  1.00  0.00    -0.203 F 
ATOM     77  F   UNL     1      17.052  -6.478   3.199  1.00  0.00    -0.200 F 
ATOM     78  C   UNL     1      16.696  -8.810   3.287  1.00  0.00     0.200 A 
ATOM     79  F   UNL     1      16.284 -11.133   3.380  1.00  0.00    -0.200 F 
ATOM     80  F   UNL     1      17.794  -9.021   2.549  1.00  0.00    -0.200 F 
ENDBRANCH  56  70
BRANCH  57  81
ATOM     81  C   UNL     1       5.803  -6.754   9.767  1.00  0.00     0.064 A 
ATOM     82  C   UNL     1       5.745  -5.926  10.896  1.00  0.00     0.173 A 
ATOM     83  C   UNL     1       4.622  -7.403   9.375  1.00  0.00     0.173 A 
ATOM     84  F   UNL     1       6.852  -5.302  11.326  1.00  0.00    -0.203 F 
ATOM     85  C   UNL     1       4.563  -5.773  11.619  1.00  0.00     0.198 A 
ATOM     86  C   UNL     1       3.433  -7.226  10.080  1.00  0.00     0.198 A 
ATOM     87  F   UNL     1       4.621  -8.209   8.303  1.00  0.00    -0.203 F 
ATOM     88  F   UNL     1       4.550  -5.018  12.725  1.00  0.00    -0.200 F 
ATOM     89  C   UNL     1       3.407  -6.419  11.207  1.00  0.00     0.200 A 
ATOM     90  F   UNL     1       2.316  -7.843   9.672  1.00  0.00    -0.200 F 
ATOM     91  F   UNL     1       2.271  -6.273  11.903  1.00  0.00    -0.200 F 
ENDBRANCH  57  81
BRANCH  69  92
ATOM     92  C   UNL     1      11.906  -9.691  11.452  1.00  0.00     0.064 A 
ATOM     93  C   UNL     1      11.468 -10.937  11.923  1.00  0.00     0.173 A 
ATOM     94  C   UNL     1      12.916  -9.032  12.171  1.00  0.00     0.173 A 
ATOM     95  F   UNL     1      10.498 -11.601  11.277  1.00  0.00    -0.203 F 
ATOM     96  C   UNL     1      12.007 -11.490  13.081  1.00  0.00     0.198 A 
ATOM     97  C   UNL     1      13.475  -9.604  13.309  1.00  0.00     0.198 A 
ATOM     98  F   UNL     1      13.377  -7.843  11.755  1.00  0.00    -0.203 F 
ATOM     99  F   UNL     1      11.544 -12.662  13.539  1.00  0.00    -0.200 F 
ATOM    100  C   UNL     1      13.016 -10.829  13.767  1.00  0.00     0.200 A 
ATOM    101  F   UNL     1      14.463  -8.973  13.958  1.00  0.00    -0.200 F 
ATOM    102  F   UNL     1      13.544 -11.373  14.872  1.00  0.00    -0.200 F 
ENDBRANCH  69  92
ENDBRANCH  43  44
ENDBRANCH  36  38
ENDBRANCH  35  36
ENDBRANCH  34  35
ENDBRANCH  33  34
ENDBRANCH  32  33
ENDBRANCH  31  32
ENDBRANCH  30  31
ENDBRANCH   1  30
TORSDOF 24
