REMARK SMILES CC(C)CCc1cc2c(cc1Cl)C=C(C(=O)OCCOCCOCCOCCOC(=O)c1ccc(-c3c4nc(c(-c5c(F)c(F)c(F)c(F)c5F)c5ccc([nH]5)c(-c5c(F)c(F)c(F)c(F)c5F)c5nc(c(-c6c(F)c(F)c(F)c(F)c6F)c6ccc3[nH]6)C=C5)C=C4)cc1)[C@@H](C(F)(F)F)O2
REMARK SMILES IDX 22 1 21 2 20 3 19 4 18 5 17 6 15 7 16 8 14 9 6 10 7 11 11 12
REMARK SMILES IDX 8 13 10 14 12 15 9 16 100 17 13 18 95 19 5 20 4 21 2 22 1 23
REMARK SMILES IDX 3 24 96 25 97 26 98 27 99 28 23 29 24 30 25 31 26 32 27 33
REMARK SMILES IDX 28 34 29 35 30 36 31 37 32 38 33 39 94 40 34 41 93 42 35 43
REMARK SMILES IDX 36 44 37 45 87 46 38 47 92 48 86 49 88 50 39 51 91 52 85 53
REMARK SMILES IDX 84 54 40 56 72 57 52 58 71 59 53 60 56 61 70 62 89 63 54 64
REMARK SMILES IDX 55 65 69 67 90 68 57 69 41 70 42 71 50 72 43 73 44 74 48 75
REMARK SMILES IDX 51 76 45 77 46 78 49 79 47 80 73 81 74 82 82 83 75 84 76 85
REMARK SMILES IDX 80 86 83 87 77 88 78 89 81 90 79 91 58 92 59 93 67 94 60 95
REMARK SMILES IDX 61 96 65 97 68 98 62 99 63 100 66 101 64 102
REMARK H PARENT 88 55 56 66
REMARK Flexibility Score: inf
ROOT
ATOM      1  C   UNL     1       3.051  -0.259  -8.491  1.00  0.00     0.188 C 
ENDROOT
BRANCH   1   2
ATOM      2  C   UNL     1       2.486  -1.343  -9.427  1.00  0.00     0.188 C 
BRANCH   2   3
ATOM      3  O   UNL     1       2.641  -1.032 -10.812  1.00  0.00    -0.376 OA
BRANCH   3   4
ATOM      4  C   UNL     1       1.474  -0.597 -11.502  1.00  0.00     0.202 C 
BRANCH   4   5
ATOM      5  C   UNL     1       0.996   0.825 -11.170  1.00  0.00     0.261 C 
BRANCH   5   6
ATOM      6  O   UNL     1       0.637   1.027  -9.794  1.00  0.00    -0.460 OA
BRANCH   6   7
ATOM      7  C   UNL     1      -0.416   0.325  -9.333  1.00  0.00     0.338 C 
ATOM      8  O   UNL     1      -1.157  -0.389  -9.985  1.00  0.00    -0.246 OA
BRANCH   7   9
ATOM      9  C   UNL     1      -0.434   0.429  -7.859  1.00  0.00     0.087 C 
ATOM     10  C   UNL     1      -1.118  -0.441  -2.947  1.00  0.00    -0.026 A 
ATOM     11  C   UNL     1      -0.735   0.681  -3.715  1.00  0.00     0.052 A 
ATOM     12  C   UNL     1      -1.235  -1.674  -3.610  1.00  0.00     0.045 A 
ATOM     13  C   UNL     1      -0.537   0.589  -5.097  1.00  0.00     0.128 A 
ATOM     14  C   UNL     1      -1.002  -1.770  -4.988  1.00  0.00     0.032 A 
ATOM     15  Cl  UNL     1      -1.754  -3.124  -2.832  1.00  0.00    -0.084 Cl
ATOM     16  C   UNL     1      -0.698  -0.634  -5.738  1.00  0.00     0.019 A 
ATOM     17  O   UNL     1      -0.223   1.750  -5.744  1.00  0.00    -0.475 OA
ATOM     18  C   UNL     1      -0.637  -0.710  -7.186  1.00  0.00     0.027 C 
ATOM     19  C   UNL     1      -0.180   1.760  -7.201  1.00  0.00     0.316 C 
BRANCH  10  20
ATOM     20  C   UNL     1      -1.502  -0.203  -1.499  1.00  0.00     0.037 C 
BRANCH  20  21
ATOM     21  C   UNL     1      -0.875  -1.081  -0.406  1.00  0.00     0.008 C 
BRANCH  21  22
ATOM     22  C   UNL     1       0.661  -1.147  -0.413  1.00  0.00    -0.017 C 
ATOM     23  C   UNL     1       1.281   0.168   0.058  1.00  0.00     0.007 C 
ATOM     24  C   UNL     1       1.129  -2.297   0.484  1.00  0.00     0.007 C 
ENDBRANCH  21  22
ENDBRANCH  20  21
ENDBRANCH  10  20
BRANCH  19  25
ATOM     25  C   UNL     1      -1.139   2.847  -7.707  1.00  0.00     0.430 C 
ATOM     26  F   UNL     1      -0.924   4.027  -7.077  1.00  0.00    -0.167 F 
ATOM     27  F   UNL     1      -0.985   3.084  -9.032  1.00  0.00    -0.167 F 
ATOM     28  F   UNL     1      -2.434   2.509  -7.508  1.00  0.00    -0.167 F 
ENDBRANCH  19  25
ENDBRANCH   7   9
ENDBRANCH   6   7
ENDBRANCH   5   6
ENDBRANCH   4   5
ENDBRANCH   3   4
ENDBRANCH   2   3
ENDBRANCH   1   2
BRANCH   1  29
ATOM     29  O   UNL     1       3.386   0.943  -9.164  1.00  0.00    -0.377 OA
BRANCH  29  30
ATOM     30  C   UNL     1       4.628   0.989  -9.867  1.00  0.00     0.188 C 
BRANCH  30  31
ATOM     31  C   UNL     1       5.392  -0.292 -10.273  1.00  0.00     0.188 C 
BRANCH  31  32
ATOM     32  O   UNL     1       5.503  -1.255  -9.228  1.00  0.00    -0.376 OA
BRANCH  32  33
ATOM     33  C   UNL     1       6.800  -1.450  -8.680  1.00  0.00     0.202 C 
BRANCH  33  34
ATOM     34  C   UNL     1       7.186  -0.388  -7.645  1.00  0.00     0.261 C 
BRANCH  34  35
ATOM     35  O   UNL     1       7.278   0.950  -8.157  1.00  0.00    -0.460 OA
BRANCH  35  36
ATOM     36  C   UNL     1       8.168   1.189  -9.146  1.00  0.00     0.338 C 
ATOM     37  O   UNL     1       8.960   0.405  -9.637  1.00  0.00    -0.246 OA
BRANCH  36  38
ATOM     38  C   UNL     1       7.873   2.536  -9.675  1.00  0.00     0.060 A 
ATOM     39  C   UNL     1       7.760   3.623  -8.805  1.00  0.00     0.016 A 
ATOM     40  C   UNL     1       7.652   2.698 -11.049  1.00  0.00     0.016 A 
ATOM     41  C   UNL     1       7.448   4.883  -9.313  1.00  0.00     0.010 A 
ATOM     42  C   UNL     1       7.330   3.959 -11.556  1.00  0.00     0.010 A 
ATOM     43  C   UNL     1       7.247   5.062 -10.693  1.00  0.00    -0.014 A 
BRANCH  43  44
ATOM     44  C   UNL     1       7.141   6.436 -11.235  1.00  0.00     0.031 A 
ATOM     45  C   UNL     1       5.823   7.070 -11.549  1.00  0.00     0.074 A 
ATOM     46  C   UNL     1       8.286   7.118 -11.421  1.00  0.00     0.049 A 
ATOM     47  N   UNL     1       5.577   8.298 -11.935  1.00  0.00    -0.248 NA
ATOM     48  C   UNL     1       4.628   6.227 -11.417  1.00  0.00     0.031 C 
ATOM     49  C   UNL     1       9.624   6.586 -11.160  1.00  0.00     0.029 A 
ATOM     50  N   UNL     1       8.510   8.397 -11.857  1.00  0.00    -0.354 N 
ATOM     51  C   UNL     1       4.199   8.386 -12.068  1.00  0.00     0.074 A 
ATOM     52  C   UNL     1       3.664   7.073 -11.765  1.00  0.00     0.031 C 
ATOM     53  C   UNL     1      10.531   7.539 -11.421  1.00  0.00     0.029 A 
ATOM     54  C   UNL     1       9.839   8.739 -11.883  1.00  0.00     0.049 A 
ATOM     55  H   UNL     1       7.789   9.011 -12.125  1.00  0.00     0.167 HD
ATOM     56  C   UNL     1       3.457   9.472 -12.396  1.00  0.00     0.037 A 
ATOM     57  C   UNL     1      10.436   9.893 -12.232  1.00  0.00     0.037 A 
ATOM     58  C   UNL     1       4.003  10.770 -12.715  1.00  0.00     0.049 A 
ATOM     59  C   UNL     1       9.589  11.063 -12.639  1.00  0.00     0.074 A 
ATOM     60  C   UNL     1       3.326  11.937 -13.025  1.00  0.00     0.029 A 
ATOM     61  N   UNL     1       5.357  11.069 -12.778  1.00  0.00    -0.354 N 
ATOM     62  N   UNL     1       8.283  11.157 -12.693  1.00  0.00    -0.248 NA
ATOM     63  C   UNL     1      10.298  12.291 -13.023  1.00  0.00     0.031 C 
ATOM     64  C   UNL     1       4.267  12.927 -13.326  1.00  0.00     0.029 A 
ATOM     65  C   UNL     1       5.534  12.393 -13.152  1.00  0.00     0.049 A 
ATOM     66  H   UNL     1       6.085  10.434 -12.586  1.00  0.00     0.167 HD
ATOM     67  C   UNL     1       8.012  12.456 -13.098  1.00  0.00     0.074 A 
ATOM     68  C   UNL     1       9.290  13.119 -13.258  1.00  0.00     0.031 C 
ATOM     69  C   UNL     1       6.810  13.043 -13.317  1.00  0.00     0.037 A 
BRANCH  56  70
ATOM     70  C   UNL     1       1.964   9.323 -12.418  1.00  0.00     0.064 A 
ATOM     71  C   UNL     1       1.226   9.217 -11.229  1.00  0.00     0.173 A 
ATOM     72  C   UNL     1       1.254   9.392 -13.626  1.00  0.00     0.173 A 
ATOM     73  F   UNL     1       1.858   9.146 -10.047  1.00  0.00    -0.203 F 
ATOM     74  C   UNL     1      -0.166   9.177 -11.250  1.00  0.00     0.198 A 
ATOM     75  C   UNL     1      -0.139   9.375 -13.642  1.00  0.00     0.198 A 
ATOM     76  F   UNL     1       1.911   9.506 -14.790  1.00  0.00    -0.203 F 
ATOM     77  F   UNL     1      -0.848   9.057 -10.103  1.00  0.00    -0.200 F 
ATOM     78  C   UNL     1      -0.847   9.266 -12.455  1.00  0.00     0.200 A 
ATOM     79  F   UNL     1      -0.796   9.479 -14.805  1.00  0.00    -0.200 F 
ATOM     80  F   UNL     1      -2.187   9.250 -12.471  1.00  0.00    -0.200 F 
ENDBRANCH  56  70
BRANCH  57  81
ATOM     81  C   UNL     1      11.914   9.996 -12.162  1.00  0.00     0.064 A 
ATOM     82  C   UNL     1      12.533  10.766 -11.169  1.00  0.00     0.173 A 
ATOM     83  C   UNL     1      12.735   9.296 -13.057  1.00  0.00     0.173 A 
ATOM     84  F   UNL     1      11.786  11.464 -10.301  1.00  0.00    -0.203 F 
ATOM     85  C   UNL     1      13.920  10.838 -11.078  1.00  0.00     0.198 A 
ATOM     86  C   UNL     1      14.122   9.347 -12.949  1.00  0.00     0.198 A 
ATOM     87  F   UNL     1      12.188   8.539 -14.020  1.00  0.00    -0.203 F 
ATOM     88  F   UNL     1      14.489  11.603 -10.136  1.00  0.00    -0.200 F 
ATOM     89  C   UNL     1      14.714  10.121 -11.962  1.00  0.00     0.200 A 
ATOM     90  F   UNL     1      14.885   8.641 -13.794  1.00  0.00    -0.200 F 
ATOM     91  F   UNL     1      16.049  10.179 -11.864  1.00  0.00    -0.200 F 
ENDBRANCH  57  81
BRANCH  69  92
ATOM     92  C   UNL     1       6.815  14.481 -13.749  1.00  0.00     0.064 A 
ATOM     93  C   UNL     1       7.221  14.857 -15.037  1.00  0.00     0.173 A 
ATOM     94  C   UNL     1       6.366  15.488 -12.881  1.00  0.00     0.173 A 
ATOM     95  F   UNL     1       7.674  13.934 -15.899  1.00  0.00    -0.203 F 
ATOM     96  C   UNL     1       7.196  16.192 -15.435  1.00  0.00     0.198 A 
ATOM     97  C   UNL     1       6.316  16.817 -13.291  1.00  0.00     0.198 A 
ATOM     98  F   UNL     1       5.963  15.181 -11.639  1.00  0.00    -0.203 F 
ATOM     99  F   UNL     1       7.628  16.533 -16.657  1.00  0.00    -0.200 F 
ATOM    100  C   UNL     1       6.736  17.169 -14.565  1.00  0.00     0.200 A 
ATOM    101  F   UNL     1       5.859  17.759 -12.454  1.00  0.00    -0.200 F 
ATOM    102  F   UNL     1       6.703  18.451 -14.953  1.00  0.00    -0.200 F 
ENDBRANCH  69  92
ENDBRANCH  43  44
ENDBRANCH  36  38
ENDBRANCH  35  36
ENDBRANCH  34  35
ENDBRANCH  33  34
ENDBRANCH  32  33
ENDBRANCH  31  32
ENDBRANCH  30  31
ENDBRANCH  29  30
ENDBRANCH   1  29
TORSDOF 24
