REMARK SMILES C[C@@H](NC(=O)/C(=C/c1ccc(Cl)cc1)NC(=O)c1ccc(C(C)(C)C)cc1)C(=O)OCCOCCOCCOCCOC(=O)c1ccc(-c2c3nc(c(-c4c(F)c(F)c(F)c(F)c4F)c4ccc([nH]4)c(-c4c(F)c(F)c(F)c(F)c4F)c4nc(c(-c5c(F)c(F)c(F)c(F)c5F)c5ccc2[nH]5)C=C4)C=C3)cc1
REMARK SMILES IDX 34 1 33 2 32 3 31 4 30 5 28 6 29 7 2 8 1 9 3 10 4 11 5 13
REMARK SMILES IDX 6 14 7 15 15 16 16 17 17 19 18 20 19 21 27 22 20 23 26 24
REMARK SMILES IDX 21 25 22 26 23 27 24 28 25 29 8 30 9 31 14 32 10 33 13 34
REMARK SMILES IDX 11 35 12 36 35 37 36 38 37 39 38 40 39 41 40 42 41 43 42 44
REMARK SMILES IDX 43 45 44 46 45 47 46 48 107 49 47 50 106 51 48 52 49 53
REMARK SMILES IDX 50 54 100 55 51 56 105 57 99 58 101 59 52 60 104 61 98 62
REMARK SMILES IDX 97 63 53 65 85 66 65 67 84 68 66 69 69 70 83 71 102 72 67 73
REMARK SMILES IDX 68 74 82 76 103 77 70 78 54 79 55 80 63 81 56 82 57 83 61 84
REMARK SMILES IDX 64 85 58 86 59 87 62 88 60 89 86 90 87 91 95 92 88 93 89 94
REMARK SMILES IDX 93 95 96 96 90 97 91 98 94 99 92 100 71 101 72 102 80 103
REMARK SMILES IDX 73 104 74 105 78 106 81 107 75 108 76 109 79 110 77 111
REMARK H PARENT 3 12 15 18 101 64 69 75
REMARK Flexibility Score: inf
ROOT
ATOM      1  C   UNL     1      -2.170   0.142  -2.070  1.00  0.00     0.188 C 
ENDROOT
BRANCH   1   2
ATOM      2  O   UNL     1      -3.337  -0.060  -1.312  1.00  0.00    -0.376 OA
BRANCH   2   3
ATOM      3  C   UNL     1      -3.415  -0.536   0.006  1.00  0.00     0.202 C 
BRANCH   3   4
ATOM      4  C   UNL     1      -2.335  -0.729   1.076  1.00  0.00     0.261 C 
BRANCH   4   5
ATOM      5  O   UNL     1      -0.948  -0.776   0.790  1.00  0.00    -0.462 OA
BRANCH   5   6
ATOM      6  C   UNL     1      -0.491  -1.687  -0.087  1.00  0.00     0.328 C 
ATOM      7  O   UNL     1      -1.124  -2.190  -1.000  1.00  0.00    -0.250 OA
BRANCH   6   8
ATOM      8  C   UNL     1       0.843  -2.231   0.340  1.00  0.00     0.189 C 
ATOM      9  C   UNL     1       1.714  -1.130   0.960  1.00  0.00     0.043 C 
BRANCH   8  10
ATOM     10  N   UNL     1       0.569  -3.378   1.228  1.00  0.00    -0.338 N 
ATOM     11  C   UNL     1      -0.196  -4.471   0.837  1.00  0.00     0.268 C 
ATOM     12  H   UNL     1       0.945  -3.368   2.138  1.00  0.00     0.164 HD
ATOM     13  O   UNL     1       0.351  -5.481   0.406  1.00  0.00    -0.268 OA
BRANCH  11  14
ATOM     14  C   UNL     1      -1.703  -4.440   1.109  1.00  0.00     0.107 C 
ATOM     15  C   UNL     1      -2.524  -4.252   0.048  1.00  0.00     0.040 C 
BRANCH  14  16
ATOM     16  N   UNL     1      -2.235  -4.689   2.353  1.00  0.00    -0.317 N 
ATOM     17  C   UNL     1      -1.739  -4.966   3.593  1.00  0.00     0.255 C 
ATOM     18  H   UNL     1      -3.219  -4.661   2.346  1.00  0.00     0.170 HD
ATOM     19  O   UNL     1      -2.510  -5.167   4.529  1.00  0.00    -0.269 OA
BRANCH  17  20
ATOM     20  C   UNL     1      -0.309  -5.088   3.816  1.00  0.00     0.040 A 
ATOM     21  C   UNL     1       0.268  -6.346   3.693  1.00  0.00     0.014 A 
ATOM     22  C   UNL     1       0.446  -3.966   4.139  1.00  0.00     0.014 A 
ATOM     23  C   UNL     1       1.647  -6.464   3.813  1.00  0.00     0.005 A 
ATOM     24  C   UNL     1       1.831  -4.091   4.237  1.00  0.00     0.005 A 
ATOM     25  C   UNL     1       2.462  -5.335   4.041  1.00  0.00    -0.043 A 
BRANCH  25  26
ATOM     26  C   UNL     1       3.987  -5.503   4.095  1.00  0.00    -0.013 C 
ATOM     27  C   UNL     1       4.343  -6.229   5.405  1.00  0.00     0.016 C 
ATOM     28  C   UNL     1       4.486  -6.332   2.889  1.00  0.00     0.016 C 
ATOM     29  C   UNL     1       4.752  -4.163   4.055  1.00  0.00     0.016 C 
ENDBRANCH  25  26
ENDBRANCH  17  20
ENDBRANCH  14  16
BRANCH  15  30
ATOM     30  C   UNL     1      -3.984  -3.911  -0.068  1.00  0.00    -0.023 A 
ATOM     31  C   UNL     1      -4.843  -3.584   1.002  1.00  0.00     0.010 A 
ATOM     32  C   UNL     1      -4.470  -3.632  -1.367  1.00  0.00     0.010 A 
ATOM     33  C   UNL     1      -6.108  -3.005   0.792  1.00  0.00     0.021 A 
ATOM     34  C   UNL     1      -5.721  -3.023  -1.578  1.00  0.00     0.021 A 
ATOM     35  C   UNL     1      -6.533  -2.707  -0.496  1.00  0.00     0.041 A 
ATOM     36  Cl  UNL     1      -8.011  -1.861  -0.732  1.00  0.00    -0.084 Cl
ENDBRANCH  15  30
ENDBRANCH  11  14
ENDBRANCH   8  10
ENDBRANCH   6   8
ENDBRANCH   5   6
ENDBRANCH   4   5
ENDBRANCH   3   4
ENDBRANCH   2   3
ENDBRANCH   1   2
BRANCH   1  37
ATOM     37  C   UNL     1      -1.115   1.094  -1.501  1.00  0.00     0.188 C 
BRANCH  37  38
ATOM     38  O   UNL     1      -1.388   1.667  -0.234  1.00  0.00    -0.377 OA
BRANCH  38  39
ATOM     39  C   UNL     1      -2.558   2.455  -0.036  1.00  0.00     0.188 C 
BRANCH  39  40
ATOM     40  C   UNL     1      -3.531   2.749  -1.194  1.00  0.00     0.188 C 
BRANCH  40  41
ATOM     41  O   UNL     1      -2.901   2.868  -2.453  1.00  0.00    -0.376 OA
BRANCH  41  42
ATOM     42  C   UNL     1      -2.469   4.144  -2.881  1.00  0.00     0.202 C 
BRANCH  42  43
ATOM     43  C   UNL     1      -1.540   4.951  -1.959  1.00  0.00     0.261 C 
BRANCH  43  44
ATOM     44  O   UNL     1      -2.007   5.270  -0.630  1.00  0.00    -0.460 OA
BRANCH  44  45
ATOM     45  C   UNL     1      -3.236   5.794  -0.450  1.00  0.00     0.338 C 
ATOM     46  O   UNL     1      -3.994   6.195  -1.319  1.00  0.00    -0.246 OA
BRANCH  45  47
ATOM     47  C   UNL     1      -3.635   5.573   0.970  1.00  0.00     0.060 A 
ATOM     48  C   UNL     1      -4.864   4.951   1.244  1.00  0.00     0.016 A 
ATOM     49  C   UNL     1      -2.800   5.946   2.027  1.00  0.00     0.016 A 
ATOM     50  C   UNL     1      -5.289   4.764   2.563  1.00  0.00     0.010 A 
ATOM     51  C   UNL     1      -3.241   5.789   3.350  1.00  0.00     0.010 A 
ATOM     52  C   UNL     1      -4.511   5.247   3.622  1.00  0.00    -0.014 A 
BRANCH  52  53
ATOM     53  C   UNL     1      -5.152   5.459   4.949  1.00  0.00     0.031 A 
ATOM     54  C   UNL     1      -5.691   6.835   5.250  1.00  0.00     0.074 A 
ATOM     55  C   UNL     1      -5.318   4.468   5.844  1.00  0.00     0.049 A 
ATOM     56  N   UNL     1      -6.265   7.294   6.334  1.00  0.00    -0.248 NA
ATOM     57  C   UNL     1      -5.563   7.832   4.173  1.00  0.00     0.031 C 
ATOM     58  C   UNL     1      -4.899   3.081   5.663  1.00  0.00     0.029 A 
ATOM     59  N   UNL     1      -5.887   4.488   7.096  1.00  0.00    -0.354 N 
ATOM     60  C   UNL     1      -6.566   8.624   6.066  1.00  0.00     0.074 A 
ATOM     61  C   UNL     1      -6.069   8.915   4.740  1.00  0.00     0.031 C 
ATOM     62  C   UNL     1      -5.210   2.385   6.772  1.00  0.00     0.029 A 
ATOM     63  C   UNL     1      -5.823   3.282   7.752  1.00  0.00     0.049 A 
ATOM     64  H   UNL     1      -6.301   5.291   7.486  1.00  0.00     0.167 HD
ATOM     65  C   UNL     1      -7.215   9.523   6.843  1.00  0.00     0.037 A 
ATOM     66  C   UNL     1      -6.194   2.952   9.007  1.00  0.00     0.037 A 
ATOM     67  C   UNL     1      -7.704   9.244   8.167  1.00  0.00     0.049 A 
ATOM     68  C   UNL     1      -6.829   3.999   9.894  1.00  0.00     0.074 A 
ATOM     69  C   UNL     1      -8.360  10.092   9.042  1.00  0.00     0.029 A 
ATOM     70  N   UNL     1      -7.585   8.020   8.809  1.00  0.00    -0.354 N 
ATOM     71  N   UNL     1      -7.118   5.251   9.630  1.00  0.00    -0.248 NA
ATOM     72  C   UNL     1      -7.197   3.581  11.255  1.00  0.00     0.031 C 
ATOM     73  C   UNL     1      -8.589   9.398  10.234  1.00  0.00     0.029 A 
ATOM     74  C   UNL     1      -8.137   8.098  10.077  1.00  0.00     0.049 A 
ATOM     75  H   UNL     1      -7.169   7.216   8.421  1.00  0.00     0.167 HD
ATOM     76  C   UNL     1      -7.732   5.754  10.772  1.00  0.00     0.074 A 
ATOM     77  C   UNL     1      -7.791   4.668  11.725  1.00  0.00     0.031 C 
ATOM     78  C   UNL     1      -8.203   7.004  11.012  1.00  0.00     0.037 A 
BRANCH  65  79
ATOM     79  C   UNL     1      -7.415  10.903   6.286  1.00  0.00     0.064 A 
ATOM     80  C   UNL     1      -8.295  11.147   5.220  1.00  0.00     0.173 A 
ATOM     81  C   UNL     1      -6.740  12.000   6.841  1.00  0.00     0.173 A 
ATOM     82  F   UNL     1      -8.952  10.131   4.640  1.00  0.00    -0.203 F 
ATOM     83  C   UNL     1      -8.470  12.433   4.714  1.00  0.00     0.198 A 
ATOM     84  C   UNL     1      -6.944  13.289   6.356  1.00  0.00     0.198 A 
ATOM     85  F   UNL     1      -5.887  11.824   7.862  1.00  0.00    -0.203 F 
ATOM     86  F   UNL     1      -9.275  12.633   3.661  1.00  0.00    -0.200 F 
ATOM     87  C   UNL     1      -7.802  13.503   5.288  1.00  0.00     0.200 A 
ATOM     88  F   UNL     1      -6.307  14.324   6.921  1.00  0.00    -0.200 F 
ATOM     89  F   UNL     1      -7.979  14.742   4.807  1.00  0.00    -0.200 F 
ENDBRANCH  65  79
BRANCH  66  90
ATOM     90  C   UNL     1      -5.955   1.576   9.527  1.00  0.00     0.064 A 
ATOM     91  C   UNL     1      -7.019   0.733   9.882  1.00  0.00     0.173 A 
ATOM     92  C   UNL     1      -4.653   1.099   9.741  1.00  0.00     0.173 A 
ATOM     93  F   UNL     1      -8.284   1.152   9.728  1.00  0.00    -0.203 F 
ATOM     94  C   UNL     1      -6.790  -0.515  10.460  1.00  0.00     0.198 A 
ATOM     95  C   UNL     1      -4.425  -0.164  10.285  1.00  0.00     0.198 A 
ATOM     96  F   UNL     1      -3.597   1.864   9.427  1.00  0.00    -0.203 F 
ATOM     97  F   UNL     1      -7.827  -1.267  10.856  1.00  0.00    -0.200 F 
ATOM     98  C   UNL     1      -5.494  -0.964  10.657  1.00  0.00     0.200 A 
ATOM     99  F   UNL     1      -3.170  -0.596  10.464  1.00  0.00    -0.200 F 
ATOM    100  F   UNL     1      -5.274  -2.160  11.220  1.00  0.00    -0.200 F 
ENDBRANCH  66  90
BRANCH  78 101
ATOM    101  C   UNL     1      -8.873   7.252  12.336  1.00  0.00     0.064 A 
ATOM    102  C   UNL     1      -8.157   7.258  13.543  1.00  0.00     0.173 A 
ATOM    103  C   UNL     1     -10.252   7.516  12.394  1.00  0.00     0.173 A 
ATOM    104  F   UNL     1      -6.840   7.003  13.548  1.00  0.00    -0.203 F 
ATOM    105  C   UNL     1      -8.802   7.478  14.758  1.00  0.00     0.198 A 
ATOM    106  C   UNL     1     -10.885   7.774  13.606  1.00  0.00     0.198 A 
ATOM    107  F   UNL     1     -10.984   7.536  11.270  1.00  0.00    -0.203 F 
ATOM    108  F   UNL     1      -8.107   7.416  15.903  1.00  0.00    -0.200 F 
ATOM    109  C   UNL     1     -10.162   7.742  14.789  1.00  0.00     0.200 A 
ATOM    110  F   UNL     1     -12.197   8.049  13.630  1.00  0.00    -0.200 F 
ATOM    111  F   UNL     1     -10.779   7.958  15.959  1.00  0.00    -0.200 F 
ENDBRANCH  78 101
ENDBRANCH  52  53
ENDBRANCH  45  47
ENDBRANCH  44  45
ENDBRANCH  43  44
ENDBRANCH  42  43
ENDBRANCH  41  42
ENDBRANCH  40  41
ENDBRANCH  39  40
ENDBRANCH  38  39
ENDBRANCH  37  38
ENDBRANCH   1  37
TORSDOF 26
