REMARK SMILES O=C(C[C@H](NC(=O)[C@]12C[C@H]3C[C@H](C[C@H](C3)C1)C2)c1cccc([N+](=O)[O-])c1)OCCOCCOCCOCCOC(=O)c1ccc(-c2c3nc(c(-c4c(F)c(F)c(F)c(F)c4F)c4ccc([nH]4)c(-c4c(F)c(F)c(F)c(F)c4F)c4nc(c(-c5c(F)c(F)c(F)c(F)c5F)c5ccc2[nH]5)C=C4)C=C3)cc1
REMARK SMILES IDX 32 1 31 2 30 3 29 4 28 5 27 6 2 7 1 8 3 9 4 10 18 11 19 12
REMARK SMILES IDX 26 13 20 14 22 15 21 16 23 17 24 18 25 19 5 20 6 21 7 23
REMARK SMILES IDX 8 24 9 25 16 26 17 27 10 28 14 29 12 30 11 31 15 32 13 33
REMARK SMILES IDX 33 34 34 35 35 36 36 37 37 38 38 39 39 40 40 41 41 42 42 43
REMARK SMILES IDX 43 44 104 45 44 46 103 47 45 48 46 49 47 50 97 51 48 52
REMARK SMILES IDX 102 53 96 54 98 55 49 56 101 57 95 58 94 59 50 61 82 62
REMARK SMILES IDX 62 63 81 64 63 65 66 66 80 67 99 68 64 69 65 70 79 72 100 73
REMARK SMILES IDX 67 74 51 75 52 76 60 77 53 78 54 79 58 80 61 81 55 82 56 83
REMARK SMILES IDX 59 84 57 85 83 86 84 87 92 88 85 89 86 90 90 91 93 92 87 93
REMARK SMILES IDX 88 94 91 95 89 96 68 97 69 98 77 99 70 100 71 101 75 102
REMARK SMILES IDX 78 103 72 104 73 105 76 106 74 107
REMARK H PARENT 5 22 98 60 66 71
REMARK Flexibility Score: inf
ROOT
ATOM      1  C   UNL     1       5.790  -1.270  -4.072  1.00  0.00     0.188 C 
ENDROOT
BRANCH   1   2
ATOM      2  C   UNL     1       5.136  -1.829  -2.802  1.00  0.00     0.188 C 
BRANCH   2   3
ATOM      3  O   UNL     1       5.232  -3.185  -2.402  1.00  0.00    -0.376 OA
BRANCH   3   4
ATOM      4  C   UNL     1       4.135  -4.089  -2.423  1.00  0.00     0.202 C 
BRANCH   4   5
ATOM      5  C   UNL     1       2.658  -3.709  -2.198  1.00  0.00     0.261 C 
BRANCH   5   6
ATOM      6  O   UNL     1       2.249  -2.348  -2.347  1.00  0.00    -0.463 OA
BRANCH   6   7
ATOM      7  C   UNL     1       2.205  -1.523  -1.264  1.00  0.00     0.308 C 
ATOM      8  O   UNL     1       1.350  -0.652  -1.174  1.00  0.00    -0.252 OA
BRANCH   7   9
ATOM      9  C   UNL     1       3.363  -1.641  -0.305  1.00  0.00     0.152 C 
BRANCH   9  10
ATOM     10  C   UNL     1       2.978  -1.429   1.137  1.00  0.00     0.123 C 
BRANCH  10  11
ATOM     11  C   UNL     1       3.851  -2.340   2.005  1.00  0.00    -0.018 A 
ATOM     12  C   UNL     1       3.753  -3.742   1.812  1.00  0.00     0.006 A 
ATOM     13  C   UNL     1       4.804  -1.865   2.910  1.00  0.00     0.091 A 
ATOM     14  C   UNL     1       4.626  -4.636   2.432  1.00  0.00     0.007 A 
ATOM     15  C   UNL     1       5.656  -2.775   3.562  1.00  0.00     0.269 A 
ATOM     16  C   UNL     1       5.586  -4.153   3.310  1.00  0.00     0.085 A 
BRANCH  15  17
ATOM     17  N   UNL     1       6.652  -2.278   4.514  1.00  0.00     0.062 N 
ATOM     18  O   UNL     1       7.173  -3.100   5.281  1.00  0.00    -0.258 OA
ATOM     19  O   UNL     1       6.912  -1.067   4.494  1.00  0.00    -0.258 OA
ENDBRANCH  15  17
ENDBRANCH  10  11
BRANCH  10  20
ATOM     20  N   UNL     1       2.867  -0.038   1.593  1.00  0.00    -0.348 N 
ATOM     21  C   UNL     1       3.353   1.208   1.397  1.00  0.00     0.226 C 
ATOM     22  H   UNL     1       2.188   0.003   2.304  1.00  0.00     0.164 HD
ATOM     23  O   UNL     1       2.800   2.037   2.139  1.00  0.00    -0.274 OA
BRANCH  21  24
ATOM     24  C   UNL     1       4.465   1.698   0.422  1.00  0.00     0.050 C 
ATOM     25  C   UNL     1       5.814   0.986   0.663  1.00  0.00     0.020 C 
ATOM     26  C   UNL     1       4.709   3.225   0.732  1.00  0.00     0.020 C 
ATOM     27  C   UNL     1       4.080   1.668  -1.078  1.00  0.00     0.020 C 
ATOM     28  C   UNL     1       6.929   1.589  -0.216  1.00  0.00    -0.010 C 
ATOM     29  C   UNL     1       5.816   3.834  -0.147  1.00  0.00    -0.010 C 
ATOM     30  C   UNL     1       5.218   2.222  -1.963  1.00  0.00    -0.010 C 
ATOM     31  C   UNL     1       6.539   1.483  -1.694  1.00  0.00     0.007 C 
ATOM     32  C   UNL     1       7.123   3.074   0.118  1.00  0.00     0.007 C 
ATOM     33  C   UNL     1       5.428   3.701  -1.627  1.00  0.00     0.007 C 
ENDBRANCH  21  24
ENDBRANCH  10  20
ENDBRANCH   9  10
ENDBRANCH   7   9
ENDBRANCH   6   7
ENDBRANCH   5   6
ENDBRANCH   4   5
ENDBRANCH   3   4
ENDBRANCH   2   3
ENDBRANCH   1   2
BRANCH   1  34
ATOM     34  O   UNL     1       5.657  -2.001  -5.272  1.00  0.00    -0.377 OA
BRANCH  34  35
ATOM     35  C   UNL     1       5.885  -3.389  -5.157  1.00  0.00     0.188 C 
BRANCH  35  36
ATOM     36  C   UNL     1       7.173  -3.906  -4.476  1.00  0.00     0.188 C 
BRANCH  36  37
ATOM     37  O   UNL     1       7.900  -2.930  -3.736  1.00  0.00    -0.376 OA
BRANCH  37  38
ATOM     38  C   UNL     1       9.206  -2.635  -4.223  1.00  0.00     0.202 C 
BRANCH  38  39
ATOM     39  C   UNL     1       9.268  -1.734  -5.468  1.00  0.00     0.261 C 
BRANCH  39  40
ATOM     40  O   UNL     1       8.430  -2.136  -6.561  1.00  0.00    -0.460 OA
BRANCH  40  41
ATOM     41  C   UNL     1       8.752  -3.265  -7.228  1.00  0.00     0.338 C 
ATOM     42  O   UNL     1       9.717  -3.985  -7.038  1.00  0.00    -0.246 OA
BRANCH  41  43
ATOM     43  C   UNL     1       7.579  -3.616  -8.060  1.00  0.00     0.060 A 
ATOM     44  C   UNL     1       7.017  -4.897  -7.926  1.00  0.00     0.016 A 
ATOM     45  C   UNL     1       6.951  -2.647  -8.850  1.00  0.00     0.016 A 
ATOM     46  C   UNL     1       5.799  -5.192  -8.545  1.00  0.00     0.010 A 
ATOM     47  C   UNL     1       5.775  -2.966  -9.527  1.00  0.00     0.010 A 
ATOM     48  C   UNL     1       5.204  -4.243  -9.389  1.00  0.00    -0.014 A 
BRANCH  48  49
ATOM     49  C   UNL     1       4.208  -4.681 -10.394  1.00  0.00     0.031 A 
ATOM     50  C   UNL     1       4.759  -5.329 -11.632  1.00  0.00     0.074 A 
ATOM     51  C   UNL     1       2.891  -4.444 -10.267  1.00  0.00     0.049 A 
ATOM     52  N   UNL     1       4.152  -5.691 -12.730  1.00  0.00    -0.248 NA
ATOM     53  C   UNL     1       6.209  -5.594 -11.630  1.00  0.00     0.031 C 
ATOM     54  C   UNL     1       2.241  -3.844  -9.106  1.00  0.00     0.029 A 
ATOM     55  N   UNL     1       1.867  -4.657 -11.157  1.00  0.00    -0.354 N 
ATOM     56  C   UNL     1       5.146  -6.216 -13.544  1.00  0.00     0.074 A 
ATOM     57  C   UNL     1       6.394  -6.121 -12.825  1.00  0.00     0.031 C 
ATOM     58  C   UNL     1       0.929  -3.698  -9.370  1.00  0.00     0.029 A 
ATOM     59  C   UNL     1       0.659  -4.161 -10.732  1.00  0.00     0.049 A 
ATOM     60  H   UNL     1       1.987  -5.121 -12.017  1.00  0.00     0.167 HD
ATOM     61  C   UNL     1       5.035  -6.720 -14.793  1.00  0.00     0.037 A 
ATOM     62  C   UNL     1      -0.514  -4.058 -11.391  1.00  0.00     0.037 A 
ATOM     63  C   UNL     1       3.805  -6.755 -15.528  1.00  0.00     0.049 A 
ATOM     64  C   UNL     1      -0.607  -4.559 -12.812  1.00  0.00     0.074 A 
ATOM     65  C   UNL     1       3.574  -7.243 -16.799  1.00  0.00     0.029 A 
ATOM     66  N   UNL     1       2.601  -6.250 -15.059  1.00  0.00    -0.354 N 
ATOM     67  N   UNL     1       0.324  -5.099 -13.563  1.00  0.00    -0.248 NA
ATOM     68  C   UNL     1      -1.911  -4.434 -13.480  1.00  0.00     0.031 C 
ATOM     69  C   UNL     1       2.239  -6.981 -17.122  1.00  0.00     0.029 A 
ATOM     70  C   UNL     1       1.625  -6.388 -16.029  1.00  0.00     0.049 A 
ATOM     71  H   UNL     1       2.463  -5.851 -14.169  1.00  0.00     0.167 HD
ATOM     72  C   UNL     1      -0.284  -5.402 -14.776  1.00  0.00     0.074 A 
ATOM     73  C   UNL     1      -1.667  -4.987 -14.661  1.00  0.00     0.031 C 
ATOM     74  C   UNL     1       0.251  -5.976 -15.882  1.00  0.00     0.037 A 
BRANCH  61  75
ATOM     75  C   UNL     1       6.300  -7.195 -15.441  1.00  0.00     0.064 A 
ATOM     76  C   UNL     1       6.975  -8.341 -14.990  1.00  0.00     0.173 A 
ATOM     77  C   UNL     1       6.877  -6.460 -16.486  1.00  0.00     0.173 A 
ATOM     78  F   UNL     1       6.482  -9.057 -13.968  1.00  0.00    -0.203 F 
ATOM     79  C   UNL     1       8.202  -8.709 -15.536  1.00  0.00     0.198 A 
ATOM     80  C   UNL     1       8.088  -6.850 -17.051  1.00  0.00     0.198 A 
ATOM     81  F   UNL     1       6.279  -5.350 -16.943  1.00  0.00    -0.203 F 
ATOM     82  F   UNL     1       8.866  -9.761 -15.038  1.00  0.00    -0.200 F 
ATOM     83  C   UNL     1       8.755  -7.966 -16.568  1.00  0.00     0.200 A 
ATOM     84  F   UNL     1       8.620  -6.132 -18.050  1.00  0.00    -0.200 F 
ATOM     85  F   UNL     1       9.941  -8.314 -17.085  1.00  0.00    -0.200 F 
ENDBRANCH  61  75
BRANCH  62  86
ATOM     86  C   UNL     1      -1.684  -3.427 -10.724  1.00  0.00     0.064 A 
ATOM     87  C   UNL     1      -2.796  -4.186 -10.335  1.00  0.00     0.173 A 
ATOM     88  C   UNL     1      -1.710  -2.050 -10.454  1.00  0.00     0.173 A 
ATOM     89  F   UNL     1      -2.833  -5.500 -10.598  1.00  0.00    -0.203 F 
ATOM     90  C   UNL     1      -3.890  -3.593  -9.705  1.00  0.00     0.198 A 
ATOM     91  C   UNL     1      -2.794  -1.462  -9.803  1.00  0.00     0.198 A 
ATOM     92  F   UNL     1      -0.676  -1.276 -10.814  1.00  0.00    -0.203 F 
ATOM     93  F   UNL     1      -4.953  -4.337  -9.372  1.00  0.00    -0.200 F 
ATOM     94  C   UNL     1      -3.884  -2.233  -9.432  1.00  0.00     0.200 A 
ATOM     95  F   UNL     1      -2.780  -0.149  -9.535  1.00  0.00    -0.200 F 
ATOM     96  F   UNL     1      -4.930  -1.667  -8.816  1.00  0.00    -0.200 F 
ENDBRANCH  62  86
BRANCH  74  97
ATOM     97  C   UNL     1      -0.660  -6.239 -17.045  1.00  0.00     0.064 A 
ATOM     98  C   UNL     1      -1.108  -5.208 -17.881  1.00  0.00     0.173 A 
ATOM     99  C   UNL     1      -1.006  -7.558 -17.380  1.00  0.00     0.173 A 
ATOM    100  F   UNL     1      -0.811  -3.931 -17.598  1.00  0.00    -0.203 F 
ATOM    101  C   UNL     1      -1.878  -5.487 -19.008  1.00  0.00     0.198 A 
ATOM    102  C   UNL     1      -1.750  -7.835 -18.522  1.00  0.00     0.198 A 
ATOM    103  F   UNL     1      -0.591  -8.581 -16.617  1.00  0.00    -0.203 F 
ATOM    104  F   UNL     1      -2.319  -4.485 -19.780  1.00  0.00    -0.200 F 
ATOM    105  C   UNL     1      -2.189  -6.800 -19.333  1.00  0.00     0.200 A 
ATOM    106  F   UNL     1      -2.033  -9.105 -18.844  1.00  0.00    -0.200 F 
ATOM    107  F   UNL     1      -2.911  -7.067 -20.430  1.00  0.00    -0.200 F 
ENDBRANCH  74  97
ENDBRANCH  48  49
ENDBRANCH  41  43
ENDBRANCH  40  41
ENDBRANCH  39  40
ENDBRANCH  38  39
ENDBRANCH  37  38
ENDBRANCH  36  37
ENDBRANCH  35  36
ENDBRANCH  34  35
ENDBRANCH   1  34
TORSDOF 25
