REMARK SMILES C[NH+]1CCC([NH+]2CCC(Oc3ccc4ccccc4c3)(C(=O)OCCOCCOCCOCCOC(=O)c3ccc(-c4c5nc(c(-c6c(F)c(F)c(F)c(F)c6F)c6ccc([nH]6)c(-c6c(F)c(F)c(F)c(F)c6F)c6nc(c(-c7c(F)c(F)c(F)c(F)c7F)c7ccc4[nH]7)C=C6)C=C5)cc3)CC2)CC1
REMARK SMILES IDX 29 1 28 2 27 3 26 4 25 5 24 6 23 7 21 8 22 9 9 10 6 11 7 12
REMARK SMILES IDX 102 13 8 15 101 16 5 17 1 18 2 19 3 20 104 21 4 23 103 24
REMARK SMILES IDX 10 25 11 26 12 27 20 28 13 29 19 30 14 31 18 32 15 33 17 34
REMARK SMILES IDX 16 35 30 36 31 37 32 38 33 39 34 40 35 41 36 42 37 43 38 44
REMARK SMILES IDX 39 45 100 46 40 47 99 48 41 49 42 50 43 51 93 52 44 53 98 54
REMARK SMILES IDX 92 55 94 56 45 57 97 58 91 59 90 60 46 62 78 63 58 64 77 65
REMARK SMILES IDX 59 66 62 67 76 68 95 69 60 70 61 71 75 73 96 74 63 75 47 76
REMARK SMILES IDX 48 77 56 78 49 79 50 80 54 81 57 82 51 83 52 84 55 85 53 86
REMARK SMILES IDX 79 87 80 88 88 89 81 90 82 91 86 92 89 93 83 94 84 95 87 96
REMARK SMILES IDX 85 97 64 98 65 99 73 100 66 101 67 102 71 103 74 104 68 105
REMARK SMILES IDX 69 106 72 107 70 108
REMARK H PARENT 6 14 2 22 94 61 62 72
REMARK Flexibility Score: inf
ROOT
ATOM      1  O   UNL     1       2.904  -2.676   4.022  1.00  0.00    -0.377 OA
ENDROOT
BRANCH   1   2
ATOM      2  C   UNL     1       2.740  -2.613   2.622  1.00  0.00     0.188 C 
BRANCH   2   3
ATOM      3  C   UNL     1       3.003  -3.895   1.824  1.00  0.00     0.188 C 
BRANCH   3   4
ATOM      4  O   UNL     1       3.486  -5.051   2.486  1.00  0.00    -0.376 OA
BRANCH   4   5
ATOM      5  C   UNL     1       4.342  -4.910   3.609  1.00  0.00     0.202 C 
BRANCH   5   6
ATOM      6  C   UNL     1       5.628  -4.058   3.512  1.00  0.00     0.261 C 
BRANCH   6   7
ATOM      7  O   UNL     1       5.507  -2.670   3.110  1.00  0.00    -0.460 OA
BRANCH   7   8
ATOM      8  C   UNL     1       5.848  -2.377   1.820  1.00  0.00     0.351 C 
ATOM      9  O   UNL     1       6.183  -3.246   1.017  1.00  0.00    -0.247 OA
BRANCH   8  10
ATOM     10  C   UNL     1       5.862  -0.854   1.473  1.00  0.00     0.216 C 
ATOM     11  N   UNL     1       3.479   0.254  -0.048  1.00  0.00    -0.332 N 
ATOM     12  C   UNL     1       3.532   0.429   1.403  1.00  0.00     0.267 C 
ATOM     13  C   UNL     1       4.300  -0.854  -0.535  1.00  0.00     0.267 C 
ATOM     14  H   UNL     1       3.924   1.091  -0.424  1.00  0.00     0.348 HD
ATOM     15  C   UNL     1       4.847   0.097   2.139  1.00  0.00     0.122 C 
ATOM     16  C   UNL     1       5.757  -0.724  -0.062  1.00  0.00     0.122 C 
BRANCH  11  17
ATOM     17  C   UNL     1       2.092   0.297  -0.628  1.00  0.00     0.195 C 
ATOM     18  C   UNL     1      -2.263   0.173  -0.399  1.00  0.00     0.332 C 
ATOM     19  N   UNL     1      -0.817   0.167  -0.179  1.00  0.00    -0.337 N 
ATOM     20  C   UNL     1      -0.213   1.451  -0.551  1.00  0.00     0.268 C 
ATOM     21  C   UNL     1      -0.167  -0.907  -0.936  1.00  0.00     0.268 C 
ATOM     22  H   UNL     1      -0.673   0.007   0.818  1.00  0.00     0.347 HD
ATOM     23  C   UNL     1       1.248   1.482  -0.091  1.00  0.00     0.126 C 
ATOM     24  C   UNL     1       1.303  -1.026  -0.522  1.00  0.00     0.126 C 
ENDBRANCH  11  17
BRANCH  10  25
ATOM     25  O   UNL     1       7.189  -0.630   2.059  1.00  0.00    -0.475 OA
BRANCH  25  26
ATOM     26  C   UNL     1       7.917   0.416   1.588  1.00  0.00     0.121 A 
ATOM     27  C   UNL     1       7.729   1.703   2.080  1.00  0.00     0.047 A 
ATOM     28  C   UNL     1       8.964   0.143   0.715  1.00  0.00     0.055 A 
ATOM     29  C   UNL     1       8.488   2.757   1.582  1.00  0.00     0.012 A 
ATOM     30  C   UNL     1       9.783   1.183   0.257  1.00  0.00    -0.015 A 
ATOM     31  C   UNL     1       9.515   2.512   0.667  1.00  0.00    -0.018 A 
ATOM     32  C   UNL     1      10.873   0.934  -0.588  1.00  0.00     0.009 A 
ATOM     33  C   UNL     1      10.306   3.559   0.179  1.00  0.00     0.009 A 
ATOM     34  C   UNL     1      11.673   1.985  -1.038  1.00  0.00     0.001 A 
ATOM     35  C   UNL     1      11.382   3.295  -0.667  1.00  0.00     0.001 A 
ENDBRANCH  25  26
ENDBRANCH  10  25
ENDBRANCH   8  10
ENDBRANCH   7   8
ENDBRANCH   6   7
ENDBRANCH   5   6
ENDBRANCH   4   5
ENDBRANCH   3   4
ENDBRANCH   2   3
ENDBRANCH   1   2
BRANCH   1  36
ATOM     36  C   UNL     1       1.713  -2.823   4.777  1.00  0.00     0.188 C 
BRANCH  36  37
ATOM     37  C   UNL     1       0.656  -3.784   4.206  1.00  0.00     0.188 C 
BRANCH  37  38
ATOM     38  O   UNL     1       0.271  -3.512   2.861  1.00  0.00    -0.376 OA
BRANCH  38  39
ATOM     39  C   UNL     1      -0.883  -2.716   2.617  1.00  0.00     0.202 C 
BRANCH  39  40
ATOM     40  C   UNL     1      -0.791  -1.219   2.959  1.00  0.00     0.261 C 
BRANCH  40  41
ATOM     41  O   UNL     1      -0.626  -0.934   4.354  1.00  0.00    -0.460 OA
BRANCH  41  42
ATOM     42  C   UNL     1      -1.580  -1.388   5.186  1.00  0.00     0.338 C 
ATOM     43  O   UNL     1      -2.642  -1.916   4.894  1.00  0.00    -0.246 OA
BRANCH  42  44
ATOM     44  C   UNL     1      -1.010  -1.356   6.539  1.00  0.00     0.060 A 
ATOM     45  C   UNL     1      -0.859  -2.570   7.218  1.00  0.00     0.016 A 
ATOM     46  C   UNL     1      -0.595  -0.151   7.112  1.00  0.00     0.016 A 
ATOM     47  C   UNL     1      -0.308  -2.584   8.492  1.00  0.00     0.010 A 
ATOM     48  C   UNL     1      -0.081  -0.160   8.408  1.00  0.00     0.010 A 
ATOM     49  C   UNL     1       0.030  -1.373   9.108  1.00  0.00    -0.014 A 
BRANCH  49  50
ATOM     50  C   UNL     1       0.243  -1.374  10.568  1.00  0.00     0.031 A 
ATOM     51  C   UNL     1      -0.949  -1.114  11.442  1.00  0.00     0.074 A 
ATOM     52  C   UNL     1       1.442  -1.672  11.093  1.00  0.00     0.049 A 
ATOM     53  N   UNL     1      -1.033  -1.070  12.745  1.00  0.00    -0.248 NA
ATOM     54  C   UNL     1      -2.227  -0.878  10.747  1.00  0.00     0.031 C 
ATOM     55  C   UNL     1       2.642  -2.001  10.326  1.00  0.00     0.029 A 
ATOM     56  N   UNL     1       1.842  -1.748  12.401  1.00  0.00    -0.354 N 
ATOM     57  C   UNL     1      -2.367  -0.800  13.023  1.00  0.00     0.074 A 
ATOM     58  C   UNL     1      -3.051  -0.659  11.758  1.00  0.00     0.031 C 
ATOM     59  C   UNL     1       3.652  -2.235  11.183  1.00  0.00     0.029 A 
ATOM     60  C   UNL     1       3.174  -2.040  12.550  1.00  0.00     0.049 A 
ATOM     61  H   UNL     1       1.231  -1.607  13.161  1.00  0.00     0.167 HD
ATOM     62  C   UNL     1      -2.965  -0.690  14.230  1.00  0.00     0.037 A 
ATOM     63  C   UNL     1       3.917  -2.115  13.671  1.00  0.00     0.037 A 
ATOM     64  C   UNL     1      -2.265  -0.821  15.479  1.00  0.00     0.049 A 
ATOM     65  C   UNL     1       3.243  -1.896  15.003  1.00  0.00     0.074 A 
ATOM     66  C   UNL     1      -2.766  -0.725  16.764  1.00  0.00     0.029 A 
ATOM     67  N   UNL     1      -0.904  -1.066  15.594  1.00  0.00    -0.354 N 
ATOM     68  N   UNL     1       1.980  -1.657  15.265  1.00  0.00    -0.248 NA
ATOM     69  C   UNL     1       4.098  -1.962  16.195  1.00  0.00     0.031 C 
ATOM     70  C   UNL     1      -1.697  -0.848  17.656  1.00  0.00     0.029 A 
ATOM     71  C   UNL     1      -0.541  -1.093  16.930  1.00  0.00     0.049 A 
ATOM     72  H   UNL     1      -0.288  -1.200  14.838  1.00  0.00     0.167 HD
ATOM     73  C   UNL     1       1.883  -1.575  16.649  1.00  0.00     0.074 A 
ATOM     74  C   UNL     1       3.214  -1.807  17.171  1.00  0.00     0.031 C 
ATOM     75  C   UNL     1       0.793  -1.334  17.421  1.00  0.00     0.037 A 
BRANCH  62  76
ATOM     76  C   UNL     1      -4.431  -0.369  14.249  1.00  0.00     0.064 A 
ATOM     77  C   UNL     1      -5.399  -1.292  13.827  1.00  0.00     0.173 A 
ATOM     78  C   UNL     1      -4.873   0.882  14.706  1.00  0.00     0.173 A 
ATOM     79  F   UNL     1      -5.029  -2.494  13.359  1.00  0.00    -0.203 F 
ATOM     80  C   UNL     1      -6.753  -0.966  13.836  1.00  0.00     0.198 A 
ATOM     81  C   UNL     1      -6.230   1.193  14.745  1.00  0.00     0.198 A 
ATOM     82  F   UNL     1      -3.990   1.804  15.117  1.00  0.00    -0.203 F 
ATOM     83  F   UNL     1      -7.656  -1.843  13.375  1.00  0.00    -0.200 F 
ATOM     84  C   UNL     1      -7.168   0.273  14.303  1.00  0.00     0.200 A 
ATOM     85  F   UNL     1      -6.628   2.386  15.206  1.00  0.00    -0.200 F 
ATOM     86  F   UNL     1      -8.471   0.584  14.317  1.00  0.00    -0.200 F 
ENDBRANCH  62  76
BRANCH  63  87
ATOM     87  C   UNL     1       5.375  -2.390  13.584  1.00  0.00     0.064 A 
ATOM     88  C   UNL     1       5.926  -3.571  14.098  1.00  0.00     0.173 A 
ATOM     89  C   UNL     1       6.254  -1.462  13.004  1.00  0.00     0.173 A 
ATOM     90  F   UNL     1       5.133  -4.480  14.685  1.00  0.00    -0.203 F 
ATOM     91  C   UNL     1       7.300  -3.805  14.056  1.00  0.00     0.198 A 
ATOM     92  C   UNL     1       7.623  -1.710  12.933  1.00  0.00     0.198 A 
ATOM     93  F   UNL     1       5.781  -0.313  12.498  1.00  0.00    -0.203 F 
ATOM     94  F   UNL     1       7.805  -4.918  14.604  1.00  0.00    -0.200 F 
ATOM     95  C   UNL     1       8.146  -2.877  13.468  1.00  0.00     0.200 A 
ATOM     96  F   UNL     1       8.435  -0.816  12.352  1.00  0.00    -0.200 F 
ATOM     97  F   UNL     1       9.467  -3.102  13.427  1.00  0.00    -0.200 F 
ENDBRANCH  63  87
BRANCH  75  98
ATOM     98  C   UNL     1       0.987  -1.351  18.911  1.00  0.00     0.064 A 
ATOM     99  C   UNL     1       1.696  -0.341  19.577  1.00  0.00     0.173 A 
ATOM    100  C   UNL     1       0.411  -2.370  19.686  1.00  0.00     0.173 A 
ATOM    101  F   UNL     1       2.276   0.649  18.881  1.00  0.00    -0.203 F 
ATOM    102  C   UNL     1       1.849  -0.368  20.960  1.00  0.00     0.198 A 
ATOM    103  C   UNL     1       0.533  -2.373  21.072  1.00  0.00     0.198 A 
ATOM    104  F   UNL     1      -0.288  -3.353  19.100  1.00  0.00    -0.203 F 
ATOM    105  F   UNL     1       2.578   0.577  21.570  1.00  0.00    -0.200 F 
ATOM    106  C   UNL     1       1.260  -1.378  21.707  1.00  0.00     0.200 A 
ATOM    107  F   UNL     1      -0.053  -3.338  21.793  1.00  0.00    -0.200 F 
ATOM    108  F   UNL     1       1.400  -1.396  23.040  1.00  0.00    -0.200 F 
ENDBRANCH  75  98
ENDBRANCH  49  50
ENDBRANCH  42  44
ENDBRANCH  41  42
ENDBRANCH  40  41
ENDBRANCH  39  40
ENDBRANCH  38  39
ENDBRANCH  37  38
ENDBRANCH  36  37
ENDBRANCH   1  36
TORSDOF 23
