REMARK SMILES Cc1cc(F)ccc1OC1(C(=O)OCCOCCOCCOCCOC(=O)c2ccc(-c3c4nc(c(-c5c(F)c(F)c(F)c(F)c5F)c5ccc([nH]5)c(-c5c(F)c(F)c(F)c(F)c5F)c5nc(c(-c6c(F)c(F)c(F)c(F)c6F)c6ccc3[nH]6)C=C5)C=C4)cc2)CCN(C(=O)[C@H]2CCOC2)CC1
REMARK SMILES IDX 19 1 18 2 17 3 16 4 15 5 14 6 13 7 11 8 12 9 10 10 91 11
REMARK SMILES IDX 102 12 92 13 101 14 93 15 94 16 95 17 9 18 8 19 1 20 2 21
REMARK SMILES IDX 3 22 4 23 7 24 5 25 6 26 96 27 97 28 100 29 98 30 99 31
REMARK SMILES IDX 20 32 21 33 22 34 23 35 24 36 25 37 26 38 27 39 28 40 29 41
REMARK SMILES IDX 90 42 30 43 89 44 31 45 32 46 33 47 83 48 34 49 88 50 82 51
REMARK SMILES IDX 84 52 35 53 87 54 81 55 80 56 36 58 68 59 48 60 67 61 49 62
REMARK SMILES IDX 52 63 66 64 85 65 50 66 51 67 65 69 86 70 53 71 37 72 38 73
REMARK SMILES IDX 46 74 39 75 40 76 44 77 47 78 41 79 42 80 45 81 43 82 69 83
REMARK SMILES IDX 70 84 78 85 71 86 72 87 76 88 79 89 73 90 74 91 77 92 75 93
REMARK SMILES IDX 54 94 55 95 63 96 56 97 57 98 61 99 64 100 58 101 59 102
REMARK SMILES IDX 62 103 60 104
REMARK H PARENT 84 57 52 68
REMARK Flexibility Score: inf
ROOT
ATOM      1  O   UNL     1      10.505   9.155  -1.117  1.00  0.00    -0.377 OA
ENDROOT
BRANCH   1   2
ATOM      2  C   UNL     1       9.647  10.167  -0.614  1.00  0.00     0.188 C 
BRANCH   2   3
ATOM      3  C   UNL     1       9.712  10.542   0.872  1.00  0.00     0.188 C 
BRANCH   3   4
ATOM      4  O   UNL     1      10.963  10.296   1.478  1.00  0.00    -0.376 OA
BRANCH   4   5
ATOM      5  C   UNL     1      11.127   9.164   2.317  1.00  0.00     0.202 C 
BRANCH   5   6
ATOM      6  C   UNL     1      10.208   7.925   2.288  1.00  0.00     0.261 C 
BRANCH   6   7
ATOM      7  O   UNL     1       9.448   7.693   1.091  1.00  0.00    -0.460 OA
BRANCH   7   8
ATOM      8  C   UNL     1       8.095   7.600   1.241  1.00  0.00     0.350 C 
ATOM      9  O   UNL     1       7.541   7.732   2.334  1.00  0.00    -0.247 OA
BRANCH   8  10
ATOM     10  C   UNL     1       7.281   7.363  -0.080  1.00  0.00     0.209 C 
ATOM     11  C   UNL     1       8.176   7.103  -1.288  1.00  0.00     0.082 C 
ATOM     12  C   UNL     1       6.339   6.222   0.311  1.00  0.00     0.082 C 
ATOM     13  C   UNL     1       7.911   5.874  -2.143  1.00  0.00     0.124 C 
ATOM     14  C   UNL     1       5.830   5.355  -0.817  1.00  0.00     0.124 C 
ATOM     15  N   UNL     1       6.855   4.946  -1.768  1.00  0.00    -0.342 N 
ATOM     16  C   UNL     1       6.756   3.830  -2.605  1.00  0.00     0.228 C 
ATOM     17  O   UNL     1       7.607   3.617  -3.473  1.00  0.00    -0.274 OA
BRANCH  10  18
ATOM     18  O   UNL     1       6.670   8.672  -0.070  1.00  0.00    -0.475 OA
BRANCH  18  19
ATOM     19  C   UNL     1       5.765   9.386  -0.766  1.00  0.00     0.124 A 
ATOM     20  C   UNL     1       5.281   8.035  -2.919  1.00  0.00     0.048 C 
ATOM     21  C   UNL     1       5.092   9.169  -1.971  1.00  0.00    -0.006 A 
ATOM     22  C   UNL     1       4.168  10.142  -2.430  1.00  0.00     0.046 A 
ATOM     23  C   UNL     1       3.948  11.322  -1.736  1.00  0.00     0.123 A 
ATOM     24  C   UNL     1       5.527  10.611  -0.096  1.00  0.00     0.050 A 
ATOM     25  F   UNL     1       3.079  12.222  -2.212  1.00  0.00    -0.207 F 
ATOM     26  C   UNL     1       4.637  11.575  -0.571  1.00  0.00     0.043 A 
ENDBRANCH  18  19
ENDBRANCH  10  18
BRANCH  16  27
ATOM     27  C   UNL     1       5.549   2.919  -2.477  1.00  0.00     0.107 C 
ATOM     28  C   UNL     1       4.356   3.447  -3.248  1.00  0.00     0.044 C 
ATOM     29  C   UNL     1       5.788   1.579  -3.152  1.00  0.00     0.173 C 
ATOM     30  C   UNL     1       3.602   2.195  -3.645  1.00  0.00     0.161 C 
ATOM     31  O   UNL     1       4.506   1.090  -3.565  1.00  0.00    -0.381 OA
ENDBRANCH  16  27
ENDBRANCH   8  10
ENDBRANCH   7   8
ENDBRANCH   6   7
ENDBRANCH   5   6
ENDBRANCH   4   5
ENDBRANCH   3   4
ENDBRANCH   2   3
ENDBRANCH   1   2
BRANCH   1  32
ATOM     32  C   UNL     1      11.903   9.285  -0.912  1.00  0.00     0.188 C 
BRANCH  32  33
ATOM     33  C   UNL     1      12.589  10.666  -1.021  1.00  0.00     0.188 C 
BRANCH  33  34
ATOM     34  O   UNL     1      11.748  11.772  -1.335  1.00  0.00    -0.376 OA
BRANCH  34  35
ATOM     35  C   UNL     1      11.786  12.247  -2.680  1.00  0.00     0.202 C 
BRANCH  35  36
ATOM     36  C   UNL     1      11.007  11.392  -3.695  1.00  0.00     0.261 C 
BRANCH  36  37
ATOM     37  O   UNL     1      11.462  10.043  -3.744  1.00  0.00    -0.460 OA
BRANCH  37  38
ATOM     38  C   UNL     1      12.740   9.946  -4.136  1.00  0.00     0.338 C 
ATOM     39  O   UNL     1      13.465  10.817  -4.585  1.00  0.00    -0.246 OA
BRANCH  38  40
ATOM     40  C   UNL     1      13.200   8.569  -3.943  1.00  0.00     0.060 A 
ATOM     41  C   UNL     1      14.492   8.484  -3.392  1.00  0.00     0.016 A 
ATOM     42  C   UNL     1      12.737   7.733  -4.950  1.00  0.00     0.016 A 
ATOM     43  C   UNL     1      15.463   7.881  -4.144  1.00  0.00     0.010 A 
ATOM     44  C   UNL     1      13.707   7.159  -5.718  1.00  0.00     0.010 A 
ATOM     45  C   UNL     1      15.052   7.378  -5.367  1.00  0.00    -0.014 A 
BRANCH  45  46
ATOM     46  C   UNL     1      15.970   7.273  -6.468  1.00  0.00     0.031 A 
ATOM     47  C   UNL     1      16.551   5.966  -6.733  1.00  0.00     0.074 A 
ATOM     48  C   UNL     1      16.085   8.360  -7.260  1.00  0.00     0.049 A 
ATOM     49  N   UNL     1      17.591   5.767  -7.454  1.00  0.00    -0.248 NA
ATOM     50  C   UNL     1      16.021   4.757  -6.112  1.00  0.00     0.031 C 
ATOM     51  C   UNL     1      16.562   8.428  -8.632  1.00  0.00     0.029 A 
ATOM     52  N   UNL     1      15.922   9.700  -6.872  1.00  0.00    -0.354 N 
ATOM     53  C   UNL     1      17.648   4.413  -7.685  1.00  0.00     0.074 A 
ATOM     54  C   UNL     1      16.743   3.822  -6.729  1.00  0.00     0.031 C 
ATOM     55  C   UNL     1      16.881   9.703  -8.915  1.00  0.00     0.029 A 
ATOM     56  C   UNL     1      16.802  10.453  -7.669  1.00  0.00     0.049 A 
ATOM     57  H   UNL     1      15.313  10.043  -6.180  1.00  0.00     0.167 HD
ATOM     58  C   UNL     1      18.292   3.985  -8.806  1.00  0.00     0.037 A 
ATOM     59  C   UNL     1      17.875  11.076  -7.096  1.00  0.00     0.037 A 
ATOM     60  C   UNL     1      18.926   5.116  -9.487  1.00  0.00     0.049 A 
ATOM     61  C   UNL     1      19.195  10.526  -7.587  1.00  0.00     0.074 A 
ATOM     62  C   UNL     1      18.509   5.915 -10.541  1.00  0.00     0.029 A 
ATOM     63  N   UNL     1      19.938   5.825  -8.840  1.00  0.00    -0.354 N 
ATOM     64  N   UNL     1      19.384   9.295  -7.980  1.00  0.00    -0.248 NA
ATOM     65  C   UNL     1      20.394  11.348  -7.704  1.00  0.00     0.031 C 
ATOM     66  C   UNL     1      19.244   7.126 -10.498  1.00  0.00     0.029 A 
ATOM     67  C   UNL     1      20.118   7.064  -9.427  1.00  0.00     0.049 A 
ATOM     68  H   UNL     1      20.453   5.489  -8.071  1.00  0.00     0.167 HD
ATOM     69  C   UNL     1      20.673   9.157  -8.434  1.00  0.00     0.074 A 
ATOM     70  C   UNL     1      21.261  10.471  -8.237  1.00  0.00     0.031 C 
ATOM     71  C   UNL     1      21.145   7.985  -8.960  1.00  0.00     0.037 A 
BRANCH  58  72
ATOM     72  C   UNL     1      17.971   2.654  -9.446  1.00  0.00     0.064 A 
ATOM     73  C   UNL     1      17.956   2.514 -10.849  1.00  0.00     0.173 A 
ATOM     74  C   UNL     1      17.578   1.504  -8.736  1.00  0.00     0.173 A 
ATOM     75  F   UNL     1      18.415   3.480 -11.655  1.00  0.00    -0.203 F 
ATOM     76  C   UNL     1      17.463   1.372 -11.484  1.00  0.00     0.198 A 
ATOM     77  C   UNL     1      17.029   0.383  -9.368  1.00  0.00     0.198 A 
ATOM     78  F   UNL     1      17.759   1.410  -7.412  1.00  0.00    -0.203 F 
ATOM     79  F   UNL     1      17.463   1.305 -12.822  1.00  0.00    -0.200 F 
ATOM     80  C   UNL     1      16.960   0.323 -10.744  1.00  0.00     0.200 A 
ATOM     81  F   UNL     1      16.567  -0.637  -8.630  1.00  0.00    -0.200 F 
ATOM     82  F   UNL     1      16.443  -0.752 -11.353  1.00  0.00    -0.200 F 
ENDBRANCH  58  72
BRANCH  59  83
ATOM     83  C   UNL     1      17.622  11.550  -5.706  1.00  0.00     0.064 A 
ATOM     84  C   UNL     1      16.672  12.572  -5.498  1.00  0.00     0.173 A 
ATOM     85  C   UNL     1      18.020  10.807  -4.589  1.00  0.00     0.173 A 
ATOM     86  F   UNL     1      16.263  13.324  -6.532  1.00  0.00    -0.203 F 
ATOM     87  C   UNL     1      16.080  12.775  -4.251  1.00  0.00     0.198 A 
ATOM     88  C   UNL     1      17.422  11.010  -3.342  1.00  0.00     0.198 A 
ATOM     89  F   UNL     1      18.920   9.822  -4.713  1.00  0.00    -0.203 F 
ATOM     90  F   UNL     1      15.130  13.709  -4.101  1.00  0.00    -0.200 F 
ATOM     91  C   UNL     1      16.435  11.972  -3.181  1.00  0.00     0.200 A 
ATOM     92  F   UNL     1      17.750  10.222  -2.307  1.00  0.00    -0.200 F 
ATOM     93  F   UNL     1      15.808  12.100  -2.002  1.00  0.00    -0.200 F 
ENDBRANCH  59  83
BRANCH  71  94
ATOM     94  C   UNL     1      22.596   7.634  -9.233  1.00  0.00     0.064 A 
ATOM     95  C   UNL     1      23.693   8.278  -8.640  1.00  0.00     0.173 A 
ATOM     96  C   UNL     1      22.927   6.507 -10.033  1.00  0.00     0.173 A 
ATOM     97  F   UNL     1      23.533   9.255  -7.739  1.00  0.00    -0.203 F 
ATOM     98  C   UNL     1      25.012   7.893  -8.900  1.00  0.00     0.198 A 
ATOM     99  C   UNL     1      24.239   6.082 -10.230  1.00  0.00     0.198 A 
ATOM    100  F   UNL     1      21.990   5.756 -10.627  1.00  0.00    -0.203 F 
ATOM    101  F   UNL     1      26.022   8.587  -8.356  1.00  0.00    -0.200 F 
ATOM    102  C   UNL     1      25.285   6.791  -9.686  1.00  0.00     0.200 A 
ATOM    103  F   UNL     1      24.477   4.967 -10.937  1.00  0.00    -0.200 F 
ATOM    104  F   UNL     1      26.549   6.399  -9.894  1.00  0.00    -0.200 F 
ENDBRANCH  71  94
ENDBRANCH  45  46
ENDBRANCH  38  40
ENDBRANCH  37  38
ENDBRANCH  36  37
ENDBRANCH  35  36
ENDBRANCH  34  35
ENDBRANCH  33  34
ENDBRANCH  32  33
ENDBRANCH   1  32
TORSDOF 23
