REMARK SMILES CC1(C)COCCN1C(=O)N1CCO[C@@H](CC(=O)OCCOCCOCCOCCOC(=O)c2ccc(-c3c4nc(c(-c5c(F)c(F)c(F)c(F)c5F)c5ccc([nH]5)c(-c5c(F)c(F)c(F)c(F)c5F)c5nc(c(-c6c(F)c(F)c(F)c(F)c6F)c6ccc3[nH]6)C=C5)C=C4)cc2)C1
REMARK SMILES IDX 24 1 23 2 22 3 21 4 20 5 19 6 17 7 18 8 16 9 15 10 11 11
REMARK SMILES IDX 12 12 97 13 13 14 14 15 9 16 10 17 8 18 1 19 2 20 3 21 4 22
REMARK SMILES IDX 5 23 7 24 6 25 25 26 26 27 27 28 28 29 29 30 30 31 31 32
REMARK SMILES IDX 32 33 33 34 34 35 35 36 96 37 36 38 95 39 37 40 38 41 39 42
REMARK SMILES IDX 89 43 40 44 94 45 88 46 90 47 41 48 93 49 87 50 86 51 42 53
REMARK SMILES IDX 74 54 54 55 73 56 55 57 58 58 72 59 91 60 56 61 57 62 71 64
REMARK SMILES IDX 92 65 59 66 43 67 44 68 52 69 45 70 46 71 50 72 53 73 47 74
REMARK SMILES IDX 48 75 51 76 49 77 75 78 76 79 84 80 77 81 78 82 82 83 85 84
REMARK SMILES IDX 79 85 80 86 83 87 81 88 60 89 61 90 69 91 62 92 63 93 67 94
REMARK SMILES IDX 70 95 64 96 65 97 68 98 66 99
REMARK H PARENT 90 52 58 63
REMARK Flexibility Score: inf
ROOT
ATOM      1  C   UNL     1      -0.488   4.649   4.138  1.00  0.00     0.188 C 
ENDROOT
BRANCH   1   2
ATOM      2  C   UNL     1       0.895   5.245   3.808  1.00  0.00     0.188 C 
BRANCH   2   3
ATOM      3  O   UNL     1       1.089   5.960   2.599  1.00  0.00    -0.376 OA
BRANCH   3   4
ATOM      4  C   UNL     1       0.845   5.346   1.346  1.00  0.00     0.202 C 
BRANCH   4   5
ATOM      5  C   UNL     1       1.005   3.843   1.138  1.00  0.00     0.261 C 
BRANCH   5   6
ATOM      6  O   UNL     1       0.315   2.976   2.054  1.00  0.00    -0.463 OA
BRANCH   6   7
ATOM      7  C   UNL     1       1.041   2.216   2.904  1.00  0.00     0.308 C 
ATOM      8  O   UNL     1       2.256   2.310   3.042  1.00  0.00    -0.252 OA
BRANCH   7   9
ATOM      9  C   UNL     1       0.238   1.186   3.662  1.00  0.00     0.156 C 
BRANCH   9  10
ATOM     10  C   UNL     1      -1.270   1.063   3.423  1.00  0.00     0.149 C 
ATOM     11  N   UNL     1      -1.375  -0.206   1.284  1.00  0.00    -0.320 N 
ATOM     12  C   UNL     1      -1.862  -1.376   2.013  1.00  0.00     0.150 C 
ATOM     13  C   UNL     1      -1.763   1.026   1.966  1.00  0.00     0.154 C 
ATOM     14  C   UNL     1      -1.434  -1.351   3.481  1.00  0.00     0.182 C 
ATOM     15  O   UNL     1      -1.769  -0.109   4.129  1.00  0.00    -0.374 OA
BRANCH  11  16
ATOM     16  C   UNL     1      -1.566  -0.229  -0.082  1.00  0.00     0.320 C 
ATOM     17  O   UNL     1      -2.603  -0.714  -0.542  1.00  0.00    -0.248 OA
BRANCH  16  18
ATOM     18  N   UNL     1      -0.619   0.396  -0.890  1.00  0.00    -0.315 N 
ATOM     19  C   UNL     1       1.298  -1.149  -1.342  1.00  0.00     0.037 C 
ATOM     20  C   UNL     1       0.887   0.240  -0.826  1.00  0.00     0.062 C 
ATOM     21  C   UNL     1       1.544   0.358   0.544  1.00  0.00     0.037 C 
ATOM     22  C   UNL     1       1.554   1.355  -1.702  1.00  0.00     0.188 C 
ATOM     23  O   UNL     1       1.041   1.407  -3.035  1.00  0.00    -0.377 OA
ATOM     24  C   UNL     1      -1.120   0.633  -2.254  1.00  0.00     0.150 C 
ATOM     25  C   UNL     1      -0.354   1.716  -2.999  1.00  0.00     0.182 C 
ENDBRANCH  16  18
ENDBRANCH  11  16
ENDBRANCH   9  10
ENDBRANCH   7   9
ENDBRANCH   6   7
ENDBRANCH   5   6
ENDBRANCH   4   5
ENDBRANCH   3   4
ENDBRANCH   2   3
ENDBRANCH   1   2
BRANCH   1  26
ATOM     26  O   UNL     1      -1.415   4.562   3.070  1.00  0.00    -0.377 OA
BRANCH  26  27
ATOM     27  C   UNL     1      -2.123   5.731   2.676  1.00  0.00     0.188 C 
BRANCH  27  28
ATOM     28  C   UNL     1      -1.679   7.117   3.184  1.00  0.00     0.188 C 
BRANCH  28  29
ATOM     29  O   UNL     1      -1.195   7.146   4.514  1.00  0.00    -0.376 OA
BRANCH  29  30
ATOM     30  C   UNL     1      -2.092   7.361   5.593  1.00  0.00     0.202 C 
BRANCH  30  31
ATOM     31  C   UNL     1      -3.308   6.431   5.762  1.00  0.00     0.261 C 
BRANCH  31  32
ATOM     32  O   UNL     1      -4.227   6.354   4.661  1.00  0.00    -0.460 OA
BRANCH  32  33
ATOM     33  C   UNL     1      -4.743   7.498   4.175  1.00  0.00     0.338 C 
ATOM     34  O   UNL     1      -4.591   8.626   4.615  1.00  0.00    -0.246 OA
BRANCH  33  35
ATOM     35  C   UNL     1      -5.372   7.190   2.874  1.00  0.00     0.060 A 
ATOM     36  C   UNL     1      -4.902   7.833   1.720  1.00  0.00     0.016 A 
ATOM     37  C   UNL     1      -6.425   6.277   2.797  1.00  0.00     0.016 A 
ATOM     38  C   UNL     1      -5.520   7.606   0.492  1.00  0.00     0.010 A 
ATOM     39  C   UNL     1      -7.066   6.075   1.573  1.00  0.00     0.010 A 
ATOM     40  C   UNL     1      -6.645   6.777   0.429  1.00  0.00    -0.014 A 
BRANCH  40  41
ATOM     41  C   UNL     1      -7.539   6.859  -0.750  1.00  0.00     0.031 A 
ATOM     42  C   UNL     1      -8.717   7.792  -0.668  1.00  0.00     0.074 A 
ATOM     43  C   UNL     1      -7.304   6.158  -1.870  1.00  0.00     0.049 A 
ATOM     44  N   UNL     1      -9.681   8.001  -1.527  1.00  0.00    -0.248 NA
ATOM     45  C   UNL     1      -8.819   8.597   0.560  1.00  0.00     0.031 C 
ATOM     46  C   UNL     1      -6.161   5.279  -2.095  1.00  0.00     0.029 A 
ATOM     47  N   UNL     1      -8.031   6.077  -3.031  1.00  0.00    -0.354 N 
ATOM     48  C   UNL     1     -10.504   8.953  -0.940  1.00  0.00     0.074 A 
ATOM     49  C   UNL     1      -9.951   9.251   0.362  1.00  0.00     0.031 C 
ATOM     50  C   UNL     1      -6.267   4.737  -3.321  1.00  0.00     0.029 A 
ATOM     51  C   UNL     1      -7.505   5.202  -3.947  1.00  0.00     0.049 A 
ATOM     52  H   UNL     1      -8.852   6.597  -3.191  1.00  0.00     0.167 HD
ATOM     53  C   UNL     1     -11.618   9.535  -1.445  1.00  0.00     0.037 A 
ATOM     54  C   UNL     1      -7.987   4.810  -5.142  1.00  0.00     0.037 A 
ATOM     55  C   UNL     1     -12.174   9.219  -2.733  1.00  0.00     0.049 A 
ATOM     56  C   UNL     1      -9.294   5.380  -5.634  1.00  0.00     0.074 A 
ATOM     57  C   UNL     1     -13.302   9.741  -3.340  1.00  0.00     0.029 A 
ATOM     58  N   UNL     1     -11.646   8.280  -3.609  1.00  0.00    -0.354 N 
ATOM     59  N   UNL     1     -10.067   6.286  -5.084  1.00  0.00    -0.248 NA
ATOM     60  C   UNL     1      -9.796   4.869  -6.918  1.00  0.00     0.031 C 
ATOM     61  C   UNL     1     -13.492   9.073  -4.554  1.00  0.00     0.029 A 
ATOM     62  C   UNL     1     -12.444   8.185  -4.738  1.00  0.00     0.049 A 
ATOM     63  H   UNL     1     -10.827   7.758  -3.451  1.00  0.00     0.167 HD
ATOM     64  C   UNL     1     -11.122   6.480  -5.968  1.00  0.00     0.074 A 
ATOM     65  C   UNL     1     -10.884   5.604  -7.096  1.00  0.00     0.031 C 
ATOM     66  C   UNL     1     -12.188   7.313  -5.859  1.00  0.00     0.037 A 
BRANCH  53  67
ATOM     67  C   UNL     1     -12.323  10.535  -0.573  1.00  0.00     0.064 A 
ATOM     68  C   UNL     1     -11.745  11.772  -0.245  1.00  0.00     0.173 A 
ATOM     69  C   UNL     1     -13.589  10.244  -0.040  1.00  0.00     0.173 A 
ATOM     70  F   UNL     1     -10.529  12.094  -0.712  1.00  0.00    -0.203 F 
ATOM     71  C   UNL     1     -12.386  12.657   0.619  1.00  0.00     0.198 A 
ATOM     72  C   UNL     1     -14.243  11.149   0.791  1.00  0.00     0.198 A 
ATOM     73  F   UNL     1     -14.190   9.078  -0.321  1.00  0.00    -0.203 F 
ATOM     74  F   UNL     1     -11.780  13.798   0.976  1.00  0.00    -0.200 F 
ATOM     75  C   UNL     1     -13.636  12.347   1.132  1.00  0.00     0.200 A 
ATOM     76  F   UNL     1     -15.458  10.853   1.275  1.00  0.00    -0.200 F 
ATOM     77  F   UNL     1     -14.250  13.198   1.966  1.00  0.00    -0.200 F 
ENDBRANCH  53  67
BRANCH  54  78
ATOM     78  C   UNL     1      -7.231   3.828  -5.963  1.00  0.00     0.064 A 
ATOM     79  C   UNL     1      -6.650   4.207  -7.182  1.00  0.00     0.173 A 
ATOM     80  C   UNL     1      -7.083   2.493  -5.559  1.00  0.00     0.173 A 
ATOM     81  F   UNL     1      -6.787   5.466  -7.625  1.00  0.00    -0.203 F 
ATOM     82  C   UNL     1      -5.963   3.287  -7.970  1.00  0.00     0.198 A 
ATOM     83  C   UNL     1      -6.370   1.580  -6.334  1.00  0.00     0.198 A 
ATOM     84  F   UNL     1      -7.625   2.076  -4.405  1.00  0.00    -0.203 F 
ATOM     85  F   UNL     1      -5.455   3.667  -9.150  1.00  0.00    -0.200 F 
ATOM     86  C   UNL     1      -5.816   1.976  -7.542  1.00  0.00     0.200 A 
ATOM     87  F   UNL     1      -6.221   0.318  -5.912  1.00  0.00    -0.200 F 
ATOM     88  F   UNL     1      -5.148   1.094  -8.297  1.00  0.00    -0.200 F 
ENDBRANCH  54  78
BRANCH  66  89
ATOM     89  C   UNL     1     -13.155   7.358  -7.010  1.00  0.00     0.064 A 
ATOM     90  C   UNL     1     -14.008   6.285  -7.307  1.00  0.00     0.173 A 
ATOM     91  C   UNL     1     -13.258   8.514  -7.801  1.00  0.00     0.173 A 
ATOM     92  F   UNL     1     -13.943   5.152  -6.592  1.00  0.00    -0.203 F 
ATOM     93  C   UNL     1     -14.905   6.356  -8.371  1.00  0.00     0.198 A 
ATOM     94  C   UNL     1     -14.182   8.595  -8.839  1.00  0.00     0.198 A 
ATOM     95  F   UNL     1     -12.473   9.574  -7.556  1.00  0.00    -0.203 F 
ATOM     96  F   UNL     1     -15.671   5.297  -8.670  1.00  0.00    -0.200 F 
ATOM     97  C   UNL     1     -14.998   7.513  -9.130  1.00  0.00     0.200 A 
ATOM     98  F   UNL     1     -14.282   9.721  -9.558  1.00  0.00    -0.200 F 
ATOM     99  F   UNL     1     -15.868   7.582 -10.146  1.00  0.00    -0.200 F 
ENDBRANCH  66  89
ENDBRANCH  40  41
ENDBRANCH  33  35
ENDBRANCH  32  33
ENDBRANCH  31  32
ENDBRANCH  30  31
ENDBRANCH  29  30
ENDBRANCH  28  29
ENDBRANCH  27  28
ENDBRANCH  26  27
ENDBRANCH   1  26
TORSDOF 23
