REMARK SMILES C[C@H]1[C@H](C(=O)OCCOCCOCCOCCOC(=O)c2ccc(-c3c4nc(c(-c5c(F)c(F)c(F)c(F)c5F)c5ccc([nH]5)c(-c5c(F)c(F)c(F)c(F)c5F)c5nc(c(-c6c(F)c(F)c(F)c(F)c6F)c6ccc3[nH]6)C=C5)C=C4)cc2)CCN1c1ncnc2sccc12
REMARK SMILES IDX 13 1 12 2 11 3 10 4 9 5 8 6 7 7 6 8 4 9 5 10 3 11 1 12 2 13
REMARK SMILES IDX 86 14 84 15 85 16 87 17 88 18 95 19 89 20 91 21 94 22 90 23
REMARK SMILES IDX 92 24 93 25 14 26 15 27 16 28 17 29 18 30 19 31 20 32 21 33
REMARK SMILES IDX 22 34 83 35 23 36 82 37 24 38 25 39 26 40 76 41 27 42 81 43
REMARK SMILES IDX 75 44 77 45 28 46 80 47 74 48 73 49 29 51 61 52 41 53 60 54
REMARK SMILES IDX 42 55 45 56 59 57 78 58 43 59 44 60 58 62 79 63 46 64 30 65
REMARK SMILES IDX 31 66 39 67 32 68 33 69 37 70 40 71 34 72 35 73 38 74 36 75
REMARK SMILES IDX 62 76 63 77 71 78 64 79 65 80 69 81 72 82 66 83 67 84 70 85
REMARK SMILES IDX 68 86 47 87 48 88 56 89 49 90 50 91 54 92 57 93 51 94 52 95
REMARK SMILES IDX 55 96 53 97
REMARK H PARENT 77 50 45 61
REMARK Flexibility Score: inf
ROOT
ATOM      1  C   UNL     1       2.563   2.254   4.293  1.00  0.00     0.188 C 
ENDROOT
BRANCH   1   2
ATOM      2  O   UNL     1       2.801   1.611   3.063  1.00  0.00    -0.377 OA
BRANCH   2   3
ATOM      3  C   UNL     1       1.955   2.003   2.012  1.00  0.00     0.188 C 
BRANCH   3   4
ATOM      4  C   UNL     1       1.745   3.467   1.605  1.00  0.00     0.188 C 
BRANCH   4   5
ATOM      5  O   UNL     1       1.107   4.379   2.479  1.00  0.00    -0.376 OA
BRANCH   5   6
ATOM      6  C   UNL     1      -0.088   4.137   3.190  1.00  0.00     0.202 C 
BRANCH   6   7
ATOM      7  C   UNL     1      -1.236   3.199   2.768  1.00  0.00     0.261 C 
BRANCH   7   8
ATOM      8  O   UNL     1      -0.946   2.072   1.931  1.00  0.00    -0.463 OA
BRANCH   8   9
ATOM      9  C   UNL     1      -1.064   2.281   0.599  1.00  0.00     0.311 C 
ATOM     10  O   UNL     1      -1.401   3.355   0.111  1.00  0.00    -0.252 OA
BRANCH   9  11
ATOM     11  C   UNL     1      -0.840   1.050  -0.265  1.00  0.00     0.123 C 
ATOM     12  C   UNL     1       1.360  -0.100  -0.714  1.00  0.00     0.032 C 
ATOM     13  C   UNL     1       0.112  -0.082   0.190  1.00  0.00     0.095 C 
ATOM     14  N   UNL     1      -0.654  -1.324   0.010  1.00  0.00    -0.352 N 
ATOM     15  C   UNL     1      -2.191   0.385  -0.462  1.00  0.00     0.039 C 
ATOM     16  C   UNL     1      -1.900  -1.087  -0.679  1.00  0.00     0.119 C 
BRANCH  14  17
ATOM     17  C   UNL     1      -0.181  -2.542   0.452  1.00  0.00     0.141 A 
ATOM     18  N   UNL     1       1.019  -2.553   1.099  1.00  0.00    -0.219 NA
ATOM     19  C   UNL     1      -0.838  -3.798   0.315  1.00  0.00     0.054 A 
ATOM     20  C   UNL     1       1.532  -3.701   1.564  1.00  0.00     0.225 A 
ATOM     21  C   UNL     1      -0.203  -4.897   0.885  1.00  0.00     0.128 A 
ATOM     22  C   UNL     1      -2.064  -4.233  -0.307  1.00  0.00     0.026 A 
ATOM     23  N   UNL     1       0.983  -4.910   1.512  1.00  0.00    -0.225 NA
ATOM     24  S   UNL     1      -1.091  -6.347   0.742  1.00  0.00    -0.124 S 
ATOM     25  C   UNL     1      -2.336  -5.570  -0.119  1.00  0.00     0.068 A 
ENDBRANCH  14  17
ENDBRANCH   9  11
ENDBRANCH   8   9
ENDBRANCH   7   8
ENDBRANCH   6   7
ENDBRANCH   5   6
ENDBRANCH   4   5
ENDBRANCH   3   4
ENDBRANCH   2   3
ENDBRANCH   1   2
BRANCH   1  26
ATOM     26  C   UNL     1       3.515   3.434   4.458  1.00  0.00     0.188 C 
BRANCH  26  27
ATOM     27  O   UNL     1       4.231   3.756   3.281  1.00  0.00    -0.376 OA
BRANCH  27  28
ATOM     28  C   UNL     1       5.301   2.947   2.803  1.00  0.00     0.202 C 
BRANCH  28  29
ATOM     29  C   UNL     1       5.574   1.450   3.108  1.00  0.00     0.261 C 
BRANCH  29  30
ATOM     30  O   UNL     1       5.069   0.857   4.308  1.00  0.00    -0.460 OA
BRANCH  30  31
ATOM     31  C   UNL     1       5.628   1.216   5.473  1.00  0.00     0.338 C 
ATOM     32  O   UNL     1       6.549   1.997   5.644  1.00  0.00    -0.246 OA
BRANCH  31  33
ATOM     33  C   UNL     1       4.789   0.649   6.552  1.00  0.00     0.060 A 
ATOM     34  C   UNL     1       4.222   1.532   7.480  1.00  0.00     0.016 A 
ATOM     35  C   UNL     1       4.542  -0.725   6.642  1.00  0.00     0.016 A 
ATOM     36  C   UNL     1       3.461   1.042   8.535  1.00  0.00     0.010 A 
ATOM     37  C   UNL     1       3.803  -1.222   7.721  1.00  0.00     0.010 A 
ATOM     38  C   UNL     1       3.307  -0.341   8.699  1.00  0.00    -0.014 A 
BRANCH  38  39
ATOM     39  C   UNL     1       2.882  -0.837  10.029  1.00  0.00     0.031 A 
ATOM     40  C   UNL     1       3.959  -1.213  11.011  1.00  0.00     0.074 A 
ATOM     41  C   UNL     1       1.590  -0.855  10.396  1.00  0.00     0.049 A 
ATOM     42  N   UNL     1       3.856  -1.609  12.253  1.00  0.00    -0.248 NA
ATOM     43  C   UNL     1       5.346  -1.122  10.523  1.00  0.00     0.031 C 
ATOM     44  C   UNL     1       0.465  -0.465   9.550  1.00  0.00     0.029 A 
ATOM     45  N   UNL     1       1.012  -1.208  11.589  1.00  0.00    -0.354 N 
ATOM     46  C   UNL     1       5.159  -1.812  12.691  1.00  0.00     0.074 A 
ATOM     47  C   UNL     1       6.034  -1.538  11.573  1.00  0.00     0.031 C 
ATOM     48  C   UNL     1      -0.674  -0.603  10.253  1.00  0.00     0.029 A 
ATOM     49  C   UNL     1      -0.357  -1.112  11.587  1.00  0.00     0.049 A 
ATOM     50  H   UNL     1       1.530  -1.503  12.373  1.00  0.00     0.167 HD
ATOM     51  C   UNL     1       5.590  -2.179  13.920  1.00  0.00     0.037 A 
ATOM     52  C   UNL     1      -1.247  -1.414  12.552  1.00  0.00     0.037 A 
ATOM     53  C   UNL     1       4.717  -2.457  15.028  1.00  0.00     0.049 A 
ATOM     54  C   UNL     1      -0.745  -1.897  13.891  1.00  0.00     0.074 A 
ATOM     55  C   UNL     1       5.050  -2.833  16.317  1.00  0.00     0.029 A 
ATOM     56  N   UNL     1       3.332  -2.398  14.973  1.00  0.00    -0.354 N 
ATOM     57  N   UNL     1       0.488  -2.061  14.307  1.00  0.00    -0.248 NA
ATOM     58  C   UNL     1      -1.763  -2.223  14.899  1.00  0.00     0.031 C 
ATOM     59  C   UNL     1       3.865  -3.063  17.024  1.00  0.00     0.029 A 
ATOM     60  C   UNL     1       2.794  -2.757  16.199  1.00  0.00     0.049 A 
ATOM     61  H   UNL     1       2.808  -2.138  14.181  1.00  0.00     0.167 HD
ATOM     62  C   UNL     1       0.395  -2.474  15.632  1.00  0.00     0.074 A 
ATOM     63  C   UNL     1      -1.016  -2.517  15.953  1.00  0.00     0.031 C 
ATOM     64  C   UNL     1       1.386  -2.788  16.504  1.00  0.00     0.037 A 
BRANCH  51  65
ATOM     65  C   UNL     1       7.071  -2.336  14.115  1.00  0.00     0.064 A 
ATOM     66  C   UNL     1       7.942  -1.235  14.106  1.00  0.00     0.173 A 
ATOM     67  C   UNL     1       7.626  -3.607  14.329  1.00  0.00     0.173 A 
ATOM     68  F   UNL     1       7.467   0.001  13.886  1.00  0.00    -0.203 F 
ATOM     69  C   UNL     1       9.314  -1.405  14.274  1.00  0.00     0.198 A 
ATOM     70  C   UNL     1       8.993  -3.769  14.531  1.00  0.00     0.198 A 
ATOM     71  F   UNL     1       6.840  -4.694  14.346  1.00  0.00    -0.203 F 
ATOM     72  F   UNL     1      10.132  -0.345  14.206  1.00  0.00    -0.200 F 
ATOM     73  C   UNL     1       9.837  -2.670  14.495  1.00  0.00     0.200 A 
ATOM     74  F   UNL     1       9.495  -4.991  14.758  1.00  0.00    -0.200 F 
ATOM     75  F   UNL     1      11.157  -2.831  14.665  1.00  0.00    -0.200 F 
ENDBRANCH  51  65
BRANCH  52  76
ATOM     76  C   UNL     1      -2.706  -1.276  12.294  1.00  0.00     0.064 A 
ATOM     77  C   UNL     1      -3.482  -0.333  12.983  1.00  0.00     0.173 A 
ATOM     78  C   UNL     1      -3.361  -2.112  11.377  1.00  0.00     0.173 A 
ATOM     79  F   UNL     1      -2.909   0.472  13.890  1.00  0.00    -0.203 F 
ATOM     80  C   UNL     1      -4.859  -0.249  12.784  1.00  0.00     0.198 A 
ATOM     81  C   UNL     1      -4.732  -2.004  11.154  1.00  0.00     0.198 A 
ATOM     82  F   UNL     1      -2.667  -3.033  10.693  1.00  0.00    -0.203 F 
ATOM     83  F   UNL     1      -5.585   0.622  13.498  1.00  0.00    -0.200 F 
ATOM     84  C   UNL     1      -5.482  -1.080  11.865  1.00  0.00     0.200 A 
ATOM     85  F   UNL     1      -5.327  -2.800  10.255  1.00  0.00    -0.200 F 
ATOM     86  F   UNL     1      -6.805  -0.998  11.673  1.00  0.00    -0.200 F 
ENDBRANCH  52  76
BRANCH  64  87
ATOM     87  C   UNL     1       0.981  -3.155  17.906  1.00  0.00     0.064 A 
ATOM     88  C   UNL     1       0.296  -4.344  18.195  1.00  0.00     0.173 A 
ATOM     89  C   UNL     1       1.305  -2.310  18.979  1.00  0.00     0.173 A 
ATOM     90  F   UNL     1      -0.047  -5.184  17.206  1.00  0.00    -0.203 F 
ATOM     91  C   UNL     1      -0.089  -4.651  19.497  1.00  0.00     0.198 A 
ATOM     92  C   UNL     1       0.954  -2.639  20.285  1.00  0.00     0.198 A 
ATOM     93  F   UNL     1       1.972  -1.166  18.764  1.00  0.00    -0.203 F 
ATOM     94  F   UNL     1      -0.804  -5.759  19.739  1.00  0.00    -0.200 F 
ATOM     95  C   UNL     1       0.245  -3.803  20.542  1.00  0.00     0.200 A 
ATOM     96  F   UNL     1       1.296  -1.827  21.295  1.00  0.00    -0.200 F 
ATOM     97  F   UNL     1      -0.125  -4.101  21.795  1.00  0.00    -0.200 F 
ENDBRANCH  64  87
ENDBRANCH  38  39
ENDBRANCH  31  33
ENDBRANCH  30  31
ENDBRANCH  29  30
ENDBRANCH  28  29
ENDBRANCH  27  28
ENDBRANCH  26  27
ENDBRANCH   1  26
TORSDOF 21
