REMARK SMILES O=C(OCCOCCOCCOCCOC(=O)[C@@H](c1ccccc1)[C@H](C(=O)c1ccccc1)c1ccccc1)c1ccc(-c2c3nc(c(-c4c(F)c(F)c(F)c(F)c4F)c4ccc([nH]4)c(-c4c(F)c(F)c(F)c(F)c4F)c4nc(c(-c5c(F)c(F)c(F)c(F)c5F)c5ccc2[nH]5)C=C4)C=C3)cc1
REMARK SMILES IDX 10 1 9 2 8 3 7 4 6 5 5 6 4 7 3 8 2 9 1 10 40 11 41 12 102 13
REMARK SMILES IDX 42 14 101 15 43 16 44 17 45 18 95 19 46 20 100 21 94 22
REMARK SMILES IDX 96 23 47 24 99 25 93 26 92 27 48 29 80 30 60 31 79 32 61 33
REMARK SMILES IDX 64 34 78 35 97 36 62 37 63 38 77 40 98 41 65 42 49 43 50 44
REMARK SMILES IDX 58 45 51 46 52 47 56 48 59 49 53 50 54 51 57 52 55 53 81 54
REMARK SMILES IDX 82 55 90 56 83 57 84 58 88 59 91 60 85 61 86 62 89 63 87 64
REMARK SMILES IDX 66 65 67 66 75 67 68 68 69 69 73 70 76 71 70 72 71 73 74 74
REMARK SMILES IDX 72 75 11 76 12 77 13 78 14 79 15 80 16 81 17 82 18 83 19 84
REMARK SMILES IDX 20 85 24 86 21 87 23 88 22 89 25 90 34 91 35 92 39 93 36 94
REMARK SMILES IDX 38 95 37 96 26 97 27 98 28 99 29 100 33 101 30 102 32 103
REMARK SMILES IDX 31 104
REMARK H PARENT 96 28 64 39
REMARK Flexibility Score: inf
ROOT
ATOM      1  C   UNL     1       5.656   7.434   2.741  1.00  0.00     0.188 C 
ENDROOT
BRANCH   1   2
ATOM      2  O   UNL     1       5.968   6.395   3.648  1.00  0.00    -0.377 OA
BRANCH   2   3
ATOM      3  C   UNL     1       6.978   6.742   4.574  1.00  0.00     0.188 C 
BRANCH   3   4
ATOM      4  C   UNL     1       6.452   7.707   5.616  1.00  0.00     0.188 C 
BRANCH   4   5
ATOM      5  O   UNL     1       6.352   9.095   5.299  1.00  0.00    -0.376 OA
BRANCH   5   6
ATOM      6  C   UNL     1       7.317   9.783   4.522  1.00  0.00     0.202 C 
BRANCH   6   7
ATOM      7  C   UNL     1       8.747   9.929   5.039  1.00  0.00     0.261 C 
BRANCH   7   8
ATOM      8  O   UNL     1       9.198   8.828   5.830  1.00  0.00    -0.460 OA
BRANCH   8   9
ATOM      9  C   UNL     1       9.322   8.939   7.186  1.00  0.00     0.338 C 
ATOM     10  O   UNL     1      10.287   8.490   7.774  1.00  0.00    -0.246 OA
BRANCH   9  11
ATOM     11  C   UNL     1       8.072   9.267   7.934  1.00  0.00     0.060 A 
ATOM     12  C   UNL     1       7.255  10.353   7.620  1.00  0.00     0.016 A 
ATOM     13  C   UNL     1       7.644   8.340   8.905  1.00  0.00     0.016 A 
ATOM     14  C   UNL     1       5.969  10.429   8.129  1.00  0.00     0.010 A 
ATOM     15  C   UNL     1       6.387   8.472   9.503  1.00  0.00     0.010 A 
ATOM     16  C   UNL     1       5.550   9.521   9.105  1.00  0.00    -0.014 A 
BRANCH  16  17
ATOM     17  C   UNL     1       4.407   9.981   9.913  1.00  0.00     0.031 A 
ATOM     18  C   UNL     1       4.726  11.074  10.895  1.00  0.00     0.074 A 
ATOM     19  C   UNL     1       3.145   9.644   9.604  1.00  0.00     0.049 A 
ATOM     20  N   UNL     1       3.925  11.867  11.549  1.00  0.00    -0.248 NA
ATOM     21  C   UNL     1       6.160  11.372  11.090  1.00  0.00     0.031 C 
ATOM     22  C   UNL     1       2.746   8.709   8.553  1.00  0.00     0.029 A 
ATOM     23  N   UNL     1       1.959  10.095  10.121  1.00  0.00    -0.354 N 
ATOM     24  C   UNL     1       4.754  12.792  12.168  1.00  0.00     0.074 A 
ATOM     25  C   UNL     1       6.117  12.465  11.829  1.00  0.00     0.031 C 
ATOM     26  C   UNL     1       1.402   8.647   8.512  1.00  0.00     0.029 A 
ATOM     27  C   UNL     1       0.852   9.523   9.545  1.00  0.00     0.049 A 
ATOM     28  H   UNL     1       1.906  10.767  10.839  1.00  0.00     0.167 HD
ATOM     29  C   UNL     1       4.404  13.826  12.963  1.00  0.00     0.037 A 
ATOM     30  C   UNL     1      -0.450   9.691   9.849  1.00  0.00     0.037 A 
ATOM     31  C   UNL     1       3.057  14.049  13.393  1.00  0.00     0.049 A 
ATOM     32  C   UNL     1      -0.798  10.701  10.918  1.00  0.00     0.074 A 
ATOM     33  C   UNL     1       2.584  14.926  14.347  1.00  0.00     0.029 A 
ATOM     34  N   UNL     1       1.964  13.343  12.905  1.00  0.00    -0.354 N 
ATOM     35  N   UNL     1      -0.012  11.540  11.554  1.00  0.00    -0.248 NA
ATOM     36  C   UNL     1      -2.209  10.790  11.315  1.00  0.00     0.031 C 
ATOM     37  C   UNL     1       1.207  14.711  14.477  1.00  0.00     0.029 A 
ATOM     38  C   UNL     1       0.816  13.747  13.558  1.00  0.00     0.049 A 
ATOM     39  H   UNL     1       2.002  12.657  12.200  1.00  0.00     0.167 HD
ATOM     40  C   UNL     1      -0.831  12.268  12.407  1.00  0.00     0.074 A 
ATOM     41  C   UNL     1      -2.181  11.787  12.188  1.00  0.00     0.031 C 
ATOM     42  C   UNL     1      -0.508  13.240  13.297  1.00  0.00     0.037 A 
BRANCH  29  43
ATOM     43  C   UNL     1       5.519  14.680  13.477  1.00  0.00     0.064 A 
ATOM     44  C   UNL     1       6.190  15.590  12.645  1.00  0.00     0.173 A 
ATOM     45  C   UNL     1       5.982  14.524  14.791  1.00  0.00     0.173 A 
ATOM     46  F   UNL     1       5.815  15.738  11.365  1.00  0.00    -0.203 F 
ATOM     47  C   UNL     1       7.297  16.298  13.106  1.00  0.00     0.198 A 
ATOM     48  C   UNL     1       7.076  15.248  15.254  1.00  0.00     0.198 A 
ATOM     49  F   UNL     1       5.394  13.644  15.614  1.00  0.00    -0.203 F 
ATOM     50  F   UNL     1       7.961  17.116  12.277  1.00  0.00    -0.200 F 
ATOM     51  C   UNL     1       7.737  16.129  14.410  1.00  0.00     0.200 A 
ATOM     52  F   UNL     1       7.508  15.075  16.511  1.00  0.00    -0.200 F 
ATOM     53  F   UNL     1       8.814  16.797  14.848  1.00  0.00    -0.200 F 
ENDBRANCH  29  43
BRANCH  30  54
ATOM     54  C   UNL     1      -1.503   8.854   9.205  1.00  0.00     0.064 A 
ATOM     55  C   UNL     1      -2.551   9.415   8.462  1.00  0.00     0.173 A 
ATOM     56  C   UNL     1      -1.523   7.461   9.395  1.00  0.00     0.173 A 
ATOM     57  F   UNL     1      -2.603  10.742   8.272  1.00  0.00    -0.203 F 
ATOM     58  C   UNL     1      -3.591   8.626   7.965  1.00  0.00     0.198 A 
ATOM     59  C   UNL     1      -2.543   6.670   8.870  1.00  0.00     0.198 A 
ATOM     60  F   UNL     1      -0.557   6.865  10.109  1.00  0.00    -0.203 F 
ATOM     61  F   UNL     1      -4.617   9.200   7.322  1.00  0.00    -0.200 F 
ATOM     62  C   UNL     1      -3.584   7.254   8.168  1.00  0.00     0.200 A 
ATOM     63  F   UNL     1      -2.527   5.344   9.065  1.00  0.00    -0.200 F 
ATOM     64  F   UNL     1      -4.590   6.499   7.704  1.00  0.00    -0.200 F 
ENDBRANCH  30  54
BRANCH  42  65
ATOM     65  C   UNL     1      -1.633  13.859  14.070  1.00  0.00     0.064 A 
ATOM     66  C   UNL     1      -2.298  13.159  15.086  1.00  0.00     0.173 A 
ATOM     67  C   UNL     1      -2.004  15.190  13.829  1.00  0.00     0.173 A 
ATOM     68  F   UNL     1      -1.982  11.881  15.345  1.00  0.00    -0.203 F 
ATOM     69  C   UNL     1      -3.316  13.764  15.817  1.00  0.00     0.198 A 
ATOM     70  C   UNL     1      -2.998  15.801  14.585  1.00  0.00     0.198 A 
ATOM     71  F   UNL     1      -1.385  15.903  12.876  1.00  0.00    -0.203 F 
ATOM     72  F   UNL     1      -3.972  13.063  16.752  1.00  0.00    -0.200 F 
ATOM     73  C   UNL     1      -3.658  15.086  15.572  1.00  0.00     0.200 A 
ATOM     74  F   UNL     1      -3.313  17.084  14.361  1.00  0.00    -0.200 F 
ATOM     75  F   UNL     1      -4.630  15.669  16.286  1.00  0.00    -0.200 F 
ENDBRANCH  42  65
ENDBRANCH  16  17
ENDBRANCH   9  11
ENDBRANCH   8   9
ENDBRANCH   7   8
ENDBRANCH   6   7
ENDBRANCH   5   6
ENDBRANCH   4   5
ENDBRANCH   3   4
ENDBRANCH   2   3
ENDBRANCH   1   2
BRANCH   1  76
ATOM     76  C   UNL     1       4.432   8.294   3.112  1.00  0.00     0.188 C 
BRANCH  76  77
ATOM     77  O   UNL     1       3.305   7.656   3.698  1.00  0.00    -0.376 OA
BRANCH  77  78
ATOM     78  C   UNL     1       3.006   6.327   3.300  1.00  0.00     0.202 C 
BRANCH  78  79
ATOM     79  C   UNL     1       2.570   6.130   1.843  1.00  0.00     0.261 C 
BRANCH  79  80
ATOM     80  O   UNL     1       3.589   6.441   0.865  1.00  0.00    -0.463 OA
BRANCH  80  81
ATOM     81  C   UNL     1       3.493   7.619   0.204  1.00  0.00     0.314 C 
ATOM     82  O   UNL     1       2.580   8.421   0.377  1.00  0.00    -0.252 OA
BRANCH  81  83
ATOM     83  C   UNL     1       4.597   7.851  -0.826  1.00  0.00     0.144 C 
BRANCH  83  84
ATOM     84  C   UNL     1       5.967   8.444  -0.447  1.00  0.00    -0.033 A 
ATOM     85  C   UNL     1       7.155   8.027  -1.066  1.00  0.00     0.004 A 
ATOM     86  C   UNL     1       6.088   9.579   0.372  1.00  0.00     0.004 A 
ATOM     87  C   UNL     1       8.412   8.544  -0.743  1.00  0.00     0.000 A 
ATOM     88  C   UNL     1       7.344  10.136   0.679  1.00  0.00     0.000 A 
ATOM     89  C   UNL     1       8.511   9.589   0.156  1.00  0.00     0.000 A 
ENDBRANCH  83  84
BRANCH  83  90
ATOM     90  C   UNL     1       4.493   6.761  -1.938  1.00  0.00     0.110 C 
BRANCH  90  91
ATOM     91  C   UNL     1       4.895   7.357  -3.309  1.00  0.00    -0.036 A 
ATOM     92  C   UNL     1       5.720   6.685  -4.216  1.00  0.00     0.004 A 
ATOM     93  C   UNL     1       4.476   8.663  -3.662  1.00  0.00     0.004 A 
ATOM     94  C   UNL     1       6.212   7.342  -5.350  1.00  0.00     0.000 A 
ATOM     95  C   UNL     1       4.998   9.330  -4.768  1.00  0.00     0.000 A 
ATOM     96  C   UNL     1       5.883   8.672  -5.604  1.00  0.00     0.000 A 
ENDBRANCH  90  91
BRANCH  90  97
ATOM     97  C   UNL     1       5.028   5.315  -1.642  1.00  0.00     0.171 C 
ATOM     98  O   UNL     1       4.545   4.338  -2.225  1.00  0.00    -0.293 OA
BRANCH  97  99
ATOM     99  C   UNL     1       6.157   4.992  -0.717  1.00  0.00     0.018 A 
ATOM    100  C   UNL     1       7.472   4.930  -1.196  1.00  0.00     0.012 A 
ATOM    101  C   UNL     1       5.910   4.569   0.591  1.00  0.00     0.012 A 
ATOM    102  C   UNL     1       8.535   4.652  -0.326  1.00  0.00     0.001 A 
ATOM    103  C   UNL     1       6.970   4.279   1.460  1.00  0.00     0.001 A 
ATOM    104  C   UNL     1       8.285   4.356   1.011  1.00  0.00     0.000 A 
ENDBRANCH  97  99
ENDBRANCH  90  97
ENDBRANCH  83  90
ENDBRANCH  81  83
ENDBRANCH  80  81
ENDBRANCH  79  80
ENDBRANCH  78  79
ENDBRANCH  77  78
ENDBRANCH  76  77
ENDBRANCH   1  76
TORSDOF 25
