REMARK SMILES C[C@@](NC(=O)c1cc(Br)c[nH]1)(C(=O)OCCOCCOCCOCCOC(=O)c1ccc(-c2c3nc(c(-c4c(F)c(F)c(F)c(F)c4F)c4ccc([nH]4)c(-c4c(F)c(F)c(F)c(F)c4F)c4nc(c(-c5c(F)c(F)c(F)c(F)c5F)c5ccc2[nH]5)C=C4)C=C3)cc1)C(F)(F)F
REMARK SMILES IDX 20 1 19 2 18 3 17 4 16 5 15 6 14 7 12 8 13 9 2 10 1 11 3 12
REMARK SMILES IDX 4 13 5 15 6 16 7 17 11 18 8 19 10 20 9 22 92 23 93 24 94 25
REMARK SMILES IDX 95 26 21 27 22 28 23 29 24 30 25 31 26 32 27 33 28 34 29 35
REMARK SMILES IDX 30 36 91 37 31 38 90 39 32 40 33 41 34 42 84 43 35 44 89 45
REMARK SMILES IDX 83 46 85 47 36 48 88 49 82 50 81 51 37 53 69 54 49 55 68 56
REMARK SMILES IDX 50 57 53 58 67 59 86 60 51 61 52 62 66 64 87 65 54 66 38 67
REMARK SMILES IDX 39 68 47 69 40 70 41 71 45 72 48 73 42 74 43 75 46 76 44 77
REMARK SMILES IDX 70 78 71 79 79 80 72 81 73 82 77 83 80 84 74 85 75 86 78 87
REMARK SMILES IDX 76 88 55 89 56 90 64 91 57 92 58 93 62 94 65 95 59 96 60 97
REMARK SMILES IDX 63 98 61 99
REMARK H PARENT 3 14 11 21 85 52 53 63
REMARK Flexibility Score: inf
ROOT
ATOM      1  O   UNL     1      -1.719  -1.155  -0.745  1.00  0.00    -0.377 OA
ENDROOT
BRANCH   1   2
ATOM      2  C   UNL     1      -1.288  -1.810   0.435  1.00  0.00     0.188 C 
BRANCH   2   3
ATOM      3  C   UNL     1      -2.216  -1.684   1.656  1.00  0.00     0.188 C 
BRANCH   3   4
ATOM      4  O   UNL     1      -3.492  -1.132   1.365  1.00  0.00    -0.376 OA
BRANCH   4   5
ATOM      5  C   UNL     1      -3.671   0.268   1.502  1.00  0.00     0.202 C 
BRANCH   5   6
ATOM      6  C   UNL     1      -2.870   1.178   0.571  1.00  0.00     0.261 C 
BRANCH   6   7
ATOM      7  O   UNL     1      -1.434   1.168   0.654  1.00  0.00    -0.461 OA
BRANCH   7   8
ATOM      8  C   UNL     1      -0.784   1.181   1.842  1.00  0.00     0.341 C 
ATOM      9  O   UNL     1      -1.325   1.115   2.938  1.00  0.00    -0.249 OA
BRANCH   8  10
ATOM     10  C   UNL     1       0.692   1.495   1.645  1.00  0.00     0.231 C 
ATOM     11  C   UNL     1       1.212   1.161   0.231  1.00  0.00     0.058 C 
BRANCH  10  12
ATOM     12  N   UNL     1       0.990   2.929   1.986  1.00  0.00    -0.328 N 
ATOM     13  C   UNL     1       0.299   4.055   1.609  1.00  0.00     0.268 C 
ATOM     14  H   UNL     1       1.782   3.080   2.551  1.00  0.00     0.165 HD
ATOM     15  O   UNL     1       0.947   4.984   1.136  1.00  0.00    -0.268 OA
BRANCH  13  16
ATOM     16  C   UNL     1      -1.123   4.146   1.866  1.00  0.00     0.105 A 
ATOM     17  C   UNL     1      -2.095   4.779   1.099  1.00  0.00     0.049 A 
ATOM     18  N   UNL     1      -1.770   3.696   3.005  1.00  0.00    -0.356 N 
ATOM     19  C   UNL     1      -3.338   4.583   1.735  1.00  0.00     0.036 A 
ATOM     20  C   UNL     1      -3.125   3.893   2.897  1.00  0.00     0.098 A 
ATOM     21  H   UNL     1      -1.321   3.291   3.782  1.00  0.00     0.166 HD
ATOM     22  Br  UNL     1      -4.991   5.084   1.015  1.00  0.00    -0.049 Br
ENDBRANCH  13  16
ENDBRANCH  10  12
BRANCH  10  23
ATOM     23  C   UNL     1       1.386   0.536   2.636  1.00  0.00     0.422 C 
ATOM     24  F   UNL     1       1.037  -0.756   2.447  1.00  0.00    -0.168 F 
ATOM     25  F   UNL     1       2.735   0.602   2.486  1.00  0.00    -0.168 F 
ATOM     26  F   UNL     1       1.131   0.847   3.927  1.00  0.00    -0.168 F 
ENDBRANCH  10  23
ENDBRANCH   8  10
ENDBRANCH   7   8
ENDBRANCH   6   7
ENDBRANCH   5   6
ENDBRANCH   4   5
ENDBRANCH   3   4
ENDBRANCH   2   3
ENDBRANCH   1   2
BRANCH   1  27
ATOM     27  C   UNL     1      -2.884  -1.619  -1.425  1.00  0.00     0.188 C 
BRANCH  27  28
ATOM     28  C   UNL     1      -3.732  -2.790  -0.890  1.00  0.00     0.188 C 
BRANCH  28  29
ATOM     29  O   UNL     1      -2.991  -3.764  -0.182  1.00  0.00    -0.376 OA
BRANCH  29  30
ATOM     30  C   UNL     1      -2.563  -4.921  -0.876  1.00  0.00     0.202 C 
BRANCH  30  31
ATOM     31  C   UNL     1      -1.662  -4.742  -2.107  1.00  0.00     0.261 C 
BRANCH  31  32
ATOM     32  O   UNL     1      -2.137  -3.895  -3.170  1.00  0.00    -0.460 OA
BRANCH  32  33
ATOM     33  C   UNL     1      -3.322  -4.161  -3.759  1.00  0.00     0.338 C 
ATOM     34  O   UNL     1      -4.060  -5.105  -3.536  1.00  0.00    -0.246 OA
BRANCH  33  35
ATOM     35  C   UNL     1      -3.678  -2.980  -4.587  1.00  0.00     0.060 A 
ATOM     36  C   UNL     1      -4.830  -2.236  -4.286  1.00  0.00     0.016 A 
ATOM     37  C   UNL     1      -2.840  -2.576  -5.628  1.00  0.00     0.016 A 
ATOM     38  C   UNL     1      -5.153  -1.098  -5.033  1.00  0.00     0.010 A 
ATOM     39  C   UNL     1      -3.183  -1.458  -6.396  1.00  0.00     0.010 A 
ATOM     40  C   UNL     1      -4.351  -0.725  -6.119  1.00  0.00    -0.014 A 
BRANCH  40  41
ATOM     41  C   UNL     1      -4.806   0.306  -7.087  1.00  0.00     0.031 A 
ATOM     42  C   UNL     1      -5.474  -0.159  -8.352  1.00  0.00     0.074 A 
ATOM     43  C   UNL     1      -4.589   1.618  -6.883  1.00  0.00     0.049 A 
ATOM     44  N   UNL     1      -5.792   0.517  -9.425  1.00  0.00    -0.248 NA
ATOM     45  C   UNL     1      -5.823  -1.589  -8.415  1.00  0.00     0.031 C 
ATOM     46  C   UNL     1      -4.002   2.203  -5.681  1.00  0.00     0.029 A 
ATOM     47  N   UNL     1      -4.810   2.696  -7.709  1.00  0.00    -0.354 N 
ATOM     48  C   UNL     1      -6.348  -0.407 -10.300  1.00  0.00     0.074 A 
ATOM     49  C   UNL     1      -6.325  -1.692  -9.637  1.00  0.00     0.031 C 
ATOM     50  C   UNL     1      -3.871   3.530  -5.862  1.00  0.00     0.029 A 
ATOM     51  C   UNL     1      -4.318   3.879  -7.210  1.00  0.00     0.049 A 
ATOM     52  H   UNL     1      -5.276   2.628  -8.573  1.00  0.00     0.167 HD
ATOM     53  C   UNL     1      -6.826  -0.200 -11.549  1.00  0.00     0.037 A 
ATOM     54  C   UNL     1      -4.193   5.088  -7.797  1.00  0.00     0.037 A 
ATOM     55  C   UNL     1      -6.862   1.083 -12.199  1.00  0.00     0.049 A 
ATOM     56  C   UNL     1      -4.664   5.273  -9.222  1.00  0.00     0.074 A 
ATOM     57  C   UNL     1      -7.381   1.403 -13.440  1.00  0.00     0.029 A 
ATOM     58  N   UNL     1      -6.343   2.252 -11.666  1.00  0.00    -0.354 N 
ATOM     59  N   UNL     1      -5.231   4.408 -10.028  1.00  0.00    -0.248 NA
ATOM     60  C   UNL     1      -4.468   6.602  -9.823  1.00  0.00     0.031 C 
ATOM     61  C   UNL     1      -7.109   2.750 -13.692  1.00  0.00     0.029 A 
ATOM     62  C   UNL     1      -6.484   3.285 -12.578  1.00  0.00     0.049 A 
ATOM     63  H   UNL     1      -5.935   2.336 -10.774  1.00  0.00     0.167 HD
ATOM     64  C   UNL     1      -5.480   5.092 -11.213  1.00  0.00     0.074 A 
ATOM     65  C   UNL     1      -5.024   6.449 -11.016  1.00  0.00     0.031 C 
ATOM     66  C   UNL     1      -6.034   4.636 -12.364  1.00  0.00     0.037 A 
BRANCH  53  67
ATOM     67  C   UNL     1      -7.315  -1.386 -12.325  1.00  0.00     0.064 A 
ATOM     68  C   UNL     1      -8.522  -2.030 -12.021  1.00  0.00     0.173 A 
ATOM     69  C   UNL     1      -6.598  -1.830 -13.448  1.00  0.00     0.173 A 
ATOM     70  F   UNL     1      -9.237  -1.653 -10.950  1.00  0.00    -0.203 F 
ATOM     71  C   UNL     1      -8.990  -3.079 -12.808  1.00  0.00     0.198 A 
ATOM     72  C   UNL     1      -7.083  -2.859 -14.249  1.00  0.00     0.198 A 
ATOM     73  F   UNL     1      -5.437  -1.246 -13.783  1.00  0.00    -0.203 F 
ATOM     74  F   UNL     1     -10.133  -3.699 -12.483  1.00  0.00    -0.200 F 
ATOM     75  C   UNL     1      -8.277  -3.484 -13.927  1.00  0.00     0.200 A 
ATOM     76  F   UNL     1      -6.399  -3.237 -15.337  1.00  0.00    -0.200 F 
ATOM     77  F   UNL     1      -8.742  -4.478 -14.696  1.00  0.00    -0.200 F 
ENDBRANCH  53  67
BRANCH  54  78
ATOM     78  C   UNL     1      -3.534   6.215  -7.077  1.00  0.00     0.064 A 
ATOM     79  C   UNL     1      -4.236   7.388  -6.761  1.00  0.00     0.173 A 
ATOM     80  C   UNL     1      -2.169   6.171  -6.755  1.00  0.00     0.173 A 
ATOM     81  F   UNL     1      -5.535   7.496  -7.077  1.00  0.00    -0.203 F 
ATOM     82  C   UNL     1      -3.591   8.482  -6.185  1.00  0.00     0.198 A 
ATOM     83  C   UNL     1      -1.534   7.251  -6.144  1.00  0.00     0.198 A 
ATOM     84  F   UNL     1      -1.445   5.079  -7.041  1.00  0.00    -0.203 F 
ATOM     85  F   UNL     1      -4.270   9.616  -5.965  1.00  0.00    -0.200 F 
ATOM     86  C   UNL     1      -2.242   8.411  -5.873  1.00  0.00     0.200 A 
ATOM     87  F   UNL     1      -0.232   7.173  -5.837  1.00  0.00    -0.200 F 
ATOM     88  F   UNL     1      -1.621   9.467  -5.330  1.00  0.00    -0.200 F 
ENDBRANCH  54  78
BRANCH  66  89
ATOM     89  C   UNL     1      -6.207   5.612 -13.493  1.00  0.00     0.064 A 
ATOM     90  C   UNL     1      -5.112   6.094 -14.224  1.00  0.00     0.173 A 
ATOM     91  C   UNL     1      -7.491   6.015 -13.893  1.00  0.00     0.173 A 
ATOM     92  F   UNL     1      -3.863   5.750 -13.875  1.00  0.00    -0.203 F 
ATOM     93  C   UNL     1      -5.295   6.958 -15.301  1.00  0.00     0.198 A 
ATOM     94  C   UNL     1      -7.672   6.850 -14.992  1.00  0.00     0.198 A 
ATOM     95  F   UNL     1      -8.574   5.575 -13.235  1.00  0.00    -0.203 F 
ATOM     96  F   UNL     1      -4.231   7.439 -15.960  1.00  0.00    -0.200 F 
ATOM     97  C   UNL     1      -6.574   7.326 -15.691  1.00  0.00     0.200 A 
ATOM     98  F   UNL     1      -8.910   7.188 -15.378  1.00  0.00    -0.200 F 
ATOM     99  F   UNL     1      -6.748   8.142 -16.739  1.00  0.00    -0.200 F 
ENDBRANCH  66  89
ENDBRANCH  40  41
ENDBRANCH  33  35
ENDBRANCH  32  33
ENDBRANCH  31  32
ENDBRANCH  30  31
ENDBRANCH  29  30
ENDBRANCH  28  29
ENDBRANCH  27  28
ENDBRANCH   1  27
TORSDOF 23
