REMARK SMILES CC[C@](C)(NC(=O)NC[C@H]1COCCO1)C(=O)OCCOCCOCCOCCOC(=O)c1ccc(-c2c3nc(c(-c4c(F)c(F)c(F)c(F)c4F)c4ccc([nH]4)c(-c4c(F)c(F)c(F)c(F)c4F)c4nc(c(-c5c(F)c(F)c(F)c(F)c5F)c5ccc2[nH]5)C=C4)C=C3)cc1
REMARK SMILES IDX 23 1 22 2 21 3 20 4 19 5 18 6 16 7 17 8 3 9 4 10 2 11 1 12
REMARK SMILES IDX 5 13 6 14 7 16 8 17 9 19 10 20 11 21 15 22 12 23 14 24 13 25
REMARK SMILES IDX 24 26 25 27 26 28 27 29 28 30 29 31 30 32 31 33 32 34 33 35
REMARK SMILES IDX 34 36 95 37 35 38 94 39 36 40 37 41 38 42 88 43 39 44 93 45
REMARK SMILES IDX 87 46 89 47 40 48 92 49 86 50 85 51 41 53 73 54 53 55 72 56
REMARK SMILES IDX 54 57 57 58 71 59 90 60 55 61 56 62 70 64 91 65 58 66 42 67
REMARK SMILES IDX 43 68 51 69 44 70 45 71 49 72 52 73 46 74 47 75 50 76 48 77
REMARK SMILES IDX 74 78 75 79 83 80 76 81 77 82 81 83 84 84 78 85 79 86 82 87
REMARK SMILES IDX 80 88 59 89 60 90 68 91 61 92 62 93 66 94 69 95 63 96 64 97
REMARK SMILES IDX 67 98 65 99
REMARK H PARENT 5 15 8 18 89 52 57 63
REMARK Flexibility Score: inf
ROOT
ATOM      1  C   UNL     1       7.439   2.275  -0.793  1.00  0.00     0.188 C 
ENDROOT
BRANCH   1   2
ATOM      2  C   UNL     1       7.071   2.974   0.522  1.00  0.00     0.188 C 
BRANCH   2   3
ATOM      3  O   UNL     1       5.715   2.889   0.962  1.00  0.00    -0.376 OA
BRANCH   3   4
ATOM      4  C   UNL     1       4.671   3.484   0.192  1.00  0.00     0.202 C 
BRANCH   4   5
ATOM      5  C   UNL     1       4.985   4.785  -0.542  1.00  0.00     0.261 C 
BRANCH   5   6
ATOM      6  O   UNL     1       5.883   4.484  -1.625  1.00  0.00    -0.462 OA
BRANCH   6   7
ATOM      7  C   UNL     1       6.375   5.529  -2.317  1.00  0.00     0.331 C 
ATOM      8  O   UNL     1       6.089   6.686  -2.030  1.00  0.00    -0.249 OA
BRANCH   7   9
ATOM      9  C   UNL     1       7.358   5.122  -3.471  1.00  0.00     0.136 C 
ATOM     10  C   UNL     1       8.700   5.741  -2.990  1.00  0.00     0.047 C 
BRANCH   9  11
ATOM     11  C   UNL     1       6.861   5.773  -4.787  1.00  0.00     0.037 C 
ATOM     12  C   UNL     1       6.954   7.295  -4.865  1.00  0.00     0.007 C 
ENDBRANCH   9  11
BRANCH   9  13
ATOM     13  N   UNL     1       7.749   3.697  -3.785  1.00  0.00    -0.322 N 
ATOM     14  C   UNL     1       7.268   2.573  -4.310  1.00  0.00     0.315 C 
ATOM     15  H   UNL     1       8.681   3.549  -3.506  1.00  0.00     0.166 HD
ATOM     16  O   UNL     1       8.094   1.803  -4.810  1.00  0.00    -0.249 OA
ATOM     17  N   UNL     1       6.002   2.174  -4.291  1.00  0.00    -0.335 N 
ATOM     18  H   UNL     1       5.819   1.403  -4.875  1.00  0.00     0.165 HD
BRANCH  17  19
ATOM     19  C   UNL     1       4.852   2.651  -3.581  1.00  0.00     0.152 C 
BRANCH  19  20
ATOM     20  C   UNL     1       3.457   2.365  -4.159  1.00  0.00     0.163 C 
ATOM     21  C   UNL     1       3.012   3.493  -5.089  1.00  0.00     0.194 C 
ATOM     22  O   UNL     1       3.292   1.075  -4.762  1.00  0.00    -0.372 OA
ATOM     23  O   UNL     1       3.768   3.449  -6.296  1.00  0.00    -0.376 OA
ATOM     24  C   UNL     1       3.788   0.989  -6.105  1.00  0.00     0.189 C 
ATOM     25  C   UNL     1       3.507   2.218  -6.973  1.00  0.00     0.188 C 
ENDBRANCH  19  20
ENDBRANCH  17  19
ENDBRANCH   9  13
ENDBRANCH   7   9
ENDBRANCH   6   7
ENDBRANCH   5   6
ENDBRANCH   4   5
ENDBRANCH   3   4
ENDBRANCH   2   3
ENDBRANCH   1   2
BRANCH   1  26
ATOM     26  O   UNL     1       7.388   0.865  -0.835  1.00  0.00    -0.377 OA
BRANCH  26  27
ATOM     27  C   UNL     1       6.139   0.262  -0.541  1.00  0.00     0.188 C 
BRANCH  27  28
ATOM     28  C   UNL     1       6.103  -0.303   0.883  1.00  0.00     0.188 C 
BRANCH  28  29
ATOM     29  O   UNL     1       7.120  -1.228   1.274  1.00  0.00    -0.376 OA
BRANCH  29  30
ATOM     30  C   UNL     1       8.454  -0.958   0.861  1.00  0.00     0.202 C 
BRANCH  30  31
ATOM     31  C   UNL     1       8.879  -1.806  -0.352  1.00  0.00     0.261 C 
BRANCH  31  32
ATOM     32  O   UNL     1       7.822  -2.107  -1.282  1.00  0.00    -0.460 OA
BRANCH  32  33
ATOM     33  C   UNL     1       7.013  -3.128  -0.926  1.00  0.00     0.338 C 
ATOM     34  O   UNL     1       7.100  -3.859   0.055  1.00  0.00    -0.246 OA
BRANCH  33  35
ATOM     35  C   UNL     1       5.937  -3.277  -1.918  1.00  0.00     0.060 A 
ATOM     36  C   UNL     1       4.604  -3.069  -1.538  1.00  0.00     0.016 A 
ATOM     37  C   UNL     1       6.246  -3.766  -3.188  1.00  0.00     0.016 A 
ATOM     38  C   UNL     1       3.569  -3.402  -2.415  1.00  0.00     0.010 A 
ATOM     39  C   UNL     1       5.212  -4.114  -4.056  1.00  0.00     0.010 A 
ATOM     40  C   UNL     1       3.869  -3.976  -3.658  1.00  0.00    -0.014 A 
BRANCH  40  41
ATOM     41  C   UNL     1       2.815  -4.634  -4.467  1.00  0.00     0.031 A 
ATOM     42  C   UNL     1       2.671  -6.126  -4.372  1.00  0.00     0.074 A 
ATOM     43  C   UNL     1       2.037  -3.934  -5.309  1.00  0.00     0.049 A 
ATOM     44  N   UNL     1       1.964  -6.946  -5.107  1.00  0.00    -0.248 NA
ATOM     45  C   UNL     1       3.440  -6.782  -3.303  1.00  0.00     0.031 C 
ATOM     46  C   UNL     1       2.038  -2.482  -5.447  1.00  0.00     0.029 A 
ATOM     47  N   UNL     1       1.118  -4.366  -6.235  1.00  0.00    -0.354 N 
ATOM     48  C   UNL     1       2.223  -8.215  -4.606  1.00  0.00     0.074 A 
ATOM     49  C   UNL     1       3.160  -8.059  -3.515  1.00  0.00     0.031 C 
ATOM     50  C   UNL     1       1.197  -2.142  -6.438  1.00  0.00     0.029 A 
ATOM     51  C   UNL     1       0.637  -3.357  -7.031  1.00  0.00     0.049 A 
ATOM     52  H   UNL     1       0.834  -5.304  -6.319  1.00  0.00     0.167 HD
ATOM     53  C   UNL     1       1.726  -9.404  -5.024  1.00  0.00     0.037 A 
ATOM     54  C   UNL     1      -0.124  -3.412  -8.142  1.00  0.00     0.037 A 
ATOM     55  C   UNL     1       0.794  -9.549  -6.110  1.00  0.00     0.049 A 
ATOM     56  C   UNL     1      -0.611  -4.748  -8.640  1.00  0.00     0.074 A 
ATOM     57  C   UNL     1       0.201 -10.703  -6.591  1.00  0.00     0.029 A 
ATOM     58  N   UNL     1       0.331  -8.503  -6.895  1.00  0.00    -0.354 N 
ATOM     59  N   UNL     1      -0.383  -5.944  -8.155  1.00  0.00    -0.248 NA
ATOM     60  C   UNL     1      -1.464  -4.742  -9.838  1.00  0.00     0.031 C 
ATOM     61  C   UNL     1      -0.575 -10.362  -7.704  1.00  0.00     0.029 A 
ATOM     62  C   UNL     1      -0.515  -8.988  -7.879  1.00  0.00     0.049 A 
ATOM     63  H   UNL     1       0.568  -7.556  -6.771  1.00  0.00     0.167 HD
ATOM     64  C   UNL     1      -1.084  -6.829  -8.965  1.00  0.00     0.074 A 
ATOM     65  C   UNL     1      -1.747  -6.031  -9.976  1.00  0.00     0.031 C 
ATOM     66  C   UNL     1      -1.175  -8.179  -8.873  1.00  0.00     0.037 A 
BRANCH  53  67
ATOM     67  C   UNL     1       2.227 -10.640  -4.335  1.00  0.00     0.064 A 
ATOM     68  C   UNL     1       1.888 -10.942  -3.007  1.00  0.00     0.173 A 
ATOM     69  C   UNL     1       3.063 -11.536  -5.018  1.00  0.00     0.173 A 
ATOM     70  F   UNL     1       1.102 -10.113  -2.305  1.00  0.00    -0.203 F 
ATOM     71  C   UNL     1       2.401 -12.074  -2.377  1.00  0.00     0.198 A 
ATOM     72  C   UNL     1       3.548 -12.683  -4.395  1.00  0.00     0.198 A 
ATOM     73  F   UNL     1       3.414 -11.299  -6.291  1.00  0.00    -0.203 F 
ATOM     74  F   UNL     1       2.113 -12.310  -1.090  1.00  0.00    -0.200 F 
ATOM     75  C   UNL     1       3.226 -12.945  -3.073  1.00  0.00     0.200 A 
ATOM     76  F   UNL     1       4.334 -13.531  -5.074  1.00  0.00    -0.200 F 
ATOM     77  F   UNL     1       3.720 -14.033  -2.465  1.00  0.00    -0.200 F 
ENDBRANCH  53  67
BRANCH  54  78
ATOM     78  C   UNL     1      -0.434  -2.158  -8.874  1.00  0.00     0.064 A 
ATOM     79  C   UNL     1      -1.727  -1.619  -8.878  1.00  0.00     0.173 A 
ATOM     80  C   UNL     1       0.568  -1.456  -9.562  1.00  0.00     0.173 A 
ATOM     81  F   UNL     1      -2.723  -2.263  -8.253  1.00  0.00    -0.203 F 
ATOM     82  C   UNL     1      -2.006  -0.427  -9.545  1.00  0.00     0.198 A 
ATOM     83  C   UNL     1       0.293  -0.252 -10.205  1.00  0.00     0.198 A 
ATOM     84  F   UNL     1       1.824  -1.927  -9.585  1.00  0.00    -0.203 F 
ATOM     85  F   UNL     1      -3.257   0.055  -9.555  1.00  0.00    -0.200 F 
ATOM     86  C   UNL     1      -0.995   0.260 -10.200  1.00  0.00     0.200 A 
ATOM     87  F   UNL     1       1.279   0.418 -10.818  1.00  0.00    -0.200 F 
ATOM     88  F   UNL     1      -1.260   1.415 -10.824  1.00  0.00    -0.200 F 
ENDBRANCH  54  78
BRANCH  66  89
ATOM     89  C   UNL     1      -2.057  -8.888  -9.861  1.00  0.00     0.064 A 
ATOM     90  C   UNL     1      -1.677  -9.062 -11.199  1.00  0.00     0.173 A 
ATOM     91  C   UNL     1      -3.262  -9.470  -9.439  1.00  0.00     0.173 A 
ATOM     92  F   UNL     1      -0.541  -8.513 -11.655  1.00  0.00    -0.203 F 
ATOM     93  C   UNL     1      -2.477  -9.784 -12.081  1.00  0.00     0.198 A 
ATOM     94  C   UNL     1      -4.045 -10.215 -10.316  1.00  0.00     0.198 A 
ATOM     95  F   UNL     1      -3.668  -9.338  -8.167  1.00  0.00    -0.203 F 
ATOM     96  F   UNL     1      -2.110  -9.913 -13.364  1.00  0.00    -0.200 F 
ATOM     97  C   UNL     1      -3.654 -10.369 -11.636  1.00  0.00     0.200 A 
ATOM     98  F   UNL     1      -5.174 -10.791  -9.880  1.00  0.00    -0.200 F 
ATOM     99  F   UNL     1      -4.413 -11.079 -12.482  1.00  0.00    -0.200 F 
ENDBRANCH  66  89
ENDBRANCH  40  41
ENDBRANCH  33  35
ENDBRANCH  32  33
ENDBRANCH  31  32
ENDBRANCH  30  31
ENDBRANCH  29  30
ENDBRANCH  28  29
ENDBRANCH  27  28
ENDBRANCH  26  27
ENDBRANCH   1  26
TORSDOF 24
