REMARK SMILES C[C@H]1CCC[C@](Cc2cn3ccccc3n2)(C(=O)OCCOCCOCCOCCOC(=O)c2ccc(-c3c4nc(c(-c5c(F)c(F)c(F)c(F)c5F)c5ccc([nH]5)c(-c5c(F)c(F)c(F)c(F)c5F)c5nc(c(-c6c(F)c(F)c(F)c(F)c6F)c6ccc3[nH]6)C=C5)C=C4)cc2)C1
REMARK SMILES IDX 25 1 24 2 23 3 22 4 21 5 20 6 19 7 17 8 18 9 6 10 1 11 2 12
REMARK SMILES IDX 3 13 97 14 4 15 5 16 7 17 8 18 9 19 16 20 10 21 15 22 11 23
REMARK SMILES IDX 14 24 12 25 13 26 26 27 27 28 28 29 29 30 30 31 31 32 32 33
REMARK SMILES IDX 33 34 34 35 35 36 96 37 36 38 95 39 37 40 38 41 39 42 89 43
REMARK SMILES IDX 40 44 94 45 88 46 90 47 41 48 93 49 87 50 86 51 42 53 74 54
REMARK SMILES IDX 54 55 73 56 55 57 58 58 72 59 91 60 56 61 57 62 71 64 92 65
REMARK SMILES IDX 59 66 43 67 44 68 52 69 45 70 46 71 50 72 53 73 47 74 48 75
REMARK SMILES IDX 51 76 49 77 75 78 76 79 84 80 77 81 78 82 82 83 85 84 79 85
REMARK SMILES IDX 80 86 83 87 81 88 60 89 61 90 69 91 62 92 63 93 67 94 70 95
REMARK SMILES IDX 64 96 65 97 68 98 66 99
REMARK H PARENT 90 52 58 63
REMARK Flexibility Score: inf
ROOT
ATOM      1  O   UNL     1      -3.178   0.421   2.322  1.00  0.00    -0.377 OA
ENDROOT
BRANCH   1   2
ATOM      2  C   UNL     1      -3.588  -0.906   2.026  1.00  0.00     0.188 C 
BRANCH   2   3
ATOM      3  C   UNL     1      -3.156  -2.043   2.962  1.00  0.00     0.188 C 
BRANCH   3   4
ATOM      4  O   UNL     1      -2.826  -1.618   4.263  1.00  0.00    -0.376 OA
BRANCH   4   5
ATOM      5  C   UNL     1      -1.480  -1.405   4.636  1.00  0.00     0.202 C 
BRANCH   5   6
ATOM      6  C   UNL     1      -0.387  -0.855   3.701  1.00  0.00     0.261 C 
BRANCH   6   7
ATOM      7  O   UNL     1      -0.700  -0.640   2.322  1.00  0.00    -0.463 OA
BRANCH   7   8
ATOM      8  C   UNL     1      -0.341  -1.630   1.478  1.00  0.00     0.312 C 
ATOM      9  O   UNL     1       0.094  -2.711   1.871  1.00  0.00    -0.252 OA
BRANCH   8  10
ATOM     10  C   UNL     1      -0.435  -1.274  -0.021  1.00  0.00     0.074 C 
ATOM     11  C   UNL     1       3.136   0.267  -0.266  1.00  0.00     0.007 C 
ATOM     12  C   UNL     1       1.673   0.169   0.151  1.00  0.00    -0.013 C 
ATOM     13  C   UNL     1       0.901   1.418  -0.292  1.00  0.00     0.003 C 
ATOM     14  C   UNL     1       1.043  -1.109  -0.442  1.00  0.00     0.022 C 
ATOM     15  C   UNL     1      -0.583   1.324   0.034  1.00  0.00     0.001 C 
ATOM     16  C   UNL     1      -1.187   0.011  -0.459  1.00  0.00     0.019 C 
BRANCH  10  17
ATOM     17  C   UNL     1      -1.133  -2.537  -0.618  1.00  0.00     0.076 C 
BRANCH  17  18
ATOM     18  C   UNL     1      -1.365  -2.613  -2.089  1.00  0.00     0.061 A 
ATOM     19  C   UNL     1      -0.482  -2.434  -3.130  1.00  0.00     0.116 A 
ATOM     20  N   UNL     1      -2.587  -3.043  -2.572  1.00  0.00    -0.234 NA
ATOM     21  N   UNL     1      -1.180  -2.717  -4.271  1.00  0.00    -0.307 N 
ATOM     22  C   UNL     1      -2.446  -3.129  -3.879  1.00  0.00     0.136 A 
ATOM     23  C   UNL     1      -0.754  -2.654  -5.593  1.00  0.00     0.093 A 
ATOM     24  C   UNL     1      -3.324  -3.568  -4.912  1.00  0.00     0.048 A 
ATOM     25  C   UNL     1      -1.595  -3.038  -6.567  1.00  0.00     0.018 A 
ATOM     26  C   UNL     1      -2.916  -3.530  -6.197  1.00  0.00     0.005 A 
ENDBRANCH  17  18
ENDBRANCH  10  17
ENDBRANCH   8  10
ENDBRANCH   7   8
ENDBRANCH   6   7
ENDBRANCH   5   6
ENDBRANCH   4   5
ENDBRANCH   3   4
ENDBRANCH   2   3
ENDBRANCH   1   2
BRANCH   1  27
ATOM     27  C   UNL     1      -3.549   1.019   3.561  1.00  0.00     0.188 C 
BRANCH  27  28
ATOM     28  C   UNL     1      -4.710   0.451   4.406  1.00  0.00     0.188 C 
BRANCH  28  29
ATOM     29  O   UNL     1      -5.589  -0.417   3.716  1.00  0.00    -0.376 OA
BRANCH  29  30
ATOM     30  C   UNL     1      -6.780   0.125   3.170  1.00  0.00     0.202 C 
BRANCH  30  31
ATOM     31  C   UNL     1      -6.660   1.290   2.174  1.00  0.00     0.261 C 
BRANCH  31  32
ATOM     32  O   UNL     1      -6.000   2.475   2.650  1.00  0.00    -0.460 OA
BRANCH  32  33
ATOM     33  C   UNL     1      -6.506   3.089   3.738  1.00  0.00     0.338 C 
ATOM     34  O   UNL     1      -7.507   2.785   4.367  1.00  0.00    -0.246 OA
BRANCH  33  35
ATOM     35  C   UNL     1      -5.532   4.111   4.168  1.00  0.00     0.060 A 
ATOM     36  C   UNL     1      -4.914   3.985   5.419  1.00  0.00     0.016 A 
ATOM     37  C   UNL     1      -5.240   5.194   3.338  1.00  0.00     0.016 A 
ATOM     38  C   UNL     1      -4.028   4.967   5.862  1.00  0.00     0.010 A 
ATOM     39  C   UNL     1      -4.372   6.190   3.792  1.00  0.00     0.010 A 
ATOM     40  C   UNL     1      -3.792   6.099   5.071  1.00  0.00    -0.014 A 
BRANCH  40  41
ATOM     41  C   UNL     1      -3.115   7.278   5.662  1.00  0.00     0.031 A 
ATOM     42  C   UNL     1      -3.973   8.405   6.172  1.00  0.00     0.074 A 
ATOM     43  C   UNL     1      -1.777   7.340   5.773  1.00  0.00     0.049 A 
ATOM     44  N   UNL     1      -3.621   9.566   6.662  1.00  0.00    -0.248 NA
ATOM     45  C   UNL     1      -5.429   8.192   6.119  1.00  0.00     0.031 C 
ATOM     46  C   UNL     1      -0.844   6.292   5.368  1.00  0.00     0.029 A 
ATOM     47  N   UNL     1      -0.970   8.343   6.254  1.00  0.00    -0.354 N 
ATOM     48  C   UNL     1      -4.808  10.219   6.970  1.00  0.00     0.074 A 
ATOM     49  C   UNL     1      -5.891   9.343   6.581  1.00  0.00     0.031 C 
ATOM     50  C   UNL     1       0.412   6.713   5.601  1.00  0.00     0.029 A 
ATOM     51  C   UNL     1       0.371   8.074   6.135  1.00  0.00     0.049 A 
ATOM     52  H   UNL     1      -1.320   9.175   6.647  1.00  0.00     0.167 HD
ATOM     53  C   UNL     1      -4.977  11.436   7.537  1.00  0.00     0.037 A 
ATOM     54  C   UNL     1       1.439   8.854   6.399  1.00  0.00     0.037 A 
ATOM     55  C   UNL     1      -3.897  12.306   7.920  1.00  0.00     0.049 A 
ATOM     56  C   UNL     1       1.217  10.246   6.942  1.00  0.00     0.074 A 
ATOM     57  C   UNL     1      -3.964  13.559   8.501  1.00  0.00     0.029 A 
ATOM     58  N   UNL     1      -2.552  12.012   7.754  1.00  0.00    -0.354 N 
ATOM     59  N   UNL     1       0.095  10.852   7.246  1.00  0.00    -0.248 NA
ATOM     60  C   UNL     1       2.417  11.063   7.181  1.00  0.00     0.031 C 
ATOM     61  C   UNL     1      -2.662  14.049   8.634  1.00  0.00     0.029 A 
ATOM     62  C   UNL     1      -1.780  13.072   8.200  1.00  0.00     0.049 A 
ATOM     63  H   UNL     1      -2.198  11.175   7.376  1.00  0.00     0.167 HD
ATOM     64  C   UNL     1       0.454  12.098   7.748  1.00  0.00     0.074 A 
ATOM     65  C   UNL     1       1.899  12.156   7.722  1.00  0.00     0.031 C 
ATOM     66  C   UNL     1      -0.340  13.105   8.190  1.00  0.00     0.037 A 
BRANCH  53  67
ATOM     67  C   UNL     1      -6.383  11.913   7.760  1.00  0.00     0.064 A 
ATOM     68  C   UNL     1      -7.209  11.342   8.739  1.00  0.00     0.173 A 
ATOM     69  C   UNL     1      -6.890  12.994   7.022  1.00  0.00     0.173 A 
ATOM     70  F   UNL     1      -6.778  10.296   9.460  1.00  0.00    -0.203 F 
ATOM     71  C   UNL     1      -8.496  11.825   8.960  1.00  0.00     0.198 A 
ATOM     72  C   UNL     1      -8.165  13.495   7.268  1.00  0.00     0.198 A 
ATOM     73  F   UNL     1      -6.141  13.578   6.075  1.00  0.00    -0.203 F 
ATOM     74  F   UNL     1      -9.282  11.238   9.874  1.00  0.00    -0.200 F 
ATOM     75  C   UNL     1      -8.969  12.907   8.233  1.00  0.00     0.200 A 
ATOM     76  F   UNL     1      -8.614  14.550   6.575  1.00  0.00    -0.200 F 
ATOM     77  F   UNL     1     -10.202  13.381   8.460  1.00  0.00    -0.200 F 
ENDBRANCH  53  67
BRANCH  54  78
ATOM     78  C   UNL     1       2.819   8.364   6.129  1.00  0.00     0.064 A 
ATOM     79  C   UNL     1       3.744   8.190   7.169  1.00  0.00     0.173 A 
ATOM     80  C   UNL     1       3.263   8.123   4.820  1.00  0.00     0.173 A 
ATOM     81  F   UNL     1       3.380   8.432   8.437  1.00  0.00    -0.203 F 
ATOM     82  C   UNL     1       5.066   7.832   6.907  1.00  0.00     0.198 A 
ATOM     83  C   UNL     1       4.574   7.729   4.562  1.00  0.00     0.198 A 
ATOM     84  F   UNL     1       2.422   8.277   3.786  1.00  0.00    -0.203 F 
ATOM     85  F   UNL     1       5.946   7.746   7.914  1.00  0.00    -0.200 F 
ATOM     86  C   UNL     1       5.479   7.599   5.604  1.00  0.00     0.200 A 
ATOM     87  F   UNL     1       4.965   7.492   3.303  1.00  0.00    -0.200 F 
ATOM     88  F   UNL     1       6.751   7.263   5.352  1.00  0.00    -0.200 F 
ENDBRANCH  54  78
BRANCH  66  89
ATOM     89  C   UNL     1       0.332  14.332   8.739  1.00  0.00     0.064 A 
ATOM     90  C   UNL     1       1.032  15.227   7.917  1.00  0.00     0.173 A 
ATOM     91  C   UNL     1       0.236  14.637  10.106  1.00  0.00     0.173 A 
ATOM     92  F   UNL     1       1.164  14.977   6.605  1.00  0.00    -0.203 F 
ATOM     93  C   UNL     1       1.637  16.364   8.447  1.00  0.00     0.198 A 
ATOM     94  C   UNL     1       0.810  15.794  10.627  1.00  0.00     0.198 A 
ATOM     95  F   UNL     1      -0.431  13.821  10.937  1.00  0.00    -0.203 F 
ATOM     96  F   UNL     1       2.347  17.175   7.651  1.00  0.00    -0.200 F 
ATOM     97  C   UNL     1       1.518  16.651   9.799  1.00  0.00     0.200 A 
ATOM     98  F   UNL     1       0.676  16.078  11.929  1.00  0.00    -0.200 F 
ATOM     99  F   UNL     1       2.093  17.750  10.305  1.00  0.00    -0.200 F 
ENDBRANCH  66  89
ENDBRANCH  40  41
ENDBRANCH  33  35
ENDBRANCH  32  33
ENDBRANCH  31  32
ENDBRANCH  30  31
ENDBRANCH  29  30
ENDBRANCH  28  29
ENDBRANCH  27  28
ENDBRANCH   1  27
TORSDOF 22
