REMARK SMILES COc1cc(/C=C2/S/C(=[NH+]\C(C)=O)NC2=O)cc(Br)c1OCC(=O)OCCOCCOCCOCCOC(=O)c1ccc(-c2c3nc(c(-c4c(F)c(F)c(F)c(F)c4F)c4ccc([nH]4)c(-c4c(F)c(F)c(F)c(F)c4F)c4nc(c(-c5c(F)c(F)c(F)c(F)c5F)c5ccc2[nH]5)C=C4)C=C3)cc1
REMARK SMILES IDX 30 1 29 2 28 3 27 4 26 5 25 6 23 7 24 8 22 9 21 10 20 11
REMARK SMILES IDX 3 12 4 13 5 14 18 15 17 16 19 17 2 18 1 19 6 20 7 21 8 22
REMARK SMILES IDX 15 23 9 24 14 25 16 26 10 27 11 29 12 31 13 32 31 33 32 34
REMARK SMILES IDX 33 35 34 36 35 37 36 38 37 39 38 40 39 41 40 42 41 43 102 44
REMARK SMILES IDX 42 45 101 46 43 47 44 48 45 49 95 50 46 51 100 52 94 53
REMARK SMILES IDX 96 54 47 55 99 56 93 57 92 58 48 60 80 61 60 62 79 63 61 64
REMARK SMILES IDX 64 65 78 66 97 67 62 68 63 69 77 71 98 72 65 73 49 74 50 75
REMARK SMILES IDX 58 76 51 77 52 78 56 79 59 80 53 81 54 82 57 83 55 84 81 85
REMARK SMILES IDX 82 86 90 87 83 88 84 89 88 90 91 91 85 92 86 93 89 94 87 95
REMARK SMILES IDX 66 96 67 97 75 98 68 99 69 100 73 101 76 102 70 103 71 104
REMARK SMILES IDX 74 105 72 106
REMARK H PARENT 14 28 10 30 96 59 64 70
REMARK Flexibility Score: inf
ROOT
ATOM      1  C   UNL     1      -1.515   4.491  -0.247  1.00  0.00     0.188 C 
ENDROOT
BRANCH   1   2
ATOM      2  C   UNL     1      -1.514   5.580  -1.360  1.00  0.00     0.188 C 
BRANCH   2   3
ATOM      3  O   UNL     1      -2.632   6.432  -1.569  1.00  0.00    -0.376 OA
BRANCH   3   4
ATOM      4  C   UNL     1      -3.768   6.183  -0.780  1.00  0.00     0.202 C 
BRANCH   4   5
ATOM      5  C   UNL     1      -4.564   4.941  -1.219  1.00  0.00     0.261 C 
BRANCH   5   6
ATOM      6  O   UNL     1      -3.781   3.848  -1.783  1.00  0.00    -0.461 OA
BRANCH   6   7
ATOM      7  C   UNL     1      -3.390   3.914  -3.091  1.00  0.00     0.344 C 
ATOM      8  O   UNL     1      -3.845   4.720  -3.893  1.00  0.00    -0.248 OA
BRANCH   7   9
ATOM      9  C   UNL     1      -2.332   2.808  -3.471  1.00  0.00     0.352 C 
BRANCH   9  10
ATOM     10  O   UNL     1      -1.134   2.516  -2.753  1.00  0.00    -0.477 OA
BRANCH  10  11
ATOM     11  C   UNL     1       0.179   2.830  -3.045  1.00  0.00     0.176 A 
ATOM     12  C   UNL     1       1.129   2.051  -2.328  1.00  0.00     0.162 A 
ATOM     13  C   UNL     1       2.502   2.432  -2.219  1.00  0.00     0.058 A 
ATOM     14  C   UNL     1       2.985   3.635  -2.770  1.00  0.00    -0.019 A 
ATOM     15  C   UNL     1       0.713   3.895  -3.782  1.00  0.00     0.064 A 
ATOM     16  C   UNL     1       2.085   4.300  -3.622  1.00  0.00     0.028 A 
ATOM     17  Br  UNL     1      -0.282   4.912  -5.041  1.00  0.00    -0.047 Br
BRANCH  12  18
ATOM     18  O   UNL     1       0.654   0.855  -1.829  1.00  0.00    -0.493 OA
ATOM     19  C   UNL     1       1.106   0.453  -0.543  1.00  0.00     0.278 C 
ENDBRANCH  12  18
BRANCH  14  20
ATOM     20  C   UNL     1       4.405   4.113  -2.526  1.00  0.00     0.032 C 
ATOM     21  C   UNL     1       4.952   5.157  -1.842  1.00  0.00     0.110 C 
ATOM     22  S   UNL     1       6.683   5.539  -1.770  1.00  0.00     0.007 SA
ATOM     23  C   UNL     1       4.396   6.261  -1.003  1.00  0.00     0.346 C 
ATOM     24  C   UNL     1       6.376   7.157  -1.146  1.00  0.00     0.324 C 
ATOM     25  N   UNL     1       5.058   7.412  -1.227  1.00  0.00    -0.199 N 
ATOM     26  O   UNL     1       3.829   6.125   0.069  1.00  0.00    -0.240 OA
ATOM     27  N   UNL     1       7.040   8.050  -0.512  1.00  0.00    -0.204 N 
ATOM     28  H   UNL     1       4.648   8.287  -1.417  1.00  0.00     0.316 HD
ATOM     29  C   UNL     1       8.242   7.865   0.102  1.00  0.00     0.304 C 
ATOM     30  H   UNL     1       6.647   8.951  -0.464  1.00  0.00     0.316 HD
ATOM     31  C   UNL     1       9.403   7.354  -0.688  1.00  0.00     0.144 C 
ATOM     32  O   UNL     1       8.404   8.208   1.271  1.00  0.00    -0.247 OA
ENDBRANCH  14  20
ENDBRANCH  10  11
ENDBRANCH   9  10
ENDBRANCH   7   9
ENDBRANCH   6   7
ENDBRANCH   5   6
ENDBRANCH   4   5
ENDBRANCH   3   4
ENDBRANCH   2   3
ENDBRANCH   1   2
BRANCH   1  33
ATOM     33  O   UNL     1      -1.784   5.003   1.047  1.00  0.00    -0.377 OA
BRANCH  33  34
ATOM     34  C   UNL     1      -0.625   5.154   1.849  1.00  0.00     0.188 C 
BRANCH  34  35
ATOM     35  C   UNL     1       0.235   6.352   1.448  1.00  0.00     0.188 C 
BRANCH  35  36
ATOM     36  O   UNL     1       0.893   6.369   0.194  1.00  0.00    -0.376 OA
BRANCH  36  37
ATOM     37  C   UNL     1       1.476   5.226  -0.399  1.00  0.00     0.202 C 
BRANCH  37  38
ATOM     38  C   UNL     1       2.149   4.141   0.431  1.00  0.00     0.261 C 
BRANCH  38  39
ATOM     39  O   UNL     1       2.269   4.539   1.778  1.00  0.00    -0.460 OA
BRANCH  39  40
ATOM     40  C   UNL     1       3.243   3.951   2.478  1.00  0.00     0.338 C 
ATOM     41  O   UNL     1       4.245   3.371   2.083  1.00  0.00    -0.246 OA
BRANCH  40  42
ATOM     42  C   UNL     1       2.578   3.755   3.761  1.00  0.00     0.060 A 
ATOM     43  C   UNL     1       1.953   4.824   4.421  1.00  0.00     0.016 A 
ATOM     44  C   UNL     1       2.406   2.430   4.168  1.00  0.00     0.016 A 
ATOM     45  C   UNL     1       1.183   4.566   5.540  1.00  0.00     0.010 A 
ATOM     46  C   UNL     1       1.633   2.171   5.283  1.00  0.00     0.010 A 
ATOM     47  C   UNL     1       1.072   3.245   5.991  1.00  0.00    -0.014 A 
BRANCH  47  48
ATOM     48  C   UNL     1       0.640   3.011   7.372  1.00  0.00     0.031 A 
ATOM     49  C   UNL     1       1.727   2.904   8.399  1.00  0.00     0.074 A 
ATOM     50  C   UNL     1      -0.662   2.910   7.668  1.00  0.00     0.049 A 
ATOM     51  N   UNL     1       1.642   2.655   9.675  1.00  0.00    -0.248 NA
ATOM     52  C   UNL     1       3.109   3.090   7.911  1.00  0.00     0.031 C 
ATOM     53  C   UNL     1      -1.760   3.031   6.709  1.00  0.00     0.029 A 
ATOM     54  N   UNL     1      -1.276   2.675   8.864  1.00  0.00    -0.354 N 
ATOM     55  C   UNL     1       2.952   2.650  10.136  1.00  0.00     0.074 A 
ATOM     56  C   UNL     1       3.818   2.873   9.005  1.00  0.00     0.031 C 
ATOM     57  C   UNL     1      -2.923   2.860   7.361  1.00  0.00     0.029 A 
ATOM     58  C   UNL     1      -2.641   2.593   8.768  1.00  0.00     0.049 A 
ATOM     59  H   UNL     1      -0.786   2.574   9.712  1.00  0.00     0.167 HD
ATOM     60  C   UNL     1       3.383   2.484  11.406  1.00  0.00     0.037 A 
ATOM     61  C   UNL     1      -3.542   2.316   9.728  1.00  0.00     0.037 A 
ATOM     62  C   UNL     1       2.488   2.254  12.504  1.00  0.00     0.049 A 
ATOM     63  C   UNL     1      -3.032   2.096  11.129  1.00  0.00     0.074 A 
ATOM     64  C   UNL     1       2.783   2.068  13.839  1.00  0.00     0.029 A 
ATOM     65  N   UNL     1       1.105   2.174  12.377  1.00  0.00    -0.354 N 
ATOM     66  N   UNL     1      -1.796   2.114  11.573  1.00  0.00    -0.248 NA
ATOM     67  C   UNL     1      -4.038   1.829  12.161  1.00  0.00     0.031 C 
ATOM     68  C   UNL     1       1.581   1.827  14.514  1.00  0.00     0.029 A 
ATOM     69  C   UNL     1       0.532   1.922  13.610  1.00  0.00     0.049 A 
ATOM     70  H   UNL     1       0.608   2.281  11.534  1.00  0.00     0.167 HD
ATOM     71  C   UNL     1      -1.875   1.890  12.940  1.00  0.00     0.074 A 
ATOM     72  C   UNL     1      -3.286   1.756  13.251  1.00  0.00     0.031 C 
ATOM     73  C   UNL     1      -0.882   1.800  13.862  1.00  0.00     0.037 A 
BRANCH  60  74
ATOM     74  C   UNL     1       4.864   2.514  11.642  1.00  0.00     0.064 A 
ATOM     75  C   UNL     1       5.616   3.690  11.492  1.00  0.00     0.173 A 
ATOM     76  C   UNL     1       5.547   1.344  12.004  1.00  0.00     0.173 A 
ATOM     77  F   UNL     1       5.017   4.831  11.116  1.00  0.00    -0.203 F 
ATOM     78  C   UNL     1       6.997   3.688  11.670  1.00  0.00     0.198 A 
ATOM     79  C   UNL     1       6.924   1.352  12.212  1.00  0.00     0.198 A 
ATOM     80  F   UNL     1       4.881   0.188  12.147  1.00  0.00    -0.203 F 
ATOM     81  F   UNL     1       7.700   4.811  11.464  1.00  0.00    -0.200 F 
ATOM     82  C   UNL     1       7.649   2.521  12.038  1.00  0.00     0.200 A 
ATOM     83  F   UNL     1       7.552   0.224  12.572  1.00  0.00    -0.200 F 
ATOM     84  F   UNL     1       8.978   2.520  12.212  1.00  0.00    -0.200 F 
ENDBRANCH  60  74
BRANCH  61  85
ATOM     85  C   UNL     1      -4.988   2.253   9.396  1.00  0.00     0.064 A 
ATOM     86  C   UNL     1      -5.885   3.213   9.881  1.00  0.00     0.173 A 
ATOM     87  C   UNL     1      -5.502   1.239   8.573  1.00  0.00     0.173 A 
ATOM     88  F   UNL     1      -5.446   4.195  10.682  1.00  0.00    -0.203 F 
ATOM     89  C   UNL     1      -7.243   3.152   9.574  1.00  0.00     0.198 A 
ATOM     90  C   UNL     1      -6.856   1.195   8.243  1.00  0.00     0.198 A 
ATOM     91  F   UNL     1      -4.686   0.298   8.075  1.00  0.00    -0.203 F 
ATOM     92  F   UNL     1      -8.085   4.060  10.085  1.00  0.00    -0.200 F 
ATOM     93  C   UNL     1      -7.726   2.147   8.749  1.00  0.00     0.200 A 
ATOM     94  F   UNL     1      -7.314   0.231   7.432  1.00  0.00    -0.200 F 
ATOM     95  F   UNL     1      -9.031   2.093   8.448  1.00  0.00    -0.200 F 
ENDBRANCH  61  85
BRANCH  73  96
ATOM     96  C   UNL     1      -1.302   1.583  15.284  1.00  0.00     0.064 A 
ATOM     97  C   UNL     1      -1.822   0.355  15.718  1.00  0.00     0.173 A 
ATOM     98  C   UNL     1      -1.145   2.607  16.230  1.00  0.00     0.173 A 
ATOM     99  F   UNL     1      -2.000  -0.649  14.847  1.00  0.00    -0.203 F 
ATOM    100  C   UNL     1      -2.205   0.174  17.043  1.00  0.00     0.198 A 
ATOM    101  C   UNL     1      -1.496   2.409  17.561  1.00  0.00     0.198 A 
ATOM    102  F   UNL     1      -0.639   3.795  15.864  1.00  0.00    -0.203 F 
ATOM    103  F   UNL     1      -2.756  -0.987  17.425  1.00  0.00    -0.200 F 
ATOM    104  C   UNL     1      -2.035   1.197  17.964  1.00  0.00     0.200 A 
ATOM    105  F   UNL     1      -1.313   3.393  18.453  1.00  0.00    -0.200 F 
ATOM    106  F   UNL     1      -2.401   1.018  19.240  1.00  0.00    -0.200 F 
ENDBRANCH  73  96
ENDBRANCH  47  48
ENDBRANCH  40  42
ENDBRANCH  39  40
ENDBRANCH  38  39
ENDBRANCH  37  38
ENDBRANCH  36  37
ENDBRANCH  35  36
ENDBRANCH  34  35
ENDBRANCH  33  34
ENDBRANCH   1  33
TORSDOF 24
