REMARK SMILES O=C(OCCOCCOCCOCCOC(=O)[C@@H]1CN(c2nc(-c3ccccc3)no2)CC[NH2+]1)c1ccc(-c2c3nc(c(-c4c(F)c(F)c(F)c(F)c4F)c4ccc([nH]4)c(-c4c(F)c(F)c(F)c(F)c4F)c4nc(c(-c5c(F)c(F)c(F)c(F)c5F)c5ccc2[nH]5)C=C4)C=C3)cc1
REMARK SMILES IDX 9 1 8 2 7 3 6 4 5 5 4 6 3 7 2 8 1 9 35 10 36 11 97 12 37 13
REMARK SMILES IDX 96 14 38 15 39 16 40 17 90 18 41 19 95 20 89 21 91 22 42 23
REMARK SMILES IDX 94 24 88 25 87 26 43 28 75 29 55 30 74 31 56 32 59 33 73 34
REMARK SMILES IDX 92 35 57 36 58 37 72 39 93 40 60 41 44 42 45 43 53 44 46 45
REMARK SMILES IDX 47 46 51 47 54 48 48 49 49 50 52 51 50 52 76 53 77 54 85 55
REMARK SMILES IDX 78 56 79 57 83 58 86 59 80 60 81 61 84 62 82 63 61 64 62 65
REMARK SMILES IDX 70 66 63 67 64 68 68 69 71 70 65 71 66 72 69 73 67 74 10 75
REMARK SMILES IDX 11 76 12 77 13 78 14 79 15 80 16 81 17 82 18 83 19 84 34 85
REMARK SMILES IDX 20 86 33 87 32 90 21 91 22 92 31 93 23 94 30 95 24 96 25 97
REMARK SMILES IDX 29 98 26 99 28 100 27 101
REMARK H PARENT 91 27 59 38 34 88 34 89
REMARK Flexibility Score: inf
ROOT
ATOM      1  O   UNL     1       3.219   3.665  -0.674  1.00  0.00    -0.377 OA
ENDROOT
BRANCH   1   2
ATOM      2  C   UNL     1       2.249   2.695  -0.292  1.00  0.00     0.188 C 
BRANCH   2   3
ATOM      3  C   UNL     1       2.474   1.322  -0.908  1.00  0.00     0.188 C 
BRANCH   3   4
ATOM      4  O   UNL     1       3.673   0.779  -0.369  1.00  0.00    -0.376 OA
BRANCH   4   5
ATOM      5  C   UNL     1       4.451   0.005  -1.273  1.00  0.00     0.202 C 
BRANCH   5   6
ATOM      6  C   UNL     1       4.006  -1.454  -1.351  1.00  0.00     0.261 C 
BRANCH   6   7
ATOM      7  O   UNL     1       2.608  -1.625  -1.056  1.00  0.00    -0.460 OA
BRANCH   7   8
ATOM      8  C   UNL     1       2.051  -1.934   0.141  1.00  0.00     0.338 C 
ATOM      9  O   UNL     1       0.839  -2.167   0.192  1.00  0.00    -0.246 OA
BRANCH   8  10
ATOM     10  C   UNL     1       2.830  -2.062   1.407  1.00  0.00     0.060 A 
ATOM     11  C   UNL     1       3.941  -1.286   1.728  1.00  0.00     0.016 A 
ATOM     12  C   UNL     1       2.368  -2.969   2.374  1.00  0.00     0.016 A 
ATOM     13  C   UNL     1       4.646  -1.466   2.904  1.00  0.00     0.010 A 
ATOM     14  C   UNL     1       3.043  -3.128   3.591  1.00  0.00     0.010 A 
ATOM     15  C   UNL     1       4.212  -2.398   3.838  1.00  0.00    -0.014 A 
BRANCH  15  16
ATOM     16  C   UNL     1       5.133  -2.699   4.949  1.00  0.00     0.031 A 
ATOM     17  C   UNL     1       5.919  -3.972   4.872  1.00  0.00     0.074 A 
ATOM     18  C   UNL     1       5.410  -1.752   5.865  1.00  0.00     0.049 A 
ATOM     19  N   UNL     1       6.776  -4.472   5.719  1.00  0.00    -0.248 NA
ATOM     20  C   UNL     1       5.731  -4.785   3.657  1.00  0.00     0.031 C 
ATOM     21  C   UNL     1       4.812  -0.415   5.903  1.00  0.00     0.029 A 
ATOM     22  N   UNL     1       6.303  -1.746   6.902  1.00  0.00    -0.354 N 
ATOM     23  C   UNL     1       7.202  -5.667   5.155  1.00  0.00     0.074 A 
ATOM     24  C   UNL     1       6.511  -5.825   3.897  1.00  0.00     0.031 C 
ATOM     25  C   UNL     1       5.380   0.292   6.893  1.00  0.00     0.029 A 
ATOM     26  C   UNL     1       6.317  -0.566   7.606  1.00  0.00     0.049 A 
ATOM     27  H   UNL     1       6.879  -2.513   7.123  1.00  0.00     0.167 HD
ATOM     28  C   UNL     1       8.093  -6.552   5.656  1.00  0.00     0.037 A 
ATOM     29  C   UNL     1       6.990  -0.244   8.727  1.00  0.00     0.037 A 
ATOM     30  C   UNL     1       8.764  -6.360   6.910  1.00  0.00     0.049 A 
ATOM     31  C   UNL     1       7.892  -1.292   9.324  1.00  0.00     0.074 A 
ATOM     32  C   UNL     1       9.585  -7.228   7.602  1.00  0.00     0.029 A 
ATOM     33  N   UNL     1       8.688  -5.190   7.656  1.00  0.00    -0.354 N 
ATOM     34  N   UNL     1       8.192  -2.485   8.861  1.00  0.00    -0.248 NA
ATOM     35  C   UNL     1       8.531  -0.966  10.603  1.00  0.00     0.031 C 
ATOM     36  C   UNL     1       9.984  -6.591   8.784  1.00  0.00     0.029 A 
ATOM     37  C   UNL     1       9.447  -5.311   8.805  1.00  0.00     0.049 A 
ATOM     38  H   UNL     1       8.171  -4.391   7.404  1.00  0.00     0.167 HD
ATOM     39  C   UNL     1       9.055  -3.049   9.787  1.00  0.00     0.074 A 
ATOM     40  C   UNL     1       9.258  -2.053  10.822  1.00  0.00     0.031 C 
ATOM     41  C   UNL     1       9.621  -4.282   9.799  1.00  0.00     0.037 A 
BRANCH  28  42
ATOM     42  C   UNL     1       8.307  -7.813   4.875  1.00  0.00     0.064 A 
ATOM     43  C   UNL     1       9.018  -7.824   3.665  1.00  0.00     0.173 A 
ATOM     44  C   UNL     1       7.737  -9.018   5.312  1.00  0.00     0.173 A 
ATOM     45  F   UNL     1       9.549  -6.690   3.183  1.00  0.00    -0.203 F 
ATOM     46  C   UNL     1       9.124  -8.989   2.908  1.00  0.00     0.198 A 
ATOM     47  C   UNL     1       7.865 -10.186   4.564  1.00  0.00     0.198 A 
ATOM     48  F   UNL     1       7.034  -9.057   6.454  1.00  0.00    -0.203 F 
ATOM     49  F   UNL     1       9.752  -8.963   1.724  1.00  0.00    -0.200 F 
ATOM     50  C   UNL     1       8.550 -10.169   3.359  1.00  0.00     0.200 A 
ATOM     51  F   UNL     1       7.307 -11.323   5.000  1.00  0.00    -0.200 F 
ATOM     52  F   UNL     1       8.640 -11.285   2.622  1.00  0.00    -0.200 F 
ENDBRANCH  28  42
BRANCH  29  53
ATOM     53  C   UNL     1       6.777   1.073   9.389  1.00  0.00     0.064 A 
ATOM     54  C   UNL     1       7.821   1.995   9.549  1.00  0.00     0.173 A 
ATOM     55  C   UNL     1       5.519   1.427   9.906  1.00  0.00     0.173 A 
ATOM     56  F   UNL     1       9.049   1.702   9.096  1.00  0.00    -0.203 F 
ATOM     57  C   UNL     1       7.621   3.204  10.217  1.00  0.00     0.198 A 
ATOM     58  C   UNL     1       5.312   2.650  10.541  1.00  0.00     0.198 A 
ATOM     59  F   UNL     1       4.482   0.584   9.790  1.00  0.00    -0.203 F 
ATOM     60  F   UNL     1       8.651   4.041  10.404  1.00  0.00    -0.200 F 
ATOM     61  C   UNL     1       6.366   3.534  10.706  1.00  0.00     0.200 A 
ATOM     62  F   UNL     1       4.093   2.967  10.998  1.00  0.00    -0.200 F 
ATOM     63  F   UNL     1       6.176   4.694  11.348  1.00  0.00    -0.200 F 
ENDBRANCH  29  53
BRANCH  41  64
ATOM     64  C   UNL     1      10.523  -4.595  10.952  1.00  0.00     0.064 A 
ATOM     65  C   UNL     1      10.009  -4.853  12.231  1.00  0.00     0.173 A 
ATOM     66  C   UNL     1      11.909  -4.677  10.762  1.00  0.00     0.173 A 
ATOM     67  F   UNL     1       8.690  -4.771  12.459  1.00  0.00    -0.203 F 
ATOM     68  C   UNL     1      10.859  -5.159  13.288  1.00  0.00     0.198 A 
ATOM     69  C   UNL     1      12.752  -5.011  11.816  1.00  0.00     0.198 A 
ATOM     70  F   UNL     1      12.442  -4.444   9.553  1.00  0.00    -0.203 F 
ATOM     71  F   UNL     1      10.354  -5.357  14.514  1.00  0.00    -0.200 F 
ATOM     72  C   UNL     1      12.228  -5.245  13.078  1.00  0.00     0.200 A 
ATOM     73  F   UNL     1      14.073  -5.105  11.610  1.00  0.00    -0.200 F 
ATOM     74  F   UNL     1      13.044  -5.546  14.097  1.00  0.00    -0.200 F 
ENDBRANCH  41  64
ENDBRANCH  15  16
ENDBRANCH   8  10
ENDBRANCH   7   8
ENDBRANCH   6   7
ENDBRANCH   5   6
ENDBRANCH   4   5
ENDBRANCH   3   4
ENDBRANCH   2   3
ENDBRANCH   1   2
BRANCH   1  75
ATOM     75  C   UNL     1       4.593   3.433  -0.350  1.00  0.00     0.188 C 
BRANCH  75  76
ATOM     76  C   UNL     1       5.025   3.539   1.122  1.00  0.00     0.188 C 
BRANCH  76  77
ATOM     77  O   UNL     1       4.060   3.066   2.035  1.00  0.00    -0.376 OA
BRANCH  77  78
ATOM     78  C   UNL     1       3.314   4.011   2.791  1.00  0.00     0.202 C 
BRANCH  78  79
ATOM     79  C   UNL     1       3.113   5.491   2.386  1.00  0.00     0.261 C 
BRANCH  79  80
ATOM     80  O   UNL     1       3.326   5.834   1.008  1.00  0.00    -0.459 OA
BRANCH  80  81
ATOM     81  C   UNL     1       4.212   6.841   0.767  1.00  0.00     0.366 C 
ATOM     82  O   UNL     1       4.755   7.498   1.660  1.00  0.00    -0.245 OA
BRANCH  81  83
ATOM     83  C   UNL     1       4.509   7.108  -0.714  1.00  0.00     0.313 C 
ATOM     84  C   UNL     1       4.049   8.532  -1.054  1.00  0.00     0.199 C 
ATOM     85  N   UNL     1       3.917   6.116  -1.643  1.00  0.00    -0.332 N 
ATOM     86  N   UNL     1       4.320   8.839  -2.464  1.00  0.00    -0.312 N 
ATOM     87  C   UNL     1       4.205   6.442  -3.042  1.00  0.00     0.283 C 
ATOM     88  H   UNL     1       2.905   6.101  -1.510  1.00  0.00     0.347 HD
ATOM     89  H   UNL     1       4.327   5.205  -1.439  1.00  0.00     0.347 HD
ATOM     90  C   UNL     1       3.795   7.877  -3.440  1.00  0.00     0.183 C 
BRANCH  86  91
ATOM     91  C   UNL     1       5.436   9.535  -2.766  1.00  0.00     0.324 A 
ATOM     92  N   UNL     1       6.474   9.803  -2.012  1.00  0.00    -0.171 NA
ATOM     93  O   UNL     1       5.533  10.075  -4.019  1.00  0.00    -0.315 OA
ATOM     94  C   UNL     1       7.274  10.527  -2.860  1.00  0.00     0.204 A 
ATOM     95  N   UNL     1       6.755  10.741  -4.076  1.00  0.00    -0.055 NA
BRANCH  94  96
ATOM     96  C   UNL     1       8.594  10.983  -2.484  1.00  0.00     0.023 A 
ATOM     97  C   UNL     1       8.753  12.182  -1.781  1.00  0.00     0.012 A 
ATOM     98  C   UNL     1       9.720  10.243  -2.865  1.00  0.00     0.012 A 
ATOM     99  C   UNL     1      10.034  12.650  -1.485  1.00  0.00     0.001 A 
ATOM    100  C   UNL     1      10.999  10.712  -2.564  1.00  0.00     0.001 A 
ATOM    101  C   UNL     1      11.155  11.918  -1.881  1.00  0.00     0.000 A 
ENDBRANCH  94  96
ENDBRANCH  86  91
ENDBRANCH  81  83
ENDBRANCH  80  81
ENDBRANCH  79  80
ENDBRANCH  78  79
ENDBRANCH  77  78
ENDBRANCH  76  77
ENDBRANCH  75  76
ENDBRANCH   1  75
TORSDOF 22
