REMARK SMILES Cc1cccc([C@@H](CCC[C@@H]2CCCO2)C(=O)OCCOCCOCCOCCOC(=O)c2ccc(-c3c4nc(c(-c5c(F)c(F)c(F)c(F)c5F)c5ccc([nH]5)c(-c5c(F)c(F)c(F)c(F)c5F)c5nc(c(-c6c(F)c(F)c(F)c(F)c6F)c6ccc3[nH]6)C=C5)C=C4)cc2)c1
REMARK SMILES IDX 23 1 22 2 21 3 20 4 19 5 18 6 16 7 17 8 7 9 6 10 1 11 2 12
REMARK SMILES IDX 3 13 96 14 4 15 5 16 8 17 9 18 10 19 11 20 12 21 15 22 13 23
REMARK SMILES IDX 14 24 24 25 25 26 26 27 27 28 28 29 29 30 30 31 31 32 32 33
REMARK SMILES IDX 33 34 34 35 95 36 35 37 94 38 36 39 37 40 38 41 88 42 39 43
REMARK SMILES IDX 93 44 87 45 89 46 40 47 92 48 86 49 85 50 41 52 73 53 53 54
REMARK SMILES IDX 72 55 54 56 57 57 71 58 90 59 55 60 56 61 70 63 91 64 58 65
REMARK SMILES IDX 42 66 43 67 51 68 44 69 45 70 49 71 52 72 46 73 47 74 50 75
REMARK SMILES IDX 48 76 74 77 75 78 83 79 76 80 77 81 81 82 84 83 78 84 79 85
REMARK SMILES IDX 82 86 80 87 59 88 60 89 68 90 61 91 62 92 66 93 69 94 63 95
REMARK SMILES IDX 64 96 67 97 65 98
REMARK H PARENT 89 51 57 62
REMARK Flexibility Score: inf
ROOT
ATOM      1  C   UNL     1       0.544   0.533   2.253  1.00  0.00     0.188 C 
ENDROOT
BRANCH   1   2
ATOM      2  C   UNL     1      -0.163   1.591   3.107  1.00  0.00     0.188 C 
BRANCH   2   3
ATOM      3  O   UNL     1      -1.562   1.569   3.281  1.00  0.00    -0.376 OA
BRANCH   3   4
ATOM      4  C   UNL     1      -2.328   0.461   2.924  1.00  0.00     0.202 C 
BRANCH   4   5
ATOM      5  C   UNL     1      -2.526   0.161   1.456  1.00  0.00     0.261 C 
BRANCH   5   6
ATOM      6  O   UNL     1      -2.372   1.139   0.411  1.00  0.00    -0.463 OA
BRANCH   6   7
ATOM      7  C   UNL     1      -1.854   2.392   0.427  1.00  0.00     0.313 C 
ATOM      8  O   UNL     1      -1.943   3.226   1.303  1.00  0.00    -0.252 OA
BRANCH   7   9
ATOM      9  C   UNL     1      -1.044   2.637  -0.856  1.00  0.00     0.129 C 
BRANCH   9  10
ATOM     10  C   UNL     1      -0.280   1.363  -1.292  1.00  0.00    -0.034 A 
ATOM     11  C   UNL     1       3.175   0.059  -0.296  1.00  0.00     0.044 C 
ATOM     12  C   UNL     1       1.759   0.086  -0.798  1.00  0.00    -0.051 A 
ATOM     13  C   UNL     1       1.038  -1.106  -0.909  1.00  0.00     0.003 A 
ATOM     14  C   UNL     1       1.102   1.310  -1.015  1.00  0.00     0.008 A 
ATOM     15  C   UNL     1      -0.299  -1.077  -1.301  1.00  0.00     0.001 A 
ATOM     16  C   UNL     1      -0.941   0.145  -1.546  1.00  0.00     0.004 A 
ENDBRANCH   9  10
BRANCH   9  17
ATOM     17  C   UNL     1      -1.669   3.648  -1.855  1.00  0.00     0.020 C 
BRANCH  17  18
ATOM     18  C   UNL     1      -2.779   3.248  -2.857  1.00  0.00     0.004 C 
BRANCH  18  19
ATOM     19  C   UNL     1      -4.202   3.317  -2.305  1.00  0.00     0.032 C 
BRANCH  19  20
ATOM     20  C   UNL     1      -5.171   4.476  -2.561  1.00  0.00     0.118 C 
ATOM     21  C   UNL     1      -6.025   4.612  -3.794  1.00  0.00     0.034 C 
ATOM     22  O   UNL     1      -4.592   5.772  -2.386  1.00  0.00    -0.378 OA
ATOM     23  C   UNL     1      -6.686   5.958  -3.501  1.00  0.00     0.031 C 
ATOM     24  C   UNL     1      -5.631   6.722  -2.707  1.00  0.00     0.160 C 
ENDBRANCH  19  20
ENDBRANCH  18  19
ENDBRANCH  17  18
ENDBRANCH   9  17
ENDBRANCH   7   9
ENDBRANCH   6   7
ENDBRANCH   5   6
ENDBRANCH   4   5
ENDBRANCH   3   4
ENDBRANCH   2   3
ENDBRANCH   1   2
BRANCH   1  25
ATOM     25  O   UNL     1       1.014  -0.699   2.810  1.00  0.00    -0.377 OA
BRANCH  25  26
ATOM     26  C   UNL     1       0.050  -1.708   3.095  1.00  0.00     0.188 C 
BRANCH  26  27
ATOM     27  C   UNL     1      -0.358  -1.696   4.563  1.00  0.00     0.188 C 
BRANCH  27  28
ATOM     28  O   UNL     1      -0.212  -0.385   5.090  1.00  0.00    -0.376 OA
BRANCH  28  29
ATOM     29  C   UNL     1       1.037  -0.159   5.742  1.00  0.00     0.202 C 
BRANCH  29  30
ATOM     30  C   UNL     1       0.943  -0.737   7.147  1.00  0.00     0.261 C 
BRANCH  30  31
ATOM     31  O   UNL     1      -0.183  -0.104   7.808  1.00  0.00    -0.460 OA
BRANCH  31  32
ATOM     32  C   UNL     1      -1.403  -0.678   7.576  1.00  0.00     0.338 C 
ATOM     33  O   UNL     1      -1.624  -1.884   7.583  1.00  0.00    -0.246 OA
BRANCH  32  34
ATOM     34  C   UNL     1      -2.400   0.329   7.087  1.00  0.00     0.060 A 
ATOM     35  C   UNL     1      -3.724  -0.034   6.767  1.00  0.00     0.016 A 
ATOM     36  C   UNL     1      -1.941   1.563   6.670  1.00  0.00     0.016 A 
ATOM     37  C   UNL     1      -4.545   0.792   5.959  1.00  0.00     0.010 A 
ATOM     38  C   UNL     1      -2.727   2.313   5.811  1.00  0.00     0.010 A 
ATOM     39  C   UNL     1      -4.029   1.963   5.411  1.00  0.00    -0.014 A 
BRANCH  39  40
ATOM     40  C   UNL     1      -4.630   2.748   4.294  1.00  0.00     0.031 A 
ATOM     41  C   UNL     1      -4.593   4.256   4.373  1.00  0.00     0.074 A 
ATOM     42  C   UNL     1      -5.027   2.173   3.127  1.00  0.00     0.049 A 
ATOM     43  N   UNL     1      -5.665   5.005   4.398  1.00  0.00    -0.248 NA
ATOM     44  C   UNL     1      -3.363   5.029   4.615  1.00  0.00     0.031 C 
ATOM     45  C   UNL     1      -4.726   2.818   1.857  1.00  0.00     0.029 A 
ATOM     46  N   UNL     1      -5.461   0.882   2.750  1.00  0.00    -0.354 N 
ATOM     47  C   UNL     1      -5.205   6.316   4.512  1.00  0.00     0.074 A 
ATOM     48  C   UNL     1      -3.845   6.211   4.997  1.00  0.00     0.031 C 
ATOM     49  C   UNL     1      -5.014   1.989   0.854  1.00  0.00     0.029 A 
ATOM     50  C   UNL     1      -5.628   0.800   1.373  1.00  0.00     0.049 A 
ATOM     51  H   UNL     1      -5.622   0.142   3.378  1.00  0.00     0.167 HD
ATOM     52  C   UNL     1      -5.526   7.299   3.608  1.00  0.00     0.037 A 
ATOM     53  C   UNL     1      -6.486   0.109   0.588  1.00  0.00     0.037 A 
ATOM     54  C   UNL     1      -5.902   6.666   2.361  1.00  0.00     0.049 A 
ATOM     55  C   UNL     1      -7.433   1.149   0.072  1.00  0.00     0.074 A 
ATOM     56  C   UNL     1      -5.050   6.357   1.325  1.00  0.00     0.029 A 
ATOM     57  N   UNL     1      -7.060   5.908   2.189  1.00  0.00    -0.354 N 
ATOM     58  N   UNL     1      -7.617   2.231   0.800  1.00  0.00    -0.248 NA
ATOM     59  C   UNL     1      -8.014   1.262  -1.262  1.00  0.00     0.031 C 
ATOM     60  C   UNL     1      -5.683   5.360   0.581  1.00  0.00     0.029 A 
ATOM     61  C   UNL     1      -6.976   5.149   1.024  1.00  0.00     0.049 A 
ATOM     62  H   UNL     1      -7.829   5.910   2.804  1.00  0.00     0.167 HD
ATOM     63  C   UNL     1      -8.092   3.219   0.004  1.00  0.00     0.074 A 
ATOM     64  C   UNL     1      -8.427   2.546  -1.247  1.00  0.00     0.031 C 
ATOM     65  C   UNL     1      -8.131   4.535   0.365  1.00  0.00     0.037 A 
BRANCH  52  66
ATOM     66  C   UNL     1      -4.882   8.691   3.654  1.00  0.00     0.064 A 
ATOM     67  C   UNL     1      -4.641   9.467   2.495  1.00  0.00     0.173 A 
ATOM     68  C   UNL     1      -4.513   9.312   4.867  1.00  0.00     0.173 A 
ATOM     69  F   UNL     1      -5.001   9.042   1.277  1.00  0.00    -0.203 F 
ATOM     70  C   UNL     1      -4.024  10.724   2.544  1.00  0.00     0.198 A 
ATOM     71  C   UNL     1      -3.880  10.562   4.912  1.00  0.00     0.198 A 
ATOM     72  F   UNL     1      -4.749   8.709   6.043  1.00  0.00    -0.203 F 
ATOM     73  F   UNL     1      -3.812  11.408   1.409  1.00  0.00    -0.200 F 
ATOM     74  C   UNL     1      -3.636  11.268   3.751  1.00  0.00     0.200 A 
ATOM     75  F   UNL     1      -3.506  11.080   6.092  1.00  0.00    -0.200 F 
ATOM     76  F   UNL     1      -3.048  12.473   3.795  1.00  0.00    -0.200 F 
ENDBRANCH  52  66
BRANCH  53  77
ATOM     77  C   UNL     1      -6.367  -1.363   0.659  1.00  0.00     0.064 A 
ATOM     78  C   UNL     1      -5.301  -1.962  -0.060  1.00  0.00     0.173 A 
ATOM     79  C   UNL     1      -6.682  -1.929   1.898  1.00  0.00     0.173 A 
ATOM     80  F   UNL     1      -4.960  -1.499  -1.274  1.00  0.00    -0.203 F 
ATOM     81  C   UNL     1      -4.450  -2.897   0.547  1.00  0.00     0.198 A 
ATOM     82  C   UNL     1      -5.801  -2.816   2.522  1.00  0.00     0.198 A 
ATOM     83  F   UNL     1      -7.694  -1.418   2.613  1.00  0.00    -0.203 F 
ATOM     84  F   UNL     1      -3.342  -3.316  -0.085  1.00  0.00    -0.200 F 
ATOM     85  C   UNL     1      -4.663  -3.262   1.866  1.00  0.00     0.200 A 
ATOM     86  F   UNL     1      -5.982  -3.116   3.815  1.00  0.00    -0.200 F 
ATOM     87  F   UNL     1      -3.736  -3.970   2.528  1.00  0.00    -0.200 F 
ENDBRANCH  53  77
BRANCH  65  88
ATOM     88  C   UNL     1      -9.248   5.407  -0.107  1.00  0.00     0.064 A 
ATOM     89  C   UNL     1     -10.504   4.874  -0.445  1.00  0.00     0.173 A 
ATOM     90  C   UNL     1      -9.160   6.813  -0.048  1.00  0.00     0.173 A 
ATOM     91  F   UNL     1     -10.735   3.553  -0.430  1.00  0.00    -0.203 F 
ATOM     92  C   UNL     1     -11.575   5.692  -0.772  1.00  0.00     0.198 A 
ATOM     93  C   UNL     1     -10.262   7.623  -0.277  1.00  0.00     0.198 A 
ATOM     94  F   UNL     1      -8.018   7.445   0.250  1.00  0.00    -0.203 F 
ATOM     95  F   UNL     1     -12.728   5.137  -1.169  1.00  0.00    -0.200 F 
ATOM     96  C   UNL     1     -11.462   7.064  -0.664  1.00  0.00     0.200 A 
ATOM     97  F   UNL     1     -10.155   8.947  -0.105  1.00  0.00    -0.200 F 
ATOM     98  F   UNL     1     -12.513   7.848  -0.928  1.00  0.00    -0.200 F 
ENDBRANCH  65  88
ENDBRANCH  39  40
ENDBRANCH  32  34
ENDBRANCH  31  32
ENDBRANCH  30  31
ENDBRANCH  29  30
ENDBRANCH  28  29
ENDBRANCH  27  28
ENDBRANCH  26  27
ENDBRANCH  25  26
ENDBRANCH   1  25
TORSDOF 25
