REMARK SMILES CC[NH2+][C@]1(C(=O)OCCOCCOCCOCCOC(=O)c2ccc(-c3c4nc(c(-c5c(F)c(F)c(F)c(F)c5F)c5ccc([nH]5)c(-c5c(F)c(F)c(F)c(F)c5F)c5nc(c(-c6c(F)c(F)c(F)c(F)c6F)c6ccc3[nH]6)C=C5)C=C4)cc2)CC[C@@H]([N@@H+](C)CC(C)(C)C)C1
REMARK SMILES IDX 12 1 11 2 10 3 9 4 8 5 7 6 5 7 6 8 4 9 85 10 95 11 86 12
REMARK SMILES IDX 87 13 3 14 2 17 1 18 88 19 89 20 90 22 91 23 92 24 93 25
REMARK SMILES IDX 94 26 13 27 14 28 15 29 16 30 17 31 18 32 19 33 20 34 21 35
REMARK SMILES IDX 22 36 23 37 84 38 24 39 83 40 25 41 26 42 27 43 77 44 28 45
REMARK SMILES IDX 82 46 76 47 78 48 29 49 81 50 75 51 74 52 30 54 62 55 42 56
REMARK SMILES IDX 61 57 43 58 46 59 60 60 79 61 44 62 45 63 59 65 80 66 47 67
REMARK SMILES IDX 31 68 32 69 40 70 33 71 34 72 38 73 41 74 35 75 36 76 39 77
REMARK SMILES IDX 37 78 63 79 64 80 72 81 65 82 66 83 70 84 73 85 67 86 68 87
REMARK SMILES IDX 71 88 69 89 48 90 49 91 57 92 50 93 51 94 55 95 58 96 52 97
REMARK SMILES IDX 53 98 56 99 54 100
REMARK H PARENT 3 15 3 16 88 21 78 53 46 64
REMARK Flexibility Score: inf
ROOT
ATOM      1  C   UNL     1       1.728   1.089  -3.633  1.00  0.00     0.188 C 
ENDROOT
BRANCH   1   2
ATOM      2  C   UNL     1       2.789   1.308  -2.531  1.00  0.00     0.188 C 
BRANCH   2   3
ATOM      3  O   UNL     1       3.101   0.270  -1.614  1.00  0.00    -0.376 OA
BRANCH   3   4
ATOM      4  C   UNL     1       2.066  -0.545  -1.093  1.00  0.00     0.202 C 
BRANCH   4   5
ATOM      5  C   UNL     1       0.749   0.051  -0.552  1.00  0.00     0.261 C 
BRANCH   5   6
ATOM      6  O   UNL     1       0.248   1.257  -1.157  1.00  0.00    -0.459 OA
BRANCH   6   7
ATOM      7  C   UNL     1       0.489   2.411  -0.465  1.00  0.00     0.368 C 
ATOM      8  O   UNL     1       1.140   2.458   0.572  1.00  0.00    -0.245 OA
BRANCH   7   9
ATOM      9  C   UNL     1      -0.200   3.646  -1.132  1.00  0.00     0.200 C 
ATOM     10  C   UNL     1       0.140   4.918  -0.344  1.00  0.00     0.087 C 
ATOM     11  C   UNL     1       0.430   3.994  -2.501  1.00  0.00     0.146 C 
ATOM     12  C   UNL     1       0.005   6.077  -1.325  1.00  0.00     0.072 C 
ATOM     13  C   UNL     1       0.359   5.510  -2.701  1.00  0.00     0.191 C 
BRANCH   9  14
ATOM     14  N   UNL     1      -1.664   3.405  -1.279  1.00  0.00    -0.332 N 
ATOM     15  H   UNL     1      -2.053   4.117  -1.898  1.00  0.00     0.347 HD
ATOM     16  H   UNL     1      -1.790   2.469  -1.664  1.00  0.00     0.347 HD
BRANCH  14  17
ATOM     17  C   UNL     1      -2.368   3.462   0.006  1.00  0.00     0.257 C 
ATOM     18  C   UNL     1      -3.778   2.909  -0.091  1.00  0.00     0.071 C 
ENDBRANCH  14  17
ENDBRANCH   9  14
BRANCH  13  19
ATOM     19  N   UNL     1       1.457   6.122  -3.459  1.00  0.00    -0.334 N 
ATOM     20  C   UNL     1       1.129   7.425  -4.019  1.00  0.00     0.332 C 
ATOM     21  H   UNL     1       1.452   5.359  -4.136  1.00  0.00     0.348 HD
BRANCH  19  22
ATOM     22  C   UNL     1       2.888   5.872  -3.253  1.00  0.00     0.268 C 
BRANCH  22  23
ATOM     23  C   UNL     1       3.723   6.458  -2.064  1.00  0.00     0.011 C 
ATOM     24  C   UNL     1       3.426   5.748  -0.744  1.00  0.00     0.017 C 
ATOM     25  C   UNL     1       5.227   6.226  -2.350  1.00  0.00     0.017 C 
ATOM     26  C   UNL     1       3.509   7.966  -1.873  1.00  0.00     0.017 C 
ENDBRANCH  22  23
ENDBRANCH  19  22
ENDBRANCH  13  19
ENDBRANCH   7   9
ENDBRANCH   6   7
ENDBRANCH   5   6
ENDBRANCH   4   5
ENDBRANCH   3   4
ENDBRANCH   2   3
ENDBRANCH   1   2
BRANCH   1  27
ATOM     27  O   UNL     1       1.037  -0.144  -3.546  1.00  0.00    -0.377 OA
BRANCH  27  28
ATOM     28  C   UNL     1       1.455  -1.121  -4.485  1.00  0.00     0.188 C 
BRANCH  28  29
ATOM     29  C   UNL     1       2.974  -1.375  -4.581  1.00  0.00     0.188 C 
BRANCH  29  30
ATOM     30  O   UNL     1       3.740  -0.193  -4.780  1.00  0.00    -0.376 OA
BRANCH  30  31
ATOM     31  C   UNL     1       4.229   0.108  -6.078  1.00  0.00     0.202 C 
BRANCH  31  32
ATOM     32  C   UNL     1       3.208   0.537  -7.146  1.00  0.00     0.261 C 
BRANCH  32  33
ATOM     33  O   UNL     1       2.088  -0.337  -7.344  1.00  0.00    -0.460 OA
BRANCH  33  34
ATOM     34  C   UNL     1       2.343  -1.581  -7.801  1.00  0.00     0.338 C 
ATOM     35  O   UNL     1       3.428  -2.040  -8.116  1.00  0.00    -0.246 OA
BRANCH  34  36
ATOM     36  C   UNL     1       1.107  -2.380  -7.652  1.00  0.00     0.060 A 
ATOM     37  C   UNL     1       1.144  -3.528  -6.849  1.00  0.00     0.016 A 
ATOM     38  C   UNL     1      -0.087  -1.986  -8.263  1.00  0.00     0.016 A 
ATOM     39  C   UNL     1      -0.004  -4.301  -6.677  1.00  0.00     0.010 A 
ATOM     40  C   UNL     1      -1.229  -2.781  -8.118  1.00  0.00     0.010 A 
ATOM     41  C   UNL     1      -1.182  -3.959  -7.351  1.00  0.00    -0.014 A 
BRANCH  41  42
ATOM     42  C   UNL     1      -2.286  -4.945  -7.428  1.00  0.00     0.031 A 
ATOM     43  C   UNL     1      -2.356  -5.832  -8.642  1.00  0.00     0.074 A 
ATOM     44  C   UNL     1      -3.184  -5.080  -6.436  1.00  0.00     0.049 A 
ATOM     45  N   UNL     1      -3.247  -6.734  -8.966  1.00  0.00    -0.248 NA
ATOM     46  C   UNL     1      -1.271  -5.678  -9.626  1.00  0.00     0.031 C 
ATOM     47  C   UNL     1      -3.191  -4.318  -5.191  1.00  0.00     0.029 A 
ATOM     48  N   UNL     1      -4.275  -5.908  -6.331  1.00  0.00    -0.354 N 
ATOM     49  C   UNL     1      -2.834  -7.244 -10.190  1.00  0.00     0.074 A 
ATOM     50  C   UNL     1      -1.630  -6.539 -10.565  1.00  0.00     0.031 C 
ATOM     51  C   UNL     1      -4.248  -4.700  -4.452  1.00  0.00     0.029 A 
ATOM     52  C   UNL     1      -5.011  -5.707  -5.190  1.00  0.00     0.049 A 
ATOM     53  H   UNL     1      -4.507  -6.583  -7.010  1.00  0.00     0.167 HD
ATOM     54  C   UNL     1      -3.408  -8.220 -10.932  1.00  0.00     0.037 A 
ATOM     55  C   UNL     1      -6.183  -6.252  -4.805  1.00  0.00     0.037 A 
ATOM     56  C   UNL     1      -4.605  -8.923 -10.554  1.00  0.00     0.049 A 
ATOM     57  C   UNL     1      -6.843  -7.282  -5.692  1.00  0.00     0.074 A 
ATOM     58  C   UNL     1      -5.253  -9.943 -11.226  1.00  0.00     0.029 A 
ATOM     59  N   UNL     1      -5.339  -8.670  -9.405  1.00  0.00    -0.354 N 
ATOM     60  N   UNL     1      -6.433  -7.783  -6.832  1.00  0.00    -0.248 NA
ATOM     61  C   UNL     1      -8.131  -7.824  -5.234  1.00  0.00     0.031 C 
ATOM     62  C   UNL     1      -6.415 -10.263 -10.519  1.00  0.00     0.029 A 
ATOM     63  C   UNL     1      -6.452  -9.493  -9.367  1.00  0.00     0.049 A 
ATOM     64  H   UNL     1      -5.104  -8.004  -8.718  1.00  0.00     0.167 HD
ATOM     65  C   UNL     1      -7.388  -8.721  -7.206  1.00  0.00     0.074 A 
ATOM     66  C   UNL     1      -8.391  -8.732  -6.163  1.00  0.00     0.031 C 
ATOM     67  C   UNL     1      -7.433  -9.504  -8.312  1.00  0.00     0.037 A 
BRANCH  54  68
ATOM     68  C   UNL     1      -2.772  -8.568 -12.245  1.00  0.00     0.064 A 
ATOM     69  C   UNL     1      -1.550  -9.252 -12.318  1.00  0.00     0.173 A 
ATOM     70  C   UNL     1      -3.428  -8.266 -13.448  1.00  0.00     0.173 A 
ATOM     71  F   UNL     1      -0.873  -9.549 -11.198  1.00  0.00    -0.203 F 
ATOM     72  C   UNL     1      -1.003  -9.610 -13.548  1.00  0.00     0.198 A 
ATOM     73  C   UNL     1      -2.894  -8.652 -14.673  1.00  0.00     0.198 A 
ATOM     74  F   UNL     1      -4.600  -7.612 -13.433  1.00  0.00    -0.203 F 
ATOM     75  F   UNL     1       0.184 -10.231 -13.596  1.00  0.00    -0.200 F 
ATOM     76  C   UNL     1      -1.680  -9.320 -14.723  1.00  0.00     0.200 A 
ATOM     77  F   UNL     1      -3.558  -8.383 -15.806  1.00  0.00    -0.200 F 
ATOM     78  F   UNL     1      -1.162  -9.682 -15.904  1.00  0.00    -0.200 F 
ENDBRANCH  54  68
BRANCH  55  79
ATOM     79  C   UNL     1      -6.837  -5.821  -3.539  1.00  0.00     0.064 A 
ATOM     80  C   UNL     1      -7.025  -6.715  -2.475  1.00  0.00     0.173 A 
ATOM     81  C   UNL     1      -7.343  -4.521  -3.390  1.00  0.00     0.173 A 
ATOM     82  F   UNL     1      -6.586  -7.979  -2.576  1.00  0.00    -0.203 F 
ATOM     83  C   UNL     1      -7.724  -6.337  -1.329  1.00  0.00     0.198 A 
ATOM     84  C   UNL     1      -8.009  -4.133  -2.229  1.00  0.00     0.198 A 
ATOM     85  F   UNL     1      -7.195  -3.625  -4.377  1.00  0.00    -0.203 F 
ATOM     86  F   UNL     1      -7.951  -7.234  -0.359  1.00  0.00    -0.200 F 
ATOM     87  C   UNL     1      -8.211  -5.045  -1.205  1.00  0.00     0.200 A 
ATOM     88  F   UNL     1      -8.467  -2.880  -2.109  1.00  0.00    -0.200 F 
ATOM     89  F   UNL     1      -8.889  -4.684  -0.107  1.00  0.00    -0.200 F 
ENDBRANCH  55  79
BRANCH  67  90
ATOM     90  C   UNL     1      -8.572 -10.478  -8.431  1.00  0.00     0.064 A 
ATOM     91  C   UNL     1      -9.889 -10.055  -8.663  1.00  0.00     0.173 A 
ATOM     92  C   UNL     1      -8.331 -11.859  -8.359  1.00  0.00     0.173 A 
ATOM     93  F   UNL     1     -10.176  -8.746  -8.730  1.00  0.00    -0.203 F 
ATOM     94  C   UNL     1     -10.926 -10.976  -8.785  1.00  0.00     0.198 A 
ATOM     95  C   UNL     1      -9.364 -12.778  -8.519  1.00  0.00     0.198 A 
ATOM     96  F   UNL     1      -7.088 -12.320  -8.151  1.00  0.00    -0.203 F 
ATOM     97  F   UNL     1     -12.185 -10.547  -8.950  1.00  0.00    -0.200 F 
ATOM     98  C   UNL     1     -10.662 -12.336  -8.722  1.00  0.00     0.200 A 
ATOM     99  F   UNL     1      -9.102 -14.092  -8.477  1.00  0.00    -0.200 F 
ATOM    100  F   UNL     1     -11.660 -13.221  -8.850  1.00  0.00    -0.200 F 
ENDBRANCH  67  90
ENDBRANCH  41  42
ENDBRANCH  34  36
ENDBRANCH  33  34
ENDBRANCH  32  33
ENDBRANCH  31  32
ENDBRANCH  30  31
ENDBRANCH  29  30
ENDBRANCH  28  29
ENDBRANCH  27  28
ENDBRANCH   1  27
TORSDOF 25
