REMARK SMILES CCCN1C(=O)/C(=C\c2ccc(OC)c(OC)c2C(=O)OCCOCCOCCOCCOC(=O)c2ccc(-c3c4nc(c(-c5c(F)c(F)c(F)c(F)c5F)c5ccc([nH]5)c(-c5c(F)c(F)c(F)c(F)c5F)c5nc(c(-c6c(F)c(F)c(F)c(F)c6F)c6ccc3[nH]6)C=C5)C=C4)cc2)S/C1=[NH+]\c1nccs1
REMARK SMILES IDX 26 1 25 2 24 3 23 4 22 5 21 6 19 7 20 8 18 9 9 10 10 11
REMARK SMILES IDX 11 12 15 13 12 14 8 15 4 16 5 17 100 18 6 19 7 20 99 21
REMARK SMILES IDX 101 22 3 24 2 25 1 26 102 27 103 28 106 29 104 30 105 31
REMARK SMILES IDX 16 32 17 33 13 34 14 35 27 36 28 37 29 38 30 39 31 40 32 41
REMARK SMILES IDX 33 42 34 43 35 44 36 45 37 46 98 47 38 48 97 49 39 50 40 51
REMARK SMILES IDX 41 52 91 53 42 54 96 55 90 56 92 57 43 58 95 59 89 60 88 61
REMARK SMILES IDX 44 63 76 64 56 65 75 66 57 67 60 68 74 69 93 70 58 71 59 72
REMARK SMILES IDX 73 74 94 75 61 76 45 77 46 78 54 79 47 80 48 81 52 82 55 83
REMARK SMILES IDX 49 84 50 85 53 86 51 87 77 88 78 89 86 90 79 91 80 92 84 93
REMARK SMILES IDX 87 94 81 95 82 96 85 97 83 98 62 99 63 100 71 101 64 102
REMARK SMILES IDX 65 103 69 104 72 105 66 106 67 107 70 108 68 109
REMARK H PARENT 101 23 92 62 60 73
REMARK Flexibility Score: inf
ROOT
ATOM      1  C   UNL     1       2.064   4.886  -6.333  1.00  0.00     0.188 C 
ENDROOT
BRANCH   1   2
ATOM      2  C   UNL     1       3.224   5.222  -5.376  1.00  0.00     0.188 C 
BRANCH   2   3
ATOM      3  O   UNL     1       4.136   4.154  -5.178  1.00  0.00    -0.376 OA
BRANCH   3   4
ATOM      4  C   UNL     1       4.036   3.394  -3.986  1.00  0.00     0.202 C 
BRANCH   4   5
ATOM      5  C   UNL     1       2.675   2.845  -3.552  1.00  0.00     0.261 C 
BRANCH   5   6
ATOM      6  O   UNL     1       1.558   3.725  -3.740  1.00  0.00    -0.460 OA
BRANCH   6   7
ATOM      7  C   UNL     1       1.266   4.664  -2.803  1.00  0.00     0.342 C 
ATOM      8  O   UNL     1       1.894   4.845  -1.790  1.00  0.00    -0.246 OA
BRANCH   7   9
ATOM      9  C   UNL     1       0.109   5.476  -3.328  1.00  0.00     0.113 A 
ATOM     10  C   UNL     1      -0.996   4.854  -3.991  1.00  0.00    -0.006 A 
ATOM     11  C   UNL     1      -2.005   5.664  -4.521  1.00  0.00     0.013 A 
ATOM     12  C   UNL     1      -1.944   7.049  -4.385  1.00  0.00     0.051 A 
ATOM     13  C   UNL     1       0.162   6.891  -3.199  1.00  0.00     0.175 A 
ATOM     14  C   UNL     1      -0.878   7.677  -3.728  1.00  0.00     0.161 A 
BRANCH  10  15
ATOM     15  C   UNL     1      -1.163   3.399  -4.246  1.00  0.00     0.032 C 
ATOM     16  N   UNL     1       0.138   1.736  -1.477  1.00  0.00    -0.219 N 
ATOM     17  C   UNL     1      -0.790   2.664  -1.891  1.00  0.00     0.321 C 
ATOM     18  C   UNL     1       0.306   0.642  -2.293  1.00  0.00     0.271 C 
ATOM     19  O   UNL     1      -1.268   3.577  -1.237  1.00  0.00    -0.250 OA
ATOM     20  C   UNL     1      -1.070   2.427  -3.326  1.00  0.00     0.100 C 
ATOM     21  S   UNL     1      -0.770   0.763  -3.681  1.00  0.00    -0.012 SA
ATOM     22  N   UNL     1       1.156  -0.278  -1.998  1.00  0.00    -0.228 N 
ATOM     23  H   UNL     1       1.771  -0.158  -1.239  1.00  0.00     0.268 HD
BRANCH  16  24
ATOM     24  C   UNL     1       0.930   1.994  -0.282  1.00  0.00     0.206 C 
BRANCH  24  25
ATOM     25  C   UNL     1       0.408   1.309   0.976  1.00  0.00     0.035 C 
ATOM     26  C   UNL     1       0.697  -0.182   1.013  1.00  0.00     0.007 C 
ENDBRANCH  24  25
ENDBRANCH  16  24
BRANCH  22  27
ATOM     27  C   UNL     1       1.198  -1.408  -2.732  1.00  0.00     0.319 A 
ATOM     28  N   UNL     1       1.902  -1.633  -3.821  1.00  0.00    -0.101 NA
ATOM     29  S   UNL     1       0.384  -2.804  -2.102  1.00  0.00    -0.070 S 
ATOM     30  C   UNL     1       1.850  -2.974  -4.150  1.00  0.00     0.219 A 
ATOM     31  C   UNL     1       1.073  -3.762  -3.333  1.00  0.00     0.110 A 
ENDBRANCH  22  27
ENDBRANCH  10  15
BRANCH  13  32
ATOM     32  O   UNL     1       1.142   7.491  -2.447  1.00  0.00    -0.492 OA
ATOM     33  C   UNL     1       2.364   7.712  -3.151  1.00  0.00     0.278 C 
ENDBRANCH  13  32
BRANCH  14  34
ATOM     34  O   UNL     1      -1.050   9.034  -3.690  1.00  0.00    -0.493 OA
ATOM     35  C   UNL     1       0.008   9.872  -3.263  1.00  0.00     0.278 C 
ENDBRANCH  14  34
ENDBRANCH   7   9
ENDBRANCH   6   7
ENDBRANCH   5   6
ENDBRANCH   4   5
ENDBRANCH   3   4
ENDBRANCH   2   3
ENDBRANCH   1   2
BRANCH   1  36
ATOM     36  O   UNL     1       1.916   3.510  -6.636  1.00  0.00    -0.377 OA
BRANCH  36  37
ATOM     37  C   UNL     1       2.949   2.864  -7.383  1.00  0.00     0.188 C 
BRANCH  37  38
ATOM     38  C   UNL     1       4.237   3.596  -7.853  1.00  0.00     0.188 C 
BRANCH  38  39
ATOM     39  O   UNL     1       4.118   5.004  -7.985  1.00  0.00    -0.376 OA
BRANCH  39  40
ATOM     40  C   UNL     1       4.088   5.571  -9.280  1.00  0.00     0.202 C 
BRANCH  40  41
ATOM     41  C   UNL     1       2.848   5.260 -10.127  1.00  0.00     0.261 C 
BRANCH  41  42
ATOM     42  O   UNL     1       2.541   3.868 -10.282  1.00  0.00    -0.460 OA
BRANCH  42  43
ATOM     43  C   UNL     1       3.451   3.116 -10.936  1.00  0.00     0.338 C 
ATOM     44  O   UNL     1       4.490   3.491 -11.448  1.00  0.00    -0.246 OA
BRANCH  43  45
ATOM     45  C   UNL     1       3.074   1.700 -10.756  1.00  0.00     0.060 A 
ATOM     46  C   UNL     1       4.004   0.821 -10.185  1.00  0.00     0.016 A 
ATOM     47  C   UNL     1       1.809   1.248 -11.142  1.00  0.00     0.016 A 
ATOM     48  C   UNL     1       3.696  -0.530 -10.062  1.00  0.00     0.010 A 
ATOM     49  C   UNL     1       1.510  -0.111 -11.044  1.00  0.00     0.010 A 
ATOM     50  C   UNL     1       2.477  -1.009 -10.557  1.00  0.00    -0.014 A 
BRANCH  50  51
ATOM     51  C   UNL     1       2.353  -2.457 -10.839  1.00  0.00     0.031 A 
ATOM     52  C   UNL     1       2.692  -2.925 -12.228  1.00  0.00     0.074 A 
ATOM     53  C   UNL     1       2.009  -3.337  -9.886  1.00  0.00     0.049 A 
ATOM     54  N   UNL     1       2.689  -4.135 -12.726  1.00  0.00    -0.248 NA
ATOM     55  C   UNL     1       3.084  -1.881 -13.190  1.00  0.00     0.031 C 
ATOM     56  C   UNL     1       1.679  -3.002  -8.505  1.00  0.00     0.029 A 
ATOM     57  N   UNL     1       1.879  -4.702  -9.947  1.00  0.00    -0.354 N 
ATOM     58  C   UNL     1       3.072  -3.993 -14.054  1.00  0.00     0.074 A 
ATOM     59  C   UNL     1       3.259  -2.581 -14.298  1.00  0.00     0.031 C 
ATOM     60  C   UNL     1       1.373  -4.136  -7.849  1.00  0.00     0.029 A 
ATOM     61  C   UNL     1       1.482  -5.270  -8.764  1.00  0.00     0.049 A 
ATOM     62  H   UNL     1       2.055  -5.224 -10.764  1.00  0.00     0.167 HD
ATOM     63  C   UNL     1       3.262  -4.956 -14.985  1.00  0.00     0.037 A 
ATOM     64  C   UNL     1       1.230  -6.558  -8.462  1.00  0.00     0.037 A 
ATOM     65  C   UNL     1       3.068  -6.359 -14.740  1.00  0.00     0.049 A 
ATOM     66  C   UNL     1       1.410  -7.609  -9.529  1.00  0.00     0.074 A 
ATOM     67  C   UNL     1       3.236  -7.420 -15.611  1.00  0.00     0.029 A 
ATOM     68  N   UNL     1       2.654  -6.896 -13.529  1.00  0.00    -0.354 N 
ATOM     69  N   UNL     1       1.800  -7.473 -10.773  1.00  0.00    -0.248 NA
ATOM     70  C   UNL     1       1.122  -8.997  -9.141  1.00  0.00     0.031 C 
ATOM     71  C   UNL     1       2.868  -8.593 -14.945  1.00  0.00     0.029 A 
ATOM     72  C   UNL     1       2.540  -8.272 -13.637  1.00  0.00     0.049 A 
ATOM     73  H   UNL     1       2.467  -6.375 -12.714  1.00  0.00     0.167 HD
ATOM     74  C   UNL     1       1.837  -8.756 -11.306  1.00  0.00     0.074 A 
ATOM     75  C   UNL     1       1.450  -9.658 -10.242  1.00  0.00     0.031 C 
ATOM     76  C   UNL     1       2.161  -9.155 -12.562  1.00  0.00     0.037 A 
BRANCH  63  77
ATOM     77  C   UNL     1       3.668  -4.513 -16.361  1.00  0.00     0.064 A 
ATOM     78  C   UNL     1       4.933  -3.964 -16.621  1.00  0.00     0.173 A 
ATOM     79  C   UNL     1       2.779  -4.647 -17.438  1.00  0.00     0.173 A 
ATOM     80  F   UNL     1       5.813  -3.792 -15.622  1.00  0.00    -0.203 F 
ATOM     81  C   UNL     1       5.282  -3.539 -17.900  1.00  0.00     0.198 A 
ATOM     82  C   UNL     1       3.144  -4.254 -18.723  1.00  0.00     0.198 A 
ATOM     83  F   UNL     1       1.556  -5.162 -17.246  1.00  0.00    -0.203 F 
ATOM     84  F   UNL     1       6.474  -2.964 -18.113  1.00  0.00    -0.200 F 
ATOM     85  C   UNL     1       4.390  -3.692 -18.951  1.00  0.00     0.200 A 
ATOM     86  F   UNL     1       2.285  -4.413 -19.739  1.00  0.00    -0.200 F 
ATOM     87  F   UNL     1       4.729  -3.289 -20.184  1.00  0.00    -0.200 F 
ENDBRANCH  63  77
BRANCH  64  88
ATOM     88  C   UNL     1       0.795  -6.936  -7.090  1.00  0.00     0.064 A 
ATOM     89  C   UNL     1       1.611  -7.721  -6.261  1.00  0.00     0.173 A 
ATOM     90  C   UNL     1      -0.455  -6.545  -6.589  1.00  0.00     0.173 A 
ATOM     91  F   UNL     1       2.808  -8.136  -6.699  1.00  0.00    -0.203 F 
ATOM     92  C   UNL     1       1.182  -8.121  -4.997  1.00  0.00     0.198 A 
ATOM     93  C   UNL     1      -0.868  -6.917  -5.312  1.00  0.00     0.198 A 
ATOM     94  F   UNL     1      -1.272  -5.790  -7.337  1.00  0.00    -0.203 F 
ATOM     95  F   UNL     1       1.961  -8.911  -4.247  1.00  0.00    -0.200 F 
ATOM     96  C   UNL     1      -0.055  -7.714  -4.521  1.00  0.00     0.200 A 
ATOM     97  F   UNL     1      -2.052  -6.500  -4.845  1.00  0.00    -0.200 F 
ATOM     98  F   UNL     1      -0.460  -8.086  -3.300  1.00  0.00    -0.200 F 
ENDBRANCH  64  88
BRANCH  76  99
ATOM     99  C   UNL     1       2.162 -10.633 -12.836  1.00  0.00     0.064 A 
ATOM    100  C   UNL     1       0.980 -11.389 -12.854  1.00  0.00     0.173 A 
ATOM    101  C   UNL     1       3.370 -11.302 -13.095  1.00  0.00     0.173 A 
ATOM    102  F   UNL     1      -0.200 -10.802 -12.602  1.00  0.00    -0.203 F 
ATOM    103  C   UNL     1       1.012 -12.764 -13.072  1.00  0.00     0.198 A 
ATOM    104  C   UNL     1       3.393 -12.669 -13.353  1.00  0.00     0.198 A 
ATOM    105  F   UNL     1       4.529 -10.627 -13.104  1.00  0.00    -0.203 F 
ATOM    106  F   UNL     1      -0.122 -13.475 -13.012  1.00  0.00    -0.200 F 
ATOM    107  C   UNL     1       2.216 -13.401 -13.327  1.00  0.00     0.200 A 
ATOM    108  F   UNL     1       4.556 -13.279 -13.618  1.00  0.00    -0.200 F 
ATOM    109  F   UNL     1       2.245 -14.725 -13.536  1.00  0.00    -0.200 F 
ENDBRANCH  76  99
ENDBRANCH  50  51
ENDBRANCH  43  45
ENDBRANCH  42  43
ENDBRANCH  41  42
ENDBRANCH  40  41
ENDBRANCH  39  40
ENDBRANCH  38  39
ENDBRANCH  37  38
ENDBRANCH  36  37
ENDBRANCH   1  36
TORSDOF 26
