REMARK SMILES Cc1cc(C(=O)OCCOCCOCCOCCOC(=O)c2ccc(-c3c4nc(c(-c5c(F)c(F)c(F)c(F)c5F)c5ccc([nH]5)c(-c5c(F)c(F)c(F)c(F)c5F)c5nc(c(-c6c(F)c(F)c(F)c(F)c6F)c6ccc3[nH]6)C=C5)C=C4)cc2)ccc1NC(=O)c1ccc(=O)n(CCOc2ccccc2)n1
REMARK SMILES IDX 11 1 10 2 9 3 8 4 7 5 5 6 6 7 4 8 1 9 2 10 3 11 87 12 86 13
REMARK SMILES IDX 85 14 88 15 89 16 90 18 91 19 92 20 106 21 93 22 96 23 94 24
REMARK SMILES IDX 95 25 97 26 98 27 99 28 100 29 101 30 105 31 102 32 104 33
REMARK SMILES IDX 103 34 12 35 13 36 14 37 15 38 16 39 17 40 18 41 19 42 20 43
REMARK SMILES IDX 21 44 22 45 23 46 84 47 24 48 83 49 25 50 26 51 27 52 77 53
REMARK SMILES IDX 28 54 82 55 76 56 78 57 29 58 81 59 75 60 74 61 30 63 62 64
REMARK SMILES IDX 42 65 61 66 43 67 46 68 60 69 79 70 44 71 45 72 59 74 80 75
REMARK SMILES IDX 47 76 31 77 32 78 40 79 33 80 34 81 38 82 41 83 35 84 36 85
REMARK SMILES IDX 39 86 37 87 63 88 64 89 72 90 65 91 66 92 70 93 73 94 67 95
REMARK SMILES IDX 68 96 71 97 69 98 48 99 49 100 57 101 50 102 51 103 55 104
REMARK SMILES IDX 58 105 52 106 53 107 56 108 54 109
REMARK H PARENT 88 17 78 62 46 73
REMARK Flexibility Score: inf
ROOT
ATOM      1  C   UNL     1       0.393  -2.260  -2.042  1.00  0.00     0.188 C 
ENDROOT
BRANCH   1   2
ATOM      2  O   UNL     1       0.185  -3.667  -2.074  1.00  0.00    -0.376 OA
BRANCH   2   3
ATOM      3  C   UNL     1      -0.677  -4.185  -1.060  1.00  0.00     0.202 C 
BRANCH   3   4
ATOM      4  C   UNL     1      -0.138  -4.151   0.371  1.00  0.00     0.261 C 
BRANCH   4   5
ATOM      5  O   UNL     1      -0.291  -2.834   0.900  1.00  0.00    -0.460 OA
BRANCH   5   6
ATOM      6  C   UNL     1       0.751  -2.381   1.630  1.00  0.00     0.338 C 
ATOM      7  O   UNL     1       1.583  -3.039   2.219  1.00  0.00    -0.246 OA
BRANCH   6   8
ATOM      8  C   UNL     1       0.886  -0.948   1.297  1.00  0.00     0.060 A 
ATOM      9  C   UNL     1       3.764   1.135   0.042  1.00  0.00     0.046 C 
ATOM     10  C   UNL     1       2.367   0.832   0.514  1.00  0.00    -0.027 A 
ATOM     11  C   UNL     1       2.168  -0.460   1.047  1.00  0.00     0.021 A 
ATOM     12  C   UNL     1       1.255   1.672   0.307  1.00  0.00     0.044 A 
ATOM     13  C   UNL     1      -0.009   1.096   0.436  1.00  0.00     0.027 A 
ATOM     14  C   UNL     1      -0.212  -0.176   0.956  1.00  0.00     0.018 A 
BRANCH  12  15
ATOM     15  N   UNL     1       1.446   3.054   0.063  1.00  0.00    -0.320 N 
ATOM     16  C   UNL     1       0.565   4.126   0.040  1.00  0.00     0.276 C 
ATOM     17  H   UNL     1       2.380   3.301  -0.126  1.00  0.00     0.170 HD
ATOM     18  O   UNL     1       0.966   5.284  -0.021  1.00  0.00    -0.267 OA
BRANCH  16  19
ATOM     19  C   UNL     1      -0.925   3.877  -0.055  1.00  0.00     0.149 A 
ATOM     20  C   UNL     1      -1.415   3.764  -1.441  1.00  0.00     0.042 A 
ATOM     21  N   UNL     1      -1.643   3.688   1.014  1.00  0.00    -0.164 NA
ATOM     22  C   UNL     1      -2.530   3.051  -1.598  1.00  0.00     0.076 A 
ATOM     23  N   UNL     1      -2.900   3.109   0.802  1.00  0.00    -0.226 N 
ATOM     24  C   UNL     1      -3.253   2.525  -0.415  1.00  0.00     0.266 A 
ATOM     25  O   UNL     1      -4.140   1.694  -0.581  1.00  0.00    -0.268 OA
BRANCH  23  26
ATOM     26  C   UNL     1      -3.753   2.906   1.978  1.00  0.00     0.190 C 
BRANCH  26  27
ATOM     27  C   UNL     1      -4.603   4.140   2.325  1.00  0.00     0.253 C 
BRANCH  27  28
ATOM     28  O   UNL     1      -5.822   4.207   1.551  1.00  0.00    -0.492 OA
BRANCH  28  29
ATOM     29  C   UNL     1      -5.764   5.200   0.612  1.00  0.00     0.119 A 
ATOM     30  C   UNL     1      -6.173   6.496   0.904  1.00  0.00     0.046 A 
ATOM     31  C   UNL     1      -5.354   4.883  -0.676  1.00  0.00     0.046 A 
ATOM     32  C   UNL     1      -6.048   7.490  -0.072  1.00  0.00     0.004 A 
ATOM     33  C   UNL     1      -5.152   5.879  -1.625  1.00  0.00     0.004 A 
ATOM     34  C   UNL     1      -5.495   7.191  -1.319  1.00  0.00     0.000 A 
ENDBRANCH  28  29
ENDBRANCH  27  28
ENDBRANCH  26  27
ENDBRANCH  23  26
ENDBRANCH  16  19
ENDBRANCH  12  15
ENDBRANCH   6   8
ENDBRANCH   5   6
ENDBRANCH   4   5
ENDBRANCH   3   4
ENDBRANCH   2   3
ENDBRANCH   1   2
BRANCH   1  35
ATOM     35  C   UNL     1      -0.435  -1.402  -3.002  1.00  0.00     0.188 C 
BRANCH  35  36
ATOM     36  O   UNL     1      -1.764  -1.085  -2.599  1.00  0.00    -0.377 OA
BRANCH  36  37
ATOM     37  C   UNL     1      -2.825  -1.937  -3.034  1.00  0.00     0.188 C 
BRANCH  37  38
ATOM     38  C   UNL     1      -2.764  -2.437  -4.479  1.00  0.00     0.188 C 
BRANCH  38  39
ATOM     39  O   UNL     1      -1.915  -3.586  -4.519  1.00  0.00    -0.376 OA
BRANCH  39  40
ATOM     40  C   UNL     1      -1.218  -3.792  -5.747  1.00  0.00     0.202 C 
BRANCH  40  41
ATOM     41  C   UNL     1      -2.129  -4.158  -6.924  1.00  0.00     0.261 C 
BRANCH  41  42
ATOM     42  O   UNL     1      -2.740  -5.436  -6.670  1.00  0.00    -0.460 OA
BRANCH  42  43
ATOM     43  C   UNL     1      -4.057  -5.380  -6.343  1.00  0.00     0.338 C 
ATOM     44  O   UNL     1      -4.918  -4.797  -6.978  1.00  0.00    -0.246 OA
BRANCH  43  45
ATOM     45  C   UNL     1      -4.245  -5.898  -4.959  1.00  0.00     0.060 A 
ATOM     46  C   UNL     1      -5.457  -5.664  -4.290  1.00  0.00     0.016 A 
ATOM     47  C   UNL     1      -3.138  -6.342  -4.242  1.00  0.00     0.016 A 
ATOM     48  C   UNL     1      -5.507  -5.715  -2.889  1.00  0.00     0.010 A 
ATOM     49  C   UNL     1      -3.174  -6.308  -2.861  1.00  0.00     0.010 A 
ATOM     50  C   UNL     1      -4.333  -5.937  -2.163  1.00  0.00    -0.014 A 
BRANCH  50  51
ATOM     51  C   UNL     1      -4.134  -5.561  -0.748  1.00  0.00     0.031 A 
ATOM     52  C   UNL     1      -3.378  -6.443   0.203  1.00  0.00     0.074 A 
ATOM     53  C   UNL     1      -4.309  -4.254  -0.419  1.00  0.00     0.049 A 
ATOM     54  N   UNL     1      -3.123  -6.131   1.433  1.00  0.00    -0.248 NA
ATOM     55  C   UNL     1      -2.848  -7.767  -0.131  1.00  0.00     0.031 C 
ATOM     56  C   UNL     1      -3.558  -3.503   0.592  1.00  0.00     0.029 A 
ATOM     57  N   UNL     1      -5.130  -3.275  -0.971  1.00  0.00    -0.354 N 
ATOM     58  C   UNL     1      -2.125  -6.961   1.892  1.00  0.00     0.074 A 
ATOM     59  C   UNL     1      -2.095  -8.044   0.943  1.00  0.00     0.031 C 
ATOM     60  C   UNL     1      -3.976  -2.231   0.636  1.00  0.00     0.029 A 
ATOM     61  C   UNL     1      -5.210  -2.173  -0.110  1.00  0.00     0.049 A 
ATOM     62  H   UNL     1      -5.587  -3.347  -1.839  1.00  0.00     0.167 HD
ATOM     63  C   UNL     1      -1.331  -6.543   2.924  1.00  0.00     0.037 A 
ATOM     64  C   UNL     1      -6.388  -1.825   0.495  1.00  0.00     0.037 A 
ATOM     65  C   UNL     1      -1.839  -5.317   3.564  1.00  0.00     0.049 A 
ATOM     66  C   UNL     1      -6.380  -2.094   1.988  1.00  0.00     0.074 A 
ATOM     67  C   UNL     1      -1.274  -4.105   3.921  1.00  0.00     0.029 A 
ATOM     68  N   UNL     1      -3.205  -5.187   3.826  1.00  0.00    -0.354 N 
ATOM     69  N   UNL     1      -5.541  -2.929   2.550  1.00  0.00    -0.248 NA
ATOM     70  C   UNL     1      -7.221  -1.425   2.977  1.00  0.00     0.031 C 
ATOM     71  C   UNL     1      -2.325  -3.211   4.270  1.00  0.00     0.029 A 
ATOM     72  C   UNL     1      -3.519  -3.914   4.245  1.00  0.00     0.049 A 
ATOM     73  H   UNL     1      -3.861  -5.914   3.723  1.00  0.00     0.167 HD
ATOM     74  C   UNL     1      -5.664  -2.880   3.906  1.00  0.00     0.074 A 
ATOM     75  C   UNL     1      -6.757  -1.952   4.128  1.00  0.00     0.031 C 
ATOM     76  C   UNL     1      -4.852  -3.595   4.737  1.00  0.00     0.037 A 
BRANCH  63  77
ATOM     77  C   UNL     1       0.049  -7.112   3.250  1.00  0.00     0.064 A 
ATOM     78  C   UNL     1       0.679  -6.809   4.480  1.00  0.00     0.173 A 
ATOM     79  C   UNL     1       0.853  -7.846   2.350  1.00  0.00     0.173 A 
ATOM     80  F   UNL     1       0.035  -6.120   5.433  1.00  0.00    -0.203 F 
ATOM     81  C   UNL     1       1.994  -7.199   4.775  1.00  0.00     0.198 A 
ATOM     82  C   UNL     1       2.140  -8.297   2.675  1.00  0.00     0.198 A 
ATOM     83  F   UNL     1       0.455  -8.108   1.100  1.00  0.00    -0.203 F 
ATOM     84  F   UNL     1       2.557  -6.831   5.936  1.00  0.00    -0.200 F 
ATOM     85  C   UNL     1       2.717  -7.960   3.881  1.00  0.00     0.200 A 
ATOM     86  F   UNL     1       2.824  -9.044   1.795  1.00  0.00    -0.200 F 
ATOM     87  F   UNL     1       3.964  -8.358   4.171  1.00  0.00    -0.200 F 
ENDBRANCH  63  77
BRANCH  64  88
ATOM     88  C   UNL     1      -7.518  -1.773  -0.472  1.00  0.00     0.064 A 
ATOM     89  C   UNL     1      -7.432  -0.706  -1.391  1.00  0.00     0.173 A 
ATOM     90  C   UNL     1      -8.115  -2.962  -0.920  1.00  0.00     0.173 A 
ATOM     91  F   UNL     1      -6.934   0.474  -0.993  1.00  0.00    -0.203 F 
ATOM     92  C   UNL     1      -7.658  -0.909  -2.750  1.00  0.00     0.198 A 
ATOM     93  C   UNL     1      -8.364  -3.153  -2.283  1.00  0.00     0.198 A 
ATOM     94  F   UNL     1      -8.257  -4.003  -0.088  1.00  0.00    -0.203 F 
ATOM     95  F   UNL     1      -7.348   0.053  -3.631  1.00  0.00    -0.200 F 
ATOM     96  C   UNL     1      -8.071  -2.151  -3.200  1.00  0.00     0.200 A 
ATOM     97  F   UNL     1      -8.749  -4.358  -2.730  1.00  0.00    -0.200 F 
ATOM     98  F   UNL     1      -8.115  -2.407  -4.515  1.00  0.00    -0.200 F 
ENDBRANCH  64  88
BRANCH  76  99
ATOM     99  C   UNL     1      -5.212  -4.040   6.135  1.00  0.00     0.064 A 
ATOM    100  C   UNL     1      -6.539  -4.206   6.561  1.00  0.00     0.173 A 
ATOM    101  C   UNL     1      -4.221  -4.557   7.009  1.00  0.00     0.173 A 
ATOM    102  F   UNL     1      -7.572  -3.849   5.787  1.00  0.00    -0.203 F 
ATOM    103  C   UNL     1      -6.852  -4.815   7.778  1.00  0.00     0.198 A 
ATOM    104  C   UNL     1      -4.541  -5.211   8.196  1.00  0.00     0.198 A 
ATOM    105  F   UNL     1      -2.914  -4.486   6.722  1.00  0.00    -0.203 F 
ATOM    106  F   UNL     1      -8.136  -4.936   8.144  1.00  0.00    -0.200 F 
ATOM    107  C   UNL     1      -5.857  -5.333   8.585  1.00  0.00     0.200 A 
ATOM    108  F   UNL     1      -3.566  -5.752   8.941  1.00  0.00    -0.200 F 
ATOM    109  F   UNL     1      -6.168  -5.970   9.721  1.00  0.00    -0.200 F 
ENDBRANCH  76  99
ENDBRANCH  50  51
ENDBRANCH  43  45
ENDBRANCH  42  43
ENDBRANCH  41  42
ENDBRANCH  40  41
ENDBRANCH  39  40
ENDBRANCH  38  39
ENDBRANCH  37  38
ENDBRANCH  36  37
ENDBRANCH  35  36
ENDBRANCH   1  35
TORSDOF 26
