REMARK SMILES O=C(N[C@@H](CS)C(=O)N[C@@H](CO)C(=O)OCCOCCOCCOCCOC(=O)c1ccc(-c2c3nc(c(-c4c(F)c(F)c(F)c(F)c4F)c4ccc([nH]4)c(-c4c(F)c(F)c(F)c(F)c4F)c4nc(c(-c5c(F)c(F)c(F)c(F)c5F)c5ccc2[nH]5)C=C4)C=C3)cc1)c1ccc(F)cc1
REMARK SMILES IDX 20 1 19 2 18 3 17 4 16 5 15 6 13 7 14 8 10 9 9 10 7 11 8 12
REMARK SMILES IDX 4 14 3 15 1 16 2 17 93 19 94 20 99 21 95 22 98 23 96 24
REMARK SMILES IDX 97 25 5 26 6 27 11 29 12 30 21 32 22 33 23 34 24 35 25 36
REMARK SMILES IDX 26 37 27 38 28 39 29 40 30 41 31 42 92 43 32 44 91 45 33 46
REMARK SMILES IDX 34 47 35 48 85 49 36 50 90 51 84 52 86 53 37 54 89 55 83 56
REMARK SMILES IDX 82 57 38 59 70 60 50 61 69 62 51 63 54 64 68 65 87 66 52 67
REMARK SMILES IDX 53 68 67 70 88 71 55 72 39 73 40 74 48 75 41 76 42 77 46 78
REMARK SMILES IDX 49 79 43 80 44 81 47 82 45 83 71 84 72 85 80 86 73 87 74 88
REMARK SMILES IDX 78 89 81 90 75 91 76 92 79 93 77 94 56 95 57 96 65 97 58 98
REMARK SMILES IDX 59 99 63 100 66 101 60 102 61 103 64 104 62 105
REMARK H PARENT 9 13 3 18 6 28 12 31 86 58 54 69
REMARK Flexibility Score: inf
ROOT
ATOM      1  C   UNL     1       6.670   3.405  -3.267  1.00  0.00     0.188 C 
ENDROOT
BRANCH   1   2
ATOM      2  C   UNL     1       6.182   2.867  -4.620  1.00  0.00     0.188 C 
BRANCH   2   3
ATOM      3  O   UNL     1       6.351   3.643  -5.795  1.00  0.00    -0.376 OA
BRANCH   3   4
ATOM      4  C   UNL     1       6.035   5.028  -5.764  1.00  0.00     0.202 C 
BRANCH   4   5
ATOM      5  C   UNL     1       4.747   5.543  -5.089  1.00  0.00     0.261 C 
BRANCH   5   6
ATOM      6  O   UNL     1       4.403   4.966  -3.811  1.00  0.00    -0.462 OA
BRANCH   6   7
ATOM      7  C   UNL     1       3.219   4.301  -3.740  1.00  0.00     0.331 C 
ATOM      8  O   UNL     1       2.432   4.186  -4.675  1.00  0.00    -0.250 OA
BRANCH   7   9
ATOM      9  C   UNL     1       2.898   3.740  -2.334  1.00  0.00     0.218 C 
BRANCH   9  10
ATOM     10  N   UNL     1       3.979   3.643  -1.338  1.00  0.00    -0.339 N 
ATOM     11  C   UNL     1       4.562   2.590  -0.702  1.00  0.00     0.244 C 
ATOM     12  O   UNL     1       5.530   2.856   0.022  1.00  0.00    -0.273 OA
ATOM     13  H   UNL     1       4.356   4.515  -1.081  1.00  0.00     0.164 HD
BRANCH  11  14
ATOM     14  C   UNL     1       4.159   1.111  -0.884  1.00  0.00     0.181 C 
BRANCH  14  15
ATOM     15  N   UNL     1       2.759   0.849  -0.558  1.00  0.00    -0.339 N 
ATOM     16  O   UNL     1       0.994  -0.210   0.326  1.00  0.00    -0.269 OA
ATOM     17  C   UNL     1       2.215  -0.111   0.259  1.00  0.00     0.251 C 
ATOM     18  H   UNL     1       2.109   1.451  -0.988  1.00  0.00     0.164 HD
BRANCH  17  19
ATOM     19  C   UNL     1       3.070  -1.066   1.003  1.00  0.00     0.040 A 
ATOM     20  C   UNL     1       4.128  -0.648   1.822  1.00  0.00     0.017 A 
ATOM     21  C   UNL     1       2.772  -2.431   0.893  1.00  0.00     0.017 A 
ATOM     22  C   UNL     1       4.952  -1.595   2.433  1.00  0.00     0.040 A 
ATOM     23  C   UNL     1       3.579  -3.374   1.531  1.00  0.00     0.040 A 
ATOM     24  C   UNL     1       4.674  -2.949   2.276  1.00  0.00     0.123 A 
ATOM     25  F   UNL     1       5.470  -3.855   2.857  1.00  0.00    -0.207 F 
ENDBRANCH  17  19
ENDBRANCH  14  15
BRANCH  14  26
ATOM     26  C   UNL     1       4.683   0.405  -2.146  1.00  0.00     0.101 C 
BRANCH  26  27
ATOM     27  S   UNL     1       3.631   0.451  -3.627  1.00  0.00    -0.177 SA
ATOM     28  H   UNL     1       2.474  -0.221  -3.382  1.00  0.00     0.102 HD
ENDBRANCH  26  27
ENDBRANCH  14  26
ENDBRANCH  11  14
ENDBRANCH   9  10
BRANCH   9  29
ATOM     29  C   UNL     1       1.774   4.610  -1.762  1.00  0.00     0.193 C 
BRANCH  29  30
ATOM     30  O   UNL     1       2.259   5.903  -1.396  1.00  0.00    -0.394 OA
ATOM     31  H   UNL     1       2.942   5.811  -0.714  1.00  0.00     0.210 HD
ENDBRANCH  29  30
ENDBRANCH   9  29
ENDBRANCH   7   9
ENDBRANCH   6   7
ENDBRANCH   5   6
ENDBRANCH   4   5
ENDBRANCH   3   4
ENDBRANCH   2   3
ENDBRANCH   1   2
BRANCH   1  32
ATOM     32  O   UNL     1       7.089   4.753  -3.267  1.00  0.00    -0.377 OA
BRANCH  32  33
ATOM     33  C   UNL     1       8.490   4.955  -3.356  1.00  0.00     0.188 C 
BRANCH  33  34
ATOM     34  C   UNL     1       9.288   3.989  -4.254  1.00  0.00     0.188 C 
BRANCH  34  35
ATOM     35  O   UNL     1       9.095   2.614  -3.935  1.00  0.00    -0.376 OA
BRANCH  35  36
ATOM     36  C   UNL     1      10.042   1.962  -3.100  1.00  0.00     0.202 C 
BRANCH  36  37
ATOM     37  C   UNL     1      10.118   2.392  -1.624  1.00  0.00     0.261 C 
BRANCH  37  38
ATOM     38  O   UNL     1      10.417   3.772  -1.366  1.00  0.00    -0.460 OA
BRANCH  38  39
ATOM     39  C   UNL     1      11.541   4.293  -1.895  1.00  0.00     0.338 C 
ATOM     40  O   UNL     1      12.407   3.702  -2.518  1.00  0.00    -0.246 OA
BRANCH  39  41
ATOM     41  C   UNL     1      11.449   5.765  -1.784  1.00  0.00     0.060 A 
ATOM     42  C   UNL     1      11.530   6.537  -2.951  1.00  0.00     0.016 A 
ATOM     43  C   UNL     1      11.266   6.380  -0.543  1.00  0.00     0.016 A 
ATOM     44  C   UNL     1      11.474   7.928  -2.877  1.00  0.00     0.010 A 
ATOM     45  C   UNL     1      11.240   7.776  -0.465  1.00  0.00     0.010 A 
ATOM     46  C   UNL     1      11.387   8.554  -1.628  1.00  0.00    -0.014 A 
BRANCH  46  47
ATOM     47  C   UNL     1      11.707   9.997  -1.518  1.00  0.00     0.031 A 
ATOM     48  C   UNL     1      13.115  10.375  -1.141  1.00  0.00     0.074 A 
ATOM     49  C   UNL     1      10.796  10.950  -1.777  1.00  0.00     0.049 A 
ATOM     50  N   UNL     1      13.638  11.556  -0.937  1.00  0.00    -0.248 NA
ATOM     51  C   UNL     1      14.061   9.260  -0.968  1.00  0.00     0.031 C 
ATOM     52  C   UNL     1       9.420  10.713  -2.202  1.00  0.00     0.029 A 
ATOM     53  N   UNL     1      10.900  12.318  -1.713  1.00  0.00    -0.354 N 
ATOM     54  C   UNL     1      14.967  11.325  -0.606  1.00  0.00     0.074 A 
ATOM     55  C   UNL     1      15.163   9.893  -0.600  1.00  0.00     0.031 C 
ATOM     56  C   UNL     1       8.800  11.898  -2.348  1.00  0.00     0.029 A 
ATOM     57  C   UNL     1       9.727  12.973  -1.994  1.00  0.00     0.049 A 
ATOM     58  H   UNL     1      11.737  12.785  -1.486  1.00  0.00     0.167 HD
ATOM     59  C   UNL     1      15.940  12.227  -0.340  1.00  0.00     0.037 A 
ATOM     60  C   UNL     1       9.436  14.288  -1.946  1.00  0.00     0.037 A 
ATOM     61  C   UNL     1      15.740  13.651  -0.343  1.00  0.00     0.049 A 
ATOM     62  C   UNL     1      10.516  15.270  -1.562  1.00  0.00     0.074 A 
ATOM     63  C   UNL     1      16.662  14.652  -0.097  1.00  0.00     0.029 A 
ATOM     64  N   UNL     1      14.527  14.276  -0.596  1.00  0.00    -0.354 N 
ATOM     65  N   UNL     1      11.776  15.049  -1.271  1.00  0.00    -0.248 NA
ATOM     66  C   UNL     1      10.132  16.688  -1.503  1.00  0.00     0.031 C 
ATOM     67  C   UNL     1      15.993  15.880  -0.138  1.00  0.00     0.029 A 
ATOM     68  C   UNL     1      14.671  15.649  -0.482  1.00  0.00     0.049 A 
ATOM     69  H   UNL     1      13.689  13.812  -0.823  1.00  0.00     0.167 HD
ATOM     70  C   UNL     1      12.341  16.297  -1.033  1.00  0.00     0.074 A 
ATOM     71  C   UNL     1      11.288  17.272  -1.224  1.00  0.00     0.031 C 
ATOM     72  C   UNL     1      13.616  16.608  -0.689  1.00  0.00     0.037 A 
BRANCH  59  73
ATOM     73  C   UNL     1      17.300  11.695   0.011  1.00  0.00     0.064 A 
ATOM     74  C   UNL     1      18.113  11.053  -0.936  1.00  0.00     0.173 A 
ATOM     75  C   UNL     1      17.804  11.846   1.312  1.00  0.00     0.173 A 
ATOM     76  F   UNL     1      17.671  10.866  -2.189  1.00  0.00    -0.203 F 
ATOM     77  C   UNL     1      19.366  10.557  -0.586  1.00  0.00     0.198 A 
ATOM     78  C   UNL     1      19.071  11.380   1.649  1.00  0.00     0.198 A 
ATOM     79  F   UNL     1      17.069  12.452   2.256  1.00  0.00    -0.203 F 
ATOM     80  F   UNL     1      20.101   9.897  -1.492  1.00  0.00    -0.200 F 
ATOM     81  C   UNL     1      19.847  10.727   0.703  1.00  0.00     0.200 A 
ATOM     82  F   UNL     1      19.539  11.557   2.892  1.00  0.00    -0.200 F 
ATOM     83  F   UNL     1      21.056  10.255   1.037  1.00  0.00    -0.200 F 
ENDBRANCH  59  73
BRANCH  60  84
ATOM     84  C   UNL     1       8.059  14.761  -2.254  1.00  0.00     0.064 A 
ATOM     85  C   UNL     1       7.800  15.556  -3.380  1.00  0.00     0.173 A 
ATOM     86  C   UNL     1       6.979  14.457  -1.411  1.00  0.00     0.173 A 
ATOM     87  F   UNL     1       8.802  15.899  -4.202  1.00  0.00    -0.203 F 
ATOM     88  C   UNL     1       6.521  16.047  -3.637  1.00  0.00     0.198 A 
ATOM     89  C   UNL     1       5.695  14.921  -1.687  1.00  0.00     0.198 A 
ATOM     90  F   UNL     1       7.172  13.704  -0.318  1.00  0.00    -0.203 F 
ATOM     91  F   UNL     1       6.314  16.852  -4.688  1.00  0.00    -0.200 F 
ATOM     92  C   UNL     1       5.468  15.725  -2.794  1.00  0.00     0.200 A 
ATOM     93  F   UNL     1       4.679  14.598  -0.875  1.00  0.00    -0.200 F 
ATOM     94  F   UNL     1       4.239  16.198  -3.041  1.00  0.00    -0.200 F 
ENDBRANCH  60  84
BRANCH  72  95
ATOM     95  C   UNL     1      13.963  18.064  -0.549  1.00  0.00     0.064 A 
ATOM     96  C   UNL     1      13.478  18.846   0.509  1.00  0.00     0.173 A 
ATOM     97  C   UNL     1      14.837  18.673  -1.465  1.00  0.00     0.173 A 
ATOM     98  F   UNL     1      12.631  18.318   1.406  1.00  0.00    -0.203 F 
ATOM     99  C   UNL     1      13.829  20.189   0.628  1.00  0.00     0.198 A 
ATOM    100  C   UNL     1      15.215  20.005  -1.322  1.00  0.00     0.198 A 
ATOM    101  F   UNL     1      15.340  17.969  -2.490  1.00  0.00    -0.203 F 
ATOM    102  F   UNL     1      13.311  20.930   1.617  1.00  0.00    -0.200 F 
ATOM    103  C   UNL     1      14.704  20.764  -0.281  1.00  0.00     0.200 A 
ATOM    104  F   UNL     1      16.076  20.552  -2.191  1.00  0.00    -0.200 F 
ATOM    105  F   UNL     1      15.049  22.053  -0.159  1.00  0.00    -0.200 F 
ENDBRANCH  72  95
ENDBRANCH  46  47
ENDBRANCH  39  41
ENDBRANCH  38  39
ENDBRANCH  37  38
ENDBRANCH  36  37
ENDBRANCH  35  36
ENDBRANCH  34  35
ENDBRANCH  33  34
ENDBRANCH  32  33
ENDBRANCH   1  32
TORSDOF 28
