REMARK SMILES O=C(Cc1cccn1-c1ccc2c(c1)OCCO2)OCCOCCOCCOCCOC(=O)c1ccc(-c2c3nc(c(-c4c(F)c(F)c(F)c(F)c4F)c4ccc([nH]4)c(-c4c(F)c(F)c(F)c(F)c4F)c4nc(c(-c5c(F)c(F)c(F)c(F)c5F)c5ccc2[nH]5)C=C4)C=C3)cc1
REMARK SMILES IDX 25 1 24 2 23 3 22 4 21 5 20 6 19 7 2 8 1 9 3 10 4 11 5 12
REMARK SMILES IDX 8 13 6 14 7 15 9 16 10 17 14 18 11 19 13 20 12 21 15 22
REMARK SMILES IDX 18 23 16 24 17 25 26 26 27 27 28 28 29 29 30 30 31 31 32 32
REMARK SMILES IDX 33 33 34 34 35 35 96 36 36 37 95 38 37 39 38 40 39 41 89 42
REMARK SMILES IDX 40 43 94 44 88 45 90 46 41 47 93 48 87 49 86 50 42 52 74 53
REMARK SMILES IDX 54 54 73 55 55 56 58 57 72 58 91 59 56 60 57 61 71 63 92 64
REMARK SMILES IDX 59 65 43 66 44 67 52 68 45 69 46 70 50 71 53 72 47 73 48 74
REMARK SMILES IDX 51 75 49 76 75 77 76 78 84 79 77 80 78 81 82 82 85 83 79 84
REMARK SMILES IDX 80 85 83 86 81 87 60 88 61 89 69 90 62 91 63 92 67 93 70 94
REMARK SMILES IDX 64 95 65 96 68 97 66 98
REMARK H PARENT 90 51 58 62
REMARK Flexibility Score: inf
ROOT
ATOM      1  O   UNL     1       2.931  -2.671   2.551  1.00  0.00    -0.377 OA
ENDROOT
BRANCH   1   2
ATOM      2  C   UNL     1       2.128  -1.572   2.130  1.00  0.00     0.188 C 
BRANCH   2   3
ATOM      3  C   UNL     1       2.245  -1.267   0.637  1.00  0.00     0.188 C 
BRANCH   3   4
ATOM      4  O   UNL     1       3.553  -1.218   0.090  1.00  0.00    -0.376 OA
BRANCH   4   5
ATOM      5  C   UNL     1       4.386  -0.077   0.170  1.00  0.00     0.202 C 
BRANCH   5   6
ATOM      6  C   UNL     1       3.784   1.307   0.357  1.00  0.00     0.261 C 
BRANCH   6   7
ATOM      7  O   UNL     1       2.529   1.629  -0.277  1.00  0.00    -0.463 OA
BRANCH   7   8
ATOM      8  C   UNL     1       2.019   1.257  -1.469  1.00  0.00     0.311 C 
ATOM      9  O   UNL     1       0.827   1.471  -1.692  1.00  0.00    -0.252 OA
BRANCH   8  10
ATOM     10  C   UNL     1       2.881   0.562  -2.499  1.00  0.00     0.177 C 
BRANCH  10  11
ATOM     11  C   UNL     1       4.045   1.398  -2.928  1.00  0.00     0.034 A 
ATOM     12  C   UNL     1       4.077   2.781  -3.035  1.00  0.00     0.024 A 
ATOM     13  N   UNL     1       5.320   0.912  -3.223  1.00  0.00    -0.320 N 
ATOM     14  C   UNL     1       5.401   3.168  -3.293  1.00  0.00     0.020 A 
ATOM     15  C   UNL     1       6.144   2.016  -3.377  1.00  0.00     0.091 A 
BRANCH  13  16
ATOM     16  C   UNL     1       5.780  -0.439  -3.317  1.00  0.00     0.049 A 
ATOM     17  C   UNL     1       7.101  -0.735  -2.935  1.00  0.00     0.031 A 
ATOM     18  C   UNL     1       4.959  -1.469  -3.795  1.00  0.00     0.077 A 
ATOM     19  C   UNL     1       7.595  -2.037  -3.033  1.00  0.00     0.052 A 
ATOM     20  C   UNL     1       5.465  -2.771  -3.903  1.00  0.00     0.163 A 
ATOM     21  C   UNL     1       6.788  -3.046  -3.544  1.00  0.00     0.161 A 
ATOM     22  O   UNL     1       4.616  -3.726  -4.407  1.00  0.00    -0.486 OA
ATOM     23  O   UNL     1       7.368  -4.281  -3.680  1.00  0.00    -0.486 OA
ATOM     24  C   UNL     1       5.145  -5.051  -4.252  1.00  0.00     0.271 C 
ATOM     25  C   UNL     1       6.625  -5.093  -4.594  1.00  0.00     0.271 C 
ENDBRANCH  13  16
ENDBRANCH  10  11
ENDBRANCH   8  10
ENDBRANCH   7   8
ENDBRANCH   6   7
ENDBRANCH   5   6
ENDBRANCH   4   5
ENDBRANCH   3   4
ENDBRANCH   2   3
ENDBRANCH   1   2
BRANCH   1  26
ATOM     26  C   UNL     1       4.292  -2.331   2.738  1.00  0.00     0.188 C 
BRANCH  26  27
ATOM     27  C   UNL     1       5.337  -3.173   1.975  1.00  0.00     0.188 C 
BRANCH  27  28
ATOM     28  O   UNL     1       5.078  -4.014   0.857  1.00  0.00    -0.376 OA
BRANCH  28  29
ATOM     29  C   UNL     1       3.784  -4.488   0.525  1.00  0.00     0.202 C 
BRANCH  29  30
ATOM     30  C   UNL     1       3.177  -5.636   1.334  1.00  0.00     0.261 C 
BRANCH  30  31
ATOM     31  O   UNL     1       3.158  -5.382   2.730  1.00  0.00    -0.460 OA
BRANCH  31  32
ATOM     32  C   UNL     1       4.323  -5.710   3.317  1.00  0.00     0.338 C 
ATOM     33  O   UNL     1       5.290  -6.250   2.808  1.00  0.00    -0.246 OA
BRANCH  32  34
ATOM     34  C   UNL     1       4.297  -5.363   4.739  1.00  0.00     0.060 A 
ATOM     35  C   UNL     1       5.551  -5.264   5.353  1.00  0.00     0.016 A 
ATOM     36  C   UNL     1       3.112  -5.509   5.464  1.00  0.00     0.016 A 
ATOM     37  C   UNL     1       5.655  -5.591   6.681  1.00  0.00     0.010 A 
ATOM     38  C   UNL     1       3.218  -5.864   6.792  1.00  0.00     0.010 A 
ATOM     39  C   UNL     1       4.498  -6.004   7.346  1.00  0.00    -0.014 A 
BRANCH  39  40
ATOM     40  C   UNL     1       4.669  -6.711   8.619  1.00  0.00     0.031 A 
ATOM     41  C   UNL     1       4.654  -5.784   9.807  1.00  0.00     0.074 A 
ATOM     42  C   UNL     1       4.830  -8.062   8.507  1.00  0.00     0.049 A 
ATOM     43  N   UNL     1       5.064  -5.993  11.017  1.00  0.00    -0.248 NA
ATOM     44  C   UNL     1       4.146  -4.399   9.618  1.00  0.00     0.031 C 
ATOM     45  C   UNL     1       4.841  -8.785   7.219  1.00  0.00     0.029 A 
ATOM     46  N   UNL     1       5.020  -9.093   9.405  1.00  0.00    -0.354 N 
ATOM     47  C   UNL     1       4.666  -4.878  11.764  1.00  0.00     0.074 A 
ATOM     48  C   UNL     1       4.229  -3.877  10.839  1.00  0.00     0.031 C 
ATOM     49  C   UNL     1       5.083 -10.094   7.406  1.00  0.00     0.029 A 
ATOM     50  C   UNL     1       5.224 -10.370   8.820  1.00  0.00     0.049 A 
ATOM     51  H   UNL     1       5.015  -8.953  10.379  1.00  0.00     0.167 HD
ATOM     52  C   UNL     1       4.555  -4.895  13.117  1.00  0.00     0.037 A 
ATOM     53  C   UNL     1       5.505 -11.565   9.424  1.00  0.00     0.037 A 
ATOM     54  C   UNL     1       5.003  -6.127  13.673  1.00  0.00     0.049 A 
ATOM     55  C   UNL     1       5.355 -11.318  10.872  1.00  0.00     0.074 A 
ATOM     56  C   UNL     1       6.247  -6.662  13.880  1.00  0.00     0.029 A 
ATOM     57  N   UNL     1       4.070  -7.125  13.823  1.00  0.00    -0.354 N 
ATOM     58  N   UNL     1       4.216 -11.115  11.469  1.00  0.00    -0.248 NA
ATOM     59  C   UNL     1       6.552 -11.199  11.710  1.00  0.00     0.031 C 
ATOM     60  C   UNL     1       6.058  -8.062  13.831  1.00  0.00     0.029 A 
ATOM     61  C   UNL     1       4.701  -8.333  13.630  1.00  0.00     0.049 A 
ATOM     62  H   UNL     1       3.117  -6.998  14.034  1.00  0.00     0.167 HD
ATOM     63  C   UNL     1       4.591 -10.524  12.655  1.00  0.00     0.074 A 
ATOM     64  C   UNL     1       5.978 -10.865  12.863  1.00  0.00     0.031 C 
ATOM     65  C   UNL     1       3.919  -9.432  13.102  1.00  0.00     0.037 A 
BRANCH  52  66
ATOM     66  C   UNL     1       3.840  -3.924  13.994  1.00  0.00     0.064 A 
ATOM     67  C   UNL     1       4.280  -3.760  15.322  1.00  0.00     0.173 A 
ATOM     68  C   UNL     1       2.578  -3.398  13.675  1.00  0.00     0.173 A 
ATOM     69  F   UNL     1       5.479  -4.227  15.705  1.00  0.00    -0.203 F 
ATOM     70  C   UNL     1       3.471  -3.176  16.293  1.00  0.00     0.198 A 
ATOM     71  C   UNL     1       1.788  -2.776  14.640  1.00  0.00     0.198 A 
ATOM     72  F   UNL     1       2.049  -3.561  12.454  1.00  0.00    -0.203 F 
ATOM     73  F   UNL     1       3.883  -3.134  17.567  1.00  0.00    -0.200 F 
ATOM     74  C   UNL     1       2.220  -2.693  15.953  1.00  0.00     0.200 A 
ATOM     75  F   UNL     1       0.574  -2.315  14.306  1.00  0.00    -0.200 F 
ATOM     76  F   UNL     1       1.417  -2.182  16.895  1.00  0.00    -0.200 F 
ENDBRANCH  52  66
BRANCH  53  77
ATOM     77  C   UNL     1       5.938 -12.954   8.991  1.00  0.00     0.064 A 
ATOM     78  C   UNL     1       6.105 -13.400   7.670  1.00  0.00     0.173 A 
ATOM     79  C   UNL     1       6.307 -13.920   9.969  1.00  0.00     0.173 A 
ATOM     80  F   UNL     1       5.717 -12.669   6.625  1.00  0.00    -0.203 F 
ATOM     81  C   UNL     1       6.680 -14.645   7.357  1.00  0.00     0.198 A 
ATOM     82  C   UNL     1       6.910 -15.143   9.661  1.00  0.00     0.198 A 
ATOM     83  F   UNL     1       6.105 -13.708  11.276  1.00  0.00    -0.203 F 
ATOM     84  F   UNL     1       6.827 -15.002   6.073  1.00  0.00    -0.200 F 
ATOM     85  C   UNL     1       7.112 -15.501   8.350  1.00  0.00     0.200 A 
ATOM     86  F   UNL     1       7.310 -15.955  10.650  1.00  0.00    -0.200 F 
ATOM     87  F   UNL     1       7.710 -16.660   8.047  1.00  0.00    -0.200 F 
ENDBRANCH  53  77
BRANCH  65  88
ATOM     88  C   UNL     1       2.510  -9.341  12.550  1.00  0.00     0.064 A 
ATOM     89  C   UNL     1       1.552 -10.308  12.890  1.00  0.00     0.173 A 
ATOM     90  C   UNL     1       2.126  -8.406  11.575  1.00  0.00     0.173 A 
ATOM     91  F   UNL     1       1.834 -11.229  13.823  1.00  0.00    -0.203 F 
ATOM     92  C   UNL     1       0.299 -10.345  12.271  1.00  0.00     0.198 A 
ATOM     93  C   UNL     1       0.875  -8.434  10.960  1.00  0.00     0.198 A 
ATOM     94  F   UNL     1       2.958  -7.436  11.203  1.00  0.00    -0.203 F 
ATOM     95  F   UNL     1      -0.588 -11.289  12.615  1.00  0.00    -0.200 F 
ATOM     96  C   UNL     1      -0.037  -9.412  11.303  1.00  0.00     0.200 A 
ATOM     97  F   UNL     1       0.560  -7.509  10.040  1.00  0.00    -0.200 F 
ATOM     98  F   UNL     1      -1.241  -9.445  10.713  1.00  0.00    -0.200 F 
ENDBRANCH  65  88
ENDBRANCH  39  40
ENDBRANCH  32  34
ENDBRANCH  31  32
ENDBRANCH  30  31
ENDBRANCH  29  30
ENDBRANCH  28  29
ENDBRANCH  27  28
ENDBRANCH  26  27
ENDBRANCH   1  26
TORSDOF 22
