REMARK SMILES C[C@H](C[NH3+])CS/C=C/C(=O)OCCOCCOCCOCCOC(=O)c1ccc(-c2c3nc(c(-c4c(F)c(F)c(F)c(F)c4F)c4ccc([nH]4)c(-c4c(F)c(F)c(F)c(F)c4F)c4nc(c(-c5c(F)c(F)c(F)c(F)c5F)c5ccc2[nH]5)C=C4)C=C3)cc1
REMARK SMILES IDX 15 1 14 2 13 3 12 4 11 5 9 6 10 7 8 8 7 9 6 10 5 11 2 12
REMARK SMILES IDX 1 13 3 14 4 15 16 19 17 20 18 21 19 22 20 23 21 24 22 25
REMARK SMILES IDX 23 26 24 27 25 28 26 29 27 30 88 31 28 32 87 33 29 34 30 35
REMARK SMILES IDX 31 36 81 37 32 38 86 39 80 40 82 41 33 42 85 43 79 44 78 45
REMARK SMILES IDX 34 47 66 48 46 49 65 50 47 51 50 52 64 53 83 54 48 55 49 56
REMARK SMILES IDX 63 58 84 59 51 60 35 61 36 62 44 63 37 64 38 65 42 66 45 67
REMARK SMILES IDX 39 68 40 69 43 70 41 71 67 72 68 73 76 74 69 75 70 76 74 77
REMARK SMILES IDX 77 78 71 79 72 80 75 81 73 82 52 83 53 84 61 85 54 86 55 87
REMARK SMILES IDX 59 88 62 89 56 90 57 91 60 92 58 93
REMARK H PARENT 4 16 4 17 4 18 82 46 50 57
REMARK Flexibility Score: inf
ROOT
ATOM      1  C   UNL     1       0.128  -4.142  -0.060  1.00  0.00     0.188 C 
ENDROOT
BRANCH   1   2
ATOM      2  O   UNL     1       0.734  -5.294   0.487  1.00  0.00    -0.376 OA
BRANCH   2   3
ATOM      3  C   UNL     1       1.182  -5.386   1.831  1.00  0.00     0.202 C 
BRANCH   3   4
ATOM      4  C   UNL     1       1.196  -4.265   2.887  1.00  0.00     0.261 C 
BRANCH   4   5
ATOM      5  O   UNL     1       0.322  -3.166   2.663  1.00  0.00    -0.460 OA
BRANCH   5   6
ATOM      6  C   UNL     1       0.931  -2.027   2.283  1.00  0.00     0.331 C 
ATOM      7  O   UNL     1       2.132  -1.819   2.215  1.00  0.00    -0.247 OA
BRANCH   6   8
ATOM      8  C   UNL     1      -0.043  -1.145   1.635  1.00  0.00     0.100 C 
ATOM      9  C   UNL     1      -0.664  -0.146   2.262  1.00  0.00     0.048 C 
BRANCH   9  10
ATOM     10  S   UNL     1      -1.502   1.124   1.432  1.00  0.00    -0.133 SA
BRANCH  10  11
ATOM     11  C   UNL     1      -0.819   1.177  -0.271  1.00  0.00     0.083 C 
BRANCH  11  12
ATOM     12  C   UNL     1       0.621   1.725  -0.487  1.00  0.00     0.051 C 
ATOM     13  C   UNL     1       0.788   2.026  -1.988  1.00  0.00     0.014 C 
BRANCH  12  14
ATOM     14  C   UNL     1       1.725   0.775   0.010  1.00  0.00     0.262 C 
BRANCH  14  15
ATOM     15  N   UNL     1       3.092   1.255  -0.166  1.00  0.00    -0.357 N 
ATOM     16  H   UNL     1       3.289   1.364  -1.161  1.00  0.00     0.344 HD
ATOM     17  H   UNL     1       3.744   0.583   0.239  1.00  0.00     0.344 HD
ATOM     18  H   UNL     1       3.199   2.156   0.302  1.00  0.00     0.344 HD
ENDBRANCH  14  15
ENDBRANCH  12  14
ENDBRANCH  11  12
ENDBRANCH  10  11
ENDBRANCH   9  10
ENDBRANCH   6   8
ENDBRANCH   5   6
ENDBRANCH   4   5
ENDBRANCH   3   4
ENDBRANCH   2   3
ENDBRANCH   1   2
BRANCH   1  19
ATOM     19  C   UNL     1      -1.350  -3.856   0.277  1.00  0.00     0.188 C 
BRANCH  19  20
ATOM     20  O   UNL     1      -1.790  -4.314   1.536  1.00  0.00    -0.377 OA
BRANCH  20  21
ATOM     21  C   UNL     1      -2.108  -5.689   1.698  1.00  0.00     0.188 C 
BRANCH  21  22
ATOM     22  C   UNL     1      -1.833  -6.740   0.596  1.00  0.00     0.188 C 
BRANCH  22  23
ATOM     23  O   UNL     1      -1.877  -6.256  -0.735  1.00  0.00    -0.376 OA
BRANCH  23  24
ATOM     24  C   UNL     1      -3.032  -6.527  -1.513  1.00  0.00     0.202 C 
BRANCH  24  25
ATOM     25  C   UNL     1      -4.343  -5.862  -1.066  1.00  0.00     0.261 C 
BRANCH  25  26
ATOM     26  O   UNL     1      -4.755  -6.135   0.282  1.00  0.00    -0.460 OA
BRANCH  26  27
ATOM     27  C   UNL     1      -5.048  -7.415   0.585  1.00  0.00     0.338 C 
ATOM     28  O   UNL     1      -5.037  -8.375  -0.171  1.00  0.00    -0.246 OA
BRANCH  27  29
ATOM     29  C   UNL     1      -5.205  -7.517   2.050  1.00  0.00     0.060 A 
ATOM     30  C   UNL     1      -4.360  -8.381   2.759  1.00  0.00     0.016 A 
ATOM     31  C   UNL     1      -6.179  -6.772   2.718  1.00  0.00     0.016 A 
ATOM     32  C   UNL     1      -4.524  -8.544   4.133  1.00  0.00     0.010 A 
ATOM     33  C   UNL     1      -6.356  -6.952   4.093  1.00  0.00     0.010 A 
ATOM     34  C   UNL     1      -5.558  -7.873   4.797  1.00  0.00    -0.014 A 
BRANCH  34  35
ATOM     35  C   UNL     1      -5.943  -8.309   6.162  1.00  0.00     0.031 A 
ATOM     36  C   UNL     1      -7.103  -9.258   6.304  1.00  0.00     0.074 A 
ATOM     37  C   UNL     1      -5.256  -7.914   7.248  1.00  0.00     0.049 A 
ATOM     38  N   UNL     1      -7.637  -9.769   7.383  1.00  0.00    -0.248 NA
ATOM     39  C   UNL     1      -7.751  -9.687   5.053  1.00  0.00     0.031 C 
ATOM     40  C   UNL     1      -4.093  -7.030   7.239  1.00  0.00     0.029 A 
ATOM     41  N   UNL     1      -5.447  -8.208   8.576  1.00  0.00    -0.354 N 
ATOM     42  C   UNL     1      -8.685 -10.568   6.943  1.00  0.00     0.074 A 
ATOM     43  C   UNL     1      -8.735 -10.450   5.503  1.00  0.00     0.031 C 
ATOM     44  C   UNL     1      -3.681  -6.841   8.505  1.00  0.00     0.029 A 
ATOM     45  C   UNL     1      -4.568  -7.566   9.413  1.00  0.00     0.049 A 
ATOM     46  H   UNL     1      -6.148  -8.821   8.897  1.00  0.00     0.167 HD
ATOM     47  C   UNL     1      -9.526 -11.337   7.674  1.00  0.00     0.037 A 
ATOM     48  C   UNL     1      -4.506  -7.551  10.760  1.00  0.00     0.037 A 
ATOM     49  C   UNL     1      -9.472 -11.456   9.107  1.00  0.00     0.049 A 
ATOM     50  C   UNL     1      -5.493  -8.373  11.554  1.00  0.00     0.074 A 
ATOM     51  C   UNL     1     -10.264 -12.228   9.938  1.00  0.00     0.029 A 
ATOM     52  N   UNL     1      -8.582 -10.774   9.923  1.00  0.00    -0.354 N 
ATOM     53  N   UNL     1      -6.460  -9.151  11.130  1.00  0.00    -0.248 NA
ATOM     54  C   UNL     1      -5.369  -8.321  13.018  1.00  0.00     0.031 C 
ATOM     55  C   UNL     1      -9.897 -11.963  11.261  1.00  0.00     0.029 A 
ATOM     56  C   UNL     1      -8.825 -11.086  11.251  1.00  0.00     0.049 A 
ATOM     57  H   UNL     1      -7.881 -10.159   9.606  1.00  0.00     0.167 HD
ATOM     58  C   UNL     1      -7.032  -9.709  12.268  1.00  0.00     0.074 A 
ATOM     59  C   UNL     1      -6.292  -9.192  13.400  1.00  0.00     0.031 C 
ATOM     60  C   UNL     1      -8.073 -10.573  12.369  1.00  0.00     0.037 A 
BRANCH  47  61
ATOM     61  C   UNL     1     -10.602 -12.085   6.941  1.00  0.00     0.064 A 
ATOM     62  C   UNL     1     -10.313 -13.175   6.105  1.00  0.00     0.173 A 
ATOM     63  C   UNL     1     -11.949 -11.729   7.111  1.00  0.00     0.173 A 
ATOM     64  F   UNL     1      -9.042 -13.546   5.893  1.00  0.00    -0.203 F 
ATOM     65  C   UNL     1     -11.331 -13.865   5.452  1.00  0.00     0.198 A 
ATOM     66  C   UNL     1     -12.966 -12.443   6.484  1.00  0.00     0.198 A 
ATOM     67  F   UNL     1     -12.281 -10.696   7.899  1.00  0.00    -0.203 F 
ATOM     68  F   UNL     1     -11.029 -14.873   4.621  1.00  0.00    -0.200 F 
ATOM     69  C   UNL     1     -12.656 -13.506   5.649  1.00  0.00     0.200 A 
ATOM     70  F   UNL     1     -14.246 -12.103   6.688  1.00  0.00    -0.200 F 
ATOM     71  F   UNL     1     -13.635 -14.181   5.030  1.00  0.00    -0.200 F 
ENDBRANCH  47  61
BRANCH  48  72
ATOM     72  C   UNL     1      -3.487  -6.717  11.454  1.00  0.00     0.064 A 
ATOM     73  C   UNL     1      -2.467  -7.299  12.220  1.00  0.00     0.173 A 
ATOM     74  C   UNL     1      -3.541  -5.316  11.401  1.00  0.00     0.173 A 
ATOM     75  F   UNL     1      -2.386  -8.633  12.324  1.00  0.00    -0.203 F 
ATOM     76  C   UNL     1      -1.561  -6.513  12.930  1.00  0.00     0.198 A 
ATOM     77  C   UNL     1      -2.613  -4.531  12.083  1.00  0.00     0.198 A 
ATOM     78  F   UNL     1      -4.498  -4.706  10.686  1.00  0.00    -0.203 F 
ATOM     79  F   UNL     1      -0.637  -7.096  13.706  1.00  0.00    -0.200 F 
ATOM     80  C   UNL     1      -1.631  -5.130  12.857  1.00  0.00     0.200 A 
ATOM     81  F   UNL     1      -2.678  -3.196  11.998  1.00  0.00    -0.200 F 
ATOM     82  F   UNL     1      -0.762  -4.375  13.542  1.00  0.00    -0.200 F 
ENDBRANCH  48  72
BRANCH  60  83
ATOM     83  C   UNL     1      -8.437 -11.062  13.744  1.00  0.00     0.064 A 
ATOM     84  C   UNL     1      -8.995 -10.215  14.714  1.00  0.00     0.173 A 
ATOM     85  C   UNL     1      -8.242 -12.410  14.088  1.00  0.00     0.173 A 
ATOM     86  F   UNL     1      -9.195  -8.917  14.442  1.00  0.00    -0.203 F 
ATOM     87  C   UNL     1      -9.301 -10.688  15.988  1.00  0.00     0.198 A 
ATOM     88  C   UNL     1      -8.587 -12.887  15.349  1.00  0.00     0.198 A 
ATOM     89  F   UNL     1      -7.725 -13.268  13.197  1.00  0.00    -0.203 F 
ATOM     90  F   UNL     1      -9.768  -9.844  16.919  1.00  0.00    -0.200 F 
ATOM     91  C   UNL     1      -9.102 -12.024  16.303  1.00  0.00     0.200 A 
ATOM     92  F   UNL     1      -8.414 -14.184  15.643  1.00  0.00    -0.200 F 
ATOM     93  F   UNL     1      -9.399 -12.477  17.529  1.00  0.00    -0.200 F 
ENDBRANCH  60  83
ENDBRANCH  34  35
ENDBRANCH  27  29
ENDBRANCH  26  27
ENDBRANCH  25  26
ENDBRANCH  24  25
ENDBRANCH  23  24
ENDBRANCH  22  23
ENDBRANCH  21  22
ENDBRANCH  20  21
ENDBRANCH  19  20
ENDBRANCH   1  19
TORSDOF 25
