REMARK SMILES CC[C@](C)(NC(=O)NC[C@@H](C)[NH+](C)C)C(=O)OCCOCCOCCOCCOC(=O)c1ccc(-c2c3nc(c(-c4c(F)c(F)c(F)c(F)c4F)c4ccc([nH]4)c(-c4c(F)c(F)c(F)c(F)c4F)c4nc(c(-c5c(F)c(F)c(F)c(F)c5F)c5ccc2[nH]5)C=C4)C=C3)cc1
REMARK SMILES IDX 22 1 21 2 20 3 19 4 18 5 17 6 15 7 16 8 3 9 4 10 2 11 1 12
REMARK SMILES IDX 5 13 6 14 7 16 8 17 9 19 10 20 11 21 12 22 13 23 14 24 23 26
REMARK SMILES IDX 24 27 25 28 26 29 27 30 28 31 29 32 30 33 31 34 32 35 33 36
REMARK SMILES IDX 94 37 34 38 93 39 35 40 36 41 37 42 87 43 38 44 92 45 86 46
REMARK SMILES IDX 88 47 39 48 91 49 85 50 84 51 40 53 72 54 52 55 71 56 53 57
REMARK SMILES IDX 56 58 70 59 89 60 54 61 55 62 69 64 90 65 57 66 41 67 42 68
REMARK SMILES IDX 50 69 43 70 44 71 48 72 51 73 45 74 46 75 49 76 47 77 73 78
REMARK SMILES IDX 74 79 82 80 75 81 76 82 80 83 83 84 77 85 78 86 81 87 79 88
REMARK SMILES IDX 58 89 59 90 67 91 60 92 61 93 65 94 68 95 62 96 63 97 66 98
REMARK SMILES IDX 64 99
REMARK H PARENT 5 15 8 18 12 25 88 52 56 63
REMARK Flexibility Score: inf
ROOT
ATOM      1  C   UNL     1       2.867  -4.306  -0.228  1.00  0.00     0.188 C 
ENDROOT
BRANCH   1   2
ATOM      2  C   UNL     1       3.075  -3.335  -1.408  1.00  0.00     0.188 C 
BRANCH   2   3
ATOM      3  O   UNL     1       4.390  -2.891  -1.721  1.00  0.00    -0.376 OA
BRANCH   3   4
ATOM      4  C   UNL     1       5.125  -2.244  -0.685  1.00  0.00     0.202 C 
BRANCH   4   5
ATOM      5  C   UNL     1       4.415  -1.131   0.100  1.00  0.00     0.261 C 
BRANCH   5   6
ATOM      6  O   UNL     1       3.208  -1.589   0.742  1.00  0.00    -0.462 OA
BRANCH   6   7
ATOM      7  C   UNL     1       2.287  -0.667   1.108  1.00  0.00     0.331 C 
ATOM      8  O   UNL     1       2.428   0.536   0.915  1.00  0.00    -0.249 OA
BRANCH   7   9
ATOM      9  C   UNL     1       0.975  -1.314   1.667  1.00  0.00     0.136 C 
ATOM     10  C   UNL     1       0.054  -1.359   0.416  1.00  0.00     0.047 C 
BRANCH   9  11
ATOM     11  C   UNL     1       0.366  -0.415   2.781  1.00  0.00     0.037 C 
ATOM     12  C   UNL     1      -0.545   0.716   2.316  1.00  0.00     0.007 C 
ENDBRANCH   9  11
BRANCH   9  13
ATOM     13  N   UNL     1       1.015  -2.734   2.153  1.00  0.00    -0.322 N 
ATOM     14  C   UNL     1       1.490  -3.408   3.208  1.00  0.00     0.315 C 
ATOM     15  H   UNL     1       0.566  -3.338   1.518  1.00  0.00     0.166 HD
ATOM     16  O   UNL     1       0.985  -4.507   3.452  1.00  0.00    -0.249 OA
ATOM     17  N   UNL     1       2.471  -2.973   4.006  1.00  0.00    -0.332 N 
ATOM     18  H   UNL     1       2.535  -3.410   4.886  1.00  0.00     0.165 HD
BRANCH  17  19
ATOM     19  C   UNL     1       3.444  -1.946   3.743  1.00  0.00     0.182 C 
BRANCH  19  20
ATOM     20  C   UNL     1       4.528  -1.716   4.821  1.00  0.00     0.200 C 
ATOM     21  C   UNL     1       5.613  -2.799   4.693  1.00  0.00     0.077 C 
BRANCH  20  22
ATOM     22  N   UNL     1       5.036  -0.320   4.777  1.00  0.00    -0.336 N 
ATOM     23  C   UNL     1       6.136  -0.061   5.697  1.00  0.00     0.332 C 
ATOM     24  C   UNL     1       5.369   0.190   3.448  1.00  0.00     0.332 C 
ATOM     25  H   UNL     1       4.221   0.205   5.092  1.00  0.00     0.347 HD
ENDBRANCH  20  22
ENDBRANCH  19  20
ENDBRANCH  17  19
ENDBRANCH   9  13
ENDBRANCH   7   9
ENDBRANCH   6   7
ENDBRANCH   5   6
ENDBRANCH   4   5
ENDBRANCH   3   4
ENDBRANCH   2   3
ENDBRANCH   1   2
BRANCH   1  26
ATOM     26  O   UNL     1       3.785  -4.149   0.852  1.00  0.00    -0.377 OA
BRANCH  26  27
ATOM     27  C   UNL     1       4.415  -5.357   1.270  1.00  0.00     0.188 C 
BRANCH  27  28
ATOM     28  C   UNL     1       5.471  -5.841   0.264  1.00  0.00     0.188 C 
BRANCH  28  29
ATOM     29  O   UNL     1       4.951  -6.003  -1.043  1.00  0.00    -0.376 OA
BRANCH  29  30
ATOM     30  C   UNL     1       4.357  -7.227  -1.452  1.00  0.00     0.202 C 
BRANCH  30  31
ATOM     31  C   UNL     1       3.478  -8.086  -0.521  1.00  0.00     0.261 C 
BRANCH  31  32
ATOM     32  O   UNL     1       3.907  -8.251   0.836  1.00  0.00    -0.460 OA
BRANCH  32  33
ATOM     33  C   UNL     1       5.012  -8.982   1.054  1.00  0.00     0.338 C 
ATOM     34  O   UNL     1       5.706  -9.540   0.212  1.00  0.00    -0.246 OA
BRANCH  33  35
ATOM     35  C   UNL     1       5.371  -8.854   2.480  1.00  0.00     0.060 A 
ATOM     36  C   UNL     1       6.638  -8.358   2.804  1.00  0.00     0.016 A 
ATOM     37  C   UNL     1       4.494  -9.270   3.487  1.00  0.00     0.016 A 
ATOM     38  C   UNL     1       7.064  -8.349   4.129  1.00  0.00     0.010 A 
ATOM     39  C   UNL     1       4.931  -9.284   4.817  1.00  0.00     0.010 A 
ATOM     40  C   UNL     1       6.238  -8.876   5.132  1.00  0.00    -0.014 A 
BRANCH  40  41
ATOM     41  C   UNL     1       6.857  -9.231   6.432  1.00  0.00     0.031 A 
ATOM     42  C   UNL     1       7.376 -10.634   6.607  1.00  0.00     0.074 A 
ATOM     43  C   UNL     1       7.049  -8.312   7.393  1.00  0.00     0.049 A 
ATOM     44  N   UNL     1       8.002 -11.173   7.622  1.00  0.00    -0.248 NA
ATOM     45  C   UNL     1       7.168 -11.553   5.475  1.00  0.00     0.031 C 
ATOM     46  C   UNL     1       6.640  -6.912   7.319  1.00  0.00     0.029 A 
ATOM     47  N   UNL     1       7.650  -8.425   8.622  1.00  0.00    -0.354 N 
ATOM     48  C   UNL     1       8.275 -12.481   7.244  1.00  0.00     0.074 A 
ATOM     49  C   UNL     1       7.710 -12.672   5.927  1.00  0.00     0.031 C 
ATOM     50  C   UNL     1       6.993  -6.295   8.460  1.00  0.00     0.029 A 
ATOM     51  C   UNL     1       7.633  -7.262   9.351  1.00  0.00     0.049 A 
ATOM     52  H   UNL     1       8.055  -9.261   8.949  1.00  0.00     0.167 HD
ATOM     53  C   UNL     1       8.952 -13.435   7.925  1.00  0.00     0.037 A 
ATOM     54  C   UNL     1       8.073  -7.018  10.601  1.00  0.00     0.037 A 
ATOM     55  C   UNL     1       9.499 -13.252   9.242  1.00  0.00     0.049 A 
ATOM     56  C   UNL     1       8.750  -8.123  11.374  1.00  0.00     0.074 A 
ATOM     57  C   UNL     1      10.176 -14.164  10.033  1.00  0.00     0.029 A 
ATOM     58  N   UNL     1       9.424 -12.072   9.966  1.00  0.00    -0.354 N 
ATOM     59  N   UNL     1       9.012  -9.355  11.006  1.00  0.00    -0.248 NA
ATOM     60  C   UNL     1       9.204  -7.798  12.734  1.00  0.00     0.031 C 
ATOM     61  C   UNL     1      10.474 -13.548  11.252  1.00  0.00     0.029 A 
ATOM     62  C   UNL     1      10.030 -12.236  11.201  1.00  0.00     0.049 A 
ATOM     63  H   UNL     1       9.003 -11.240   9.650  1.00  0.00     0.167 HD
ATOM     64  C   UNL     1       9.681  -9.941  12.074  1.00  0.00     0.074 A 
ATOM     65  C   UNL     1       9.805  -8.923  13.096  1.00  0.00     0.031 C 
ATOM     66  C   UNL     1      10.149 -11.207  12.202  1.00  0.00     0.037 A 
BRANCH  53  67
ATOM     67  C   UNL     1       9.119 -14.770   7.260  1.00  0.00     0.064 A 
ATOM     68  C   UNL     1       9.984 -14.942   6.167  1.00  0.00     0.173 A 
ATOM     69  C   UNL     1       8.427 -15.895   7.732  1.00  0.00     0.173 A 
ATOM     70  F   UNL     1      10.654 -13.893   5.665  1.00  0.00    -0.203 F 
ATOM     71  C   UNL     1      10.132 -16.186   5.560  1.00  0.00     0.198 A 
ATOM     72  C   UNL     1       8.599 -17.143   7.140  1.00  0.00     0.198 A 
ATOM     73  F   UNL     1       7.588 -15.784   8.773  1.00  0.00    -0.203 F 
ATOM     74  F   UNL     1      10.929 -16.317   4.490  1.00  0.00    -0.200 F 
ATOM     75  C   UNL     1       9.446 -17.287   6.051  1.00  0.00     0.200 A 
ATOM     76  F   UNL     1       7.943 -18.207   7.622  1.00  0.00    -0.200 F 
ATOM     77  F   UNL     1       9.595 -18.485   5.470  1.00  0.00    -0.200 F 
ENDBRANCH  53  67
BRANCH  54  78
ATOM     78  C   UNL     1       7.871  -5.679  11.216  1.00  0.00     0.064 A 
ATOM     79  C   UNL     1       8.954  -4.845  11.527  1.00  0.00     0.173 A 
ATOM     80  C   UNL     1       6.584  -5.224  11.544  1.00  0.00     0.173 A 
ATOM     81  F   UNL     1      10.205  -5.245  11.257  1.00  0.00    -0.203 F 
ATOM     82  C   UNL     1       8.760  -3.621  12.165  1.00  0.00     0.198 A 
ATOM     83  C   UNL     1       6.390  -3.987  12.153  1.00  0.00     0.198 A 
ATOM     84  F   UNL     1       5.513  -5.984  11.270  1.00  0.00    -0.203 F 
ATOM     85  F   UNL     1       9.817  -2.870  12.503  1.00  0.00    -0.200 F 
ATOM     86  C   UNL     1       7.479  -3.191  12.474  1.00  0.00     0.200 A 
ATOM     87  F   UNL     1       5.148  -3.571  12.438  1.00  0.00    -0.200 F 
ATOM     88  F   UNL     1       7.293  -2.015  13.089  1.00  0.00    -0.200 F 
ENDBRANCH  54  78
BRANCH  66  89
ATOM     89  C   UNL     1      10.869 -11.550  13.475  1.00  0.00     0.064 A 
ATOM     90  C   UNL     1      10.190 -11.672  14.696  1.00  0.00     0.173 A 
ATOM     91  C   UNL     1      12.252 -11.786  13.466  1.00  0.00     0.173 A 
ATOM     92  F   UNL     1       8.869 -11.444  14.760  1.00  0.00    -0.203 F 
ATOM     93  C   UNL     1      10.875 -11.983  15.868  1.00  0.00     0.198 A 
ATOM     94  C   UNL     1      12.929 -12.129  14.634  1.00  0.00     0.198 A 
ATOM     95  F   UNL     1      12.948 -11.693  12.323  1.00  0.00    -0.203 F 
ATOM     96  F   UNL     1      10.214 -12.038  17.033  1.00  0.00    -0.200 F 
ATOM     97  C   UNL     1      12.242 -12.217  15.835  1.00  0.00     0.200 A 
ATOM     98  F   UNL     1      14.247 -12.369  14.598  1.00  0.00    -0.200 F 
ATOM     99  F   UNL     1      12.899 -12.518  16.964  1.00  0.00    -0.200 F 
ENDBRANCH  66  89
ENDBRANCH  40  41
ENDBRANCH  33  35
ENDBRANCH  32  33
ENDBRANCH  31  32
ENDBRANCH  30  31
ENDBRANCH  29  30
ENDBRANCH  28  29
ENDBRANCH  27  28
ENDBRANCH  26  27
ENDBRANCH   1  26
TORSDOF 25
