REMARK SMILES CCc1ccc(-c2nc(-c3cccc(C(=O)OCCOCCOCCOCCOC(=O)c4ccc(-c5c6nc(c(-c7c(F)c(F)c(F)c(F)c7F)c7ccc([nH]7)c(-c7c(F)c(F)c(F)c(F)c7F)c7nc(c(-c8c(F)c(F)c(F)c(F)c8F)c8ccc5[nH]8)C=C7)C=C6)cc4)c3)no2)o1
REMARK SMILES IDX 22 1 21 2 20 3 19 4 18 5 17 6 15 7 16 8 14 9 10 10 11 11
REMARK SMILES IDX 95 12 12 13 13 14 9 15 7 16 8 17 97 18 96 19 6 20 3 21 4 22
REMARK SMILES IDX 98 23 5 24 2 25 1 26 23 27 24 28 25 29 26 30 27 31 28 32
REMARK SMILES IDX 29 33 30 34 31 35 32 36 33 37 94 38 34 39 93 40 35 41 36 42
REMARK SMILES IDX 37 43 87 44 38 45 92 46 86 47 88 48 39 49 91 50 85 51 84 52
REMARK SMILES IDX 40 54 72 55 52 56 71 57 53 58 56 59 70 60 89 61 54 62 55 63
REMARK SMILES IDX 69 65 90 66 57 67 41 68 42 69 50 70 43 71 44 72 48 73 51 74
REMARK SMILES IDX 45 75 46 76 49 77 47 78 73 79 74 80 82 81 75 82 76 83 80 84
REMARK SMILES IDX 83 85 77 86 78 87 81 88 79 89 58 90 59 91 67 92 60 93 61 94
REMARK SMILES IDX 65 95 68 96 62 97 63 98 66 99 64 100
REMARK H PARENT 88 53 56 64
REMARK Flexibility Score: inf
ROOT
ATOM      1  C   UNL     1      -3.547 -10.865   1.389  1.00  0.00     0.188 C 
ENDROOT
BRANCH   1   2
ATOM      2  C   UNL     1      -3.329 -11.821   2.580  1.00  0.00     0.188 C 
BRANCH   2   3
ATOM      3  O   UNL     1      -4.107 -11.489   3.716  1.00  0.00    -0.376 OA
BRANCH   3   4
ATOM      4  C   UNL     1      -3.469 -10.938   4.852  1.00  0.00     0.202 C 
BRANCH   4   5
ATOM      5  C   UNL     1      -2.643  -9.649   4.713  1.00  0.00     0.261 C 
BRANCH   5   6
ATOM      6  O   UNL     1      -1.820  -9.538   3.547  1.00  0.00    -0.460 OA
BRANCH   6   7
ATOM      7  C   UNL     1      -0.654 -10.223   3.533  1.00  0.00     0.338 C 
ATOM      8  O   UNL     1      -0.208 -10.921   4.425  1.00  0.00    -0.246 OA
BRANCH   7   9
ATOM      9  C   UNL     1      -0.129 -10.175   2.145  1.00  0.00     0.060 A 
ATOM     10  C   UNL     1       0.222  -9.004   0.048  1.00  0.00     0.024 A 
ATOM     11  C   UNL     1       0.587 -10.214  -0.557  1.00  0.00     0.012 A 
ATOM     12  C   UNL     1      -0.145  -8.989   1.402  1.00  0.00     0.027 A 
ATOM     13  C   UNL     1       0.617 -11.394   0.190  1.00  0.00     0.002 A 
ATOM     14  C   UNL     1       0.272 -11.374   1.542  1.00  0.00     0.016 A 
BRANCH  10  15
ATOM     15  C   UNL     1       0.252  -7.760  -0.699  1.00  0.00     0.202 A 
ATOM     16  C   UNL     1       0.655  -5.736  -1.110  1.00  0.00     0.293 A 
ATOM     17  N   UNL     1       0.808  -6.630  -0.156  1.00  0.00    -0.184 NA
ATOM     18  O   UNL     1       0.024  -6.249  -2.212  1.00  0.00    -0.330 OA
ATOM     19  N   UNL     1      -0.208  -7.606  -1.949  1.00  0.00    -0.057 NA
BRANCH  16  20
ATOM     20  C   UNL     1       1.152  -4.401  -1.012  1.00  0.00     0.192 A 
ATOM     21  C   UNL     1       1.188  -2.193  -1.043  1.00  0.00     0.104 A 
ATOM     22  C   UNL     1       2.431  -2.592  -0.602  1.00  0.00     0.046 A 
ATOM     23  O   UNL     1       0.424  -3.285  -1.337  1.00  0.00    -0.456 OA
ATOM     24  C   UNL     1       2.398  -4.003  -0.557  1.00  0.00     0.056 A 
BRANCH  21  25
ATOM     25  C   UNL     1       0.551  -0.865  -1.245  1.00  0.00     0.072 C 
ATOM     26  C   UNL     1       0.906   0.116  -0.136  1.00  0.00     0.012 C 
ENDBRANCH  21  25
ENDBRANCH  16  20
ENDBRANCH  10  15
ENDBRANCH   7   9
ENDBRANCH   6   7
ENDBRANCH   5   6
ENDBRANCH   4   5
ENDBRANCH   3   4
ENDBRANCH   2   3
ENDBRANCH   1   2
BRANCH   1  27
ATOM     27  O   UNL     1      -4.243  -9.649   1.625  1.00  0.00    -0.377 OA
BRANCH  27  28
ATOM     28  C   UNL     1      -5.523  -9.672   2.254  1.00  0.00     0.188 C 
BRANCH  28  29
ATOM     29  C   UNL     1      -6.398 -10.948   2.312  1.00  0.00     0.188 C 
BRANCH  29  30
ATOM     30  O   UNL     1      -5.957 -12.014   1.489  1.00  0.00    -0.376 OA
BRANCH  30  31
ATOM     31  C   UNL     1      -6.710 -12.308   0.327  1.00  0.00     0.202 C 
BRANCH  31  32
ATOM     32  C   UNL     1      -6.759 -11.221  -0.755  1.00  0.00     0.261 C 
BRANCH  32  33
ATOM     33  O   UNL     1      -7.195  -9.922  -0.322  1.00  0.00    -0.460 OA
BRANCH  33  34
ATOM     34  C   UNL     1      -8.478  -9.802   0.076  1.00  0.00     0.338 C 
ATOM     35  O   UNL     1      -9.328 -10.678   0.106  1.00  0.00    -0.246 OA
BRANCH  34  36
ATOM     36  C   UNL     1      -8.645  -8.455   0.656  1.00  0.00     0.060 A 
ATOM     37  C   UNL     1      -9.014  -8.335   2.003  1.00  0.00     0.016 A 
ATOM     38  C   UNL     1      -8.427  -7.316  -0.122  1.00  0.00     0.016 A 
ATOM     39  C   UNL     1      -9.194  -7.071   2.565  1.00  0.00     0.010 A 
ATOM     40  C   UNL     1      -8.628  -6.052   0.438  1.00  0.00     0.010 A 
ATOM     41  C   UNL     1      -9.042  -5.923   1.775  1.00  0.00    -0.014 A 
BRANCH  41  42
ATOM     42  C   UNL     1      -9.476  -4.607   2.303  1.00  0.00     0.031 A 
ATOM     43  C   UNL     1     -10.826  -4.078   1.904  1.00  0.00     0.074 A 
ATOM     44  C   UNL     1      -8.699  -3.906   3.148  1.00  0.00     0.049 A 
ATOM     45  N   UNL     1     -11.409  -2.951   2.225  1.00  0.00    -0.248 NA
ATOM     46  C   UNL     1     -11.627  -4.940   1.020  1.00  0.00     0.031 C 
ATOM     47  C   UNL     1      -7.388  -4.326   3.636  1.00  0.00     0.029 A 
ATOM     48  N   UNL     1      -8.906  -2.685   3.743  1.00  0.00    -0.354 N 
ATOM     49  C   UNL     1     -12.640  -2.968   1.582  1.00  0.00     0.074 A 
ATOM     50  C   UNL     1     -12.706  -4.198   0.824  1.00  0.00     0.031 C 
ATOM     51  C   UNL     1      -6.902  -3.374   4.451  1.00  0.00     0.029 A 
ATOM     52  C   UNL     1      -7.852  -2.265   4.516  1.00  0.00     0.049 A 
ATOM     53  H   UNL     1      -9.731  -2.161   3.625  1.00  0.00     0.167 HD
ATOM     54  C   UNL     1     -13.630  -2.045   1.629  1.00  0.00     0.037 A 
ATOM     55  C   UNL     1      -7.670  -1.107   5.181  1.00  0.00     0.037 A 
ATOM     56  C   UNL     1     -13.558  -0.818   2.379  1.00  0.00     0.049 A 
ATOM     57  C   UNL     1      -8.758  -0.062   5.154  1.00  0.00     0.074 A 
ATOM     58  C   UNL     1     -14.515   0.174   2.506  1.00  0.00     0.029 A 
ATOM     59  N   UNL     1     -12.459  -0.407   3.120  1.00  0.00    -0.354 N 
ATOM     60  N   UNL     1      -9.933  -0.098   4.573  1.00  0.00    -0.248 NA
ATOM     61  C   UNL     1      -8.493   1.185   5.886  1.00  0.00     0.031 C 
ATOM     62  C   UNL     1     -13.972   1.213   3.268  1.00  0.00     0.029 A 
ATOM     63  C   UNL     1     -12.703   0.838   3.679  1.00  0.00     0.049 A 
ATOM     64  H   UNL     1     -11.629  -0.925   3.233  1.00  0.00     0.167 HD
ATOM     65  C   UNL     1     -10.557   1.103   4.892  1.00  0.00     0.074 A 
ATOM     66  C   UNL     1      -9.638   1.835   5.738  1.00  0.00     0.031 C 
ATOM     67  C   UNL     1     -11.779   1.559   4.518  1.00  0.00     0.037 A 
BRANCH  54  68
ATOM     68  C   UNL     1     -14.867  -2.312   0.819  1.00  0.00     0.064 A 
ATOM     69  C   UNL     1     -15.768  -3.334   1.157  1.00  0.00     0.173 A 
ATOM     70  C   UNL     1     -15.172  -1.513  -0.293  1.00  0.00     0.173 A 
ATOM     71  F   UNL     1     -15.518  -4.137   2.202  1.00  0.00    -0.203 F 
ATOM     72  C   UNL     1     -16.912  -3.562   0.396  1.00  0.00     0.198 A 
ATOM     73  C   UNL     1     -16.334  -1.721  -1.031  1.00  0.00     0.198 A 
ATOM     74  F   UNL     1     -14.347  -0.520  -0.659  1.00  0.00    -0.203 F 
ATOM     75  F   UNL     1     -17.732  -4.576   0.707  1.00  0.00    -0.200 F 
ATOM     76  C   UNL     1     -17.199  -2.750  -0.692  1.00  0.00     0.200 A 
ATOM     77  F   UNL     1     -16.616  -0.926  -2.073  1.00  0.00    -0.200 F 
ATOM     78  F   UNL     1     -18.305  -2.964  -1.417  1.00  0.00    -0.200 F 
ENDBRANCH  54  68
BRANCH  55  79
ATOM     79  C   UNL     1      -6.403  -0.861   5.920  1.00  0.00     0.064 A 
ATOM     80  C   UNL     1      -6.388  -0.743   7.317  1.00  0.00     0.173 A 
ATOM     81  C   UNL     1      -5.184  -0.706   5.241  1.00  0.00     0.173 A 
ATOM     82  F   UNL     1      -7.530  -0.855   8.011  1.00  0.00    -0.203 F 
ATOM     83  C   UNL     1      -5.209  -0.456   8.004  1.00  0.00     0.198 A 
ATOM     84  C   UNL     1      -4.001  -0.452   5.932  1.00  0.00     0.198 A 
ATOM     85  F   UNL     1      -5.142  -0.802   3.905  1.00  0.00    -0.203 F 
ATOM     86  F   UNL     1      -5.235  -0.290   9.333  1.00  0.00    -0.200 F 
ATOM     87  C   UNL     1      -4.016  -0.317   7.311  1.00  0.00     0.200 A 
ATOM     88  F   UNL     1      -2.848  -0.331   5.259  1.00  0.00    -0.200 F 
ATOM     89  F   UNL     1      -2.883  -0.042   7.972  1.00  0.00    -0.200 F 
ENDBRANCH  55  79
BRANCH  67  90
ATOM     90  C   UNL     1     -12.207   2.899   5.053  1.00  0.00     0.064 A 
ATOM     91  C   UNL     1     -11.587   4.091   4.649  1.00  0.00     0.173 A 
ATOM     92  C   UNL     1     -13.265   2.992   5.971  1.00  0.00     0.173 A 
ATOM     93  F   UNL     1     -10.564   4.061   3.782  1.00  0.00    -0.203 F 
ATOM     94  C   UNL     1     -11.980   5.319   5.178  1.00  0.00     0.198 A 
ATOM     95  C   UNL     1     -13.681   4.225   6.467  1.00  0.00     0.198 A 
ATOM     96  F   UNL     1     -13.903   1.886   6.384  1.00  0.00    -0.203 F 
ATOM     97  F   UNL     1     -11.326   6.436   4.829  1.00  0.00    -0.200 F 
ATOM     98  C   UNL     1     -13.029   5.385   6.081  1.00  0.00     0.200 A 
ATOM     99  F   UNL     1     -14.708   4.288   7.326  1.00  0.00    -0.200 F 
ATOM    100  F   UNL     1     -13.406   6.567   6.588  1.00  0.00    -0.200 F 
ENDBRANCH  67  90
ENDBRANCH  41  42
ENDBRANCH  34  36
ENDBRANCH  33  34
ENDBRANCH  32  33
ENDBRANCH  31  32
ENDBRANCH  30  31
ENDBRANCH  29  30
ENDBRANCH  28  29
ENDBRANCH  27  28
ENDBRANCH   1  27
TORSDOF 23
