REMARK SMILES CC/C=C/C/C=C/C/C=C/C/C=C/CCSCCCC(=O)OCCOCCOCCOCCOC(=O)c1ccc(-c2c3nc(c(-c4c(F)c(F)c(F)c(F)c4F)c4ccc([nH]4)c(-c4c(F)c(F)c(F)c(F)c4F)c4nc(c(-c5c(F)c(F)c(F)c(F)c5F)c5ccc2[nH]5)C=C4)C=C3)cc1
REMARK SMILES IDX 23 1 22 2 20 3 21 4 19 5 18 6 17 7 16 8 15 9 14 10 13 11
REMARK SMILES IDX 12 12 11 13 10 14 9 15 8 16 7 17 6 18 5 19 4 20 3 21 2 22
REMARK SMILES IDX 1 23 24 24 25 25 26 26 27 27 28 28 29 29 30 30 31 31 32 32
REMARK SMILES IDX 33 33 34 34 35 35 36 36 37 37 38 38 99 39 39 40 98 41 40 42
REMARK SMILES IDX 41 43 42 44 92 45 43 46 97 47 91 48 93 49 44 50 96 51 90 52
REMARK SMILES IDX 89 53 45 55 77 56 57 57 76 58 58 59 61 60 75 61 94 62 59 63
REMARK SMILES IDX 60 64 74 66 95 67 62 68 46 69 47 70 55 71 48 72 49 73 53 74
REMARK SMILES IDX 56 75 50 76 51 77 54 78 52 79 78 80 79 81 87 82 80 83 81 84
REMARK SMILES IDX 85 85 88 86 82 87 83 88 86 89 84 90 63 91 64 92 72 93 65 94
REMARK SMILES IDX 66 95 70 96 73 97 67 98 68 99 71 100 69 101
REMARK H PARENT 93 54 61 65
REMARK Flexibility Score: inf
ROOT
ATOM      1  C   UNL     1      -6.400   7.085   5.556  1.00  0.00     0.261 C 
ENDROOT
BRANCH   1   2
ATOM      2  O   UNL     1      -5.801   8.009   6.472  1.00  0.00    -0.463 OA
BRANCH   2   3
ATOM      3  C   UNL     1      -4.651   7.882   7.153  1.00  0.00     0.305 C 
ATOM      4  O   UNL     1      -3.847   6.978   7.046  1.00  0.00    -0.252 OA
BRANCH   3   5
ATOM      5  C   UNL     1      -4.333   9.097   7.994  1.00  0.00     0.123 C 
BRANCH   5   6
ATOM      6  C   UNL     1      -5.429  10.124   8.261  1.00  0.00     0.023 C 
BRANCH   6   7
ATOM      7  C   UNL     1      -6.912   9.746   8.235  1.00  0.00     0.070 C 
BRANCH   7   8
ATOM      8  S   UNL     1      -7.718   8.347   9.123  1.00  0.00    -0.162 SA
BRANCH   8   9
ATOM      9  C   UNL     1      -6.411   7.382   9.966  1.00  0.00     0.073 C 
BRANCH   9  10
ATOM     10  C   UNL     1      -6.573   5.850   9.804  1.00  0.00     0.038 C 
BRANCH  10  11
ATOM     11  C   UNL     1      -6.151   5.245   8.483  1.00  0.00    -0.030 C 
ATOM     12  C   UNL     1      -5.005   4.588   8.198  1.00  0.00    -0.027 C 
BRANCH  12  13
ATOM     13  C   UNL     1      -4.612   4.022   6.833  1.00  0.00     0.054 C 
BRANCH  13  14
ATOM     14  C   UNL     1      -3.225   4.445   6.372  1.00  0.00    -0.027 C 
ATOM     15  C   UNL     1      -2.827   4.700   5.107  1.00  0.00    -0.027 C 
BRANCH  15  16
ATOM     16  C   UNL     1      -1.467   5.229   4.710  1.00  0.00     0.054 C 
BRANCH  16  17
ATOM     17  C   UNL     1      -0.459   4.136   4.849  1.00  0.00    -0.027 C 
ATOM     18  C   UNL     1       0.179   3.544   3.829  1.00  0.00    -0.027 C 
BRANCH  18  19
ATOM     19  C   UNL     1       0.920   2.251   4.004  1.00  0.00     0.054 C 
BRANCH  19  20
ATOM     20  C   UNL     1       0.346   1.219   3.077  1.00  0.00    -0.027 C 
ATOM     21  C   UNL     1       1.082   0.463   2.250  1.00  0.00    -0.031 C 
BRANCH  21  22
ATOM     22  C   UNL     1       0.496  -0.505   1.266  1.00  0.00     0.023 C 
ATOM     23  C   UNL     1       0.925  -0.147  -0.149  1.00  0.00     0.008 C 
ENDBRANCH  21  22
ENDBRANCH  19  20
ENDBRANCH  18  19
ENDBRANCH  16  17
ENDBRANCH  15  16
ENDBRANCH  13  14
ENDBRANCH  12  13
ENDBRANCH  10  11
ENDBRANCH   9  10
ENDBRANCH   8   9
ENDBRANCH   7   8
ENDBRANCH   6   7
ENDBRANCH   5   6
ENDBRANCH   3   5
ENDBRANCH   2   3
ENDBRANCH   1   2
BRANCH   1  24
ATOM     24  C   UNL     1      -5.645   6.519   4.359  1.00  0.00     0.202 C 
BRANCH  24  25
ATOM     25  O   UNL     1      -4.758   7.268   3.566  1.00  0.00    -0.376 OA
BRANCH  25  26
ATOM     26  C   UNL     1      -3.793   8.147   4.096  1.00  0.00     0.188 C 
BRANCH  26  27
ATOM     27  C   UNL     1      -4.314   9.541   4.472  1.00  0.00     0.188 C 
BRANCH  27  28
ATOM     28  O   UNL     1      -5.216  10.204   3.605  1.00  0.00    -0.377 OA
BRANCH  28  29
ATOM     29  C   UNL     1      -6.214   9.426   2.974  1.00  0.00     0.188 C 
BRANCH  29  30
ATOM     30  C   UNL     1      -5.822   8.833   1.601  1.00  0.00     0.188 C 
BRANCH  30  31
ATOM     31  O   UNL     1      -4.679   9.294   0.897  1.00  0.00    -0.376 OA
BRANCH  31  32
ATOM     32  C   UNL     1      -4.140  10.569   1.184  1.00  0.00     0.202 C 
BRANCH  32  33
ATOM     33  C   UNL     1      -5.025  11.826   1.048  1.00  0.00     0.261 C 
BRANCH  33  34
ATOM     34  O   UNL     1      -6.417  11.720   1.402  1.00  0.00    -0.460 OA
BRANCH  34  35
ATOM     35  C   UNL     1      -7.267  11.319   0.420  1.00  0.00     0.338 C 
ATOM     36  O   UNL     1      -6.992  11.107  -0.740  1.00  0.00    -0.246 OA
BRANCH  35  37
ATOM     37  C   UNL     1      -8.593  10.980   1.017  1.00  0.00     0.060 A 
ATOM     38  C   UNL     1      -9.139   9.709   0.763  1.00  0.00     0.016 A 
ATOM     39  C   UNL     1      -9.301  11.892   1.800  1.00  0.00     0.016 A 
ATOM     40  C   UNL     1     -10.402   9.364   1.244  1.00  0.00     0.010 A 
ATOM     41  C   UNL     1     -10.593  11.568   2.238  1.00  0.00     0.010 A 
ATOM     42  C   UNL     1     -11.166  10.322   1.917  1.00  0.00    -0.014 A 
BRANCH  42  43
ATOM     43  C   UNL     1     -12.638  10.140   1.979  1.00  0.00     0.031 A 
ATOM     44  C   UNL     1     -13.456  10.758   0.874  1.00  0.00     0.074 A 
ATOM     45  C   UNL     1     -13.239   9.416   2.939  1.00  0.00     0.049 A 
ATOM     46  N   UNL     1     -14.754  10.822   0.725  1.00  0.00    -0.248 NA
ATOM     47  C   UNL     1     -12.695  11.396  -0.215  1.00  0.00     0.031 C 
ATOM     48  C   UNL     1     -12.558   8.704   4.015  1.00  0.00     0.029 A 
ATOM     49  N   UNL     1     -14.573   9.174   3.162  1.00  0.00    -0.354 N 
ATOM     50  C   UNL     1     -14.961  11.516  -0.461  1.00  0.00     0.074 A 
ATOM     51  C   UNL     1     -13.662  11.879  -0.978  1.00  0.00     0.031 C 
ATOM     52  C   UNL     1     -13.481   8.124   4.804  1.00  0.00     0.029 A 
ATOM     53  C   UNL     1     -14.817   8.457   4.308  1.00  0.00     0.049 A 
ATOM     54  H   UNL     1     -15.286   9.484   2.558  1.00  0.00     0.167 HD
ATOM     55  C   UNL     1     -16.131  11.819  -1.069  1.00  0.00     0.037 A 
ATOM     56  C   UNL     1     -15.986   8.142   4.901  1.00  0.00     0.037 A 
ATOM     57  C   UNL     1     -17.422  11.461  -0.549  1.00  0.00     0.049 A 
ATOM     58  C   UNL     1     -17.282   8.573   4.255  1.00  0.00     0.074 A 
ATOM     59  C   UNL     1     -18.671  11.723  -1.083  1.00  0.00     0.029 A 
ATOM     60  N   UNL     1     -17.629  10.768   0.635  1.00  0.00    -0.354 N 
ATOM     61  N   UNL     1     -17.475   9.230   3.136  1.00  0.00    -0.248 NA
ATOM     62  C   UNL     1     -18.524   8.217   4.957  1.00  0.00     0.031 C 
ATOM     63  C   UNL     1     -19.635  11.242  -0.192  1.00  0.00     0.029 A 
ATOM     64  C   UNL     1     -18.986  10.617   0.862  1.00  0.00     0.049 A 
ATOM     65  H   UNL     1     -16.916  10.434   1.225  1.00  0.00     0.167 HD
ATOM     66  C   UNL     1     -18.852   9.336   2.983  1.00  0.00     0.074 A 
ATOM     67  C   UNL     1     -19.449   8.663   4.118  1.00  0.00     0.031 C 
ATOM     68  C   UNL     1     -19.562   9.933   1.993  1.00  0.00     0.037 A 
BRANCH  55  69
ATOM     69  C   UNL     1     -16.064  12.612  -2.344  1.00  0.00     0.064 A 
ATOM     70  C   UNL     1     -15.559  12.064  -3.533  1.00  0.00     0.173 A 
ATOM     71  C   UNL     1     -16.529  13.935  -2.378  1.00  0.00     0.173 A 
ATOM     72  F   UNL     1     -15.083  10.810  -3.550  1.00  0.00    -0.203 F 
ATOM     73  C   UNL     1     -15.496  12.821  -4.701  1.00  0.00     0.198 A 
ATOM     74  C   UNL     1     -16.497  14.677  -3.556  1.00  0.00     0.198 A 
ATOM     75  F   UNL     1     -17.021  14.509  -1.270  1.00  0.00    -0.203 F 
ATOM     76  F   UNL     1     -14.959  12.295  -5.810  1.00  0.00    -0.200 F 
ATOM     77  C   UNL     1     -15.973  14.123  -4.713  1.00  0.00     0.200 A 
ATOM     78  F   UNL     1     -16.971  15.931  -3.568  1.00  0.00    -0.200 F 
ATOM     79  F   UNL     1     -15.920  14.847  -5.840  1.00  0.00    -0.200 F 
ENDBRANCH  55  69
BRANCH  56  80
ATOM     80  C   UNL     1     -15.994   7.405   6.195  1.00  0.00     0.064 A 
ATOM     81  C   UNL     1     -16.519   6.109   6.293  1.00  0.00     0.173 A 
ATOM     82  C   UNL     1     -15.505   7.998   7.370  1.00  0.00     0.173 A 
ATOM     83  F   UNL     1     -17.027   5.508   5.206  1.00  0.00    -0.203 F 
ATOM     84  C   UNL     1     -16.573   5.443   7.516  1.00  0.00     0.198 A 
ATOM     85  C   UNL     1     -15.530   7.318   8.586  1.00  0.00     0.198 A 
ATOM     86  F   UNL     1     -14.999   9.239   7.336  1.00  0.00    -0.203 F 
ATOM     87  F   UNL     1     -17.131   4.227   7.590  1.00  0.00    -0.200 F 
ATOM     88  C   UNL     1     -16.072   6.045   8.661  1.00  0.00     0.200 A 
ATOM     89  F   UNL     1     -15.035   7.901   9.687  1.00  0.00    -0.200 F 
ATOM     90  F   UNL     1     -16.123   5.404   9.836  1.00  0.00    -0.200 F 
ENDBRANCH  56  80
BRANCH  68  91
ATOM     91  C   UNL     1     -21.061   9.847   2.061  1.00  0.00     0.064 A 
ATOM     92  C   UNL     1     -21.802  10.548   3.023  1.00  0.00     0.173 A 
ATOM     93  C   UNL     1     -21.769   9.089   1.114  1.00  0.00     0.173 A 
ATOM     94  F   UNL     1     -21.175  11.280   3.957  1.00  0.00    -0.203 F 
ATOM     95  C   UNL     1     -23.192  10.469   3.055  1.00  0.00     0.198 A 
ATOM     96  C   UNL     1     -23.160   9.041   1.126  1.00  0.00     0.198 A 
ATOM     97  F   UNL     1     -21.111   8.408   0.164  1.00  0.00    -0.203 F 
ATOM     98  F   UNL     1     -23.876  11.104   4.016  1.00  0.00    -0.200 F 
ATOM     99  C   UNL     1     -23.870   9.723   2.102  1.00  0.00     0.200 A 
ATOM    100  F   UNL     1     -23.813   8.336   0.192  1.00  0.00    -0.200 F 
ATOM    101  F   UNL     1     -25.208   9.657   2.128  1.00  0.00    -0.200 F 
ENDBRANCH  68  91
ENDBRANCH  42  43
ENDBRANCH  35  37
ENDBRANCH  34  35
ENDBRANCH  33  34
ENDBRANCH  32  33
ENDBRANCH  31  32
ENDBRANCH  30  31
ENDBRANCH  29  30
ENDBRANCH  28  29
ENDBRANCH  27  28
ENDBRANCH  26  27
ENDBRANCH  25  26
ENDBRANCH  24  25
ENDBRANCH   1  24
TORSDOF 33
