REMARK SMILES CCOC(=O)c1ccc(NC(=O)[C@@H]2[C@H]3c4ccccc4[C@H](c4ccccc43)[C@@H]2C(=O)OCCOCCOCCOCCOC(=O)c2ccc(-c3c4nc(c(-c5c(F)c(F)c(F)c(F)c5F)c5ccc([nH]5)c(-c5c(F)c(F)c(F)c(F)c5F)c5nc(c(-c6c(F)c(F)c(F)c(F)c6F)c6ccc3[nH]6)C=C5)C=C4)cc2)cc1
REMARK SMILES IDX 35 1 34 2 33 3 32 4 31 5 29 6 30 7 28 8 13 9 14 10 15 11
REMARK SMILES IDX 27 12 21 13 16 14 20 15 22 16 26 17 17 18 19 19 23 20 25 21
REMARK SMILES IDX 18 22 24 23 11 24 10 25 12 27 9 28 6 29 7 30 110 31 8 32
REMARK SMILES IDX 109 33 4 34 5 35 3 36 2 37 1 38 36 39 37 40 38 41 39 42
REMARK SMILES IDX 40 43 41 44 42 45 43 46 44 47 45 48 46 49 47 50 108 51 48 52
REMARK SMILES IDX 107 53 49 54 50 55 51 56 101 57 52 58 106 59 100 60 102 61
REMARK SMILES IDX 53 62 105 63 99 64 98 65 54 67 86 68 66 69 85 70 67 71 70 72
REMARK SMILES IDX 84 73 103 74 68 75 69 76 83 78 104 79 71 80 55 81 56 82
REMARK SMILES IDX 64 83 57 84 58 85 62 86 65 87 59 88 60 89 63 90 61 91 87 92
REMARK SMILES IDX 88 93 96 94 89 95 90 96 94 97 97 98 91 99 92 100 95 101
REMARK SMILES IDX 93 102 72 103 73 104 81 105 74 106 75 107 79 108 82 109
REMARK SMILES IDX 76 110 77 111 80 112 78 113
REMARK H PARENT 10 26 102 66 70 77
REMARK Flexibility Score: inf
ROOT
ATOM      1  C   UNL     1       3.791  -4.405  -2.941  1.00  0.00     0.188 C 
ENDROOT
BRANCH   1   2
ATOM      2  O   UNL     1       2.279  -5.107  -1.861  1.00  0.00    -0.376 OA
BRANCH   2   3
ATOM      3  C   UNL     1       1.196  -5.055  -0.810  1.00  0.00     0.202 C 
BRANCH   3   4
ATOM      4  C   UNL     1       1.408  -5.169   0.738  1.00  0.00     0.261 C 
BRANCH   4   5
ATOM      5  O   UNL     1       2.697  -5.554   1.227  1.00  0.00    -0.463 OA
BRANCH   5   6
ATOM      6  C   UNL     1       2.996  -6.847   0.945  1.00  0.00     0.310 C 
ATOM      7  O   UNL     1       2.144  -7.654   0.576  1.00  0.00    -0.252 OA
BRANCH   6   8
ATOM      8  C   UNL     1       4.536  -7.155   1.046  1.00  0.00     0.124 C 
ATOM      9  C   UNL     1       4.659  -8.570   0.531  1.00  0.00     0.106 C 
ATOM     10  C   UNL     1       4.421  -9.490   1.819  1.00  0.00     0.063 C 
ATOM     11  C   UNL     1       5.852  -9.420   2.406  1.00  0.00    -0.036 A 
ATOM     12  C   UNL     1       3.534  -8.797   2.923  1.00  0.00    -0.036 A 
ATOM     13  C   UNL     1       5.158  -7.045   2.471  1.00  0.00     0.065 C 
ATOM     14  C   UNL     1       6.720 -10.486   2.574  1.00  0.00     0.004 A 
ATOM     15  C   UNL     1       6.277  -8.075   2.653  1.00  0.00    -0.036 A 
ATOM     16  C   UNL     1       4.017  -7.514   3.334  1.00  0.00    -0.036 A 
ATOM     17  C   UNL     1       2.303  -9.199   3.411  1.00  0.00     0.004 A 
ATOM     18  C   UNL     1       8.030 -10.209   2.969  1.00  0.00     0.000 A 
ATOM     19  C   UNL     1       7.583  -7.809   3.027  1.00  0.00     0.004 A 
ATOM     20  C   UNL     1       3.346  -6.674   4.215  1.00  0.00     0.004 A 
ATOM     21  C   UNL     1       1.597  -8.337   4.278  1.00  0.00     0.000 A 
ATOM     22  C   UNL     1       8.460  -8.887   3.179  1.00  0.00     0.000 A 
ATOM     23  C   UNL     1       2.114  -7.094   4.683  1.00  0.00     0.000 A 
BRANCH   9  24
ATOM     24  C   UNL     1       4.046  -8.840  -0.845  1.00  0.00     0.229 C 
ATOM     25  N   UNL     1       3.798  -7.913  -1.840  1.00  0.00    -0.326 N 
ATOM     26  H   UNL     1       3.775  -8.368  -2.713  1.00  0.00     0.169 HD
ATOM     27  O   UNL     1       3.892 -10.026  -1.181  1.00  0.00    -0.274 OA
BRANCH  25  28
ATOM     28  C   UNL     1       3.562  -6.508  -2.025  1.00  0.00     0.041 A 
ATOM     29  C   UNL     1       1.947  -3.260  -2.455  1.00  0.00     0.060 A 
ATOM     30  C   UNL     1       3.091  -3.514  -1.095  1.00  0.00     0.018 A 
ATOM     31  C   UNL     1       1.628  -4.597  -3.621  1.00  0.00     0.018 A 
ATOM     32  C   UNL     1       3.919  -5.122  -0.906  1.00  0.00     0.027 A 
ATOM     33  C   UNL     1       2.417  -6.210  -3.409  1.00  0.00     0.027 A 
BRANCH  29  34
ATOM     34  C   UNL     1       1.345  -1.935  -2.560  1.00  0.00     0.338 C 
ATOM     35  O   UNL     1       1.867  -0.996  -3.151  1.00  0.00    -0.246 OA
BRANCH  34  36
ATOM     36  O   UNL     1       0.290  -1.907  -1.723  1.00  0.00    -0.462 OA
BRANCH  36  37
ATOM     37  C   UNL     1      -0.213  -0.608  -1.379  1.00  0.00     0.230 C 
ATOM     38  C   UNL     1       0.447  -0.155  -0.089  1.00  0.00     0.049 C 
ENDBRANCH  36  37
ENDBRANCH  34  36
ENDBRANCH  29  34
ENDBRANCH  25  28
ENDBRANCH   9  24
ENDBRANCH   6   8
ENDBRANCH   5   6
ENDBRANCH   4   5
ENDBRANCH   3   4
ENDBRANCH   2   3
ENDBRANCH   1   2
BRANCH   1  39
ATOM     39  C   UNL     1       5.345  -4.005  -2.522  1.00  0.00     0.188 C 
BRANCH  39  40
ATOM     40  O   UNL     1       5.578  -2.825  -1.759  1.00  0.00    -0.377 OA
BRANCH  40  41
ATOM     41  C   UNL     1       5.068  -1.584  -2.241  1.00  0.00     0.188 C 
BRANCH  41  42
ATOM     42  C   UNL     1       5.077  -1.331  -3.749  1.00  0.00     0.188 C 
BRANCH  42  43
ATOM     43  O   UNL     1       6.166  -1.969  -4.393  1.00  0.00    -0.376 OA
BRANCH  43  44
ATOM     44  C   UNL     1       7.311  -1.173  -4.647  1.00  0.00     0.202 C 
BRANCH  44  45
ATOM     45  C   UNL     1       8.098  -0.669  -3.427  1.00  0.00     0.261 C 
BRANCH  45  46
ATOM     46  O   UNL     1       7.427   0.199  -2.488  1.00  0.00    -0.460 OA
BRANCH  46  47
ATOM     47  C   UNL     1       6.761   1.289  -2.916  1.00  0.00     0.338 C 
ATOM     48  O   UNL     1       6.727   1.726  -4.060  1.00  0.00    -0.246 OA
BRANCH  47  49
ATOM     49  C   UNL     1       5.896   1.775  -1.807  1.00  0.00     0.060 A 
ATOM     50  C   UNL     1       4.529   1.987  -2.041  1.00  0.00     0.016 A 
ATOM     51  C   UNL     1       6.421   2.005  -0.530  1.00  0.00     0.016 A 
ATOM     52  C   UNL     1       3.705   2.492  -1.025  1.00  0.00     0.010 A 
ATOM     53  C   UNL     1       5.603   2.533   0.479  1.00  0.00     0.010 A 
ATOM     54  C   UNL     1       4.251   2.828   0.223  1.00  0.00    -0.014 A 
BRANCH  54  55
ATOM     55  C   UNL     1       3.510   3.751   1.129  1.00  0.00     0.031 A 
ATOM     56  C   UNL     1       3.735   5.232   0.942  1.00  0.00     0.074 A 
ATOM     57  C   UNL     1       2.659   3.329   2.083  1.00  0.00     0.049 A 
ATOM     58  N   UNL     1       3.248   6.246   1.611  1.00  0.00    -0.248 NA
ATOM     59  C   UNL     1       4.641   5.617  -0.154  1.00  0.00     0.031 C 
ATOM     60  C   UNL     1       2.320   1.938   2.364  1.00  0.00     0.029 A 
ATOM     61  N   UNL     1       1.929   4.046   3.004  1.00  0.00    -0.354 N 
ATOM     62  C   UNL     1       3.788   7.381   1.020  1.00  0.00     0.074 A 
ATOM     63  C   UNL     1       4.657   6.935  -0.045  1.00  0.00     0.031 C 
ATOM     64  C   UNL     1       1.452   1.900   3.393  1.00  0.00     0.029 A 
ATOM     65  C   UNL     1       1.201   3.263   3.867  1.00  0.00     0.049 A 
ATOM     66  H   UNL     1       1.927   5.029   3.040  1.00  0.00     0.167 HD
ATOM     67  C   UNL     1       3.581   8.683   1.329  1.00  0.00     0.037 A 
ATOM     68  C   UNL     1       0.442   3.606   4.930  1.00  0.00     0.037 A 
ATOM     69  C   UNL     1       2.733   9.143   2.394  1.00  0.00     0.049 A 
ATOM     70  C   UNL     1       0.285   5.065   5.302  1.00  0.00     0.074 A 
ATOM     71  C   UNL     1       2.456  10.445   2.773  1.00  0.00     0.029 A 
ATOM     72  N   UNL     1       2.037   8.316   3.261  1.00  0.00    -0.354 N 
ATOM     73  N   UNL     1       0.767   6.131   4.711  1.00  0.00    -0.248 NA
ATOM     74  C   UNL     1      -0.525   5.364   6.494  1.00  0.00     0.031 C 
ATOM     75  C   UNL     1       1.637  10.405   3.906  1.00  0.00     0.029 A 
ATOM     76  C   UNL     1       1.355   9.080   4.194  1.00  0.00     0.049 A 
ATOM     77  H   UNL     1       2.029   7.332   3.220  1.00  0.00     0.167 HD
ATOM     78  C   UNL     1       0.297   7.220   5.438  1.00  0.00     0.074 A 
ATOM     79  C   UNL     1      -0.524   6.689   6.503  1.00  0.00     0.031 C 
ATOM     80  C   UNL     1       0.529   8.543   5.244  1.00  0.00     0.037 A 
BRANCH  67  81
ATOM     81  C   UNL     1       4.319   9.708   0.521  1.00  0.00     0.064 A 
ATOM     82  C   UNL     1       3.970   9.989  -0.809  1.00  0.00     0.173 A 
ATOM     83  C   UNL     1       5.368  10.440   1.096  1.00  0.00     0.173 A 
ATOM     84  F   UNL     1       2.987   9.301  -1.409  1.00  0.00    -0.203 F 
ATOM     85  C   UNL     1       4.660  10.952  -1.540  1.00  0.00     0.198 A 
ATOM     86  C   UNL     1       6.036  11.422   0.371  1.00  0.00     0.198 A 
ATOM     87  F   UNL     1       5.739  10.207   2.364  1.00  0.00    -0.203 F 
ATOM     88  F   UNL     1       4.340  11.174  -2.822  1.00  0.00    -0.200 F 
ATOM     89  C   UNL     1       5.686  11.674  -0.947  1.00  0.00     0.200 A 
ATOM     90  F   UNL     1       7.020  12.125   0.949  1.00  0.00    -0.200 F 
ATOM     91  F   UNL     1       6.343  12.607  -1.649  1.00  0.00    -0.200 F 
ENDBRANCH  67  81
BRANCH  68  92
ATOM     92  C   UNL     1      -0.217   2.558   5.761  1.00  0.00     0.064 A 
ATOM     93  C   UNL     1      -1.614   2.457   5.832  1.00  0.00     0.173 A 
ATOM     94  C   UNL     1       0.538   1.683   6.556  1.00  0.00     0.173 A 
ATOM     95  F   UNL     1      -2.383   3.293   5.119  1.00  0.00    -0.203 F 
ATOM     96  C   UNL     1      -2.230   1.543   6.688  1.00  0.00     0.198 A 
ATOM     97  C   UNL     1      -0.078   0.747   7.386  1.00  0.00     0.198 A 
ATOM     98  F   UNL     1       1.877   1.742   6.535  1.00  0.00    -0.203 F 
ATOM     99  F   UNL     1      -3.566   1.515   6.785  1.00  0.00    -0.200 F 
ATOM    100  C   UNL     1      -1.461   0.686   7.460  1.00  0.00     0.200 A 
ATOM    101  F   UNL     1       0.669  -0.085   8.124  1.00  0.00    -0.200 F 
ATOM    102  F   UNL     1      -2.053  -0.188   8.286  1.00  0.00    -0.200 F 
ENDBRANCH  68  92
BRANCH  80 103
ATOM    103  C   UNL     1      -0.142   9.516   6.173  1.00  0.00     0.064 A 
ATOM    104  C   UNL     1       0.245   9.645   7.515  1.00  0.00     0.173 A 
ATOM    105  C   UNL     1      -1.156  10.364   5.701  1.00  0.00     0.173 A 
ATOM    106  F   UNL     1       1.202   8.852   8.021  1.00  0.00    -0.203 F 
ATOM    107  C   UNL     1      -0.377  10.565   8.356  1.00  0.00     0.198 A 
ATOM    108  C   UNL     1      -1.753  11.305   6.535  1.00  0.00     0.198 A 
ATOM    109  F   UNL     1      -1.558  10.291   4.423  1.00  0.00    -0.203 F 
ATOM    110  F   UNL     1      -0.025  10.635   9.647  1.00  0.00    -0.200 F 
ATOM    111  C   UNL     1      -1.370  11.399   7.864  1.00  0.00     0.200 A 
ATOM    112  F   UNL     1      -2.700  12.122   6.053  1.00  0.00    -0.200 F 
ATOM    113  F   UNL     1      -1.962  12.289   8.673  1.00  0.00    -0.200 F 
ENDBRANCH  80 103
ENDBRANCH  54  55
ENDBRANCH  47  49
ENDBRANCH  46  47
ENDBRANCH  45  46
ENDBRANCH  44  45
ENDBRANCH  43  44
ENDBRANCH  42  43
ENDBRANCH  41  42
ENDBRANCH  40  41
ENDBRANCH  39  40
ENDBRANCH   1  39
TORSDOF 25
