REMARK SMILES C[C@H]1[C@@H](C(=O)OCCOCCOCCOCCOC(=O)c2ccc(-c3c4nc(c(-c5c(F)c(F)c(F)c(F)c5F)c5ccc([nH]5)c(-c5c(F)c(F)c(F)c(F)c5F)c5nc(c(-c6c(F)c(F)c(F)c(F)c6F)c6ccc3[nH]6)C=C5)C=C4)cc2)CCN1C(=O)c1cncc(O)c1
REMARK SMILES IDX 11 1 10 2 9 3 8 4 7 5 6 6 4 7 5 8 3 9 1 10 2 11 86 12 84 13
REMARK SMILES IDX 85 14 87 15 88 16 89 17 90 18 95 19 91 20 93 21 92 22 94 23
REMARK SMILES IDX 12 25 13 26 14 27 15 28 16 29 17 30 18 31 19 32 20 33 21 34
REMARK SMILES IDX 22 35 83 36 23 37 82 38 24 39 25 40 26 41 76 42 27 43 81 44
REMARK SMILES IDX 75 45 77 46 28 47 80 48 74 49 73 50 29 52 61 53 41 54 60 55
REMARK SMILES IDX 42 56 45 57 59 58 78 59 43 60 44 61 58 63 79 64 46 65 30 66
REMARK SMILES IDX 31 67 39 68 32 69 33 70 37 71 40 72 34 73 35 74 38 75 36 76
REMARK SMILES IDX 62 77 63 78 71 79 64 80 65 81 69 82 72 83 66 84 67 85 70 86
REMARK SMILES IDX 68 87 47 88 48 89 56 90 49 91 50 92 54 93 57 94 51 95 52 96
REMARK SMILES IDX 55 97 53 98
REMARK H PARENT 94 24 77 51 45 62
REMARK Flexibility Score: inf
ROOT
ATOM      1  C   UNL     1      -0.128   0.276  -2.685  1.00  0.00     0.188 C 
ENDROOT
BRANCH   1   2
ATOM      2  C   UNL     1      -0.581   1.678  -3.154  1.00  0.00     0.188 C 
BRANCH   2   3
ATOM      3  O   UNL     1       0.366   2.342  -3.962  1.00  0.00    -0.376 OA
BRANCH   3   4
ATOM      4  C   UNL     1       1.115   3.409  -3.425  1.00  0.00     0.202 C 
BRANCH   4   5
ATOM      5  C   UNL     1       1.882   3.245  -2.104  1.00  0.00     0.261 C 
BRANCH   5   6
ATOM      6  O   UNL     1       1.399   2.253  -1.188  1.00  0.00    -0.463 OA
BRANCH   6   7
ATOM      7  C   UNL     1       0.596   2.646  -0.179  1.00  0.00     0.311 C 
ATOM      8  O   UNL     1       0.142   3.781  -0.079  1.00  0.00    -0.252 OA
BRANCH   7   9
ATOM      9  C   UNL     1       0.220   1.536   0.804  1.00  0.00     0.123 C 
ATOM     10  C   UNL     1       2.364   0.125   0.210  1.00  0.00     0.032 C 
ATOM     11  C   UNL     1       1.053   0.246   0.989  1.00  0.00     0.096 C 
ATOM     12  N   UNL     1       0.115  -0.876   0.779  1.00  0.00    -0.335 N 
ATOM     13  C   UNL     1      -1.234   1.083   0.599  1.00  0.00     0.039 C 
ATOM     14  C   UNL     1      -1.231  -0.431   0.502  1.00  0.00     0.121 C 
BRANCH  12  15
ATOM     15  C   UNL     1       0.333  -2.248   0.874  1.00  0.00     0.255 C 
ATOM     16  O   UNL     1      -0.482  -3.086   0.495  1.00  0.00    -0.269 OA
BRANCH  15  17
ATOM     17  C   UNL     1       1.571  -2.732   1.497  1.00  0.00     0.062 A 
ATOM     18  C   UNL     1       2.365  -3.656   0.833  1.00  0.00     0.125 A 
ATOM     19  C   UNL     1       1.963  -2.282   2.758  1.00  0.00     0.063 A 
ATOM     20  N   UNL     1       3.557  -4.090   1.314  1.00  0.00    -0.260 NA
ATOM     21  C   UNL     1       3.189  -2.693   3.256  1.00  0.00     0.134 A 
ATOM     22  C   UNL     1       3.947  -3.585   2.511  1.00  0.00     0.157 A 
BRANCH  21  23
ATOM     23  O   UNL     1       3.667  -2.225   4.440  1.00  0.00    -0.506 OA
ATOM     24  H   UNL     1       4.499  -2.517   4.758  1.00  0.00     0.293 HD
ENDBRANCH  21  23
ENDBRANCH  15  17
ENDBRANCH  12  15
ENDBRANCH   7   9
ENDBRANCH   6   7
ENDBRANCH   5   6
ENDBRANCH   4   5
ENDBRANCH   3   4
ENDBRANCH   2   3
ENDBRANCH   1   2
BRANCH   1  25
ATOM     25  O   UNL     1       0.963  -0.441  -3.252  1.00  0.00    -0.377 OA
BRANCH  25  26
ATOM     26  C   UNL     1       1.519  -0.003  -4.477  1.00  0.00     0.188 C 
BRANCH  26  27
ATOM     27  C   UNL     1       0.552   0.051  -5.674  1.00  0.00     0.188 C 
BRANCH  27  28
ATOM     28  O   UNL     1      -0.808  -0.103  -5.305  1.00  0.00    -0.376 OA
BRANCH  28  29
ATOM     29  C   UNL     1      -1.402  -1.388  -5.405  1.00  0.00     0.202 C 
BRANCH  29  30
ATOM     30  C   UNL     1      -0.751  -2.626  -4.757  1.00  0.00     0.261 C 
BRANCH  30  31
ATOM     31  O   UNL     1       0.660  -2.805  -4.936  1.00  0.00    -0.460 OA
BRANCH  31  32
ATOM     32  C   UNL     1       1.104  -3.090  -6.170  1.00  0.00     0.338 C 
ATOM     33  O   UNL     1       0.438  -3.218  -7.189  1.00  0.00    -0.246 OA
BRANCH  32  34
ATOM     34  C   UNL     1       2.578  -3.032  -6.139  1.00  0.00     0.060 A 
ATOM     35  C   UNL     1       3.229  -2.089  -6.943  1.00  0.00     0.016 A 
ATOM     36  C   UNL     1       3.313  -3.898  -5.324  1.00  0.00     0.016 A 
ATOM     37  C   UNL     1       4.619  -2.044  -6.977  1.00  0.00     0.010 A 
ATOM     38  C   UNL     1       4.710  -3.875  -5.381  1.00  0.00     0.010 A 
ATOM     39  C   UNL     1       5.363  -2.980  -6.247  1.00  0.00    -0.014 A 
BRANCH  39  40
ATOM     40  C   UNL     1       6.785  -3.178  -6.612  1.00  0.00     0.031 A 
ATOM     41  C   UNL     1       7.112  -4.265  -7.600  1.00  0.00     0.074 A 
ATOM     42  C   UNL     1       7.748  -2.358  -6.158  1.00  0.00     0.049 A 
ATOM     43  N   UNL     1       8.263  -4.601  -8.123  1.00  0.00    -0.248 NA
ATOM     44  C   UNL     1       5.979  -5.081  -8.068  1.00  0.00     0.031 C 
ATOM     45  C   UNL     1       7.543  -1.241  -5.239  1.00  0.00     0.029 A 
ATOM     46  N   UNL     1       9.094  -2.338  -6.423  1.00  0.00    -0.354 N 
ATOM     47  C   UNL     1       7.991  -5.663  -8.976  1.00  0.00     0.074 A 
ATOM     48  C   UNL     1       6.577  -5.944  -8.873  1.00  0.00     0.031 C 
ATOM     49  C   UNL     1       8.727  -0.643  -5.013  1.00  0.00     0.029 A 
ATOM     50  C   UNL     1       9.772  -1.352  -5.751  1.00  0.00     0.049 A 
ATOM     51  H   UNL     1       9.532  -2.971  -7.036  1.00  0.00     0.167 HD
ATOM     52  C   UNL     1       8.843  -6.336  -9.785  1.00  0.00     0.037 A 
ATOM     53  C   UNL     1      11.089  -1.068  -5.730  1.00  0.00     0.037 A 
ATOM     54  C   UNL     1      10.251  -6.057  -9.879  1.00  0.00     0.049 A 
ATOM     55  C   UNL     1      12.030  -1.883  -6.582  1.00  0.00     0.074 A 
ATOM     56  C   UNL     1      11.203  -6.676 -10.669  1.00  0.00     0.029 A 
ATOM     57  N   UNL     1      10.911  -5.082  -9.145  1.00  0.00    -0.354 N 
ATOM     58  N   UNL     1      11.764  -2.868  -7.407  1.00  0.00    -0.248 NA
ATOM     59  C   UNL     1      13.456  -1.536  -6.508  1.00  0.00     0.031 C 
ATOM     60  C   UNL     1      12.449  -6.118 -10.367  1.00  0.00     0.029 A 
ATOM     61  C   UNL     1      12.264  -5.100  -9.444  1.00  0.00     0.049 A 
ATOM     62  H   UNL     1      10.482  -4.468  -8.506  1.00  0.00     0.167 HD
ATOM     63  C   UNL     1      12.980  -3.233  -7.974  1.00  0.00     0.074 A 
ATOM     64  C   UNL     1      13.980  -2.349  -7.412  1.00  0.00     0.031 C 
ATOM     65  C   UNL     1      13.246  -4.208  -8.880  1.00  0.00     0.037 A 
BRANCH  52  66
ATOM     66  C   UNL     1       8.276  -7.461 -10.603  1.00  0.00     0.064 A 
ATOM     67  C   UNL     1       7.393  -7.233 -11.670  1.00  0.00     0.173 A 
ATOM     68  C   UNL     1       8.636  -8.789 -10.324  1.00  0.00     0.173 A 
ATOM     69  F   UNL     1       7.002  -5.984 -11.968  1.00  0.00    -0.203 F 
ATOM     70  C   UNL     1       6.869  -8.292 -12.407  1.00  0.00     0.198 A 
ATOM     71  C   UNL     1       8.138  -9.842 -11.085  1.00  0.00     0.198 A 
ATOM     72  F   UNL     1       9.476  -9.064  -9.316  1.00  0.00    -0.203 F 
ATOM     73  F   UNL     1       5.985  -8.054 -13.385  1.00  0.00    -0.200 F 
ATOM     74  C   UNL     1       7.248  -9.595 -12.119  1.00  0.00     0.200 A 
ATOM     75  F   UNL     1       8.517 -11.099 -10.815  1.00  0.00    -0.200 F 
ATOM     76  F   UNL     1       6.750 -10.613 -12.835  1.00  0.00    -0.200 F 
ENDBRANCH  52  66
BRANCH  53  77
ATOM     77  C   UNL     1      11.602   0.033  -4.871  1.00  0.00     0.064 A 
ATOM     78  C   UNL     1      12.177   1.184  -5.428  1.00  0.00     0.173 A 
ATOM     79  C   UNL     1      11.559  -0.059  -3.471  1.00  0.00     0.173 A 
ATOM     80  F   UNL     1      12.266   1.311  -6.760  1.00  0.00    -0.203 F 
ATOM     81  C   UNL     1      12.711   2.186  -4.620  1.00  0.00     0.198 A 
ATOM     82  C   UNL     1      12.062   0.959  -2.665  1.00  0.00     0.198 A 
ATOM     83  F   UNL     1      11.021  -1.139  -2.885  1.00  0.00    -0.203 F 
ATOM     84  F   UNL     1      13.307   3.248  -5.180  1.00  0.00    -0.200 F 
ATOM     85  C   UNL     1      12.648   2.076  -3.240  1.00  0.00     0.200 A 
ATOM     86  F   UNL     1      11.986   0.854  -1.331  1.00  0.00    -0.200 F 
ATOM     87  F   UNL     1      13.160   3.040  -2.463  1.00  0.00    -0.200 F 
ENDBRANCH  53  77
BRANCH  65  88
ATOM     88  C   UNL     1      14.666  -4.337  -9.358  1.00  0.00     0.064 A 
ATOM     89  C   UNL     1      15.698  -4.778  -8.516  1.00  0.00     0.173 A 
ATOM     90  C   UNL     1      14.994  -4.031 -10.688  1.00  0.00     0.173 A 
ATOM     91  F   UNL     1      15.443  -5.075  -7.232  1.00  0.00    -0.203 F 
ATOM     92  C   UNL     1      17.010  -4.864  -8.974  1.00  0.00     0.198 A 
ATOM     93  C   UNL     1      16.300  -4.157 -11.155  1.00  0.00     0.198 A 
ATOM     94  F   UNL     1      14.046  -3.617 -11.542  1.00  0.00    -0.203 F 
ATOM     95  F   UNL     1      17.990  -5.220  -8.132  1.00  0.00    -0.200 F 
ATOM     96  C   UNL     1      17.309  -4.560 -10.294  1.00  0.00     0.200 A 
ATOM     97  F   UNL     1      16.582  -3.882 -12.435  1.00  0.00    -0.200 F 
ATOM     98  F   UNL     1      18.572  -4.644 -10.733  1.00  0.00    -0.200 F 
ENDBRANCH  65  88
ENDBRANCH  39  40
ENDBRANCH  32  34
ENDBRANCH  31  32
ENDBRANCH  30  31
ENDBRANCH  29  30
ENDBRANCH  28  29
ENDBRANCH  27  28
ENDBRANCH  26  27
ENDBRANCH  25  26
ENDBRANCH   1  25
TORSDOF 23
