REMARK SMILES Cc1ccnc(C(=O)c2[nH]c3cc(F)ccc3c2CC(=O)OCCOCCOCCOCCOC(=O)c2ccc(-c3c4nc(c(-c5c(F)c(F)c(F)c(F)c5F)c5ccc([nH]5)c(-c5c(F)c(F)c(F)c(F)c5F)c5nc(c(-c6c(F)c(F)c(F)c(F)c6F)c6ccc3[nH]6)C=C5)C=C4)cc2)c1
REMARK SMILES IDX 27 1 26 2 25 3 24 4 23 5 22 6 20 7 21 8 19 9 18 10 9 11
REMARK SMILES IDX 10 12 11 13 17 15 12 16 16 17 13 18 15 19 14 20 7 21 8 22
REMARK SMILES IDX 6 23 1 24 2 25 3 26 100 27 4 28 5 29 28 30 29 31 30 32 31 33
REMARK SMILES IDX 32 34 33 35 34 36 35 37 36 38 37 39 38 40 99 41 39 42 98 43
REMARK SMILES IDX 40 44 41 45 42 46 92 47 43 48 97 49 91 50 93 51 44 52 96 53
REMARK SMILES IDX 90 54 89 55 45 57 77 58 57 59 76 60 58 61 61 62 75 63 94 64
REMARK SMILES IDX 59 65 60 66 74 68 95 69 62 70 46 71 47 72 55 73 48 74 49 75
REMARK SMILES IDX 53 76 56 77 50 78 51 79 54 80 52 81 78 82 79 83 87 84 80 85
REMARK SMILES IDX 81 86 85 87 88 88 82 89 83 90 86 91 84 92 63 93 64 94 72 95
REMARK SMILES IDX 65 96 66 97 70 98 73 99 67 100 68 101 71 102 69 103
REMARK H PARENT 10 14 93 56 61 67
REMARK Flexibility Score: inf
ROOT
ATOM      1  C   UNL     1       4.135  -2.866   0.449  1.00  0.00     0.188 C 
ENDROOT
BRANCH   1   2
ATOM      2  C   UNL     1       5.300  -2.880   1.437  1.00  0.00     0.188 C 
BRANCH   2   3
ATOM      3  O   UNL     1       6.486  -3.535   1.034  1.00  0.00    -0.376 OA
BRANCH   3   4
ATOM      4  C   UNL     1       6.410  -4.941   0.813  1.00  0.00     0.202 C 
BRANCH   4   5
ATOM      5  C   UNL     1       5.504  -5.821   1.700  1.00  0.00     0.261 C 
BRANCH   5   6
ATOM      6  O   UNL     1       4.075  -5.569   1.583  1.00  0.00    -0.463 OA
BRANCH   6   7
ATOM      7  C   UNL     1       3.381  -5.530   2.748  1.00  0.00     0.310 C 
ATOM      8  O   UNL     1       3.909  -5.754   3.840  1.00  0.00    -0.252 OA
BRANCH   7   9
ATOM      9  C   UNL     1       1.905  -5.173   2.699  1.00  0.00     0.161 C 
BRANCH   9  10
ATOM     10  C   UNL     1       1.141  -4.990   1.404  1.00  0.00     0.000 A 
ATOM     11  C   UNL     1       0.738  -3.784   0.801  1.00  0.00     0.093 A 
ATOM     12  N   UNL     1       0.118  -4.133  -0.383  1.00  0.00    -0.351 N 
ATOM     13  C   UNL     1      -0.269  -5.451  -0.341  1.00  0.00     0.049 A 
ATOM     14  H   UNL     1      -0.026  -3.526  -1.145  1.00  0.00     0.167 HD
ATOM     15  C   UNL     1       0.378  -6.024   0.752  1.00  0.00     0.004 A 
ATOM     16  C   UNL     1      -1.156  -6.161  -1.161  1.00  0.00     0.066 A 
ATOM     17  C   UNL     1       0.108  -7.378   1.055  1.00  0.00     0.013 A 
ATOM     18  C   UNL     1      -1.432  -7.480  -0.803  1.00  0.00     0.125 A 
ATOM     19  C   UNL     1      -0.821  -8.087   0.285  1.00  0.00     0.040 A 
ATOM     20  F   UNL     1      -2.333  -8.171  -1.516  1.00  0.00    -0.207 F 
BRANCH  11  21
ATOM     21  C   UNL     1       0.913  -2.418   1.299  1.00  0.00     0.227 C 
ATOM     22  O   UNL     1       1.496  -2.170   2.356  1.00  0.00    -0.285 OA
BRANCH  21  23
ATOM     23  C   UNL     1       0.348  -1.239   0.580  1.00  0.00     0.113 A 
ATOM     24  C   UNL     1      -3.014   0.311  -0.191  1.00  0.00     0.044 C 
ATOM     25  C   UNL     1      -1.536   0.096  -0.058  1.00  0.00    -0.047 A 
ATOM     26  C   UNL     1      -0.658   1.170  -0.231  1.00  0.00     0.023 A 
ATOM     27  C   UNL     1      -1.021  -1.137   0.359  1.00  0.00     0.036 A 
ATOM     28  C   UNL     1       0.695   0.966  -0.016  1.00  0.00     0.112 A 
ATOM     29  N   UNL     1       1.217  -0.215   0.370  1.00  0.00    -0.253 NA
ENDBRANCH  21  23
ENDBRANCH  11  21
ENDBRANCH   9  10
ENDBRANCH   7   9
ENDBRANCH   6   7
ENDBRANCH   5   6
ENDBRANCH   4   5
ENDBRANCH   3   4
ENDBRANCH   2   3
ENDBRANCH   1   2
BRANCH   1  30
ATOM     30  O   UNL     1       4.010  -3.938  -0.470  1.00  0.00    -0.377 OA
BRANCH  30  31
ATOM     31  C   UNL     1       4.510  -3.801  -1.792  1.00  0.00     0.188 C 
BRANCH  31  32
ATOM     32  C   UNL     1       5.184  -2.484  -2.176  1.00  0.00     0.188 C 
BRANCH  32  33
ATOM     33  O   UNL     1       4.384  -1.302  -2.212  1.00  0.00    -0.376 OA
BRANCH  33  34
ATOM     34  C   UNL     1       2.977  -1.415  -2.405  1.00  0.00     0.202 C 
BRANCH  34  35
ATOM     35  C   UNL     1       2.538  -1.455  -3.865  1.00  0.00     0.261 C 
BRANCH  35  36
ATOM     36  O   UNL     1       2.861  -2.716  -4.466  1.00  0.00    -0.460 OA
BRANCH  36  37
ATOM     37  C   UNL     1       3.980  -2.720  -5.232  1.00  0.00     0.338 C 
ATOM     38  O   UNL     1       4.680  -1.778  -5.535  1.00  0.00    -0.246 OA
BRANCH  37  39
ATOM     39  C   UNL     1       4.336  -4.123  -5.516  1.00  0.00     0.060 A 
ATOM     40  C   UNL     1       5.657  -4.528  -5.290  1.00  0.00     0.016 A 
ATOM     41  C   UNL     1       3.388  -5.019  -6.013  1.00  0.00     0.016 A 
ATOM     42  C   UNL     1       6.041  -5.835  -5.569  1.00  0.00     0.010 A 
ATOM     43  C   UNL     1       3.778  -6.322  -6.316  1.00  0.00     0.010 A 
ATOM     44  C   UNL     1       5.109  -6.726  -6.114  1.00  0.00    -0.014 A 
BRANCH  44  45
ATOM     45  C   UNL     1       5.553  -8.040  -6.618  1.00  0.00     0.031 A 
ATOM     46  C   UNL     1       5.840  -8.181  -8.084  1.00  0.00     0.074 A 
ATOM     47  C   UNL     1       5.676  -9.083  -5.781  1.00  0.00     0.049 A 
ATOM     48  N   UNL     1       6.123  -9.254  -8.775  1.00  0.00    -0.248 NA
ATOM     49  C   UNL     1       5.796  -6.944  -8.880  1.00  0.00     0.031 C 
ATOM     50  C   UNL     1       5.472  -9.033  -4.335  1.00  0.00     0.029 A 
ATOM     51  N   UNL     1       5.985 -10.395  -6.035  1.00  0.00    -0.354 N 
ATOM     52  C   UNL     1       6.277  -8.824 -10.086  1.00  0.00     0.074 A 
ATOM     53  C   UNL     1       6.040  -7.398 -10.101  1.00  0.00     0.031 C 
ATOM     54  C   UNL     1       5.639 -10.268  -3.830  1.00  0.00     0.029 A 
ATOM     55  C   UNL     1       5.914 -11.197  -4.923  1.00  0.00     0.049 A 
ATOM     56  H   UNL     1       6.232 -10.728  -6.928  1.00  0.00     0.167 HD
ATOM     57  C   UNL     1       6.586  -9.563 -11.176  1.00  0.00     0.037 A 
ATOM     58  C   UNL     1       6.021 -12.535  -4.819  1.00  0.00     0.037 A 
ATOM     59  C   UNL     1       6.818 -10.983 -11.140  1.00  0.00     0.049 A 
ATOM     60  C   UNL     1       6.272 -13.344  -6.068  1.00  0.00     0.074 A 
ATOM     61  C   UNL     1       7.172 -11.825 -12.178  1.00  0.00     0.029 A 
ATOM     62  N   UNL     1       6.704 -11.771 -10.004  1.00  0.00    -0.354 N 
ATOM     63  N   UNL     1       6.454 -12.933  -7.301  1.00  0.00    -0.248 NA
ATOM     64  C   UNL     1       6.325 -14.804  -5.912  1.00  0.00     0.031 C 
ATOM     65  C   UNL     1       7.204 -13.132 -11.685  1.00  0.00     0.029 A 
ATOM     66  C   UNL     1       6.936 -13.098 -10.325  1.00  0.00     0.049 A 
ATOM     67  H   UNL     1       6.490 -11.436  -9.103  1.00  0.00     0.167 HD
ATOM     68  C   UNL     1       6.668 -14.077  -8.059  1.00  0.00     0.074 A 
ATOM     69  C   UNL     1       6.617 -15.197  -7.143  1.00  0.00     0.031 C 
ATOM     70  C   UNL     1       6.884 -14.194  -9.393  1.00  0.00     0.037 A 
BRANCH  57  71
ATOM     71  C   UNL     1       6.654  -8.866 -12.502  1.00  0.00     0.064 A 
ATOM     72  C   UNL     1       7.694  -7.982 -12.824  1.00  0.00     0.173 A 
ATOM     73  C   UNL     1       5.690  -9.132 -13.487  1.00  0.00     0.173 A 
ATOM     74  F   UNL     1       8.632  -7.681 -11.912  1.00  0.00    -0.203 F 
ATOM     75  C   UNL     1       7.760  -7.381 -14.079  1.00  0.00     0.198 A 
ATOM     76  C   UNL     1       5.775  -8.552 -14.749  1.00  0.00     0.198 A 
ATOM     77  F   UNL     1       4.673  -9.968 -13.230  1.00  0.00    -0.203 F 
ATOM     78  F   UNL     1       8.742  -6.512 -14.353  1.00  0.00    -0.200 F 
ATOM     79  C   UNL     1       6.807  -7.674 -15.043  1.00  0.00     0.200 A 
ATOM     80  F   UNL     1       4.860  -8.847 -15.683  1.00  0.00    -0.200 F 
ATOM     81  F   UNL     1       6.881  -7.108 -16.255  1.00  0.00    -0.200 F 
ENDBRANCH  57  71
BRANCH  58  82
ATOM     82  C   UNL     1       5.856 -13.205  -3.501  1.00  0.00     0.064 A 
ATOM     83  C   UNL     1       6.919 -13.902  -2.907  1.00  0.00     0.173 A 
ATOM     84  C   UNL     1       4.624 -13.204  -2.829  1.00  0.00     0.173 A 
ATOM     85  F   UNL     1       8.110 -13.955  -3.522  1.00  0.00    -0.203 F 
ATOM     86  C   UNL     1       6.747 -14.595  -1.710  1.00  0.00     0.198 A 
ATOM     87  C   UNL     1       4.464 -13.869  -1.615  1.00  0.00     0.198 A 
ATOM     88  F   UNL     1       3.572 -12.558  -3.353  1.00  0.00    -0.203 F 
ATOM     89  F   UNL     1       7.763 -15.305  -1.200  1.00  0.00    -0.200 F 
ATOM     90  C   UNL     1       5.522 -14.574  -1.063  1.00  0.00     0.200 A 
ATOM     91  F   UNL     1       3.281 -13.835  -0.986  1.00  0.00    -0.200 F 
ATOM     92  F   UNL     1       5.356 -15.245   0.085  1.00  0.00    -0.200 F 
ENDBRANCH  58  82
BRANCH  70  93
ATOM     93  C   UNL     1       7.105 -15.577  -9.936  1.00  0.00     0.064 A 
ATOM     94  C   UNL     1       6.062 -16.512 -10.012  1.00  0.00     0.173 A 
ATOM     95  C   UNL     1       8.363 -15.954 -10.431  1.00  0.00     0.173 A 
ATOM     96  F   UNL     1       4.845 -16.206  -9.539  1.00  0.00    -0.203 F 
ATOM     97  C   UNL     1       6.278 -17.782 -10.541  1.00  0.00     0.198 A 
ATOM     98  C   UNL     1       8.565 -17.211 -10.993  1.00  0.00     0.198 A 
ATOM     99  F   UNL     1       9.392 -15.094 -10.390  1.00  0.00    -0.203 F 
ATOM    100  F   UNL     1       5.280 -18.676 -10.557  1.00  0.00    -0.200 F 
ATOM    101  C   UNL     1       7.525 -18.127 -11.039  1.00  0.00     0.200 A 
ATOM    102  F   UNL     1       9.766 -17.535 -11.491  1.00  0.00    -0.200 F 
ATOM    103  F   UNL     1       7.727 -19.345 -11.560  1.00  0.00    -0.200 F 
ENDBRANCH  70  93
ENDBRANCH  44  45
ENDBRANCH  37  39
ENDBRANCH  36  37
ENDBRANCH  35  36
ENDBRANCH  34  35
ENDBRANCH  33  34
ENDBRANCH  32  33
ENDBRANCH  31  32
ENDBRANCH  30  31
ENDBRANCH   1  30
TORSDOF 23
