REMARK SMILES CCOc1ccc(NC(=O)[C@@H]2[C@@H](C(=O)OCCOCCOCCOCCOC(=O)c3ccc(-c4c5nc(c(-c6c(F)c(F)c(F)c(F)c6F)c6ccc([nH]6)c(-c6c(F)c(F)c(F)c(F)c6F)c6nc(c(-c7c(F)c(F)c(F)c(F)c7F)c7ccc4[nH]7)C=C6)C=C5)cc3)[C@H]3C=C[C@@H]2C3)cc1
REMARK SMILES IDX 20 1 19 2 18 3 17 4 16 5 15 6 13 7 14 8 12 9 11 10 96 11
REMARK SMILES IDX 93 12 95 13 97 14 94 15 9 16 8 17 10 19 7 20 4 21 5 22 99 23
REMARK SMILES IDX 6 24 98 25 3 26 2 27 1 28 21 29 22 30 23 31 24 32 25 33
REMARK SMILES IDX 26 34 27 35 28 36 29 37 30 38 31 39 92 40 32 41 91 42 33 43
REMARK SMILES IDX 34 44 35 45 85 46 36 47 90 48 84 49 86 50 37 51 89 52 83 53
REMARK SMILES IDX 82 54 38 56 70 57 50 58 69 59 51 60 54 61 68 62 87 63 52 64
REMARK SMILES IDX 53 65 67 67 88 68 55 69 39 70 40 71 48 72 41 73 42 74 46 75
REMARK SMILES IDX 49 76 43 77 44 78 47 79 45 80 71 81 72 82 80 83 73 84 74 85
REMARK SMILES IDX 78 86 81 87 75 88 76 89 79 90 77 91 56 92 57 93 65 94 58 95
REMARK SMILES IDX 59 96 63 97 66 98 60 99 61 100 64 101 62 102
REMARK H PARENT 8 18 86 55 54 66
REMARK Flexibility Score: inf
ROOT
ATOM      1  C   UNL     1       4.195   4.224   4.003  1.00  0.00     0.188 C 
ENDROOT
BRANCH   1   2
ATOM      2  C   UNL     1       2.994   3.494   4.623  1.00  0.00     0.188 C 
BRANCH   2   3
ATOM      3  O   UNL     1       2.039   4.421   5.133  1.00  0.00    -0.376 OA
BRANCH   3   4
ATOM      4  C   UNL     1       1.924   4.505   6.544  1.00  0.00     0.202 C 
BRANCH   4   5
ATOM      5  C   UNL     1       3.029   5.358   7.179  1.00  0.00     0.261 C 
BRANCH   5   6
ATOM      6  O   UNL     1       4.376   4.885   6.966  1.00  0.00    -0.463 OA
BRANCH   6   7
ATOM      7  C   UNL     1       4.663   3.628   7.391  1.00  0.00     0.310 C 
ATOM      8  O   UNL     1       3.867   2.919   7.990  1.00  0.00    -0.252 OA
BRANCH   7   9
ATOM      9  C   UNL     1       6.064   3.213   6.955  1.00  0.00     0.119 C 
ATOM     10  C   UNL     1       6.082   1.849   6.160  1.00  0.00     0.100 C 
ATOM     11  C   UNL     1       7.023   0.987   7.043  1.00  0.00     0.025 C 
ATOM     12  C   UNL     1       6.944   2.907   8.194  1.00  0.00     0.027 C 
ATOM     13  C   UNL     1       6.304   0.697   8.338  1.00  0.00    -0.027 C 
ATOM     14  C   UNL     1       8.027   2.029   7.574  1.00  0.00     0.017 C 
ATOM     15  C   UNL     1       6.284   1.839   9.042  1.00  0.00    -0.027 C 
BRANCH  10  16
ATOM     16  C   UNL     1       6.717   1.912   4.774  1.00  0.00     0.228 C 
ATOM     17  N   UNL     1       6.295   1.208   3.682  1.00  0.00    -0.326 N 
ATOM     18  H   UNL     1       6.987   1.145   2.985  1.00  0.00     0.169 HD
ATOM     19  O   UNL     1       7.703   2.636   4.580  1.00  0.00    -0.274 OA
BRANCH  17  20
ATOM     20  C   UNL     1       5.103   0.550   3.318  1.00  0.00     0.041 A 
ATOM     21  C   UNL     1       2.532  -0.032   2.355  1.00  0.00     0.119 A 
ATOM     22  C   UNL     1       2.821  -0.139   3.712  1.00  0.00     0.048 A 
ATOM     23  C   UNL     1       3.563   0.193   1.452  1.00  0.00     0.048 A 
ATOM     24  C   UNL     1       4.114   0.111   4.188  1.00  0.00     0.030 A 
ATOM     25  C   UNL     1       4.846   0.478   1.936  1.00  0.00     0.030 A 
BRANCH  21  26
ATOM     26  O   UNL     1       1.220   0.132   2.019  1.00  0.00    -0.494 OA
BRANCH  26  27
ATOM     27  C   UNL     1       0.652  -0.849   1.157  1.00  0.00     0.226 C 
ATOM     28  C   UNL     1       0.614  -0.372  -0.285  1.00  0.00     0.049 C 
ENDBRANCH  26  27
ENDBRANCH  21  26
ENDBRANCH  17  20
ENDBRANCH  10  16
ENDBRANCH   7   9
ENDBRANCH   6   7
ENDBRANCH   5   6
ENDBRANCH   4   5
ENDBRANCH   3   4
ENDBRANCH   2   3
ENDBRANCH   1   2
BRANCH   1  29
ATOM     29  O   UNL     1       3.943   4.945   2.805  1.00  0.00    -0.377 OA
BRANCH  29  30
ATOM     30  C   UNL     1       2.848   5.842   2.855  1.00  0.00     0.188 C 
BRANCH  30  31
ATOM     31  C   UNL     1       1.496   5.244   2.411  1.00  0.00     0.188 C 
BRANCH  31  32
ATOM     32  O   UNL     1       1.370   4.234   1.411  1.00  0.00    -0.376 OA
BRANCH  32  33
ATOM     33  C   UNL     1       2.478   3.449   1.013  1.00  0.00     0.202 C 
BRANCH  33  34
ATOM     34  C   UNL     1       3.338   4.053  -0.103  1.00  0.00     0.261 C 
BRANCH  34  35
ATOM     35  O   UNL     1       3.373   5.480  -0.094  1.00  0.00    -0.460 OA
BRANCH  35  36
ATOM     36  C   UNL     1       2.301   6.079  -0.661  1.00  0.00     0.338 C 
ATOM     37  O   UNL     1       1.401   5.565  -1.306  1.00  0.00    -0.246 OA
BRANCH  36  38
ATOM     38  C   UNL     1       2.306   7.486  -0.226  1.00  0.00     0.060 A 
ATOM     39  C   UNL     1       1.126   8.017   0.309  1.00  0.00     0.016 A 
ATOM     40  C   UNL     1       3.479   8.247  -0.276  1.00  0.00     0.016 A 
ATOM     41  C   UNL     1       1.115   9.315   0.801  1.00  0.00     0.010 A 
ATOM     42  C   UNL     1       3.456   9.566   0.170  1.00  0.00     0.010 A 
ATOM     43  C   UNL     1       2.264  10.106   0.680  1.00  0.00    -0.014 A 
BRANCH  43  44
ATOM     44  C   UNL     1       2.119  11.567   0.807  1.00  0.00     0.031 A 
ATOM     45  C   UNL     1       1.730  12.318  -0.434  1.00  0.00     0.074 A 
ATOM     46  C   UNL     1       2.283  12.186   1.986  1.00  0.00     0.049 A 
ATOM     47  N   UNL     1       1.537  13.597  -0.607  1.00  0.00    -0.248 NA
ATOM     48  C   UNL     1       1.522  11.508  -1.650  1.00  0.00     0.031 C 
ATOM     49  C   UNL     1       2.609  11.530   3.251  1.00  0.00     0.029 A 
ATOM     50  N   UNL     1       2.194  13.515   2.307  1.00  0.00    -0.354 N 
ATOM     51  C   UNL     1       1.186  13.742  -1.942  1.00  0.00     0.074 A 
ATOM     52  C   UNL     1       1.211  12.430  -2.545  1.00  0.00     0.031 C 
ATOM     53  C   UNL     1       2.708  12.466   4.212  1.00  0.00     0.029 A 
ATOM     54  C   UNL     1       2.479  13.783   3.622  1.00  0.00     0.049 A 
ATOM     55  H   UNL     1       1.949  14.212   1.655  1.00  0.00     0.167 HD
ATOM     56  C   UNL     1       0.867  14.876  -2.603  1.00  0.00     0.037 A 
ATOM     57  C   UNL     1       2.564  14.969   4.255  1.00  0.00     0.037 A 
ATOM     58  C   UNL     1       0.861  16.174  -1.990  1.00  0.00     0.049 A 
ATOM     59  C   UNL     1       2.283  16.227   3.470  1.00  0.00     0.074 A 
ATOM     60  C   UNL     1       0.554  17.395  -2.559  1.00  0.00     0.029 A 
ATOM     61  N   UNL     1       1.192  16.414  -0.664  1.00  0.00    -0.354 N 
ATOM     62  N   UNL     1       1.922  16.359   2.215  1.00  0.00    -0.248 NA
ATOM     63  C   UNL     1       2.418  17.500   4.189  1.00  0.00     0.031 C 
ATOM     64  C   UNL     1       0.751  18.383  -1.589  1.00  0.00     0.029 A 
ATOM     65  C   UNL     1       1.123  17.770  -0.402  1.00  0.00     0.049 A 
ATOM     66  H   UNL     1       1.439  15.722  -0.009  1.00  0.00     0.167 HD
ATOM     67  C   UNL     1       1.754  17.722   2.005  1.00  0.00     0.074 A 
ATOM     68  C   UNL     1       2.040  18.373   3.266  1.00  0.00     0.031 C 
ATOM     69  C   UNL     1       1.397  18.380   0.874  1.00  0.00     0.037 A 
BRANCH  56  70
ATOM     70  C   UNL     1       0.544  14.763  -4.062  1.00  0.00     0.064 A 
ATOM     71  C   UNL     1      -0.654  14.187  -4.511  1.00  0.00     0.173 A 
ATOM     72  C   UNL     1       1.435  15.261  -5.022  1.00  0.00     0.173 A 
ATOM     73  F   UNL     1      -1.527  13.671  -3.633  1.00  0.00    -0.203 F 
ATOM     74  C   UNL     1      -0.941  14.105  -5.872  1.00  0.00     0.198 A 
ATOM     75  C   UNL     1       1.133  15.203  -6.379  1.00  0.00     0.198 A 
ATOM     76  F   UNL     1       2.599  15.812  -4.644  1.00  0.00    -0.203 F 
ATOM     77  F   UNL     1      -2.073  13.516  -6.282  1.00  0.00    -0.200 F 
ATOM     78  C   UNL     1      -0.053  14.621  -6.803  1.00  0.00     0.200 A 
ATOM     79  F   UNL     1       1.989  15.709  -7.277  1.00  0.00    -0.200 F 
ATOM     80  F   UNL     1      -0.337  14.554  -8.111  1.00  0.00    -0.200 F 
ENDBRANCH  56  70
BRANCH  57  81
ATOM     81  C   UNL     1       2.949  15.035   5.690  1.00  0.00     0.064 A 
ATOM     82  C   UNL     1       2.055  15.504   6.663  1.00  0.00     0.173 A 
ATOM     83  C   UNL     1       4.237  14.673   6.114  1.00  0.00     0.173 A 
ATOM     84  F   UNL     1       0.819  15.885   6.307  1.00  0.00    -0.203 F 
ATOM     85  C   UNL     1       2.442  15.639   7.995  1.00  0.00     0.198 A 
ATOM     86  C   UNL     1       4.614  14.778   7.452  1.00  0.00     0.198 A 
ATOM     87  F   UNL     1       5.135  14.220   5.227  1.00  0.00    -0.203 F 
ATOM     88  F   UNL     1       1.586  16.148   8.892  1.00  0.00    -0.200 F 
ATOM     89  C   UNL     1       3.720  15.272   8.389  1.00  0.00     0.200 A 
ATOM     90  F   UNL     1       5.846  14.412   7.830  1.00  0.00    -0.200 F 
ATOM     91  F   UNL     1       4.094  15.407   9.669  1.00  0.00    -0.200 F 
ENDBRANCH  57  81
BRANCH  69  92
ATOM     92  C   UNL     1       1.247  19.870   0.965  1.00  0.00     0.064 A 
ATOM     93  C   UNL     1       2.358  20.716   1.091  1.00  0.00     0.173 A 
ATOM     94  C   UNL     1      -0.023  20.459   0.868  1.00  0.00     0.173 A 
ATOM     95  F   UNL     1       3.591  20.200   1.199  1.00  0.00    -0.203 F 
ATOM     96  C   UNL     1       2.199  22.098   1.146  1.00  0.00     0.198 A 
ATOM     97  C   UNL     1      -0.175  21.841   0.889  1.00  0.00     0.198 A 
ATOM     98  F   UNL     1      -1.116  19.692   0.733  1.00  0.00    -0.203 F 
ATOM     99  F   UNL     1       3.269  22.886   1.318  1.00  0.00    -0.200 F 
ATOM    100  C   UNL     1       0.935  22.659   1.036  1.00  0.00     0.200 A 
ATOM    101  F   UNL     1      -1.395  22.381   0.763  1.00  0.00    -0.200 F 
ATOM    102  F   UNL     1       0.785  23.990   1.078  1.00  0.00    -0.200 F 
ENDBRANCH  69  92
ENDBRANCH  43  44
ENDBRANCH  36  38
ENDBRANCH  35  36
ENDBRANCH  34  35
ENDBRANCH  33  34
ENDBRANCH  32  33
ENDBRANCH  31  32
ENDBRANCH  30  31
ENDBRANCH  29  30
ENDBRANCH   1  29
TORSDOF 24
