REMARK SMILES Cc1c(C(=O)Nc2ccc(C(=O)Nc3ccccc3C(=O)OCCOCCOCCOCCOC(=O)c3ccc(-c4c5nc(c(-c6c(F)c(F)c(F)c(F)c6F)c6ccc([nH]6)c(-c6c(F)c(F)c(F)c(F)c6F)c6nc(c(-c7c(F)c(F)c(F)c(F)c7F)c7ccc4[nH]7)C=C6)C=C5)cc3)cc2)cccc1[N+](=O)[O-]
REMARK SMILES IDX 26 1 25 2 24 3 23 4 22 5 20 6 21 7 19 8 14 9 15 10 16 11
REMARK SMILES IDX 18 12 17 13 13 14 11 15 12 16 10 18 7 19 8 20 101 21 9 22
REMARK SMILES IDX 100 23 6 24 4 25 5 26 3 28 1 29 2 30 105 31 102 32 104 33
REMARK SMILES IDX 103 34 106 35 107 36 108 37 27 38 28 39 29 40 30 41 31 42
REMARK SMILES IDX 32 43 33 44 34 45 35 46 36 47 37 48 38 49 99 50 39 51 98 52
REMARK SMILES IDX 40 53 41 54 42 55 92 56 43 57 97 58 91 59 93 60 44 61 96 62
REMARK SMILES IDX 90 63 89 64 45 66 77 67 57 68 76 69 58 70 61 71 75 72 94 73
REMARK SMILES IDX 59 74 60 75 74 77 95 78 62 79 46 80 47 81 55 82 48 83 49 84
REMARK SMILES IDX 53 85 56 86 50 87 51 88 54 89 52 90 78 91 79 92 87 93 80 94
REMARK SMILES IDX 81 95 85 96 88 97 82 98 83 99 86 100 84 101 63 102 64 103
REMARK SMILES IDX 72 104 65 105 66 106 70 107 73 108 67 109 68 110 71 111
REMARK SMILES IDX 69 112
REMARK H PARENT 13 17 6 27 93 65 61 76
REMARK Flexibility Score: inf
ROOT
ATOM      1  C   UNL     1       5.472   1.548   0.011  1.00  0.00     0.188 C 
ENDROOT
BRANCH   1   2
ATOM      2  O   UNL     1       6.657   2.184   0.453  1.00  0.00    -0.376 OA
BRANCH   2   3
ATOM      3  C   UNL     1       7.145   1.772   1.704  1.00  0.00     0.202 C 
BRANCH   3   4
ATOM      4  C   UNL     1       6.420   2.188   3.000  1.00  0.00     0.261 C 
BRANCH   4   5
ATOM      5  O   UNL     1       5.068   2.619   2.920  1.00  0.00    -0.460 OA
BRANCH   5   6
ATOM      6  C   UNL     1       5.005   3.964   2.852  1.00  0.00     0.340 C 
ATOM      7  O   UNL     1       5.925   4.760   2.649  1.00  0.00    -0.246 OA
BRANCH   6   8
ATOM      8  C   UNL     1       3.628   4.411   2.932  1.00  0.00     0.083 A 
ATOM      9  C   UNL     1       3.073   4.981   1.784  1.00  0.00     0.056 A 
ATOM     10  C   UNL     1       1.768   5.461   1.798  1.00  0.00     0.027 A 
ATOM     11  C   UNL     1       0.983   5.271   2.934  1.00  0.00     0.002 A 
ATOM     12  C   UNL     1       2.831   4.163   4.054  1.00  0.00     0.018 A 
ATOM     13  C   UNL     1       1.498   4.585   4.042  1.00  0.00     0.001 A 
BRANCH   9  14
ATOM     14  N   UNL     1       3.724   4.846   0.558  1.00  0.00    -0.321 N 
ATOM     15  C   UNL     1       3.365   3.977  -0.454  1.00  0.00     0.255 C 
ATOM     16  O   UNL     1       3.898   4.128  -1.556  1.00  0.00    -0.269 OA
ATOM     17  H   UNL     1       4.507   5.421   0.400  1.00  0.00     0.170 HD
BRANCH  15  18
ATOM     18  C   UNL     1       2.535   2.722  -0.217  1.00  0.00     0.040 A 
ATOM     19  C   UNL     1       1.319   0.170   0.062  1.00  0.00     0.041 A 
ATOM     20  C   UNL     1       1.333   1.031   1.134  1.00  0.00     0.027 A 
ATOM     21  C   UNL     1       1.980   0.530  -1.109  1.00  0.00     0.027 A 
ATOM     22  C   UNL     1       1.918   2.296   0.973  1.00  0.00     0.016 A 
ATOM     23  C   UNL     1       2.562   1.790  -1.256  1.00  0.00     0.016 A 
BRANCH  19  24
ATOM     24  N   UNL     1       0.678  -1.071   0.141  1.00  0.00    -0.322 N 
ATOM     25  C   UNL     1      -0.407  -1.452  -0.632  1.00  0.00     0.256 C 
ATOM     26  O   UNL     1      -0.619  -2.626  -0.909  1.00  0.00    -0.269 OA
ATOM     27  H   UNL     1       1.023  -1.722   0.794  1.00  0.00     0.170 HD
BRANCH  25  28
ATOM     28  C   UNL     1      -1.482  -0.420  -0.771  1.00  0.00     0.049 A 
ATOM     29  C   UNL     1      -0.480   0.998  -2.599  1.00  0.00     0.053 C 
ATOM     30  C   UNL     1      -1.246   0.855  -1.312  1.00  0.00     0.039 A 
ATOM     31  C   UNL     1      -1.884   1.930  -0.671  1.00  0.00     0.273 A 
ATOM     32  C   UNL     1      -2.576  -0.653   0.077  1.00  0.00     0.014 A 
ATOM     33  C   UNL     1      -2.955   1.708   0.212  1.00  0.00     0.086 A 
ATOM     34  C   UNL     1      -3.356   0.409   0.513  1.00  0.00     0.008 A 
BRANCH  31  35
ATOM     35  N   UNL     1      -1.319   3.289  -0.704  1.00  0.00     0.063 N 
ATOM     36  O   UNL     1      -1.401   3.954   0.341  1.00  0.00    -0.258 OA
ATOM     37  O   UNL     1      -0.772   3.683  -1.740  1.00  0.00    -0.258 OA
ENDBRANCH  31  35
ENDBRANCH  25  28
ENDBRANCH  19  24
ENDBRANCH  15  18
ENDBRANCH   9  14
ENDBRANCH   6   8
ENDBRANCH   5   6
ENDBRANCH   4   5
ENDBRANCH   3   4
ENDBRANCH   2   3
ENDBRANCH   1   2
BRANCH   1  38
ATOM     38  C   UNL     1       5.525   0.161  -0.639  1.00  0.00     0.188 C 
BRANCH  38  39
ATOM     39  O   UNL     1       5.338  -0.932   0.251  1.00  0.00    -0.377 OA
BRANCH  39  40
ATOM     40  C   UNL     1       4.123  -1.683   0.239  1.00  0.00     0.188 C 
BRANCH  40  41
ATOM     41  C   UNL     1       3.636  -2.310  -1.079  1.00  0.00     0.188 C 
BRANCH  41  42
ATOM     42  O   UNL     1       4.403  -1.849  -2.174  1.00  0.00    -0.376 OA
BRANCH  42  43
ATOM     43  C   UNL     1       3.916  -2.145  -3.473  1.00  0.00     0.202 C 
BRANCH  43  44
ATOM     44  C   UNL     1       3.874  -3.644  -3.771  1.00  0.00     0.261 C 
BRANCH  44  45
ATOM     45  O   UNL     1       5.141  -4.217  -3.384  1.00  0.00    -0.460 OA
BRANCH  45  46
ATOM     46  C   UNL     1       5.088  -5.107  -2.358  1.00  0.00     0.338 C 
ATOM     47  O   UNL     1       4.227  -5.968  -2.219  1.00  0.00    -0.246 OA
BRANCH  46  48
ATOM     48  C   UNL     1       6.024  -4.702  -1.261  1.00  0.00     0.060 A 
ATOM     49  C   UNL     1       5.889  -5.276   0.017  1.00  0.00     0.016 A 
ATOM     50  C   UNL     1       6.806  -3.562  -1.399  1.00  0.00     0.016 A 
ATOM     51  C   UNL     1       6.432  -4.649   1.161  1.00  0.00     0.010 A 
ATOM     52  C   UNL     1       7.284  -2.921  -0.258  1.00  0.00     0.010 A 
ATOM     53  C   UNL     1       7.081  -3.414   1.048  1.00  0.00    -0.014 A 
BRANCH  53  54
ATOM     54  C   UNL     1       7.343  -2.470   2.188  1.00  0.00     0.031 A 
ATOM     55  C   UNL     1       8.559  -1.527   2.170  1.00  0.00     0.074 A 
ATOM     56  C   UNL     1       6.294  -2.140   2.991  1.00  0.00     0.049 A 
ATOM     57  N   UNL     1       8.842  -0.567   3.013  1.00  0.00    -0.248 NA
ATOM     58  C   UNL     1       9.633  -1.685   1.177  1.00  0.00     0.031 C 
ATOM     59  C   UNL     1       5.731  -0.801   3.027  1.00  0.00     0.029 A 
ATOM     60  N   UNL     1       5.271  -2.856   3.610  1.00  0.00    -0.354 N 
ATOM     61  C   UNL     1       9.922   0.169   2.493  1.00  0.00     0.074 A 
ATOM     62  C   UNL     1      10.426  -0.638   1.415  1.00  0.00     0.031 C 
ATOM     63  C   UNL     1       4.688  -0.689   3.844  1.00  0.00     0.029 A 
ATOM     64  C   UNL     1       4.509  -1.974   4.417  1.00  0.00     0.049 A 
ATOM     65  H   UNL     1       5.104  -3.821   3.505  1.00  0.00     0.167 HD
ATOM     66  C   UNL     1      10.218   1.451   2.896  1.00  0.00     0.037 A 
ATOM     67  C   UNL     1       4.335  -2.133   5.749  1.00  0.00     0.037 A 
ATOM     68  C   UNL     1       9.498   1.874   4.114  1.00  0.00     0.049 A 
ATOM     69  C   UNL     1       5.173  -1.230   6.635  1.00  0.00     0.074 A 
ATOM     70  C   UNL     1       8.971   3.079   4.555  1.00  0.00     0.029 A 
ATOM     71  N   UNL     1       9.134   0.940   5.084  1.00  0.00    -0.354 N 
ATOM     72  N   UNL     1       6.066  -0.355   6.214  1.00  0.00    -0.248 NA
ATOM     73  C   UNL     1       5.105  -1.296   8.093  1.00  0.00     0.031 C 
ATOM     74  C   UNL     1       8.154   2.828   5.689  1.00  0.00     0.029 A 
ATOM     75  C   UNL     1       8.302   1.497   6.029  1.00  0.00     0.049 A 
ATOM     76  H   UNL     1       9.433   0.002   5.092  1.00  0.00     0.167 HD
ATOM     77  C   UNL     1       6.799   0.082   7.303  1.00  0.00     0.074 A 
ATOM     78  C   UNL     1       6.103  -0.472   8.448  1.00  0.00     0.031 C 
ATOM     79  C   UNL     1       7.976   0.782   7.242  1.00  0.00     0.037 A 
BRANCH  66  80
ATOM     80  C   UNL     1      10.985   2.506   2.031  1.00  0.00     0.064 A 
ATOM     81  C   UNL     1      11.385   3.749   2.590  1.00  0.00     0.173 A 
ATOM     82  C   UNL     1      11.165   2.447   0.627  1.00  0.00     0.173 A 
ATOM     83  F   UNL     1      11.383   3.943   3.916  1.00  0.00    -0.203 F 
ATOM     84  C   UNL     1      11.804   4.849   1.819  1.00  0.00     0.198 A 
ATOM     85  C   UNL     1      11.688   3.514  -0.130  1.00  0.00     0.198 A 
ATOM     86  F   UNL     1      10.801   1.379  -0.090  1.00  0.00    -0.203 F 
ATOM     87  F   UNL     1      12.041   6.030   2.409  1.00  0.00    -0.200 F 
ATOM     88  C   UNL     1      11.968   4.727   0.458  1.00  0.00     0.200 A 
ATOM     89  F   UNL     1      11.892   3.357  -1.448  1.00  0.00    -0.200 F 
ATOM     90  F   UNL     1      12.397   5.763  -0.278  1.00  0.00    -0.200 F 
ENDBRANCH  66  80
BRANCH  67  91
ATOM     91  C   UNL     1       3.511  -3.360   5.989  1.00  0.00     0.064 A 
ATOM     92  C   UNL     1       2.171  -3.180   5.564  1.00  0.00     0.173 A 
ATOM     93  C   UNL     1       4.117  -4.587   5.669  1.00  0.00     0.173 A 
ATOM     94  F   UNL     1       1.519  -2.050   5.886  1.00  0.00    -0.203 F 
ATOM     95  C   UNL     1       1.624  -3.993   4.570  1.00  0.00     0.198 A 
ATOM     96  C   UNL     1       3.568  -5.396   4.666  1.00  0.00     0.198 A 
ATOM     97  F   UNL     1       5.369  -4.835   6.082  1.00  0.00    -0.203 F 
ATOM     98  F   UNL     1       0.473  -3.641   3.976  1.00  0.00    -0.200 F 
ATOM     99  C   UNL     1       2.356  -5.060   4.075  1.00  0.00     0.200 A 
ATOM    100  F   UNL     1       4.302  -6.387   4.138  1.00  0.00    -0.200 F 
ATOM    101  F   UNL     1       1.946  -5.699   2.970  1.00  0.00    -0.200 F 
ENDBRANCH  67  91
BRANCH  79 102
ATOM    102  C   UNL     1       9.017   0.872   8.352  1.00  0.00     0.064 A 
ATOM    103  C   UNL     1       9.239  -0.168   9.266  1.00  0.00     0.173 A 
ATOM    104  C   UNL     1       9.996   1.904   8.367  1.00  0.00     0.173 A 
ATOM    105  F   UNL     1       8.459  -1.257   9.286  1.00  0.00    -0.203 F 
ATOM    106  C   UNL     1      10.323  -0.160  10.150  1.00  0.00     0.198 A 
ATOM    107  C   UNL     1      11.112   1.873   9.201  1.00  0.00     0.198 A 
ATOM    108  F   UNL     1       9.927   2.967   7.556  1.00  0.00    -0.203 F 
ATOM    109  F   UNL     1      10.466  -1.163  11.026  1.00  0.00    -0.200 F 
ATOM    110  C   UNL     1      11.269   0.847  10.103  1.00  0.00     0.200 A 
ATOM    111  F   UNL     1      12.044   2.833   9.102  1.00  0.00    -0.200 F 
ATOM    112  F   UNL     1      12.336   0.817  10.912  1.00  0.00    -0.200 F 
ENDBRANCH  79 102
ENDBRANCH  53  54
ENDBRANCH  46  48
ENDBRANCH  45  46
ENDBRANCH  44  45
ENDBRANCH  43  44
ENDBRANCH  42  43
ENDBRANCH  41  42
ENDBRANCH  40  41
ENDBRANCH  39  40
ENDBRANCH  38  39
ENDBRANCH   1  38
TORSDOF 25
