REMARK SMILES CCOc1cc(N2CCC[C@@H](C(=O)OCCOCCOCCOCCOC(=O)c3ccc(-c4c5nc(c(-c6c(F)c(F)c(F)c(F)c6F)c6ccc([nH]6)c(-c6c(F)c(F)c(F)c(F)c6F)c6nc(c(-c7c(F)c(F)c(F)c(F)c7F)c7ccc4[nH]7)C=C6)C=C5)cc3)C2)nc(SC)n1
REMARK SMILES IDX 19 1 18 2 17 3 16 4 15 5 14 6 12 7 13 8 11 9 7 10 8 11 92 12
REMARK SMILES IDX 9 13 10 14 6 15 4 16 5 17 97 18 94 19 93 20 3 21 2 22 1 23
REMARK SMILES IDX 95 24 96 25 20 26 21 27 22 28 23 29 24 30 25 31 26 32 27 33
REMARK SMILES IDX 28 34 29 35 30 36 91 37 31 38 90 39 32 40 33 41 34 42 84 43
REMARK SMILES IDX 35 44 89 45 83 46 85 47 36 48 88 49 82 50 81 51 37 53 69 54
REMARK SMILES IDX 49 55 68 56 50 57 53 58 67 59 86 60 51 61 52 62 66 64 87 65
REMARK SMILES IDX 54 66 38 67 39 68 47 69 40 70 41 71 45 72 48 73 42 74 43 75
REMARK SMILES IDX 46 76 44 77 70 78 71 79 79 80 72 81 73 82 77 83 80 84 74 85
REMARK SMILES IDX 75 86 78 87 76 88 55 89 56 90 64 91 57 92 58 93 62 94 65 95
REMARK SMILES IDX 59 96 60 97 63 98 61 99
REMARK H PARENT 85 52 53 63
REMARK Flexibility Score: inf
ROOT
ATOM      1  C   UNL     1       4.990   3.625   2.625  1.00  0.00     0.188 C 
ENDROOT
BRANCH   1   2
ATOM      2  C   UNL     1       5.550   3.433   4.045  1.00  0.00     0.188 C 
BRANCH   2   3
ATOM      3  O   UNL     1       6.413   4.400   4.628  1.00  0.00    -0.376 OA
BRANCH   3   4
ATOM      4  C   UNL     1       7.430   5.025   3.864  1.00  0.00     0.202 C 
BRANCH   4   5
ATOM      5  C   UNL     1       8.405   4.215   2.992  1.00  0.00     0.261 C 
BRANCH   5   6
ATOM      6  O   UNL     1       7.899   3.028   2.361  1.00  0.00    -0.463 OA
BRANCH   6   7
ATOM      7  C   UNL     1       8.208   1.862   2.986  1.00  0.00     0.310 C 
ATOM      8  O   UNL     1       8.780   1.783   4.066  1.00  0.00    -0.252 OA
BRANCH   7   9
ATOM      9  C   UNL     1       7.811   0.644   2.180  1.00  0.00     0.118 C 
ATOM     10  N   UNL     1       6.060  -0.662   1.115  1.00  0.00    -0.356 N 
ATOM     11  C   UNL     1       6.810  -0.901  -0.110  1.00  0.00     0.118 C 
ATOM     12  C   UNL     1       6.325   0.570   1.836  1.00  0.00     0.133 C 
ATOM     13  C   UNL     1       8.306  -0.761   0.169  1.00  0.00     0.022 C 
ATOM     14  C   UNL     1       8.634   0.546   0.893  1.00  0.00     0.019 C 
BRANCH  10  15
ATOM     15  C   UNL     1       4.987  -1.474   1.370  1.00  0.00     0.137 A 
ATOM     16  C   UNL     1       2.718  -1.970   1.571  1.00  0.00     0.219 A 
ATOM     17  C   UNL     1       3.695  -1.012   1.424  1.00  0.00     0.115 A 
ATOM     18  N   UNL     1       2.955  -3.272   1.776  1.00  0.00    -0.187 NA
ATOM     19  C   UNL     1       4.248  -3.613   1.781  1.00  0.00     0.192 A 
ATOM     20  N   UNL     1       5.261  -2.772   1.533  1.00  0.00    -0.205 NA
BRANCH  16  21
ATOM     21  O   UNL     1       1.400  -1.584   1.597  1.00  0.00    -0.478 OA
BRANCH  21  22
ATOM     22  C   UNL     1       0.857  -1.496   0.273  1.00  0.00     0.228 C 
ATOM     23  C   UNL     1       0.816  -0.039  -0.164  1.00  0.00     0.049 C 
ENDBRANCH  21  22
ENDBRANCH  16  21
BRANCH  19  24
ATOM     24  S   UNL     1       4.670  -5.293   2.177  1.00  0.00    -0.089 SA
ATOM     25  C   UNL     1       6.421  -5.062   2.601  1.00  0.00     0.094 C 
ENDBRANCH  19  24
ENDBRANCH  10  15
ENDBRANCH   7   9
ENDBRANCH   6   7
ENDBRANCH   5   6
ENDBRANCH   4   5
ENDBRANCH   3   4
ENDBRANCH   2   3
ENDBRANCH   1   2
BRANCH   1  26
ATOM     26  O   UNL     1       5.628   4.631   1.865  1.00  0.00    -0.377 OA
BRANCH  26  27
ATOM     27  C   UNL     1       4.874   5.828   1.713  1.00  0.00     0.188 C 
BRANCH  27  28
ATOM     28  C   UNL     1       4.184   6.395   2.976  1.00  0.00     0.188 C 
BRANCH  28  29
ATOM     29  O   UNL     1       3.421   5.441   3.706  1.00  0.00    -0.376 OA
BRANCH  29  30
ATOM     30  C   UNL     1       2.014   5.378   3.526  1.00  0.00     0.202 C 
BRANCH  30  31
ATOM     31  C   UNL     1       1.466   4.930   2.158  1.00  0.00     0.261 C 
BRANCH  31  32
ATOM     32  O   UNL     1       1.944   5.646   1.011  1.00  0.00    -0.460 OA
BRANCH  32  33
ATOM     33  C   UNL     1       1.682   6.967   0.949  1.00  0.00     0.338 C 
ATOM     34  O   UNL     1       1.035   7.629   1.744  1.00  0.00    -0.246 OA
BRANCH  33  35
ATOM     35  C   UNL     1       2.491   7.535  -0.150  1.00  0.00     0.060 A 
ATOM     36  C   UNL     1       3.414   8.549   0.141  1.00  0.00     0.016 A 
ATOM     37  C   UNL     1       2.350   7.059  -1.456  1.00  0.00     0.016 A 
ATOM     38  C   UNL     1       4.173   9.120  -0.880  1.00  0.00     0.010 A 
ATOM     39  C   UNL     1       3.088   7.652  -2.483  1.00  0.00     0.010 A 
ATOM     40  C   UNL     1       3.973   8.710  -2.204  1.00  0.00    -0.014 A 
BRANCH  40  41
ATOM     41  C   UNL     1       4.498   9.531  -3.320  1.00  0.00     0.031 A 
ATOM     42  C   UNL     1       3.564  10.519  -3.962  1.00  0.00     0.074 A 
ATOM     43  C   UNL     1       5.763   9.408  -3.756  1.00  0.00     0.049 A 
ATOM     44  N   UNL     1       3.736  11.264  -5.023  1.00  0.00    -0.248 NA
ATOM     45  C   UNL     1       2.250  10.681  -3.318  1.00  0.00     0.031 C 
ATOM     46  C   UNL     1       6.777   8.532  -3.176  1.00  0.00     0.029 A 
ATOM     47  N   UNL     1       6.400  10.016  -4.809  1.00  0.00    -0.354 N 
ATOM     48  C   UNL     1       2.549  11.967  -5.182  1.00  0.00     0.074 A 
ATOM     49  C   UNL     1       1.656  11.543  -4.128  1.00  0.00     0.031 C 
ATOM     50  C   UNL     1       7.907   8.640  -3.898  1.00  0.00     0.029 A 
ATOM     51  C   UNL     1       7.678   9.559  -5.013  1.00  0.00     0.049 A 
ATOM     52  H   UNL     1       5.981  10.712  -5.365  1.00  0.00     0.167 HD
ATOM     53  C   UNL     1       2.236  12.887  -6.124  1.00  0.00     0.037 A 
ATOM     54  C   UNL     1       8.546   9.828  -6.010  1.00  0.00     0.037 A 
ATOM     55  C   UNL     1       3.130  13.300  -7.173  1.00  0.00     0.049 A 
ATOM     56  C   UNL     1       8.141  10.789  -7.101  1.00  0.00     0.074 A 
ATOM     57  C   UNL     1       2.914  14.231  -8.173  1.00  0.00     0.029 A 
ATOM     58  N   UNL     1       4.409  12.797  -7.362  1.00  0.00    -0.354 N 
ATOM     59  N   UNL     1       7.023  11.460  -7.245  1.00  0.00    -0.248 NA
ATOM     60  C   UNL     1       9.122  11.031  -8.169  1.00  0.00     0.031 C 
ATOM     61  C   UNL     1       4.037  14.244  -9.005  1.00  0.00     0.029 A 
ATOM     62  C   UNL     1       4.984  13.378  -8.479  1.00  0.00     0.049 A 
ATOM     63  H   UNL     1       4.843  12.126  -6.787  1.00  0.00     0.167 HD
ATOM     64  C   UNL     1       7.182  12.232  -8.390  1.00  0.00     0.074 A 
ATOM     65  C   UNL     1       8.507  11.950  -8.901  1.00  0.00     0.031 C 
ATOM     66  C   UNL     1       6.313  13.101  -8.963  1.00  0.00     0.037 A 
BRANCH  53  67
ATOM     67  C   UNL     1       0.856  13.478  -6.086  1.00  0.00     0.064 A 
ATOM     68  C   UNL     1       0.448  14.348  -5.064  1.00  0.00     0.173 A 
ATOM     69  C   UNL     1      -0.065  13.188  -7.105  1.00  0.00     0.173 A 
ATOM     70  F   UNL     1       1.282  14.644  -4.056  1.00  0.00    -0.203 F 
ATOM     71  C   UNL     1      -0.838  14.882  -5.048  1.00  0.00     0.198 A 
ATOM     72  C   UNL     1      -1.337  13.751  -7.105  1.00  0.00     0.198 A 
ATOM     73  F   UNL     1       0.273  12.362  -8.107  1.00  0.00    -0.203 F 
ATOM     74  F   UNL     1      -1.224  15.666  -4.032  1.00  0.00    -0.200 F 
ATOM     75  C   UNL     1      -1.726  14.591  -6.073  1.00  0.00     0.200 A 
ATOM     76  F   UNL     1      -2.188  13.479  -8.104  1.00  0.00    -0.200 F 
ATOM     77  F   UNL     1      -2.960  15.112  -6.061  1.00  0.00    -0.200 F 
ENDBRANCH  53  67
BRANCH  54  78
ATOM     78  C   UNL     1       9.877   9.163  -6.040  1.00  0.00     0.064 A 
ATOM     79  C   UNL     1      11.058   9.901  -5.881  1.00  0.00     0.173 A 
ATOM     80  C   UNL     1       9.998   7.783  -6.259  1.00  0.00     0.173 A 
ATOM     81  F   UNL     1      10.998  11.228  -5.696  1.00  0.00    -0.203 F 
ATOM     82  C   UNL     1      12.308   9.289  -5.962  1.00  0.00     0.198 A 
ATOM     83  C   UNL     1      11.246   7.166  -6.306  1.00  0.00     0.198 A 
ATOM     84  F   UNL     1       8.900   7.029  -6.421  1.00  0.00    -0.203 F 
ATOM     85  F   UNL     1      13.421  10.027  -5.861  1.00  0.00    -0.200 F 
ATOM     86  C   UNL     1      12.400   7.921  -6.168  1.00  0.00     0.200 A 
ATOM     87  F   UNL     1      11.330   5.841  -6.492  1.00  0.00    -0.200 F 
ATOM     88  F   UNL     1      13.602   7.332  -6.243  1.00  0.00    -0.200 F 
ENDBRANCH  54  78
BRANCH  66  89
ATOM     89  C   UNL     1       6.782  13.866 -10.169  1.00  0.00     0.064 A 
ATOM     90  C   UNL     1       6.975  13.250 -11.414  1.00  0.00     0.173 A 
ATOM     91  C   UNL     1       6.982  15.254 -10.087  1.00  0.00     0.173 A 
ATOM     92  F   UNL     1       6.809  11.925 -11.545  1.00  0.00    -0.203 F 
ATOM     93  C   UNL     1       7.376  13.989 -12.524  1.00  0.00     0.198 A 
ATOM     94  C   UNL     1       7.347  15.995 -11.207  1.00  0.00     0.198 A 
ATOM     95  F   UNL     1       6.802  15.895  -8.923  1.00  0.00    -0.203 F 
ATOM     96  F   UNL     1       7.601  13.372 -13.692  1.00  0.00    -0.200 F 
ATOM     97  C   UNL     1       7.552  15.362 -12.422  1.00  0.00     0.200 A 
ATOM     98  F   UNL     1       7.497  17.323 -11.110  1.00  0.00    -0.200 F 
ATOM     99  F   UNL     1       7.923  16.073 -13.496  1.00  0.00    -0.200 F 
ENDBRANCH  66  89
ENDBRANCH  40  41
ENDBRANCH  33  35
ENDBRANCH  32  33
ENDBRANCH  31  32
ENDBRANCH  30  31
ENDBRANCH  29  30
ENDBRANCH  28  29
ENDBRANCH  27  28
ENDBRANCH  26  27
ENDBRANCH   1  26
TORSDOF 24
