REMARK SMILES Cc1ccc(/C=C(\NC(=O)c2cccc(C)c2)C(=O)OCCOCCOCCOCCOC(=O)c2ccc(-c3c4nc(c(-c5c(F)c(F)c(F)c(F)c5F)c5ccc([nH]5)c(-c5c(F)c(F)c(F)c(F)c5F)c5nc(c(-c6c(F)c(F)c(F)c(F)c6F)c6ccc3[nH]6)C=C5)C=C4)cc2)cc1
REMARK SMILES IDX 26 1 25 2 24 3 23 4 22 5 21 6 20 7 18 8 19 9 7 10 6 11 5 12
REMARK SMILES IDX 1 13 2 14 3 15 99 16 4 17 98 18 8 19 9 20 10 22 11 23 12 24
REMARK SMILES IDX 17 25 13 26 15 27 14 28 16 29 27 30 28 31 29 32 30 33 31 34
REMARK SMILES IDX 32 35 33 36 34 37 35 38 36 39 97 40 37 41 96 42 38 43 39 44
REMARK SMILES IDX 40 45 90 46 41 47 95 48 89 49 91 50 42 51 94 52 88 53 87 54
REMARK SMILES IDX 43 56 75 57 55 58 74 59 56 60 59 61 73 62 92 63 57 64 58 65
REMARK SMILES IDX 72 67 93 68 60 69 44 70 45 71 53 72 46 73 47 74 51 75 54 76
REMARK SMILES IDX 48 77 49 78 52 79 50 80 76 81 77 82 85 83 78 84 79 85 83 86
REMARK SMILES IDX 86 87 80 88 81 89 84 90 82 91 61 92 62 93 70 94 63 95 64 96
REMARK SMILES IDX 68 97 71 98 65 99 66 100 69 101 67 102
REMARK H PARENT 8 21 91 55 59 66
REMARK Flexibility Score: inf
ROOT
ATOM      1  O   UNL     1      -4.725  -1.533   2.875  1.00  0.00    -0.377 OA
ENDROOT
BRANCH   1   2
ATOM      2  C   UNL     1      -3.768  -0.525   3.161  1.00  0.00     0.188 C 
BRANCH   2   3
ATOM      3  C   UNL     1      -3.839   0.646   2.172  1.00  0.00     0.188 C 
BRANCH   3   4
ATOM      4  O   UNL     1      -4.939   1.544   2.319  1.00  0.00    -0.376 OA
BRANCH   4   5
ATOM      5  C   UNL     1      -6.087   1.138   1.584  1.00  0.00     0.202 C 
BRANCH   5   6
ATOM      6  C   UNL     1      -6.213   1.705   0.171  1.00  0.00     0.261 C 
BRANCH   6   7
ATOM      7  O   UNL     1      -5.761   0.758  -0.785  1.00  0.00    -0.459 OA
BRANCH   7   8
ATOM      8  C   UNL     1      -4.572   0.852  -1.356  1.00  0.00     0.354 C 
ATOM      9  O   UNL     1      -4.048   1.939  -1.601  1.00  0.00    -0.244 OA
BRANCH   8  10
ATOM     10  C   UNL     1      -3.838  -0.523  -1.446  1.00  0.00     0.128 C 
ATOM     11  C   UNL     1      -2.576  -0.216  -0.985  1.00  0.00     0.042 C 
BRANCH  11  12
ATOM     12  C   UNL     1      -1.141  -0.340  -0.537  1.00  0.00    -0.023 A 
ATOM     13  C   UNL     1       3.153  -0.054   0.156  1.00  0.00     0.044 C 
ATOM     14  C   UNL     1       1.653  -0.148   0.105  1.00  0.00    -0.051 A 
ATOM     15  C   UNL     1       0.983  -1.384   0.032  1.00  0.00     0.004 A 
ATOM     16  C   UNL     1       0.897   1.008   0.025  1.00  0.00     0.004 A 
ATOM     17  C   UNL     1      -0.403  -1.482  -0.273  1.00  0.00     0.008 A 
ATOM     18  C   UNL     1      -0.462   0.906  -0.283  1.00  0.00     0.008 A 
ENDBRANCH  11  12
BRANCH  10  19
ATOM     19  N   UNL     1      -4.567  -1.747  -1.858  1.00  0.00    -0.316 N 
ATOM     20  C   UNL     1      -5.841  -2.147  -1.119  1.00  0.00     0.255 C 
ATOM     21  H   UNL     1      -4.232  -2.298  -2.603  1.00  0.00     0.170 HD
ATOM     22  O   UNL     1      -5.875  -1.339  -0.176  1.00  0.00    -0.269 OA
BRANCH  20  23
ATOM     23  C   UNL     1      -7.029  -3.666  -1.057  1.00  0.00     0.040 A 
ATOM     24  C   UNL     1      -6.710  -5.667  -0.971  1.00  0.00     0.014 A 
ATOM     25  C   UNL     1      -7.806  -3.058  -2.471  1.00  0.00     0.017 A 
ATOM     26  C   UNL     1      -7.172  -6.584  -2.532  1.00  0.00     0.001 A 
ATOM     27  C   UNL     1      -8.413  -4.034  -3.679  1.00  0.00    -0.050 A 
ATOM     28  C   UNL     1      -8.118  -5.726  -3.743  1.00  0.00     0.003 A 
ATOM     29  C   UNL     1      -9.451  -3.210  -4.412  1.00  0.00     0.044 C 
ENDBRANCH  20  23
ENDBRANCH  10  19
ENDBRANCH   8  10
ENDBRANCH   7   8
ENDBRANCH   6   7
ENDBRANCH   5   6
ENDBRANCH   4   5
ENDBRANCH   3   4
ENDBRANCH   2   3
ENDBRANCH   1   2
BRANCH   1  30
ATOM     30  C   UNL     1      -4.884  -2.498   3.910  1.00  0.00     0.188 C 
BRANCH  30  31
ATOM     31  C   UNL     1      -6.020  -2.105   4.828  1.00  0.00     0.188 C 
BRANCH  31  32
ATOM     32  O   UNL     1      -6.330  -0.730   4.677  1.00  0.00    -0.376 OA
BRANCH  32  33
ATOM     33  C   UNL     1      -6.242   0.106   5.810  1.00  0.00     0.202 C 
BRANCH  33  34
ATOM     34  C   UNL     1      -7.088  -0.387   6.987  1.00  0.00     0.261 C 
BRANCH  34  35
ATOM     35  O   UNL     1      -8.480  -0.419   6.596  1.00  0.00    -0.460 OA
BRANCH  35  36
ATOM     36  C   UNL     1      -8.978  -1.647   6.272  1.00  0.00     0.338 C 
ATOM     37  O   UNL     1      -8.806  -2.668   6.921  1.00  0.00    -0.246 OA
BRANCH  36  38
ATOM     38  C   UNL     1      -9.461  -1.652   4.850  1.00  0.00     0.060 A 
ATOM     39  C   UNL     1      -9.722  -2.873   4.230  1.00  0.00     0.016 A 
ATOM     40  C   UNL     1      -9.065  -0.614   4.037  1.00  0.00     0.016 A 
ATOM     41  C   UNL     1      -9.160  -3.147   2.959  1.00  0.00     0.010 A 
ATOM     42  C   UNL     1      -8.423  -0.955   2.846  1.00  0.00     0.010 A 
ATOM     43  C   UNL     1      -8.286  -2.261   2.343  1.00  0.00    -0.014 A 
BRANCH  43  44
ATOM     44  C   UNL     1      -7.409  -2.462   1.071  1.00  0.00     0.031 A 
ATOM     45  C   UNL     1      -8.232  -1.210  -0.064  1.00  0.00     0.074 A 
ATOM     46  C   UNL     1      -6.017  -3.264   1.184  1.00  0.00     0.049 A 
ATOM     47  N   UNL     1      -7.905  -0.686  -1.245  1.00  0.00    -0.248 NA
ATOM     48  C   UNL     1      -9.538  -0.537   0.268  1.00  0.00     0.031 C 
ATOM     49  C   UNL     1      -4.382  -3.154   0.620  1.00  0.00     0.029 A 
ATOM     50  N   UNL     1      -5.803  -4.542   0.515  1.00  0.00    -0.354 N 
ATOM     51  C   UNL     1      -8.619   0.479  -1.592  1.00  0.00     0.074 A 
ATOM     52  C   UNL     1      -9.649   0.505  -0.587  1.00  0.00     0.031 C 
ATOM     53  C   UNL     1      -3.962  -3.852  -0.548  1.00  0.00     0.029 A 
ATOM     54  C   UNL     1      -5.137  -4.479  -1.145  1.00  0.00     0.049 A 
ATOM     55  H   UNL     1      -6.015  -5.397   0.954  1.00  0.00     0.167 HD
ATOM     56  C   UNL     1      -8.186   1.386  -2.565  1.00  0.00     0.037 A 
ATOM     57  C   UNL     1      -6.307  -4.676  -2.451  1.00  0.00     0.037 A 
ATOM     58  C   UNL     1      -7.244   0.828  -3.528  1.00  0.00     0.049 A 
ATOM     59  C   UNL     1      -5.855  -4.175  -3.914  1.00  0.00     0.074 A 
ATOM     60  C   UNL     1      -5.950   1.145  -3.910  1.00  0.00     0.029 A 
ATOM     61  N   UNL     1      -7.687  -0.082  -4.460  1.00  0.00    -0.354 N 
ATOM     62  N   UNL     1      -5.678  -2.919  -4.247  1.00  0.00    -0.248 NA
ATOM     63  C   UNL     1      -5.881  -5.041  -5.120  1.00  0.00     0.031 C 
ATOM     64  C   UNL     1      -5.520   0.193  -4.852  1.00  0.00     0.029 A 
ATOM     65  C   UNL     1      -6.620  -0.568  -5.182  1.00  0.00     0.049 A 
ATOM     66  H   UNL     1      -8.627  -0.346  -4.590  1.00  0.00     0.167 HD
ATOM     67  C   UNL     1      -6.122  -2.816  -5.572  1.00  0.00     0.074 A 
ATOM     68  C   UNL     1      -6.064  -4.152  -6.105  1.00  0.00     0.031 C 
ATOM     69  C   UNL     1      -6.785  -1.711  -6.039  1.00  0.00     0.037 A 
BRANCH  56  70
ATOM     70  C   UNL     1      -8.348   2.949  -2.699  1.00  0.00     0.064 A 
ATOM     71  C   UNL     1      -7.813   3.627  -3.849  1.00  0.00     0.173 A 
ATOM     72  C   UNL     1      -8.711   3.827  -1.665  1.00  0.00     0.173 A 
ATOM     73  F   UNL     1      -7.565   2.968  -4.993  1.00  0.00    -0.203 F 
ATOM     74  C   UNL     1      -7.503   4.995  -3.886  1.00  0.00     0.198 A 
ATOM     75  C   UNL     1      -8.481   5.225  -1.741  1.00  0.00     0.198 A 
ATOM     76  F   UNL     1      -9.269   3.363  -0.540  1.00  0.00    -0.203 F 
ATOM     77  F   UNL     1      -6.872   5.519  -4.950  1.00  0.00    -0.200 F 
ATOM     78  C   UNL     1      -7.836   5.799  -2.825  1.00  0.00     0.200 A 
ATOM     79  F   UNL     1      -8.870   6.022  -0.734  1.00  0.00    -0.200 F 
ATOM     80  F   UNL     1      -7.561   7.112  -2.856  1.00  0.00    -0.200 F 
ENDBRANCH  56  70
BRANCH  57  81
ATOM     81  C   UNL     1      -8.329  -5.085  -1.683  1.00  0.00     0.064 A 
ATOM     82  C   UNL     1      -8.622  -6.373  -0.566  1.00  0.00     0.173 A 
ATOM     83  C   UNL     1      -9.582  -4.339  -1.294  1.00  0.00     0.173 A 
ATOM     84  F   UNL     1      -7.920  -7.548  -0.627  1.00  0.00    -0.203 F 
ATOM     85  C   UNL     1      -9.214  -6.345   0.696  1.00  0.00     0.198 A 
ATOM     86  C   UNL     1     -10.481  -4.609  -0.166  1.00  0.00     0.198 A 
ATOM     87  F   UNL     1     -10.087  -3.302  -1.979  1.00  0.00    -0.203 F 
ATOM     88  F   UNL     1      -8.721  -7.074   1.715  1.00  0.00    -0.200 F 
ATOM     89  C   UNL     1     -10.248  -5.517   0.849  1.00  0.00     0.200 A 
ATOM     90  F   UNL     1     -11.592  -3.867  -0.050  1.00  0.00    -0.200 F 
ATOM     91  F   UNL     1     -10.991  -5.572   1.964  1.00  0.00    -0.200 F 
ENDBRANCH  57  81
BRANCH  69  92
ATOM     92  C   UNL     1      -7.721  -1.632  -7.245  1.00  0.00     0.064 A 
ATOM     93  C   UNL     1      -8.487  -2.714  -7.732  1.00  0.00     0.173 A 
ATOM     94  C   UNL     1      -8.017  -0.386  -7.849  1.00  0.00     0.173 A 
ATOM     95  F   UNL     1      -8.454  -3.919  -7.146  1.00  0.00    -0.203 F 
ATOM     96  C   UNL     1      -9.406  -2.583  -8.777  1.00  0.00     0.198 A 
ATOM     97  C   UNL     1      -8.940  -0.256  -8.896  1.00  0.00     0.198 A 
ATOM     98  F   UNL     1      -7.445   0.746  -7.413  1.00  0.00    -0.203 F 
ATOM     99  F   UNL     1     -10.115  -3.652  -9.169  1.00  0.00    -0.200 F 
ATOM    100  C   UNL     1      -9.614  -1.361  -9.377  1.00  0.00     0.200 A 
ATOM    101  F   UNL     1      -9.193   0.951  -9.420  1.00  0.00    -0.200 F 
ATOM    102  F   UNL     1     -10.477  -1.246 -10.395  1.00  0.00    -0.200 F 
ENDBRANCH  69  92
ENDBRANCH  43  44
ENDBRANCH  36  38
ENDBRANCH  35  36
ENDBRANCH  34  35
ENDBRANCH  33  34
ENDBRANCH  32  33
ENDBRANCH  31  32
ENDBRANCH  30  31
ENDBRANCH   1  30
TORSDOF 23
