REMARK SMILES Cc1c(CC(=O)N2CCC(C(=O)OCCOCCOCCOCCOC(=O)c3ccc(-c4c5nc(c(-c6c(F)c(F)c(F)c(F)c6F)c6ccc([nH]6)c(-c6c(F)c(F)c(F)c(F)c6F)c6nc(c(-c7c(F)c(F)c(F)c(F)c7F)c7ccc4[nH]7)C=C6)C=C5)cc3)(c3ccccc3)CC2)c(=O)oc2c(C)c(O)ccc12
REMARK SMILES IDX 18 1 17 2 16 3 15 4 14 5 13 6 11 7 12 8 10 9 5 10 6 11 7 12
REMARK SMILES IDX 8 13 98 14 9 15 97 16 4 17 3 18 1 19 2 20 109 21 99 22
REMARK SMILES IDX 102 23 108 24 100 25 101 26 103 27 107 28 104 29 105 30
REMARK SMILES IDX 106 31 91 33 92 34 96 35 93 36 95 37 94 38 19 39 20 40 21 41
REMARK SMILES IDX 22 42 23 43 24 44 25 45 26 46 27 47 28 48 29 49 90 50 30 51
REMARK SMILES IDX 89 52 31 53 32 54 33 55 83 56 34 57 88 58 82 59 84 60 35 61
REMARK SMILES IDX 87 62 81 63 80 64 36 66 68 67 48 68 67 69 49 70 52 71 66 72
REMARK SMILES IDX 85 73 50 74 51 75 65 77 86 78 53 79 37 80 38 81 46 82 39 83
REMARK SMILES IDX 40 84 44 85 47 86 41 87 42 88 45 89 43 90 69 91 70 92 78 93
REMARK SMILES IDX 71 94 72 95 76 96 79 97 73 98 74 99 77 100 75 101 54 102
REMARK SMILES IDX 55 103 63 104 56 105 57 106 61 107 64 108 58 109 59 110
REMARK SMILES IDX 62 111 60 112
REMARK H PARENT 106 32 84 65 52 76
REMARK Flexibility Score: inf
ROOT
ATOM      1  C   UNL     1      -5.161  -0.918  -5.218  1.00  0.00     0.188 C 
ENDROOT
BRANCH   1   2
ATOM      2  C   UNL     1      -6.558  -1.193  -4.660  1.00  0.00     0.188 C 
BRANCH   2   3
ATOM      3  O   UNL     1      -7.366  -0.121  -4.213  1.00  0.00    -0.376 OA
BRANCH   3   4
ATOM      4  C   UNL     1      -6.838   0.853  -3.325  1.00  0.00     0.202 C 
BRANCH   4   5
ATOM      5  C   UNL     1      -5.808   0.546  -2.213  1.00  0.00     0.261 C 
BRANCH   5   6
ATOM      6  O   UNL     1      -4.790  -0.436  -2.485  1.00  0.00    -0.463 OA
BRANCH   6   7
ATOM      7  C   UNL     1      -4.772  -1.547  -1.706  1.00  0.00     0.316 C 
ATOM      8  O   UNL     1      -5.585  -1.737  -0.803  1.00  0.00    -0.251 OA
BRANCH   7   9
ATOM      9  C   UNL     1      -3.611  -2.560  -2.025  1.00  0.00     0.096 C 
ATOM     10  C   UNL     1       0.736  -2.125  -1.786  1.00  0.00     0.227 C 
ATOM     11  O   UNL     1       1.256  -1.542  -2.747  1.00  0.00    -0.275 OA
ATOM     12  N   UNL     1      -0.606  -2.502  -1.815  1.00  0.00    -0.342 N 
ATOM     13  C   UNL     1      -1.222  -2.601  -3.122  1.00  0.00     0.121 C 
ATOM     14  C   UNL     1      -1.401  -3.050  -0.722  1.00  0.00     0.121 C 
ATOM     15  C   UNL     1      -2.657  -2.100  -3.168  1.00  0.00     0.045 C 
ATOM     16  C   UNL     1      -2.825  -2.518  -0.696  1.00  0.00     0.045 C 
BRANCH  10  17
ATOM     17  C   UNL     1       1.650  -2.530  -0.625  1.00  0.00     0.143 C 
BRANCH  17  18
ATOM     18  C   UNL     1       1.174  -2.153   0.750  1.00  0.00     0.051 A 
ATOM     19  C   UNL     1       1.091   0.295   0.233  1.00  0.00     0.046 C 
ATOM     20  C   UNL     1       0.817  -0.901   1.111  1.00  0.00    -0.029 A 
ATOM     21  C   UNL     1       0.042  -0.726   2.354  1.00  0.00     0.021 A 
ATOM     22  C   UNL     1       0.975  -3.324   1.648  1.00  0.00     0.340 A 
ATOM     23  C   UNL     1      -0.152  -1.825   3.195  1.00  0.00     0.145 A 
ATOM     24  C   UNL     1      -0.594   0.470   2.706  1.00  0.00     0.016 A 
ATOM     25  O   UNL     1       1.267  -4.465   1.308  1.00  0.00    -0.246 OA
ATOM     26  O   UNL     1       0.398  -3.079   2.874  1.00  0.00    -0.422 OA
ATOM     27  C   UNL     1      -0.928  -1.772   4.367  1.00  0.00     0.034 A 
ATOM     28  C   UNL     1      -1.374   0.556   3.865  1.00  0.00     0.047 A 
ATOM     29  C   UNL     1      -1.125  -3.010   5.196  1.00  0.00     0.052 C 
ATOM     30  C   UNL     1      -1.534  -0.559   4.685  1.00  0.00     0.122 A 
BRANCH  30  31
ATOM     31  O   UNL     1      -2.304  -0.475   5.809  1.00  0.00    -0.508 OA
ATOM     32  H   UNL     1      -2.412  -1.225   6.360  1.00  0.00     0.293 HD
ENDBRANCH  30  31
ENDBRANCH  17  18
ENDBRANCH  10  17
BRANCH   9  33
ATOM     33  C   UNL     1      -4.195  -3.963  -2.377  1.00  0.00    -0.031 A 
ATOM     34  C   UNL     1      -5.559  -4.147  -2.679  1.00  0.00     0.005 A 
ATOM     35  C   UNL     1      -3.386  -5.104  -2.499  1.00  0.00     0.005 A 
ATOM     36  C   UNL     1      -6.068  -5.359  -3.156  1.00  0.00     0.000 A 
ATOM     37  C   UNL     1      -3.894  -6.331  -2.942  1.00  0.00     0.000 A 
ATOM     38  C   UNL     1      -5.231  -6.454  -3.295  1.00  0.00     0.000 A 
ENDBRANCH   9  33
ENDBRANCH   7   9
ENDBRANCH   6   7
ENDBRANCH   5   6
ENDBRANCH   4   5
ENDBRANCH   3   4
ENDBRANCH   2   3
ENDBRANCH   1   2
BRANCH   1  39
ATOM     39  O   UNL     1      -4.698   0.401  -5.030  1.00  0.00    -0.377 OA
BRANCH  39  40
ATOM     40  C   UNL     1      -4.927   1.300  -6.102  1.00  0.00     0.188 C 
BRANCH  40  41
ATOM     41  C   UNL     1      -6.165   1.077  -6.994  1.00  0.00     0.188 C 
BRANCH  41  42
ATOM     42  O   UNL     1      -6.290  -0.245  -7.504  1.00  0.00    -0.376 OA
BRANCH  42  43
ATOM     43  C   UNL     1      -5.785  -0.536  -8.800  1.00  0.00     0.202 C 
BRANCH  43  44
ATOM     44  C   UNL     1      -4.264  -0.466  -9.017  1.00  0.00     0.261 C 
BRANCH  44  45
ATOM     45  O   UNL     1      -3.630   0.800  -8.776  1.00  0.00    -0.460 OA
BRANCH  45  46
ATOM     46  C   UNL     1      -4.097   1.892  -9.413  1.00  0.00     0.338 C 
ATOM     47  O   UNL     1      -4.970   1.942 -10.261  1.00  0.00    -0.246 OA
BRANCH  46  48
ATOM     48  C   UNL     1      -3.508   3.069  -8.744  1.00  0.00     0.060 A 
ATOM     49  C   UNL     1      -4.353   3.967  -8.077  1.00  0.00     0.016 A 
ATOM     50  C   UNL     1      -2.127   3.274  -8.759  1.00  0.00     0.016 A 
ATOM     51  C   UNL     1      -3.822   5.084  -7.438  1.00  0.00     0.010 A 
ATOM     52  C   UNL     1      -1.599   4.422  -8.165  1.00  0.00     0.010 A 
ATOM     53  C   UNL     1      -2.450   5.347  -7.536  1.00  0.00    -0.014 A 
BRANCH  53  54
ATOM     54  C   UNL     1      -1.967   6.717  -7.254  1.00  0.00     0.031 A 
ATOM     55  C   UNL     1      -2.018   7.710  -8.381  1.00  0.00     0.074 A 
ATOM     56  C   UNL     1      -1.526   7.082  -6.040  1.00  0.00     0.049 A 
ATOM     57  N   UNL     1      -1.637   8.960  -8.410  1.00  0.00    -0.248 NA
ATOM     58  C   UNL     1      -2.584   7.224  -9.652  1.00  0.00     0.031 C 
ATOM     59  C   UNL     1      -1.490   6.225  -4.859  1.00  0.00     0.029 A 
ATOM     60  N   UNL     1      -1.020   8.282  -5.607  1.00  0.00    -0.354 N 
ATOM     61  C   UNL     1      -1.925   9.408  -9.691  1.00  0.00     0.074 A 
ATOM     62  C   UNL     1      -2.481   8.293 -10.424  1.00  0.00     0.031 C 
ATOM     63  C   UNL     1      -0.973   6.925  -3.833  1.00  0.00     0.029 A 
ATOM     64  C   UNL     1      -0.616   8.267  -4.296  1.00  0.00     0.049 A 
ATOM     65  H   UNL     1      -0.953   9.078  -6.183  1.00  0.00     0.167 HD
ATOM     66  C   UNL     1      -1.751  10.644 -10.210  1.00  0.00     0.037 A 
ATOM     67  C   UNL     1      -0.010   9.225  -3.566  1.00  0.00     0.037 A 
ATOM     68  C   UNL     1      -1.171  11.742  -9.487  1.00  0.00     0.049 A 
ATOM     69  C   UNL     1       0.283  10.562  -4.200  1.00  0.00     0.074 A 
ATOM     70  C   UNL     1      -0.943  13.034  -9.922  1.00  0.00     0.029 A 
ATOM     71  N   UNL     1      -0.712  11.669  -8.180  1.00  0.00    -0.354 N 
ATOM     72  N   UNL     1      -0.009  10.990  -5.405  1.00  0.00    -0.248 NA
ATOM     73  C   UNL     1       0.991  11.550  -3.372  1.00  0.00     0.031 C 
ATOM     74  C   UNL     1      -0.291  13.727  -8.899  1.00  0.00     0.029 A 
ATOM     75  C   UNL     1      -0.170  12.886  -7.803  1.00  0.00     0.049 A 
ATOM     76  H   UNL     1      -0.765  10.871  -7.606  1.00  0.00     0.167 HD
ATOM     77  C   UNL     1       0.456  12.297  -5.473  1.00  0.00     0.074 A 
ATOM     78  C   UNL     1       1.038  12.599  -4.182  1.00  0.00     0.031 C 
ATOM     79  C   UNL     1       0.405  13.169  -6.511  1.00  0.00     0.037 A 
BRANCH  66  80
ATOM     80  C   UNL     1      -2.165  10.861 -11.634  1.00  0.00     0.064 A 
ATOM     81  C   UNL     1      -3.517  10.880 -12.012  1.00  0.00     0.173 A 
ATOM     82  C   UNL     1      -1.201  11.079 -12.630  1.00  0.00     0.173 A 
ATOM     83  F   UNL     1      -4.476  10.654 -11.102  1.00  0.00    -0.203 F 
ATOM     84  C   UNL     1      -3.886  11.092 -13.338  1.00  0.00     0.198 A 
ATOM     85  C   UNL     1      -1.576  11.321 -13.948  1.00  0.00     0.198 A 
ATOM     86  F   UNL     1       0.104  11.065 -12.322  1.00  0.00    -0.203 F 
ATOM     87  F   UNL     1      -5.180  11.060 -13.684  1.00  0.00    -0.200 F 
ATOM     88  C   UNL     1      -2.916  11.321 -14.302  1.00  0.00     0.200 A 
ATOM     89  F   UNL     1      -0.638  11.552 -14.877  1.00  0.00    -0.200 F 
ATOM     90  F   UNL     1      -3.274  11.536 -15.575  1.00  0.00    -0.200 F 
ENDBRANCH  66  80
BRANCH  67  91
ATOM     91  C   UNL     1       0.354   8.951  -2.152  1.00  0.00     0.064 A 
ATOM     92  C   UNL     1      -0.310   9.594  -1.099  1.00  0.00     0.173 A 
ATOM     93  C   UNL     1       1.357   8.026  -1.821  1.00  0.00     0.173 A 
ATOM     94  F   UNL     1      -1.257  10.506  -1.363  1.00  0.00    -0.203 F 
ATOM     95  C   UNL     1       0.013   9.323   0.230  1.00  0.00     0.198 A 
ATOM     96  C   UNL     1       1.661   7.736  -0.493  1.00  0.00     0.198 A 
ATOM     97  F   UNL     1       2.028   7.388  -2.791  1.00  0.00    -0.203 F 
ATOM     98  F   UNL     1      -0.621   9.971   1.216  1.00  0.00    -0.200 F 
ATOM     99  C   UNL     1       0.990   8.386   0.532  1.00  0.00     0.200 A 
ATOM    100  F   UNL     1       2.596   6.820  -0.205  1.00  0.00    -0.200 F 
ATOM    101  F   UNL     1       1.285   8.111   1.810  1.00  0.00    -0.200 F 
ENDBRANCH  67  91
BRANCH  79 102
ATOM    102  C   UNL     1       0.978  14.543  -6.305  1.00  0.00     0.064 A 
ATOM    103  C   UNL     1       2.361  14.756  -6.224  1.00  0.00     0.173 A 
ATOM    104  C   UNL     1       0.137  15.667  -6.285  1.00  0.00     0.173 A 
ATOM    105  F   UNL     1       3.206  13.715  -6.229  1.00  0.00    -0.203 F 
ATOM    106  C   UNL     1       2.881  16.044  -6.118  1.00  0.00     0.198 A 
ATOM    107  C   UNL     1       0.662  16.954  -6.213  1.00  0.00     0.198 A 
ATOM    108  F   UNL     1      -1.193  15.519  -6.372  1.00  0.00    -0.203 F 
ATOM    109  F   UNL     1       4.205  16.222  -6.010  1.00  0.00    -0.200 F 
ATOM    110  C   UNL     1       2.033  17.141  -6.125  1.00  0.00     0.200 A 
ATOM    111  F   UNL     1      -0.158  18.014  -6.241  1.00  0.00    -0.200 F 
ATOM    112  F   UNL     1       2.538  18.380  -6.047  1.00  0.00    -0.200 F 
ENDBRANCH  79 102
ENDBRANCH  53  54
ENDBRANCH  46  48
ENDBRANCH  45  46
ENDBRANCH  44  45
ENDBRANCH  43  44
ENDBRANCH  42  43
ENDBRANCH  41  42
ENDBRANCH  40  41
ENDBRANCH  39  40
ENDBRANCH   1  39
TORSDOF 24
