REMARK SMILES Cc1cccc(S(=O)(=O)Nc2cc(C(=O)OCCOCCOCCOCCOC(=O)c3ccc(-c4c5nc(c(-c6c(F)c(F)c(F)c(F)c6F)c6ccc([nH]6)c(-c6c(F)c(F)c(F)c(F)c6F)c6nc(c(-c7c(F)c(F)c(F)c(F)c7F)c7ccc4[nH]7)C=C6)C=C5)cc3)cnc2N2CCC[C@H](C)C2)c1
REMARK SMILES IDX 21 1 20 2 19 3 18 4 17 5 16 6 14 7 15 8 13 9 11 10 12 11
REMARK SMILES IDX 96 12 95 13 94 14 10 15 7 17 8 18 9 19 6 20 1 21 2 22 3 23
REMARK SMILES IDX 104 24 4 25 5 26 97 27 98 28 103 29 99 30 101 31 100 32
REMARK SMILES IDX 102 33 22 34 23 35 24 36 25 37 26 38 27 39 28 40 29 41 30 42
REMARK SMILES IDX 31 43 32 44 93 45 33 46 92 47 34 48 35 49 36 50 86 51 37 52
REMARK SMILES IDX 91 53 85 54 87 55 38 56 90 57 84 58 83 59 39 61 71 62 51 63
REMARK SMILES IDX 70 64 52 65 55 66 69 67 88 68 53 69 54 70 68 72 89 73 56 74
REMARK SMILES IDX 40 75 41 76 49 77 42 78 43 79 47 80 50 81 44 82 45 83 48 84
REMARK SMILES IDX 46 85 72 86 73 87 81 88 74 89 75 90 79 91 82 92 76 93 77 94
REMARK SMILES IDX 80 95 78 96 57 97 58 98 66 99 59 100 60 101 64 102 67 103
REMARK SMILES IDX 61 104 62 105 65 106 63 107
REMARK H PARENT 10 16 87 60 55 71
REMARK Flexibility Score: inf
ROOT
ATOM      1  C   UNL     1       4.905   4.076  -3.349  1.00  0.00     0.188 C 
ENDROOT
BRANCH   1   2
ATOM      2  C   UNL     1       5.963   3.072  -4.176  1.00  0.00     0.188 C 
BRANCH   2   3
ATOM      3  O   UNL     1       6.449   1.424  -3.980  1.00  0.00    -0.376 OA
BRANCH   3   4
ATOM      4  C   UNL     1       5.678  -0.100  -3.632  1.00  0.00     0.202 C 
BRANCH   4   5
ATOM      5  C   UNL     1       4.357  -0.565  -2.348  1.00  0.00     0.261 C 
BRANCH   5   6
ATOM      6  O   UNL     1       3.782   0.431  -0.924  1.00  0.00    -0.460 OA
BRANCH   6   7
ATOM      7  C   UNL     1       4.032   1.561   0.036  1.00  0.00     0.339 C 
ATOM      8  O   UNL     1       5.128   1.934   0.473  1.00  0.00    -0.246 OA
BRANCH   7   9
ATOM      9  C   UNL     1       2.970   2.586   0.597  1.00  0.00     0.080 A 
ATOM     10  C   UNL     1       0.946   4.004   0.585  1.00  0.00     0.092 A 
ATOM     11  C   UNL     1       1.886   3.201  -0.049  1.00  0.00     0.048 A 
ATOM     12  C   UNL     1       1.325   4.604   1.778  1.00  0.00     0.153 A 
ATOM     13  N   UNL     1       2.460   4.218   2.402  1.00  0.00    -0.236 NA
ATOM     14  C   UNL     1       3.215   3.203   1.826  1.00  0.00     0.129 A 
BRANCH  10  15
ATOM     15  N   UNL     1      -0.325   4.276  -0.069  1.00  0.00    -0.276 N 
ATOM     16  H   UNL     1      -0.358   4.944  -0.791  1.00  0.00     0.180 HD
BRANCH  15  17
ATOM     17  S   UNL     1      -1.779   3.458   0.388  1.00  0.00     0.262 S 
ATOM     18  O   UNL     1      -2.550   3.348  -0.856  1.00  0.00    -0.201 OA
ATOM     19  O   UNL     1      -2.349   4.141   1.502  1.00  0.00    -0.201 OA
BRANCH  17  20
ATOM     20  C   UNL     1      -1.489   1.804   0.941  1.00  0.00     0.088 A 
ATOM     21  C   UNL     1       1.139   0.007   2.886  1.00  0.00     0.044 C 
ATOM     22  C   UNL     1      -0.154   0.235   2.184  1.00  0.00    -0.050 A 
ATOM     23  C   UNL     1      -0.933  -0.821   1.708  1.00  0.00     0.003 A 
ATOM     24  C   UNL     1      -0.481   1.548   1.854  1.00  0.00     0.025 A 
ATOM     25  C   UNL     1      -2.042  -0.557   0.908  1.00  0.00     0.002 A 
ATOM     26  C   UNL     1      -2.311   0.755   0.507  1.00  0.00     0.022 A 
ENDBRANCH  17  20
ENDBRANCH  15  17
ENDBRANCH  10  15
BRANCH  12  27
ATOM     27  N   UNL     1       0.600   5.731   2.156  1.00  0.00    -0.355 N 
ATOM     28  C   UNL     1      -0.311   5.613   3.280  1.00  0.00     0.118 C 
ATOM     29  C   UNL     1       1.274   7.020   2.010  1.00  0.00     0.121 C 
ATOM     30  C   UNL     1      -1.437   6.629   3.062  1.00  0.00     0.022 C 
ATOM     31  C   UNL     1       0.219   8.130   1.811  1.00  0.00     0.005 C 
ATOM     32  C   UNL     1      -0.891   8.045   2.877  1.00  0.00     0.007 C 
ATOM     33  C   UNL     1      -0.358   8.116   0.388  1.00  0.00     0.009 C 
ENDBRANCH  12  27
ENDBRANCH   7   9
ENDBRANCH   6   7
ENDBRANCH   5   6
ENDBRANCH   4   5
ENDBRANCH   3   4
ENDBRANCH   2   3
ENDBRANCH   1   2
BRANCH   1  34
ATOM     34  O   UNL     1       3.466   4.138  -3.466  1.00  0.00    -0.377 OA
BRANCH  34  35
ATOM     35  C   UNL     1       2.748   4.385  -4.670  1.00  0.00     0.188 C 
BRANCH  35  36
ATOM     36  C   UNL     1       3.258   5.428  -5.641  1.00  0.00     0.188 C 
BRANCH  36  37
ATOM     37  O   UNL     1       4.602   5.109  -5.951  1.00  0.00    -0.376 OA
BRANCH  37  38
ATOM     38  C   UNL     1       5.264   6.048  -6.782  1.00  0.00     0.202 C 
BRANCH  38  39
ATOM     39  C   UNL     1       4.870   5.890  -8.254  1.00  0.00     0.261 C 
BRANCH  39  40
ATOM     40  O   UNL     1       5.130   4.527  -8.655  1.00  0.00    -0.460 OA
BRANCH  40  41
ATOM     41  C   UNL     1       4.026   3.742  -8.812  1.00  0.00     0.338 C 
ATOM     42  O   UNL     1       2.983   4.079  -9.349  1.00  0.00    -0.246 OA
BRANCH  41  43
ATOM     43  C   UNL     1       4.156   2.556  -7.925  1.00  0.00     0.060 A 
ATOM     44  C   UNL     1       3.049   1.918  -7.404  1.00  0.00     0.016 A 
ATOM     45  C   UNL     1       5.351   2.161  -7.394  1.00  0.00     0.016 A 
ATOM     46  C   UNL     1       3.123   1.314  -6.114  1.00  0.00     0.010 A 
ATOM     47  C   UNL     1       5.348   1.500  -6.140  1.00  0.00     0.010 A 
ATOM     48  C   UNL     1       4.216   1.442  -5.239  1.00  0.00    -0.014 A 
BRANCH  48  49
ATOM     49  C   UNL     1       4.064   1.592  -3.392  1.00  0.00     0.031 A 
ATOM     50  C   UNL     1       5.552   1.581  -2.079  1.00  0.00     0.074 A 
ATOM     51  C   UNL     1       2.671   1.427  -3.099  1.00  0.00     0.049 A 
ATOM     52  N   UNL     1       5.861   0.473  -1.337  1.00  0.00    -0.248 NA
ATOM     53  C   UNL     1       6.990   2.262  -1.862  1.00  0.00     0.031 C 
ATOM     54  C   UNL     1       1.865   1.270  -1.883  1.00  0.00     0.029 A 
ATOM     55  N   UNL     1       1.585   1.169  -3.981  1.00  0.00    -0.354 N 
ATOM     56  C   UNL     1       6.993   0.369  -0.609  1.00  0.00     0.074 A 
ATOM     57  C   UNL     1       7.774   1.418  -1.146  1.00  0.00     0.031 C 
ATOM     58  C   UNL     1       0.583   0.965  -2.013  1.00  0.00     0.029 A 
ATOM     59  C   UNL     1       0.522   0.512  -3.324  1.00  0.00     0.049 A 
ATOM     60  H   UNL     1       1.576   1.419  -4.933  1.00  0.00     0.167 HD
ATOM     61  C   UNL     1       7.139  -0.544   0.403  1.00  0.00     0.037 A 
ATOM     62  C   UNL     1       0.198  -0.791  -3.504  1.00  0.00     0.037 A 
ATOM     63  C   UNL     1       5.878  -1.118   0.916  1.00  0.00     0.049 A 
ATOM     64  C   UNL     1       0.705  -1.802  -2.432  1.00  0.00     0.074 A 
ATOM     65  C   UNL     1       5.133  -0.798   2.038  1.00  0.00     0.029 A 
ATOM     66  N   UNL     1       5.085  -2.038   0.221  1.00  0.00    -0.354 N 
ATOM     67  N   UNL     1       1.716  -1.661  -1.583  1.00  0.00    -0.248 NA
ATOM     68  C   UNL     1       0.022  -3.075  -2.237  1.00  0.00     0.031 C 
ATOM     69  C   UNL     1       3.914  -1.507   1.986  1.00  0.00     0.029 A 
ATOM     70  C   UNL     1       3.780  -2.114   0.744  1.00  0.00     0.049 A 
ATOM     71  H   UNL     1       5.403  -2.569  -0.545  1.00  0.00     0.167 HD
ATOM     72  C   UNL     1       1.833  -2.783  -0.766  1.00  0.00     0.074 A 
ATOM     73  C   UNL     1       0.740  -3.632  -1.247  1.00  0.00     0.031 C 
ATOM     74  C   UNL     1       2.735  -3.045   0.257  1.00  0.00     0.037 A 
BRANCH  61  75
ATOM     75  C   UNL     1       8.450  -0.563   1.160  1.00  0.00     0.064 A 
ATOM     76  C   UNL     1       8.542  -0.408   2.556  1.00  0.00     0.173 A 
ATOM     77  C   UNL     1       9.680  -0.656   0.479  1.00  0.00     0.173 A 
ATOM     78  F   UNL     1       7.463  -0.432   3.344  1.00  0.00    -0.203 F 
ATOM     79  C   UNL     1       9.764  -0.196   3.201  1.00  0.00     0.198 A 
ATOM     80  C   UNL     1      10.903  -0.429   1.123  1.00  0.00     0.198 A 
ATOM     81  F   UNL     1       9.708  -0.936  -0.833  1.00  0.00    -0.203 F 
ATOM     82  F   UNL     1       9.789   0.009   4.526  1.00  0.00    -0.200 F 
ATOM     83  C   UNL     1      10.940  -0.165   2.479  1.00  0.00     0.200 A 
ATOM     84  F   UNL     1      12.043  -0.430   0.416  1.00  0.00    -0.200 F 
ATOM     85  F   UNL     1      12.100   0.116   3.088  1.00  0.00    -0.200 F 
ENDBRANCH  61  75
BRANCH  62  86
ATOM     86  C   UNL     1      -0.323  -0.902  -4.890  1.00  0.00     0.064 A 
ATOM     87  C   UNL     1      -1.268   0.097  -5.276  1.00  0.00     0.173 A 
ATOM     88  C   UNL     1       0.454  -1.469  -5.894  1.00  0.00     0.173 A 
ATOM     89  F   UNL     1      -2.050   0.675  -4.346  1.00  0.00    -0.203 F 
ATOM     90  C   UNL     1      -1.225   0.683  -6.536  1.00  0.00     0.198 A 
ATOM     91  C   UNL     1       0.439  -0.923  -7.182  1.00  0.00     0.198 A 
ATOM     92  F   UNL     1       1.352  -2.415  -5.590  1.00  0.00    -0.203 F 
ATOM     93  F   UNL     1      -1.918   1.805  -6.780  1.00  0.00    -0.200 F 
ATOM     94  C   UNL     1      -0.348   0.187  -7.481  1.00  0.00     0.200 A 
ATOM     95  F   UNL     1       1.302  -1.376  -8.101  1.00  0.00    -0.200 F 
ATOM     96  F   UNL     1      -0.194   0.829  -8.648  1.00  0.00    -0.200 F 
ENDBRANCH  62  86
BRANCH  74  97
ATOM     97  C   UNL     1       2.640  -4.302   1.112  1.00  0.00     0.064 A 
ATOM     98  C   UNL     1       1.448  -4.782   1.677  1.00  0.00     0.173 A 
ATOM     99  C   UNL     1       3.828  -4.940   1.542  1.00  0.00     0.173 A 
ATOM    100  F   UNL     1       0.278  -4.171   1.443  1.00  0.00    -0.203 F 
ATOM    101  C   UNL     1       1.437  -5.890   2.531  1.00  0.00     0.198 A 
ATOM    102  C   UNL     1       3.820  -5.986   2.462  1.00  0.00     0.198 A 
ATOM    103  F   UNL     1       5.027  -4.549   1.085  1.00  0.00    -0.203 F 
ATOM    104  F   UNL     1       0.269  -6.372   2.978  1.00  0.00    -0.200 F 
ATOM    105  C   UNL     1       2.622  -6.482   2.932  1.00  0.00     0.200 A 
ATOM    106  F   UNL     1       4.980  -6.505   2.889  1.00  0.00    -0.200 F 
ATOM    107  F   UNL     1       2.609  -7.524   3.774  1.00  0.00    -0.200 F 
ENDBRANCH  74  97
ENDBRANCH  48  49
ENDBRANCH  41  43
ENDBRANCH  40  41
ENDBRANCH  39  40
ENDBRANCH  38  39
ENDBRANCH  37  38
ENDBRANCH  36  37
ENDBRANCH  35  36
ENDBRANCH  34  35
ENDBRANCH   1  34
TORSDOF 24
