REMARK SMILES O=C(OCCOCCOCCOCCOC(=O)c1cnccc1C(=O)N1CCC(Cc2ccccc2)CC1)c1ccc(-c2c3nc(c(-c4c(F)c(F)c(F)c(F)c4F)c4ccc([nH]4)c(-c4c(F)c(F)c(F)c(F)c4F)c4nc(c(-c5c(F)c(F)c(F)c(F)c5F)c5ccc2[nH]5)C=C4)C=C3)cc1
REMARK SMILES IDX 10 1 9 2 8 3 7 4 6 5 5 6 4 7 3 8 2 9 1 10 39 11 40 12 101 13
REMARK SMILES IDX 41 14 100 15 42 16 43 17 44 18 94 19 45 20 99 21 93 22 95 23
REMARK SMILES IDX 46 24 98 25 92 26 91 27 47 29 79 30 59 31 78 32 60 33 63 34
REMARK SMILES IDX 77 35 96 36 61 37 62 38 76 40 97 41 64 42 48 43 49 44 57 45
REMARK SMILES IDX 50 46 51 47 55 48 58 49 52 50 53 51 56 52 54 53 80 54 81 55
REMARK SMILES IDX 89 56 82 57 83 58 87 59 90 60 84 61 85 62 88 63 86 64 65 65
REMARK SMILES IDX 66 66 74 67 67 68 68 69 72 70 75 71 69 72 70 73 73 74 71 75
REMARK SMILES IDX 11 76 12 77 13 78 14 79 15 80 16 81 17 82 18 83 19 84 23 85
REMARK SMILES IDX 20 86 22 87 21 88 24 89 25 90 26 91 27 92 38 93 28 94 37 95
REMARK SMILES IDX 29 96 30 97 31 98 32 99 36 100 33 101 35 102 34 103
REMARK H PARENT 95 28 63 39
REMARK Flexibility Score: inf
ROOT
ATOM      1  C   UNL     1       4.203   3.328   1.114  1.00  0.00     0.188 C 
ENDROOT
BRANCH   1   2
ATOM      2  O   UNL     1       2.806   3.531   1.274  1.00  0.00    -0.377 OA
BRANCH   2   3
ATOM      3  C   UNL     1       1.942   2.406   1.133  1.00  0.00     0.188 C 
BRANCH   3   4
ATOM      4  C   UNL     1       2.172   1.500  -0.078  1.00  0.00     0.188 C 
BRANCH   4   5
ATOM      5  O   UNL     1       3.502   0.984  -0.097  1.00  0.00    -0.376 OA
BRANCH   5   6
ATOM      6  C   UNL     1       4.157   1.036  -1.362  1.00  0.00     0.202 C 
BRANCH   6   7
ATOM      7  C   UNL     1       3.922  -0.212  -2.210  1.00  0.00     0.261 C 
BRANCH   7   8
ATOM      8  O   UNL     1       2.577  -0.696  -2.081  1.00  0.00    -0.460 OA
BRANCH   8   9
ATOM      9  C   UNL     1       2.104  -1.623  -1.211  1.00  0.00     0.338 C 
ATOM     10  O   UNL     1       0.914  -1.929  -1.280  1.00  0.00    -0.246 OA
BRANCH   9  11
ATOM     11  C   UNL     1       2.938  -2.332  -0.185  1.00  0.00     0.060 A 
ATOM     12  C   UNL     1       4.122  -1.853   0.379  1.00  0.00     0.016 A 
ATOM     13  C   UNL     1       2.446  -3.562   0.290  1.00  0.00     0.016 A 
ATOM     14  C   UNL     1       4.833  -2.584   1.320  1.00  0.00     0.010 A 
ATOM     15  C   UNL     1       3.144  -4.302   1.252  1.00  0.00     0.010 A 
ATOM     16  C   UNL     1       4.362  -3.822   1.743  1.00  0.00    -0.014 A 
BRANCH  16  17
ATOM     17  C   UNL     1       5.284  -4.655   2.534  1.00  0.00     0.031 A 
ATOM     18  C   UNL     1       6.059  -5.713   1.807  1.00  0.00     0.074 A 
ATOM     19  C   UNL     1       5.560  -4.329   3.809  1.00  0.00     0.049 A 
ATOM     20  N   UNL     1       6.945  -6.557   2.263  1.00  0.00    -0.248 NA
ATOM     21  C   UNL     1       5.824  -5.813   0.355  1.00  0.00     0.031 C 
ATOM     22  C   UNL     1       4.959  -3.212   4.542  1.00  0.00     0.029 A 
ATOM     23  N   UNL     1       6.446  -4.874   4.699  1.00  0.00    -0.354 N 
ATOM     24  C   UNL     1       7.361  -7.290   1.160  1.00  0.00     0.074 A 
ATOM     25  C   UNL     1       6.628  -6.806   0.014  1.00  0.00     0.031 C 
ATOM     26  C   UNL     1       5.507  -3.147   5.766  1.00  0.00     0.029 A 
ATOM     27  C   UNL     1       6.450  -4.250   5.922  1.00  0.00     0.049 A 
ATOM     28  H   UNL     1       7.025  -5.641   4.483  1.00  0.00     0.167 HD
ATOM     29  C   UNL     1       8.278  -8.283   1.117  1.00  0.00     0.037 A 
ATOM     30  C   UNL     1       7.122  -4.568   7.045  1.00  0.00     0.037 A 
ATOM     31  C   UNL     1       8.983  -8.753   2.276  1.00  0.00     0.049 A 
ATOM     32  C   UNL     1       8.047  -5.758   6.997  1.00  0.00     0.074 A 
ATOM     33  C   UNL     1       9.849  -9.822   2.394  1.00  0.00     0.029 A 
ATOM     34  N   UNL     1       8.895  -8.161   3.530  1.00  0.00    -0.354 N 
ATOM     35  N   UNL     1       8.367  -6.517   5.975  1.00  0.00    -0.248 NA
ATOM     36  C   UNL     1       8.693  -6.145   8.257  1.00  0.00     0.031 C 
ATOM     37  C   UNL     1      10.258  -9.898   3.731  1.00  0.00     0.029 A 
ATOM     38  C   UNL     1       9.685  -8.848   4.433  1.00  0.00     0.049 A 
ATOM     39  H   UNL     1       8.351  -7.368   3.744  1.00  0.00     0.167 HD
ATOM     40  C   UNL     1       9.256  -7.464   6.463  1.00  0.00     0.074 A 
ATOM     41  C   UNL     1       9.451  -7.160   7.867  1.00  0.00     0.031 C 
ATOM     42  C   UNL     1       9.849  -8.502   5.822  1.00  0.00     0.037 A 
BRANCH  29  43
ATOM     43  C   UNL     1       8.500  -8.949  -0.207  1.00  0.00     0.064 A 
ATOM     44  C   UNL     1       9.192  -8.313  -1.249  1.00  0.00     0.173 A 
ATOM     45  C   UNL     1       7.976 -10.227  -0.451  1.00  0.00     0.173 A 
ATOM     46  F   UNL     1       9.682  -7.076  -1.078  1.00  0.00    -0.203 F 
ATOM     47  C   UNL     1       9.332  -8.924  -2.493  1.00  0.00     0.198 A 
ATOM     48  C   UNL     1       8.137 -10.844  -1.689  1.00  0.00     0.198 A 
ATOM     49  F   UNL     1       7.293 -10.871   0.507  1.00  0.00    -0.203 F 
ATOM     50  F   UNL     1       9.949  -8.276  -3.491  1.00  0.00    -0.200 F 
ATOM     51  C   UNL     1       8.808 -10.190  -2.711  1.00  0.00     0.200 A 
ATOM     52  F   UNL     1       7.628 -12.066  -1.897  1.00  0.00    -0.200 F 
ATOM     53  F   UNL     1       8.935 -10.773  -3.911  1.00  0.00    -0.200 F 
ENDBRANCH  29  43
BRANCH  30  54
ATOM     54  C   UNL     1       6.896  -3.812   8.308  1.00  0.00     0.064 A 
ATOM     55  C   UNL     1       7.931  -3.109   8.941  1.00  0.00     0.173 A 
ATOM     56  C   UNL     1       5.640  -3.815   8.937  1.00  0.00     0.173 A 
ATOM     57  F   UNL     1       9.158  -3.091   8.399  1.00  0.00    -0.203 F 
ATOM     58  C   UNL     1       7.727  -2.467  10.163  1.00  0.00     0.198 A 
ATOM     59  C   UNL     1       5.428  -3.143  10.139  1.00  0.00     0.198 A 
ATOM     60  F   UNL     1       4.612  -4.473   8.382  1.00  0.00    -0.203 F 
ATOM     61  F   UNL     1       8.751  -1.855  10.775  1.00  0.00    -0.200 F 
ATOM     62  C   UNL     1       6.475  -2.480  10.758  1.00  0.00     0.200 A 
ATOM     63  F   UNL     1       4.211  -3.147  10.700  1.00  0.00    -0.200 F 
ATOM     64  F   UNL     1       6.280  -1.865  11.933  1.00  0.00    -0.200 F 
ENDBRANCH  30  54
BRANCH  42  65
ATOM     65  C   UNL     1      10.770  -9.358   6.637  1.00  0.00     0.064 A 
ATOM     66  C   UNL     1      10.278 -10.248   7.601  1.00  0.00     0.173 A 
ATOM     67  C   UNL     1      12.155  -9.309   6.425  1.00  0.00     0.173 A 
ATOM     68  F   UNL     1       8.960 -10.317   7.848  1.00  0.00    -0.203 F 
ATOM     69  C   UNL     1      11.145 -11.040   8.348  1.00  0.00     0.198 A 
ATOM     70  C   UNL     1      13.016 -10.124   7.151  1.00  0.00     0.198 A 
ATOM     71  F   UNL     1      12.671  -8.478   5.506  1.00  0.00    -0.203 F 
ATOM     72  F   UNL     1      10.658 -11.846   9.301  1.00  0.00    -0.200 F 
ATOM     73  C   UNL     1      12.511 -10.982   8.117  1.00  0.00     0.200 A 
ATOM     74  F   UNL     1      14.335 -10.078   6.918  1.00  0.00    -0.200 F 
ATOM     75  F   UNL     1      13.344 -11.748   8.834  1.00  0.00    -0.200 F 
ENDBRANCH  42  65
ENDBRANCH  16  17
ENDBRANCH   9  11
ENDBRANCH   8   9
ENDBRANCH   7   8
ENDBRANCH   6   7
ENDBRANCH   5   6
ENDBRANCH   4   5
ENDBRANCH   3   4
ENDBRANCH   2   3
ENDBRANCH   1   2
BRANCH   1  76
ATOM     76  C   UNL     1       4.949   2.283   1.980  1.00  0.00     0.188 C 
BRANCH  76  77
ATOM     77  O   UNL     1       4.139   1.425   2.776  1.00  0.00    -0.376 OA
BRANCH  77  78
ATOM     78  C   UNL     1       4.198   1.689   4.174  1.00  0.00     0.202 C 
BRANCH  78  79
ATOM     79  C   UNL     1       3.385   2.912   4.586  1.00  0.00     0.261 C 
BRANCH  79  80
ATOM     80  O   UNL     1       3.778   4.139   3.947  1.00  0.00    -0.460 OA
BRANCH  80  81
ATOM     81  C   UNL     1       4.991   4.653   4.221  1.00  0.00     0.340 C 
ATOM     82  O   UNL     1       5.868   4.146   4.903  1.00  0.00    -0.246 OA
BRANCH  81  83
ATOM     83  C   UNL     1       5.155   5.910   3.491  1.00  0.00     0.091 A 
ATOM     84  C   UNL     1       6.294   5.974   2.691  1.00  0.00     0.127 A 
ATOM     85  C   UNL     1       4.218   6.940   3.401  1.00  0.00     0.057 A 
ATOM     86  N   UNL     1       6.522   6.928   1.760  1.00  0.00    -0.264 NA
ATOM     87  C   UNL     1       4.447   7.938   2.433  1.00  0.00     0.035 A 
ATOM     88  C   UNL     1       5.577   7.879   1.635  1.00  0.00     0.112 A 
BRANCH  85  89
ATOM     89  C   UNL     1       2.883   6.993   4.069  1.00  0.00     0.254 C 
ATOM     90  O   UNL     1       1.987   7.534   3.412  1.00  0.00    -0.269 OA
ATOM     91  N   UNL     1       2.600   6.437   5.325  1.00  0.00    -0.339 N 
ATOM     92  C   UNL     1       1.255   5.867   5.427  1.00  0.00     0.120 C 
ATOM     93  C   UNL     1       3.567   6.140   6.387  1.00  0.00     0.120 C 
ATOM     94  C   UNL     1       0.710   5.715   6.837  1.00  0.00     0.025 C 
ATOM     95  C   UNL     1       2.968   5.995   7.781  1.00  0.00     0.025 C 
ATOM     96  C   UNL     1       1.745   5.063   7.755  1.00  0.00    -0.003 C 
BRANCH  96  97
ATOM     97  C   UNL     1       1.238   4.811   9.184  1.00  0.00     0.039 C 
BRANCH  97  98
ATOM     98  C   UNL     1      -0.098   4.112   9.266  1.00  0.00    -0.048 A 
ATOM     99  C   UNL     1      -1.241   4.849   9.608  1.00  0.00     0.004 A 
ATOM    100  C   UNL     1      -0.230   2.746   8.986  1.00  0.00     0.004 A 
ATOM    101  C   UNL     1      -2.489   4.232   9.682  1.00  0.00     0.000 A 
ATOM    102  C   UNL     1      -1.482   2.129   9.062  1.00  0.00     0.000 A 
ATOM    103  C   UNL     1      -2.609   2.871   9.412  1.00  0.00     0.000 A 
ENDBRANCH  97  98
ENDBRANCH  96  97
ENDBRANCH  85  89
ENDBRANCH  81  83
ENDBRANCH  80  81
ENDBRANCH  79  80
ENDBRANCH  78  79
ENDBRANCH  77  78
ENDBRANCH  76  77
ENDBRANCH   1  76
TORSDOF 23
