REMARK SMILES Cc1ccccc1C(=O)Nc1ccc(N2CCC(n3c(C)nc4cccnc43)CC2)c(C(=O)OCCOCCOCCOCCOC(=O)c2ccc(-c3c4nc(c(-c5c(F)c(F)c(F)c(F)c5F)c5ccc([nH]5)c(-c5c(F)c(F)c(F)c(F)c5F)c5nc(c(-c6c(F)c(F)c(F)c(F)c6F)c6ccc3[nH]6)C=C5)C=C4)cc2)c1
REMARK SMILES IDX 40 1 39 2 38 3 37 4 36 5 35 6 34 7 32 8 33 9 31 10 11 11
REMARK SMILES IDX 12 12 112 13 13 14 14 15 10 16 8 17 9 18 7 20 1 21 2 22 3 23
REMARK SMILES IDX 4 24 6 25 5 26 15 27 16 28 30 29 17 30 29 31 18 32 19 33
REMARK SMILES IDX 20 34 28 35 21 36 22 37 23 38 27 39 24 40 26 41 25 42 41 43
REMARK SMILES IDX 42 44 43 45 44 46 45 47 46 48 47 49 48 50 49 51 50 52 111 53
REMARK SMILES IDX 51 54 110 55 52 56 53 57 54 58 104 59 55 60 109 61 103 62
REMARK SMILES IDX 105 63 56 64 108 65 102 66 101 67 57 69 89 70 69 71 88 72
REMARK SMILES IDX 70 73 73 74 87 75 106 76 71 77 72 78 86 80 107 81 74 82
REMARK SMILES IDX 58 83 59 84 67 85 60 86 61 87 65 88 68 89 62 90 63 91 66 92
REMARK SMILES IDX 64 93 90 94 91 95 99 96 92 97 93 98 97 99 100 100 94 101
REMARK SMILES IDX 95 102 98 103 96 104 75 105 76 106 84 107 77 108 78 109
REMARK SMILES IDX 82 110 85 111 79 112 80 113 83 114 81 115
REMARK H PARENT 10 19 105 68 73 79
REMARK Flexibility Score: inf
ROOT
ATOM      1  O   UNL     1       7.106   0.038  -0.796  1.00  0.00    -0.377 OA
ENDROOT
BRANCH   1   2
ATOM      2  C   UNL     1       6.939   1.418  -1.077  1.00  0.00     0.188 C 
BRANCH   2   3
ATOM      3  C   UNL     1       6.645   2.393   0.078  1.00  0.00     0.188 C 
BRANCH   3   4
ATOM      4  O   UNL     1       7.582   2.547   1.135  1.00  0.00    -0.376 OA
BRANCH   4   5
ATOM      5  C   UNL     1       7.533   1.592   2.200  1.00  0.00     0.202 C 
BRANCH   5   6
ATOM      6  C   UNL     1       6.144   1.159   2.658  1.00  0.00     0.261 C 
BRANCH   6   7
ATOM      7  O   UNL     1       5.656   0.214   1.689  1.00  0.00    -0.460 OA
BRANCH   7   8
ATOM      8  C   UNL     1       4.339   0.002   1.722  1.00  0.00     0.340 C 
ATOM      9  O   UNL     1       3.585   0.181   2.684  1.00  0.00    -0.246 OA
BRANCH   8  10
ATOM     10  C   UNL     1       3.832   0.063   0.353  1.00  0.00     0.085 A 
ATOM     11  C   UNL     1       2.373   1.473  -0.951  1.00  0.00     0.042 A 
ATOM     12  C   UNL     1       2.392   0.541  -1.973  1.00  0.00     0.028 A 
ATOM     13  C   UNL     1       3.202   1.303   0.135  1.00  0.00     0.044 A 
ATOM     14  C   UNL     1       3.118  -0.654  -1.805  1.00  0.00     0.029 A 
ATOM     15  C   UNL     1       3.757  -0.982  -0.589  1.00  0.00     0.051 A 
BRANCH  11  16
ATOM     16  N   UNL     1       1.461   2.531  -0.883  1.00  0.00    -0.322 N 
ATOM     17  C   UNL     1       0.260   2.469  -0.177  1.00  0.00     0.255 C 
ATOM     18  O   UNL     1      -0.175   3.500   0.337  1.00  0.00    -0.269 OA
ATOM     19  H   UNL     1       1.678   3.364  -1.360  1.00  0.00     0.170 HD
BRANCH  17  20
ATOM     20  C   UNL     1      -0.590   1.241  -0.157  1.00  0.00     0.043 A 
ATOM     21  C   UNL     1       0.803  -0.199   1.446  1.00  0.00     0.045 C 
ATOM     22  C   UNL     1      -0.289   0.013   0.453  1.00  0.00    -0.038 A 
ATOM     23  C   UNL     1      -1.128  -1.095   0.233  1.00  0.00     0.004 A 
ATOM     24  C   UNL     1      -2.356  -0.937  -0.393  1.00  0.00     0.000 A 
ATOM     25  C   UNL     1      -1.863   1.402  -0.722  1.00  0.00     0.014 A 
ATOM     26  C   UNL     1      -2.751   0.328  -0.812  1.00  0.00     0.001 A 
ENDBRANCH  17  20
ENDBRANCH  11  16
BRANCH  15  27
ATOM     27  N   UNL     1       4.074  -2.323  -0.364  1.00  0.00    -0.371 N 
ATOM     28  C   UNL     1       5.044  -2.988  -1.228  1.00  0.00     0.118 C 
ATOM     29  C   UNL     1       3.661  -2.949   0.882  1.00  0.00     0.118 C 
ATOM     30  C   UNL     1       4.670  -4.461  -1.419  1.00  0.00     0.047 C 
ATOM     31  C   UNL     1       3.574  -4.469   0.811  1.00  0.00     0.047 C 
ATOM     32  C   UNL     1       4.598  -5.200  -0.068  1.00  0.00     0.094 C 
BRANCH  32  33
ATOM     33  N   UNL     1       4.380  -6.659  -0.205  1.00  0.00    -0.310 N 
ATOM     34  C   UNL     1       3.473  -7.512   0.429  1.00  0.00     0.108 A 
ATOM     35  C   UNL     1       5.199  -7.492  -0.962  1.00  0.00     0.160 A 
ATOM     36  C   UNL     1       2.486  -7.191   1.492  1.00  0.00     0.088 C 
ATOM     37  N   UNL     1       3.590  -8.754  -0.006  1.00  0.00    -0.232 NA
ATOM     38  C   UNL     1       4.659  -8.764  -0.839  1.00  0.00     0.108 A 
ATOM     39  N   UNL     1       6.299  -7.167  -1.672  1.00  0.00    -0.237 NA
ATOM     40  C   UNL     1       5.266  -9.827  -1.515  1.00  0.00     0.034 A 
ATOM     41  C   UNL     1       6.867  -8.230  -2.296  1.00  0.00     0.113 A 
ATOM     42  C   UNL     1       6.409  -9.541  -2.256  1.00  0.00     0.022 A 
ENDBRANCH  32  33
ENDBRANCH  15  27
ENDBRANCH   8  10
ENDBRANCH   7   8
ENDBRANCH   6   7
ENDBRANCH   5   6
ENDBRANCH   4   5
ENDBRANCH   3   4
ENDBRANCH   2   3
ENDBRANCH   1   2
BRANCH   1  43
ATOM     43  C   UNL     1       8.421  -0.483  -0.608  1.00  0.00     0.188 C 
BRANCH  43  44
ATOM     44  C   UNL     1       9.612   0.283  -1.186  1.00  0.00     0.188 C 
BRANCH  44  45
ATOM     45  O   UNL     1       9.850   1.434  -0.380  1.00  0.00    -0.376 OA
BRANCH  45  46
ATOM     46  C   UNL     1      10.293   2.601  -1.070  1.00  0.00     0.202 C 
BRANCH  46  47
ATOM     47  C   UNL     1      11.691   2.461  -1.678  1.00  0.00     0.261 C 
BRANCH  47  48
ATOM     48  O   UNL     1      12.644   2.268  -0.617  1.00  0.00    -0.460 OA
BRANCH  48  49
ATOM     49  C   UNL     1      13.023   0.984  -0.424  1.00  0.00     0.338 C 
ATOM     50  O   UNL     1      13.389   0.212  -1.310  1.00  0.00    -0.246 OA
BRANCH  49  51
ATOM     51  C   UNL     1      12.670   0.546   0.954  1.00  0.00     0.060 A 
ATOM     52  C   UNL     1      12.779  -0.810   1.296  1.00  0.00     0.016 A 
ATOM     53  C   UNL     1      11.948   1.404   1.782  1.00  0.00     0.016 A 
ATOM     54  C   UNL     1      12.036  -1.327   2.369  1.00  0.00     0.010 A 
ATOM     55  C   UNL     1      11.144   0.871   2.779  1.00  0.00     0.010 A 
ATOM     56  C   UNL     1      11.123  -0.507   3.048  1.00  0.00    -0.014 A 
BRANCH  56  57
ATOM     57  C   UNL     1       9.921  -1.017   3.757  1.00  0.00     0.031 A 
ATOM     58  C   UNL     1       9.287  -0.312   4.932  1.00  0.00     0.074 A 
ATOM     59  C   UNL     1       9.127  -1.856   3.045  1.00  0.00     0.049 A 
ATOM     60  N   UNL     1       8.121  -0.602   5.426  1.00  0.00    -0.248 NA
ATOM     61  C   UNL     1       9.925   0.767   5.683  1.00  0.00     0.031 C 
ATOM     62  C   UNL     1       7.675  -1.759   3.029  1.00  0.00     0.029 A 
ATOM     63  N   UNL     1       9.394  -2.801   2.041  1.00  0.00    -0.354 N 
ATOM     64  C   UNL     1       7.724   0.411   6.269  1.00  0.00     0.074 A 
ATOM     65  C   UNL     1       8.939   1.152   6.506  1.00  0.00     0.031 C 
ATOM     66  C   UNL     1       7.177  -2.559   2.094  1.00  0.00     0.029 A 
ATOM     67  C   UNL     1       8.200  -3.483   1.751  1.00  0.00     0.049 A 
ATOM     68  H   UNL     1      10.267  -2.958   1.614  1.00  0.00     0.167 HD
ATOM     69  C   UNL     1       6.398   0.576   6.574  1.00  0.00     0.037 A 
ATOM     70  C   UNL     1       8.026  -4.818   1.971  1.00  0.00     0.037 A 
ATOM     71  C   UNL     1       5.542  -0.513   6.060  1.00  0.00     0.049 A 
ATOM     72  C   UNL     1       6.990  -5.172   3.024  1.00  0.00     0.074 A 
ATOM     73  C   UNL     1       4.339  -0.542   5.376  1.00  0.00     0.029 A 
ATOM     74  N   UNL     1       5.935  -1.852   6.167  1.00  0.00    -0.354 N 
ATOM     75  N   UNL     1       6.490  -4.282   3.847  1.00  0.00    -0.248 NA
ATOM     76  C   UNL     1       6.406  -6.489   3.251  1.00  0.00     0.031 C 
ATOM     77  C   UNL     1       4.043  -1.887   5.023  1.00  0.00     0.029 A 
ATOM     78  C   UNL     1       5.018  -2.699   5.574  1.00  0.00     0.049 A 
ATOM     79  H   UNL     1       6.761  -2.152   6.609  1.00  0.00     0.167 HD
ATOM     80  C   UNL     1       5.625  -4.861   4.731  1.00  0.00     0.074 A 
ATOM     81  C   UNL     1       5.579  -6.242   4.288  1.00  0.00     0.031 C 
ATOM     82  C   UNL     1       5.075  -4.147   5.764  1.00  0.00     0.037 A 
BRANCH  69  83
ATOM     83  C   UNL     1       5.779   1.824   7.230  1.00  0.00     0.064 A 
ATOM     84  C   UNL     1       4.441   1.811   7.705  1.00  0.00     0.173 A 
ATOM     85  C   UNL     1       6.402   3.087   7.332  1.00  0.00     0.173 A 
ATOM     86  F   UNL     1       3.713   0.686   7.704  1.00  0.00    -0.203 F 
ATOM     87  C   UNL     1       3.791   2.952   8.202  1.00  0.00     0.198 A 
ATOM     88  C   UNL     1       5.779   4.206   7.907  1.00  0.00     0.198 A 
ATOM     89  F   UNL     1       7.616   3.320   6.824  1.00  0.00    -0.203 F 
ATOM     90  F   UNL     1       2.501   2.885   8.560  1.00  0.00    -0.200 F 
ATOM     91  C   UNL     1       4.467   4.146   8.323  1.00  0.00     0.200 A 
ATOM     92  F   UNL     1       6.461   5.355   8.027  1.00  0.00    -0.200 F 
ATOM     93  F   UNL     1       3.860   5.231   8.822  1.00  0.00    -0.200 F 
ENDBRANCH  69  83
BRANCH  70  94
ATOM     94  C   UNL     1       9.083  -5.590   1.275  1.00  0.00     0.064 A 
ATOM     95  C   UNL     1       9.015  -5.443  -0.131  1.00  0.00     0.173 A 
ATOM     96  C   UNL     1      10.356  -5.668   1.856  1.00  0.00     0.173 A 
ATOM     97  F   UNL     1       7.821  -5.264  -0.713  1.00  0.00    -0.203 F 
ATOM     98  C   UNL     1      10.145  -5.127  -0.876  1.00  0.00     0.198 A 
ATOM     99  C   UNL     1      11.488  -5.336   1.103  1.00  0.00     0.198 A 
ATOM    100  F   UNL     1      10.483  -5.819   3.182  1.00  0.00    -0.203 F 
ATOM    101  F   UNL     1      10.010  -4.750  -2.156  1.00  0.00    -0.200 F 
ATOM    102  C   UNL     1      11.370  -5.015  -0.245  1.00  0.00     0.200 A 
ATOM    103  F   UNL     1      12.670  -5.173   1.713  1.00  0.00    -0.200 F 
ATOM    104  F   UNL     1      12.415  -4.498  -0.909  1.00  0.00    -0.200 F 
ENDBRANCH  70  94
BRANCH  82 105
ATOM    105  C   UNL     1       4.463  -4.695   7.050  1.00  0.00     0.064 A 
ATOM    106  C   UNL     1       4.603  -6.018   7.495  1.00  0.00     0.173 A 
ATOM    107  C   UNL     1       3.846  -3.821   7.992  1.00  0.00     0.173 A 
ATOM    108  F   UNL     1       5.254  -6.938   6.776  1.00  0.00    -0.203 F 
ATOM    109  C   UNL     1       4.134  -6.442   8.745  1.00  0.00     0.198 A 
ATOM    110  C   UNL     1       3.424  -4.235   9.256  1.00  0.00     0.198 A 
ATOM    111  F   UNL     1       3.664  -2.517   7.747  1.00  0.00    -0.203 F 
ATOM    112  F   UNL     1       4.281  -7.725   9.102  1.00  0.00    -0.200 F 
ATOM    113  C   UNL     1       3.559  -5.551   9.629  1.00  0.00     0.200 A 
ATOM    114  F   UNL     1       2.915  -3.340  10.115  1.00  0.00    -0.200 F 
ATOM    115  F   UNL     1       3.163  -5.953  10.844  1.00  0.00    -0.200 F 
ENDBRANCH  82 105
ENDBRANCH  56  57
ENDBRANCH  49  51
ENDBRANCH  48  49
ENDBRANCH  47  48
ENDBRANCH  46  47
ENDBRANCH  45  46
ENDBRANCH  44  45
ENDBRANCH  43  44
ENDBRANCH   1  43
TORSDOF 24
