REMARK SMILES Cc1cs/c(=N\S(=O)(=O)c2ccc(/C=C/C(=O)OCCOCCOCCOCCOC(=O)c3ccc(-c4c5nc(c(-c6c(F)c(F)c(F)c(F)c6F)c6ccc([nH]6)c(-c6c(F)c(F)c(F)c(F)c6F)c6nc(c(-c7c(F)c(F)c(F)c(F)c7F)c7ccc4[nH]7)C=C6)C=C5)cc3)cc2)[nH]1
REMARK SMILES IDX 23 1 22 2 21 3 20 4 19 5 18 6 16 7 17 8 15 9 14 10 13 11
REMARK SMILES IDX 10 12 11 13 97 14 12 15 96 16 7 17 8 18 9 19 6 20 1 21 2 22
REMARK SMILES IDX 3 23 98 24 4 25 5 26 24 28 25 29 26 30 27 31 28 32 29 33
REMARK SMILES IDX 30 34 31 35 32 36 33 37 34 38 95 39 35 40 94 41 36 42 37 43
REMARK SMILES IDX 38 44 88 45 39 46 93 47 87 48 89 49 40 50 92 51 86 52 85 53
REMARK SMILES IDX 41 55 73 56 53 57 72 58 54 59 57 60 71 61 90 62 55 63 56 64
REMARK SMILES IDX 70 66 91 67 58 68 42 69 43 70 51 71 44 72 45 73 49 74 52 75
REMARK SMILES IDX 46 76 47 77 50 78 48 79 74 80 75 81 83 82 76 83 77 84 81 85
REMARK SMILES IDX 84 86 78 87 79 88 82 89 80 90 59 91 60 92 68 93 61 94 62 95
REMARK SMILES IDX 66 96 69 97 63 98 64 99 67 100 65 101
REMARK H PARENT 98 27 89 54 57 65
REMARK Flexibility Score: inf
ROOT
ATOM      1  C   UNL     1      -9.671  -6.440   2.364  1.00  0.00     0.188 C 
ENDROOT
BRANCH   1   2
ATOM      2  C   UNL     1     -11.031  -6.296   1.652  1.00  0.00     0.188 C 
BRANCH   2   3
ATOM      3  O   UNL     1     -11.678  -7.535   1.423  1.00  0.00    -0.376 OA
BRANCH   3   4
ATOM      4  C   UNL     1     -11.730  -8.063   0.112  1.00  0.00     0.202 C 
BRANCH   4   5
ATOM      5  C   UNL     1     -10.432  -8.277  -0.684  1.00  0.00     0.261 C 
BRANCH   5   6
ATOM      6  O   UNL     1      -9.442  -7.248  -0.579  1.00  0.00    -0.460 OA
BRANCH   6   7
ATOM      7  C   UNL     1      -9.662  -6.127  -1.295  1.00  0.00     0.330 C 
ATOM      8  O   UNL     1     -10.621  -5.914  -2.020  1.00  0.00    -0.247 OA
BRANCH   7   9
ATOM      9  C   UNL     1      -8.651  -5.090  -0.995  1.00  0.00     0.094 C 
ATOM     10  C   UNL     1      -7.472  -5.298  -0.382  1.00  0.00     0.015 C 
BRANCH  10  11
ATOM     11  C   UNL     1      -6.508  -4.212  -0.131  1.00  0.00    -0.025 A 
ATOM     12  C   UNL     1      -4.639  -2.139   0.106  1.00  0.00     0.089 A 
ATOM     13  C   UNL     1      -5.999  -1.869   0.276  1.00  0.00     0.023 A 
ATOM     14  C   UNL     1      -4.194  -3.446  -0.097  1.00  0.00     0.023 A 
ATOM     15  C   UNL     1      -6.926  -2.907   0.170  1.00  0.00     0.009 A 
ATOM     16  C   UNL     1      -5.133  -4.480  -0.207  1.00  0.00     0.009 A 
BRANCH  12  17
ATOM     17  S   UNL     1      -3.516  -0.751   0.096  1.00  0.00     0.285 S 
ATOM     18  O   UNL     1      -3.728  -0.081   1.364  1.00  0.00    -0.199 OA
ATOM     19  O   UNL     1      -3.771  -0.084  -1.166  1.00  0.00    -0.199 OA
BRANCH  17  20
ATOM     20  N   UNL     1      -2.036  -1.398   0.075  1.00  0.00    -0.130 NA
ATOM     21  C   UNL     1       2.735  -0.544   0.000  1.00  0.00     0.065 C 
ATOM     22  C   UNL     1       1.300  -0.144   0.001  1.00  0.00     0.024 A 
ATOM     23  C   UNL     1       0.833   1.116  -0.011  1.00  0.00     0.089 A 
ATOM     24  N   UNL     1       0.298  -1.095   0.021  1.00  0.00    -0.334 N 
ATOM     25  S   UNL     1      -0.917   1.148   0.007  1.00  0.00    -0.104 S 
ATOM     26  C   UNL     1      -0.998  -0.636   0.038  1.00  0.00     0.199 A 
ATOM     27  H   UNL     1       0.503  -2.058   0.024  1.00  0.00     0.169 HD
ENDBRANCH  17  20
ENDBRANCH  12  17
ENDBRANCH  10  11
ENDBRANCH   7   9
ENDBRANCH   6   7
ENDBRANCH   5   6
ENDBRANCH   4   5
ENDBRANCH   3   4
ENDBRANCH   2   3
ENDBRANCH   1   2
BRANCH   1  28
ATOM     28  O   UNL     1      -9.055  -7.720   2.364  1.00  0.00    -0.377 OA
BRANCH  28  29
ATOM     29  C   UNL     1      -9.753  -8.847   2.894  1.00  0.00     0.188 C 
BRANCH  29  30
ATOM     30  C   UNL     1     -11.008  -8.713   3.793  1.00  0.00     0.188 C 
BRANCH  30  31
ATOM     31  O   UNL     1     -11.238  -7.413   4.305  1.00  0.00    -0.376 OA
BRANCH  31  32
ATOM     32  C   UNL     1     -11.011  -7.199   5.686  1.00  0.00     0.202 C 
BRANCH  32  33
ATOM     33  C   UNL     1      -9.564  -7.348   6.173  1.00  0.00     0.261 C 
BRANCH  33  34
ATOM     34  O   UNL     1      -8.915  -8.589   5.849  1.00  0.00    -0.460 OA
BRANCH  34  35
ATOM     35  C   UNL     1      -9.384  -9.707   6.441  1.00  0.00     0.338 C 
ATOM     36  O   UNL     1     -10.309  -9.794   7.234  1.00  0.00    -0.246 OA
BRANCH  35  37
ATOM     37  C   UNL     1      -8.697 -10.860   5.825  1.00  0.00     0.060 A 
ATOM     38  C   UNL     1      -9.451 -11.818   5.133  1.00  0.00     0.016 A 
ATOM     39  C   UNL     1      -7.310 -10.984   5.920  1.00  0.00     0.016 A 
ATOM     40  C   UNL     1      -8.817 -12.921   4.558  1.00  0.00     0.010 A 
ATOM     41  C   UNL     1      -6.680 -12.098   5.361  1.00  0.00     0.010 A 
ATOM     42  C   UNL     1      -7.434 -13.087   4.704  1.00  0.00    -0.014 A 
BRANCH  42  43
ATOM     43  C   UNL     1      -6.797 -14.375   4.333  1.00  0.00     0.031 A 
ATOM     44  C   UNL     1      -6.513 -15.373   5.420  1.00  0.00     0.074 A 
ATOM     45  C   UNL     1      -6.482 -14.659   3.057  1.00  0.00     0.049 A 
ATOM     46  N   UNL     1      -5.909 -16.532   5.354  1.00  0.00    -0.248 NA
ATOM     47  C   UNL     1      -6.969 -15.007   6.771  1.00  0.00     0.031 C 
ATOM     48  C   UNL     1      -6.740 -13.792   1.911  1.00  0.00     0.029 A 
ATOM     49  N   UNL     1      -5.861 -15.759   2.519  1.00  0.00    -0.354 N 
ATOM     50  C   UNL     1      -5.908 -17.029   6.650  1.00  0.00     0.074 A 
ATOM     51  C   UNL     1      -6.535 -16.030   7.489  1.00  0.00     0.031 C 
ATOM     52  C   UNL     1      -6.266 -14.387   0.802  1.00  0.00     0.029 A 
ATOM     53  C   UNL     1      -5.639 -15.657   1.168  1.00  0.00     0.049 A 
ATOM     54  H   UNL     1      -5.600 -16.546   3.050  1.00  0.00     0.167 HD
ATOM     55  C   UNL     1      -5.435 -18.216   7.100  1.00  0.00     0.037 A 
ATOM     56  C   UNL     1      -4.979 -16.482   0.331  1.00  0.00     0.037 A 
ATOM     57  C   UNL     1      -4.801 -19.201   6.264  1.00  0.00     0.049 A 
ATOM     58  C   UNL     1      -4.385 -17.761   0.868  1.00  0.00     0.074 A 
ATOM     59  C   UNL     1      -4.301 -20.442   6.618  1.00  0.00     0.029 A 
ATOM     60  N   UNL     1      -4.564 -19.049   4.904  1.00  0.00    -0.354 N 
ATOM     61  N   UNL     1      -4.411 -18.240   2.088  1.00  0.00    -0.248 NA
ATOM     62  C   UNL     1      -3.672 -18.615  -0.093  1.00  0.00     0.031 C 
ATOM     63  C   UNL     1      -3.703 -21.011   5.488  1.00  0.00     0.029 A 
ATOM     64  C   UNL     1      -3.895 -20.159   4.412  1.00  0.00     0.049 A 
ATOM     65  H   UNL     1      -4.833 -18.268   4.369  1.00  0.00     0.167 HD
ATOM     66  C   UNL     1      -3.747 -19.460   2.037  1.00  0.00     0.074 A 
ATOM     67  C   UNL     1      -3.342 -19.654   0.660  1.00  0.00     0.031 C 
ATOM     68  C   UNL     1      -3.497 -20.341   3.038  1.00  0.00     0.037 A 
BRANCH  55  69
ATOM     69  C   UNL     1      -5.555 -18.493   8.572  1.00  0.00     0.064 A 
ATOM     70  C   UNL     1      -6.799 -18.699   9.189  1.00  0.00     0.173 A 
ATOM     71  C   UNL     1      -4.407 -18.563   9.376  1.00  0.00     0.173 A 
ATOM     72  F   UNL     1      -7.930 -18.629   8.470  1.00  0.00    -0.203 F 
ATOM     73  C   UNL     1      -6.891 -18.924  10.561  1.00  0.00     0.198 A 
ATOM     74  C   UNL     1      -4.500 -18.826  10.740  1.00  0.00     0.198 A 
ATOM     75  F   UNL     1      -3.192 -18.379   8.839  1.00  0.00    -0.203 F 
ATOM     76  F   UNL     1      -8.094 -19.054  11.138  1.00  0.00    -0.200 F 
ATOM     77  C   UNL     1      -5.742 -18.994  11.334  1.00  0.00     0.200 A 
ATOM     78  F   UNL     1      -3.387 -18.908  11.482  1.00  0.00    -0.200 F 
ATOM     79  F   UNL     1      -5.832 -19.214  12.652  1.00  0.00    -0.200 F 
ENDBRANCH  55  69
BRANCH  56  80
ATOM     80  C   UNL     1      -4.829 -16.116  -1.103  1.00  0.00     0.064 A 
ATOM     81  C   UNL     1      -5.464 -16.855  -2.111  1.00  0.00     0.173 A 
ATOM     82  C   UNL     1      -4.039 -15.025  -1.495  1.00  0.00     0.173 A 
ATOM     83  F   UNL     1      -6.207 -17.924  -1.790  1.00  0.00    -0.203 F 
ATOM     84  C   UNL     1      -5.303 -16.525  -3.456  1.00  0.00     0.198 A 
ATOM     85  C   UNL     1      -3.905 -14.677  -2.837  1.00  0.00     0.198 A 
ATOM     86  F   UNL     1      -3.406 -14.287  -0.571  1.00  0.00    -0.203 F 
ATOM     87  F   UNL     1      -5.883 -17.276  -4.401  1.00  0.00    -0.200 F 
ATOM     88  C   UNL     1      -4.530 -15.431  -3.817  1.00  0.00     0.200 A 
ATOM     89  F   UNL     1      -3.168 -13.611  -3.180  1.00  0.00    -0.200 F 
ATOM     90  F   UNL     1      -4.382 -15.110  -5.109  1.00  0.00    -0.200 F 
ENDBRANCH  56  80
BRANCH  68  91
ATOM     91  C   UNL     1      -2.782 -21.615   2.681  1.00  0.00     0.064 A 
ATOM     92  C   UNL     1      -1.429 -21.627   2.309  1.00  0.00     0.173 A 
ATOM     93  C   UNL     1      -3.451 -22.847   2.753  1.00  0.00     0.173 A 
ATOM     94  F   UNL     1      -0.745 -20.477   2.212  1.00  0.00    -0.203 F 
ATOM     95  C   UNL     1      -0.783 -22.820   1.994  1.00  0.00     0.198 A 
ATOM     96  C   UNL     1      -2.792 -24.041   2.473  1.00  0.00     0.198 A 
ATOM     97  F   UNL     1      -4.743 -22.896   3.112  1.00  0.00    -0.203 F 
ATOM     98  F   UNL     1       0.495 -22.801   1.588  1.00  0.00    -0.200 F 
ATOM     99  C   UNL     1      -1.462 -24.026   2.084  1.00  0.00     0.200 A 
ATOM    100  F   UNL     1      -3.445 -25.207   2.579  1.00  0.00    -0.200 F 
ATOM    101  F   UNL     1      -0.835 -25.174   1.790  1.00  0.00    -0.200 F 
ENDBRANCH  68  91
ENDBRANCH  42  43
ENDBRANCH  35  37
ENDBRANCH  34  35
ENDBRANCH  33  34
ENDBRANCH  32  33
ENDBRANCH  31  32
ENDBRANCH  30  31
ENDBRANCH  29  30
ENDBRANCH  28  29
ENDBRANCH   1  28
TORSDOF 23
