REMARK SMILES O=C(OCCOCCOCCOCCOC(=O)c1ccc([C@@H]2CC(O)=Nc3c2ncn3-c2cccc(Cl)c2)cc1)c1ccc(-c2c3nc(c(-c4c(F)c(F)c(F)c(F)c4F)c4ccc([nH]4)c(-c4c(F)c(F)c(F)c(F)c4F)c4nc(c(-c5c(F)c(F)c(F)c(F)c5F)c5ccc2[nH]5)C=C4)C=C3)cc1
REMARK SMILES IDX 9 1 8 2 7 3 6 4 5 5 4 6 3 7 2 8 1 9 41 10 42 11 103 12 43 13
REMARK SMILES IDX 102 14 44 15 45 16 46 17 96 18 47 19 101 20 95 21 97 22
REMARK SMILES IDX 48 23 100 24 94 25 93 26 49 28 81 29 61 30 80 31 62 32 65 33
REMARK SMILES IDX 79 34 98 35 63 36 64 37 78 39 99 40 66 41 50 42 51 43 59 44
REMARK SMILES IDX 52 45 53 46 57 47 60 48 54 49 55 50 58 51 56 52 82 53 83 54
REMARK SMILES IDX 91 55 84 56 85 57 89 58 92 59 86 60 87 61 90 62 88 63 67 64
REMARK SMILES IDX 68 65 76 66 69 67 70 68 74 69 77 70 71 71 72 72 75 73 73 74
REMARK SMILES IDX 10 75 11 76 12 77 13 78 14 79 15 80 16 81 17 82 18 83 19 84
REMARK SMILES IDX 40 85 20 86 39 87 21 88 22 89 23 90 28 91 24 92 27 93 29 94
REMARK SMILES IDX 26 95 31 96 30 97 25 98 32 100 33 101 38 102 34 103 36 104
REMARK SMILES IDX 35 105 37 106
REMARK H PARENT 97 27 65 38 25 99
REMARK Flexibility Score: inf
ROOT
ATOM      1  O   UNL     1       2.646  -3.205  -1.095  1.00  0.00    -0.377 OA
ENDROOT
BRANCH   1   2
ATOM      2  C   UNL     1       2.135  -1.905  -0.873  1.00  0.00     0.188 C 
BRANCH   2   3
ATOM      3  C   UNL     1       2.872  -0.688  -1.478  1.00  0.00     0.188 C 
BRANCH   3   4
ATOM      4  O   UNL     1       4.177  -0.201  -1.183  1.00  0.00    -0.376 OA
BRANCH   4   5
ATOM      5  C   UNL     1       4.982  -0.344  -0.033  1.00  0.00     0.202 C 
BRANCH   5   6
ATOM      6  C   UNL     1       4.489  -0.054   1.382  1.00  0.00     0.261 C 
BRANCH   6   7
ATOM      7  O   UNL     1       3.124  -0.359   1.610  1.00  0.00    -0.460 OA
BRANCH   7   8
ATOM      8  C   UNL     1       2.051   0.413   1.357  1.00  0.00     0.338 C 
ATOM      9  O   UNL     1       0.944  -0.018   1.678  1.00  0.00    -0.246 OA
BRANCH   8  10
ATOM     10  C   UNL     1       2.097   1.735   0.672  1.00  0.00     0.060 A 
ATOM     11  C   UNL     1       3.225   2.518   0.417  1.00  0.00     0.016 A 
ATOM     12  C   UNL     1       0.832   2.237   0.307  1.00  0.00     0.016 A 
ATOM     13  C   UNL     1       3.079   3.848   0.084  1.00  0.00     0.010 A 
ATOM     14  C   UNL     1       0.678   3.553  -0.067  1.00  0.00     0.010 A 
ATOM     15  C   UNL     1       1.797   4.366  -0.055  1.00  0.00    -0.014 A 
BRANCH  15  16
ATOM     16  C   UNL     1       1.669   5.796  -0.205  1.00  0.00     0.031 A 
ATOM     17  C   UNL     1       2.195   6.304  -1.490  1.00  0.00     0.074 A 
ATOM     18  C   UNL     1       1.096   6.535   0.764  1.00  0.00     0.049 A 
ATOM     19  N   UNL     1       3.236   7.045  -1.670  1.00  0.00    -0.248 NA
ATOM     20  C   UNL     1       1.606   5.780  -2.731  1.00  0.00     0.031 C 
ATOM     21  C   UNL     1       0.374   6.071   1.953  1.00  0.00     0.029 A 
ATOM     22  N   UNL     1       0.970   7.885   0.841  1.00  0.00    -0.354 N 
ATOM     23  C   UNL     1       3.311   7.258  -3.042  1.00  0.00     0.074 A 
ATOM     24  C   UNL     1       2.407   6.319  -3.651  1.00  0.00     0.031 C 
ATOM     25  C   UNL     1      -0.312   7.104   2.491  1.00  0.00     0.029 A 
ATOM     26  C   UNL     1       0.034   8.317   1.776  1.00  0.00     0.049 A 
ATOM     27  H   UNL     1       1.495   8.504   0.283  1.00  0.00     0.167 HD
ATOM     28  C   UNL     1       3.910   8.376  -3.533  1.00  0.00     0.037 A 
ATOM     29  C   UNL     1      -0.463   9.577   1.863  1.00  0.00     0.037 A 
ATOM     30  C   UNL     1       4.780   8.971  -2.551  1.00  0.00     0.049 A 
ATOM     31  C   UNL     1       0.498  10.475   1.166  1.00  0.00     0.074 A 
ATOM     32  C   UNL     1       5.919   8.555  -1.889  1.00  0.00     0.029 A 
ATOM     33  N   UNL     1       4.296  10.037  -1.835  1.00  0.00    -0.354 N 
ATOM     34  N   UNL     1       1.699  10.723   1.613  1.00  0.00    -0.248 NA
ATOM     35  C   UNL     1       0.308  10.681  -0.264  1.00  0.00     0.031 C 
ATOM     36  C   UNL     1       5.790   9.076  -0.568  1.00  0.00     0.029 A 
ATOM     37  C   UNL     1       4.625   9.843  -0.519  1.00  0.00     0.049 A 
ATOM     38  H   UNL     1       3.801  10.805  -2.201  1.00  0.00     0.167 HD
ATOM     39  C   UNL     1       2.509  10.685   0.486  1.00  0.00     0.074 A 
ATOM     40  C   UNL     1       1.587  10.718  -0.649  1.00  0.00     0.031 C 
ATOM     41  C   UNL     1       3.823  10.326   0.579  1.00  0.00     0.037 A 
BRANCH  28  42
ATOM     42  C   UNL     1       3.390   9.152  -4.718  1.00  0.00     0.064 A 
ATOM     43  C   UNL     1       4.142  10.240  -5.201  1.00  0.00     0.173 A 
ATOM     44  C   UNL     1       2.057   9.079  -5.181  1.00  0.00     0.173 A 
ATOM     45  F   UNL     1       5.414  10.417  -4.812  1.00  0.00    -0.203 F 
ATOM     46  C   UNL     1       3.574  11.227  -6.010  1.00  0.00     0.198 A 
ATOM     47  C   UNL     1       1.510  10.037  -6.030  1.00  0.00     0.198 A 
ATOM     48  F   UNL     1       1.195   8.155  -4.743  1.00  0.00    -0.203 F 
ATOM     49  F   UNL     1       4.287  12.314  -6.332  1.00  0.00    -0.200 F 
ATOM     50  C   UNL     1       2.256  11.129  -6.416  1.00  0.00     0.200 A 
ATOM     51  F   UNL     1       0.224   9.933  -6.394  1.00  0.00    -0.200 F 
ATOM     52  F   UNL     1       1.688  12.107  -7.134  1.00  0.00    -0.200 F 
ENDBRANCH  28  42
BRANCH  29  53
ATOM     53  C   UNL     1      -1.859   9.983   2.159  1.00  0.00     0.064 A 
ATOM     54  C   UNL     1      -2.176  11.317   2.465  1.00  0.00     0.173 A 
ATOM     55  C   UNL     1      -2.947   9.134   1.870  1.00  0.00     0.173 A 
ATOM     56  F   UNL     1      -1.198  12.203   2.704  1.00  0.00    -0.203 F 
ATOM     57  C   UNL     1      -3.497  11.778   2.459  1.00  0.00     0.198 A 
ATOM     58  C   UNL     1      -4.265   9.594   1.870  1.00  0.00     0.198 A 
ATOM     59  F   UNL     1      -2.749   7.865   1.486  1.00  0.00    -0.203 F 
ATOM     60  F   UNL     1      -3.755  13.072   2.695  1.00  0.00    -0.200 F 
ATOM     61  C   UNL     1      -4.539  10.919   2.151  1.00  0.00     0.200 A 
ATOM     62  F   UNL     1      -5.259   8.761   1.532  1.00  0.00    -0.200 F 
ATOM     63  F   UNL     1      -5.798  11.374   2.082  1.00  0.00    -0.200 F 
ENDBRANCH  29  53
BRANCH  41  64
ATOM     64  C   UNL     1       4.425  10.224   1.952  1.00  0.00     0.064 A 
ATOM     65  C   UNL     1       4.018   9.294   2.926  1.00  0.00     0.173 A 
ATOM     66  C   UNL     1       5.557  10.999   2.234  1.00  0.00     0.173 A 
ATOM     67  F   UNL     1       3.009   8.445   2.690  1.00  0.00    -0.203 F 
ATOM     68  C   UNL     1       4.691   9.182   4.142  1.00  0.00     0.198 A 
ATOM     69  C   UNL     1       6.249  10.858   3.432  1.00  0.00     0.198 A 
ATOM     70  F   UNL     1       6.025  11.860   1.317  1.00  0.00    -0.203 F 
ATOM     71  F   UNL     1       4.280   8.293   5.060  1.00  0.00    -0.200 F 
ATOM     72  C   UNL     1       5.810   9.959   4.390  1.00  0.00     0.200 A 
ATOM     73  F   UNL     1       7.362  11.573   3.644  1.00  0.00    -0.200 F 
ATOM     74  F   UNL     1       6.485   9.820   5.540  1.00  0.00    -0.200 F 
ENDBRANCH  41  64
ENDBRANCH  15  16
ENDBRANCH   8  10
ENDBRANCH   7   8
ENDBRANCH   6   7
ENDBRANCH   5   6
ENDBRANCH   4   5
ENDBRANCH   3   4
ENDBRANCH   2   3
ENDBRANCH   1   2
BRANCH   1  75
ATOM     75  C   UNL     1       3.981  -3.374  -0.678  1.00  0.00     0.188 C 
BRANCH  75  76
ATOM     76  C   UNL     1       4.966  -3.248  -1.852  1.00  0.00     0.188 C 
BRANCH  76  77
ATOM     77  O   UNL     1       4.495  -2.795  -3.106  1.00  0.00    -0.376 OA
BRANCH  77  78
ATOM     78  C   UNL     1       3.403  -3.430  -3.755  1.00  0.00     0.202 C 
BRANCH  78  79
ATOM     79  C   UNL     1       2.959  -4.899  -3.558  1.00  0.00     0.261 C 
BRANCH  79  80
ATOM     80  O   UNL     1       3.388  -5.599  -2.389  1.00  0.00    -0.460 OA
BRANCH  80  81
ATOM     81  C   UNL     1       4.517  -6.333  -2.526  1.00  0.00     0.338 C 
ATOM     82  O   UNL     1       5.194  -6.469  -3.522  1.00  0.00    -0.246 OA
BRANCH  81  83
ATOM     83  C   UNL     1       4.938  -6.784  -1.183  1.00  0.00     0.060 A 
ATOM     84  C   UNL     1       6.152  -6.304  -0.678  1.00  0.00     0.016 A 
ATOM     85  C   UNL     1       4.166  -7.676  -0.441  1.00  0.00     0.016 A 
ATOM     86  C   UNL     1       6.610  -6.732   0.559  1.00  0.00     0.005 A 
ATOM     87  C   UNL     1       4.666  -8.165   0.769  1.00  0.00     0.005 A 
ATOM     88  C   UNL     1       5.910  -7.722   1.263  1.00  0.00    -0.038 A 
BRANCH  88  89
ATOM     89  C   UNL     1       6.669  -8.427   2.372  1.00  0.00     0.081 C 
ATOM     90  C   UNL     1       7.256  -9.743   1.812  1.00  0.00     0.111 C 
ATOM     91  C   UNL     1       5.762  -8.671   3.510  1.00  0.00     0.093 A 
ATOM     92  C   UNL     1       6.555 -11.001   2.288  1.00  0.00     0.188 C 
ATOM     93  C   UNL     1       5.450  -9.951   3.906  1.00  0.00     0.164 A 
ATOM     94  N   UNL     1       5.138  -7.731   4.282  1.00  0.00    -0.238 NA
ATOM     95  N   UNL     1       5.764 -11.124   3.305  1.00  0.00    -0.198 NA
ATOM     96  N   UNL     1       4.611  -9.797   4.990  1.00  0.00    -0.283 N 
ATOM     97  C   UNL     1       4.416  -8.437   5.130  1.00  0.00     0.206 A 
BRANCH  92  98
ATOM     98  O   UNL     1       6.856 -12.104   1.576  1.00  0.00    -0.496 OA
ATOM     99  H   UNL     1       7.427 -12.042   0.835  1.00  0.00     0.294 HD
ENDBRANCH  92  98
BRANCH  96 100
ATOM    100  C   UNL     1       4.076 -10.820   5.801  1.00  0.00     0.050 A 
ATOM    101  C   UNL     1       2.754 -10.745   6.251  1.00  0.00     0.027 A 
ATOM    102  C   UNL     1       4.886 -11.912   6.144  1.00  0.00     0.047 A 
ATOM    103  C   UNL     1       2.232 -11.790   7.014  1.00  0.00     0.004 A 
ATOM    104  C   UNL     1       4.368 -12.921   6.950  1.00  0.00     0.043 A 
ATOM    105  C   UNL     1       3.041 -12.872   7.373  1.00  0.00     0.020 A 
ATOM    106  Cl  UNL     1       5.379 -14.224   7.440  1.00  0.00    -0.084 Cl
ENDBRANCH  96 100
ENDBRANCH  88  89
ENDBRANCH  81  83
ENDBRANCH  80  81
ENDBRANCH  79  80
ENDBRANCH  78  79
ENDBRANCH  77  78
ENDBRANCH  76  77
ENDBRANCH  75  76
ENDBRANCH   1  75
TORSDOF 23
