REMARK SMILES CCC[C@]1(C(=O)OCCOCCOCCOCCOC(=O)c2ccc(-c3c4nc(c(-c5c(F)c(F)c(F)c(F)c5F)c5ccc([nH]5)c(-c5c(F)c(F)c(F)c(F)c5F)c5nc(c(-c6c(F)c(F)c(F)c(F)c6F)c6ccc3[nH]6)C=C5)C=C4)cc2)CCCN(C(=O)c2ccc(NS(=O)(=O)CC)cc2)C1
REMARK SMILES IDX 11 1 10 2 9 3 8 4 7 5 5 6 6 7 4 8 85 9 103 10 86 11 88 12
REMARK SMILES IDX 87 13 3 14 2 15 1 16 89 17 90 18 91 19 92 20 102 21 93 22
REMARK SMILES IDX 101 23 94 24 95 25 96 27 97 28 98 29 99 30 100 31 12 32
REMARK SMILES IDX 13 33 14 34 15 35 16 36 17 37 18 38 19 39 20 40 21 41 22 42
REMARK SMILES IDX 23 43 84 44 24 45 83 46 25 47 26 48 27 49 77 50 28 51 82 52
REMARK SMILES IDX 76 53 78 54 29 55 81 56 75 57 74 58 30 60 62 61 42 62 61 63
REMARK SMILES IDX 43 64 46 65 60 66 79 67 44 68 45 69 59 71 80 72 47 73 31 74
REMARK SMILES IDX 32 75 40 76 33 77 34 78 38 79 41 80 35 81 36 82 39 83 37 84
REMARK SMILES IDX 63 85 64 86 72 87 65 88 66 89 70 90 73 91 67 92 68 93 71 94
REMARK SMILES IDX 69 95 48 96 49 97 57 98 50 99 51 100 55 101 58 102 52 103
REMARK SMILES IDX 53 104 56 105 54 106
REMARK H PARENT 95 26 78 59 46 70
REMARK Flexibility Score: inf
ROOT
ATOM      1  C   UNL     1      -0.289   4.227  -4.176  1.00  0.00     0.188 C 
ENDROOT
BRANCH   1   2
ATOM      2  O   UNL     1      -0.060   4.477  -5.546  1.00  0.00    -0.376 OA
BRANCH   2   3
ATOM      3  C   UNL     1       0.223   3.457  -6.489  1.00  0.00     0.202 C 
BRANCH   3   4
ATOM      4  C   UNL     1       0.846   2.079  -6.200  1.00  0.00     0.261 C 
BRANCH   4   5
ATOM      5  O   UNL     1       0.439   1.386  -5.017  1.00  0.00    -0.463 OA
BRANCH   5   6
ATOM      6  C   UNL     1       1.312   1.486  -3.994  1.00  0.00     0.313 C 
ATOM      7  O   UNL     1       2.363   2.120  -4.070  1.00  0.00    -0.252 OA
BRANCH   6   8
ATOM      8  C   UNL     1       0.932   0.690  -2.732  1.00  0.00     0.086 C 
ATOM      9  C   UNL     1      -0.514   0.134  -2.622  1.00  0.00     0.022 C 
ATOM     10  C   UNL     1       1.851  -0.525  -2.954  1.00  0.00     0.138 C 
ATOM     11  C   UNL     1      -0.678  -1.015  -1.612  1.00  0.00     0.023 C 
ATOM     12  N   UNL     1       1.736  -1.494  -1.890  1.00  0.00    -0.338 N 
ATOM     13  C   UNL     1       0.410  -2.077  -1.704  1.00  0.00     0.120 C 
BRANCH   8  14
ATOM     14  C   UNL     1       1.364   1.651  -1.559  1.00  0.00     0.020 C 
BRANCH  14  15
ATOM     15  C   UNL     1       0.595   1.761  -0.237  1.00  0.00    -0.002 C 
ATOM     16  C   UNL     1       1.156   0.882   0.859  1.00  0.00     0.004 C 
ENDBRANCH  14  15
ENDBRANCH   8  14
BRANCH  12  17
ATOM     17  C   UNL     1       2.897  -1.788  -1.200  1.00  0.00     0.253 C 
ATOM     18  O   UNL     1       4.008  -1.353  -1.494  1.00  0.00    -0.269 OA
BRANCH  17  19
ATOM     19  C   UNL     1       2.808  -2.539   0.047  1.00  0.00     0.040 A 
ATOM     20  C   UNL     1       3.097  -1.821   1.201  1.00  0.00     0.016 A 
ATOM     21  C   UNL     1       2.556  -3.904   0.097  1.00  0.00     0.016 A 
ATOM     22  C   UNL     1       3.099  -2.457   2.429  1.00  0.00     0.027 A 
ATOM     23  C   UNL     1       2.655  -4.554   1.331  1.00  0.00     0.027 A 
ATOM     24  C   UNL     1       2.957  -3.838   2.502  1.00  0.00     0.049 A 
BRANCH  24  25
ATOM     25  N   UNL     1       3.468  -4.582   3.606  1.00  0.00    -0.284 N 
ATOM     26  H   UNL     1       3.844  -5.472   3.412  1.00  0.00     0.180 HD
BRANCH  25  27
ATOM     27  S   UNL     1       3.486  -4.080   5.191  1.00  0.00     0.232 S 
ATOM     28  O   UNL     1       2.143  -3.670   5.538  1.00  0.00    -0.207 OA
ATOM     29  O   UNL     1       4.124  -5.168   5.905  1.00  0.00    -0.207 OA
BRANCH  27  30
ATOM     30  C   UNL     1       4.567  -2.648   5.325  1.00  0.00     0.156 C 
ATOM     31  C   UNL     1       5.774  -2.624   4.410  1.00  0.00     0.023 C 
ENDBRANCH  27  30
ENDBRANCH  25  27
ENDBRANCH  24  25
ENDBRANCH  17  19
ENDBRANCH  12  17
ENDBRANCH   6   8
ENDBRANCH   5   6
ENDBRANCH   4   5
ENDBRANCH   3   4
ENDBRANCH   2   3
ENDBRANCH   1   2
BRANCH   1  32
ATOM     32  C   UNL     1      -1.419   3.289  -3.739  1.00  0.00     0.188 C 
BRANCH  32  33
ATOM     33  O   UNL     1      -1.889   2.394  -4.726  1.00  0.00    -0.377 OA
BRANCH  33  34
ATOM     34  C   UNL     1      -2.908   2.841  -5.610  1.00  0.00     0.188 C 
BRANCH  34  35
ATOM     35  C   UNL     1      -3.177   4.350  -5.780  1.00  0.00     0.188 C 
BRANCH  35  36
ATOM     36  O   UNL     1      -3.179   5.086  -4.568  1.00  0.00    -0.376 OA
BRANCH  36  37
ATOM     37  C   UNL     1      -4.411   5.341  -3.912  1.00  0.00     0.202 C 
BRANCH  37  38
ATOM     38  C   UNL     1      -5.224   4.141  -3.401  1.00  0.00     0.261 C 
BRANCH  38  39
ATOM     39  O   UNL     1      -5.638   3.175  -4.379  1.00  0.00    -0.460 OA
BRANCH  39  40
ATOM     40  C   UNL     1      -6.334   3.595  -5.454  1.00  0.00     0.338 C 
ATOM     41  O   UNL     1      -6.728   4.723  -5.693  1.00  0.00    -0.246 OA
BRANCH  40  42
ATOM     42  C   UNL     1      -6.381   2.466  -6.404  1.00  0.00     0.060 A 
ATOM     43  C   UNL     1      -5.816   2.610  -7.680  1.00  0.00     0.016 A 
ATOM     44  C   UNL     1      -6.971   1.262  -6.020  1.00  0.00     0.016 A 
ATOM     45  C   UNL     1      -5.872   1.554  -8.592  1.00  0.00     0.010 A 
ATOM     46  C   UNL     1      -7.050   0.217  -6.939  1.00  0.00     0.010 A 
ATOM     47  C   UNL     1      -6.534   0.372  -8.239  1.00  0.00    -0.014 A 
BRANCH  47  48
ATOM     48  C   UNL     1      -6.929  -0.614  -9.272  1.00  0.00     0.031 A 
ATOM     49  C   UNL     1      -8.326  -0.518  -9.818  1.00  0.00     0.074 A 
ATOM     50  C   UNL     1      -6.105  -1.597  -9.671  1.00  0.00     0.049 A 
ATOM     51  N   UNL     1      -8.994  -1.364 -10.557  1.00  0.00    -0.248 NA
ATOM     52  C   UNL     1      -9.077   0.698  -9.462  1.00  0.00     0.031 C 
ATOM     53  C   UNL     1      -4.713  -1.754  -9.262  1.00  0.00     0.029 A 
ATOM     54  N   UNL     1      -6.343  -2.672 -10.492  1.00  0.00    -0.354 N 
ATOM     55  C   UNL     1     -10.249  -0.796 -10.731  1.00  0.00     0.074 A 
ATOM     56  C   UNL     1     -10.258   0.456 -10.008  1.00  0.00     0.031 C 
ATOM     57  C   UNL     1      -4.226  -2.883  -9.809  1.00  0.00     0.029 A 
ATOM     58  C   UNL     1      -5.290  -3.550 -10.561  1.00  0.00     0.049 A 
ATOM     59  H   UNL     1      -7.187  -2.800 -10.983  1.00  0.00     0.167 HD
ATOM     60  C   UNL     1     -11.301  -1.281 -11.430  1.00  0.00     0.037 A 
ATOM     61  C   UNL     1      -5.216  -4.770 -11.129  1.00  0.00     0.037 A 
ATOM     62  C   UNL     1     -11.281  -2.530 -12.140  1.00  0.00     0.049 A 
ATOM     63  C   UNL     1      -6.429  -5.333 -11.830  1.00  0.00     0.074 A 
ATOM     64  C   UNL     1     -12.289  -3.114 -12.886  1.00  0.00     0.029 A 
ATOM     65  N   UNL     1     -10.196  -3.393 -12.183  1.00  0.00    -0.354 N 
ATOM     66  N   UNL     1      -7.615  -4.796 -11.996  1.00  0.00    -0.248 NA
ATOM     67  C   UNL     1      -6.297  -6.674 -12.420  1.00  0.00     0.031 C 
ATOM     68  C   UNL     1     -11.835  -4.358 -13.329  1.00  0.00     0.029 A 
ATOM     69  C   UNL     1     -10.519  -4.516 -12.925  1.00  0.00     0.049 A 
ATOM     70  H   UNL     1      -9.327  -3.231 -11.751  1.00  0.00     0.167 HD
ATOM     71  C   UNL     1      -8.349  -5.708 -12.747  1.00  0.00     0.074 A 
ATOM     72  C   UNL     1      -7.479  -6.837 -12.998  1.00  0.00     0.031 C 
ATOM     73  C   UNL     1      -9.625  -5.614 -13.195  1.00  0.00     0.037 A 
BRANCH  60  74
ATOM     74  C   UNL     1     -12.570  -0.480 -11.421  1.00  0.00     0.064 A 
ATOM     75  C   UNL     1     -12.672   0.755 -12.078  1.00  0.00     0.173 A 
ATOM     76  C   UNL     1     -13.709  -0.970 -10.763  1.00  0.00     0.173 A 
ATOM     77  F   UNL     1     -11.607   1.276 -12.706  1.00  0.00    -0.203 F 
ATOM     78  C   UNL     1     -13.859   1.483 -12.052  1.00  0.00     0.198 A 
ATOM     79  C   UNL     1     -14.903  -0.256 -10.769  1.00  0.00     0.198 A 
ATOM     80  F   UNL     1     -13.665  -2.146 -10.118  1.00  0.00    -0.203 F 
ATOM     81  F   UNL     1     -13.917   2.686 -12.640  1.00  0.00    -0.200 F 
ATOM     82  C   UNL     1     -14.975   0.974 -11.406  1.00  0.00     0.200 A 
ATOM     83  F   UNL     1     -15.984  -0.757 -10.155  1.00  0.00    -0.200 F 
ATOM     84  F   UNL     1     -16.119   1.672 -11.390  1.00  0.00    -0.200 F 
ENDBRANCH  60  74
BRANCH  61  85
ATOM     85  C   UNL     1      -3.959  -5.562 -11.038  1.00  0.00     0.064 A 
ATOM     86  C   UNL     1      -3.202  -5.848 -12.184  1.00  0.00     0.173 A 
ATOM     87  C   UNL     1      -3.501  -6.071  -9.814  1.00  0.00     0.173 A 
ATOM     88  F   UNL     1      -3.611  -5.407 -13.382  1.00  0.00    -0.203 F 
ATOM     89  C   UNL     1      -2.050  -6.629 -12.111  1.00  0.00     0.198 A 
ATOM     90  C   UNL     1      -2.332  -6.825  -9.737  1.00  0.00     0.198 A 
ATOM     91  F   UNL     1      -4.188  -5.831  -8.687  1.00  0.00    -0.203 F 
ATOM     92  F   UNL     1      -1.377  -6.930 -13.229  1.00  0.00    -0.200 F 
ATOM     93  C   UNL     1      -1.613  -7.112 -10.887  1.00  0.00     0.200 A 
ATOM     94  F   UNL     1      -1.906  -7.278  -8.550  1.00  0.00    -0.200 F 
ATOM     95  F   UNL     1      -0.504  -7.861 -10.817  1.00  0.00    -0.200 F 
ENDBRANCH  61  85
BRANCH  73  96
ATOM     96  C   UNL     1     -10.147  -6.713 -14.075  1.00  0.00     0.064 A 
ATOM     97  C   UNL     1     -10.477  -7.979 -13.572  1.00  0.00     0.173 A 
ATOM     98  C   UNL     1     -10.411  -6.454 -15.431  1.00  0.00     0.173 A 
ATOM     99  F   UNL     1     -10.234  -8.280 -12.288  1.00  0.00    -0.203 F 
ATOM    100  C   UNL     1     -11.045  -8.948 -14.396  1.00  0.00     0.198 A 
ATOM    101  C   UNL     1     -11.008  -7.414 -16.242  1.00  0.00     0.198 A 
ATOM    102  F   UNL     1     -10.121  -5.255 -15.959  1.00  0.00    -0.203 F 
ATOM    103  F   UNL     1     -11.326 -10.162 -13.903  1.00  0.00    -0.200 F 
ATOM    104  C   UNL     1     -11.321  -8.661 -15.725  1.00  0.00     0.200 A 
ATOM    105  F   UNL     1     -11.292  -7.126 -17.520  1.00  0.00    -0.200 F 
ATOM    106  F   UNL     1     -11.891  -9.587 -16.509  1.00  0.00    -0.200 F 
ENDBRANCH  73  96
ENDBRANCH  47  48
ENDBRANCH  40  42
ENDBRANCH  39  40
ENDBRANCH  38  39
ENDBRANCH  37  38
ENDBRANCH  36  37
ENDBRANCH  35  36
ENDBRANCH  34  35
ENDBRANCH  33  34
ENDBRANCH  32  33
ENDBRANCH   1  32
TORSDOF 27
