REMARK SMILES C[C@H](NC(=O)OC(C)(C)C)C(=O)N[C@@H](C)C(=O)N1CCC[C@H]1C(=O)OCCOCCOCCOCCOC(=O)c1ccc(-c2c3nc(c(-c4c(F)c(F)c(F)c(F)c4F)c4ccc([nH]4)c(-c4c(F)c(F)c(F)c(F)c4F)c4nc(c(-c5c(F)c(F)c(F)c(F)c5F)c5ccc2[nH]5)C=C4)C=C3)cc1
REMARK SMILES IDX 29 1 28 2 27 3 26 4 25 5 23 6 24 7 22 8 18 9 19 10 20 11
REMARK SMILES IDX 21 12 16 13 17 14 14 15 15 16 13 17 11 18 12 19 2 21 1 22
REMARK SMILES IDX 3 23 4 24 5 26 6 27 7 28 8 29 9 30 10 31 30 32 31 33 32 34
REMARK SMILES IDX 33 35 34 36 35 37 36 38 37 39 38 40 39 41 40 42 41 43 102 44
REMARK SMILES IDX 42 45 101 46 43 47 44 48 45 49 95 50 46 51 100 52 94 53
REMARK SMILES IDX 96 54 47 55 99 56 93 57 92 58 48 60 80 61 60 62 79 63 61 64
REMARK SMILES IDX 64 65 78 66 97 67 62 68 63 69 77 71 98 72 65 73 49 74 50 75
REMARK SMILES IDX 58 76 51 77 52 78 56 79 59 80 53 81 54 82 57 83 55 84 81 85
REMARK SMILES IDX 82 86 90 87 83 88 84 89 88 90 91 91 85 92 86 93 89 94 87 95
REMARK SMILES IDX 66 96 67 97 75 98 68 99 69 100 73 101 76 102 70 103 71 104
REMARK SMILES IDX 74 105 72 106
REMARK H PARENT 13 20 3 25 96 59 64 70
REMARK Flexibility Score: inf
ROOT
ATOM      1  C   UNL     1      -2.117  -7.604  -3.201  1.00  0.00     0.188 C 
ENDROOT
BRANCH   1   2
ATOM      2  O   UNL     1      -1.931  -7.683  -4.601  1.00  0.00    -0.376 OA
BRANCH   2   3
ATOM      3  C   UNL     1      -2.858  -7.080  -5.479  1.00  0.00     0.202 C 
BRANCH   3   4
ATOM      4  C   UNL     1      -2.914  -5.544  -5.503  1.00  0.00     0.261 C 
BRANCH   4   5
ATOM      5  O   UNL     1      -2.965  -4.901  -4.224  1.00  0.00    -0.462 OA
BRANCH   5   6
ATOM      6  C   UNL     1      -4.115  -5.031  -3.523  1.00  0.00     0.328 C 
ATOM      7  O   UNL     1      -5.086  -5.657  -3.939  1.00  0.00    -0.250 OA
BRANCH   6   8
ATOM      8  C   UNL     1      -3.953  -4.552  -2.063  1.00  0.00     0.195 C 
ATOM      9  N   UNL     1      -3.375  -3.228  -1.784  1.00  0.00    -0.327 N 
ATOM     10  C   UNL     1      -4.435  -2.310  -1.443  1.00  0.00     0.120 C 
ATOM     11  C   UNL     1      -5.456  -3.167  -0.727  1.00  0.00     0.024 C 
ATOM     12  C   UNL     1      -5.307  -4.553  -1.336  1.00  0.00     0.039 C 
BRANCH   9  13
ATOM     13  C   UNL     1      -2.014  -2.997  -1.793  1.00  0.00     0.245 C 
ATOM     14  O   UNL     1      -1.258  -3.663  -2.500  1.00  0.00    -0.272 OA
BRANCH  13  15
ATOM     15  C   UNL     1      -1.379  -1.985  -0.804  1.00  0.00     0.168 C 
ATOM     16  C   UNL     1      -1.674  -2.374   0.642  1.00  0.00     0.041 C 
BRANCH  15  17
ATOM     17  N   UNL     1      -1.693  -0.590  -1.080  1.00  0.00    -0.343 N 
ATOM     18  C   UNL     1      -0.885   0.428  -1.479  1.00  0.00     0.243 C 
ATOM     19  O   UNL     1      -1.445   1.474  -1.825  1.00  0.00    -0.273 OA
ATOM     20  H   UNL     1      -2.639  -0.346  -0.959  1.00  0.00     0.164 HD
BRANCH  18  21
ATOM     21  C   UNL     1       0.651   0.308  -1.536  1.00  0.00     0.171 C 
ATOM     22  C   UNL     1       1.110  -0.485  -2.753  1.00  0.00     0.042 C 
BRANCH  21  23
ATOM     23  N   UNL     1       1.182  -0.036  -0.214  1.00  0.00    -0.310 N 
ATOM     24  C   UNL     1       1.896  -1.101   0.228  1.00  0.00     0.408 C 
ATOM     25  H   UNL     1       0.983   0.629   0.483  1.00  0.00     0.167 HD
ATOM     26  O   UNL     1       2.192  -1.201   1.415  1.00  0.00    -0.225 OA
BRANCH  24  27
ATOM     27  O   UNL     1       2.207  -1.982  -0.737  1.00  0.00    -0.444 OA
BRANCH  27  28
ATOM     28  C   UNL     1       2.961  -3.183  -0.451  1.00  0.00     0.106 C 
ATOM     29  C   UNL     1       4.370  -2.846   0.051  1.00  0.00     0.056 C 
ATOM     30  C   UNL     1       2.213  -4.112   0.510  1.00  0.00     0.056 C 
ATOM     31  C   UNL     1       3.077  -3.889  -1.805  1.00  0.00     0.056 C 
ENDBRANCH  27  28
ENDBRANCH  24  27
ENDBRANCH  21  23
ENDBRANCH  18  21
ENDBRANCH  15  17
ENDBRANCH  13  15
ENDBRANCH   9  13
ENDBRANCH   6   8
ENDBRANCH   5   6
ENDBRANCH   4   5
ENDBRANCH   3   4
ENDBRANCH   2   3
ENDBRANCH   1   2
BRANCH   1  32
ATOM     32  C   UNL     1      -1.036  -6.804  -2.428  1.00  0.00     0.188 C 
BRANCH  32  33
ATOM     33  O   UNL     1       0.207  -6.388  -2.984  1.00  0.00    -0.377 OA
BRANCH  33  34
ATOM     34  C   UNL     1       0.520  -6.749  -4.316  1.00  0.00     0.188 C 
BRANCH  34  35
ATOM     35  C   UNL     1       0.735  -8.260  -4.528  1.00  0.00     0.188 C 
BRANCH  35  36
ATOM     36  O   UNL     1       0.336  -9.039  -3.409  1.00  0.00    -0.376 OA
BRANCH  36  37
ATOM     37  C   UNL     1       1.326  -9.379  -2.449  1.00  0.00     0.202 C 
BRANCH  37  38
ATOM     38  C   UNL     1       2.274  -8.313  -1.864  1.00  0.00     0.261 C 
BRANCH  38  39
ATOM     39  O   UNL     1       2.933  -7.423  -2.779  1.00  0.00    -0.460 OA
BRANCH  39  40
ATOM     40  C   UNL     1       3.821  -7.938  -3.652  1.00  0.00     0.338 C 
ATOM     41  O   UNL     1       4.173  -9.098  -3.753  1.00  0.00    -0.246 OA
BRANCH  40  42
ATOM     42  C   UNL     1       4.165  -6.861  -4.609  1.00  0.00     0.060 A 
ATOM     43  C   UNL     1       3.813  -6.999  -5.957  1.00  0.00     0.016 A 
ATOM     44  C   UNL     1       4.824  -5.712  -4.170  1.00  0.00     0.016 A 
ATOM     45  C   UNL     1       4.152  -6.004  -6.873  1.00  0.00     0.010 A 
ATOM     46  C   UNL     1       5.156  -4.709  -5.085  1.00  0.00     0.010 A 
ATOM     47  C   UNL     1       4.870  -4.877  -6.450  1.00  0.00    -0.014 A 
BRANCH  47  48
ATOM     48  C   UNL     1       5.532  -4.018  -7.463  1.00  0.00     0.031 A 
ATOM     49  C   UNL     1       7.009  -4.209  -7.693  1.00  0.00     0.074 A 
ATOM     50  C   UNL     1       4.839  -3.137  -8.205  1.00  0.00     0.049 A 
ATOM     51  N   UNL     1       7.812  -3.595  -8.525  1.00  0.00    -0.248 NA
ATOM     52  C   UNL     1       7.672  -5.230  -6.865  1.00  0.00     0.031 C 
ATOM     53  C   UNL     1       3.405  -2.883  -8.098  1.00  0.00     0.029 A 
ATOM     54  N   UNL     1       5.258  -2.291  -9.203  1.00  0.00    -0.354 N 
ATOM     55  C   UNL     1       9.068  -4.149  -8.311  1.00  0.00     0.074 A 
ATOM     56  C   UNL     1       8.935  -5.109  -7.240  1.00  0.00     0.031 C 
ATOM     57  C   UNL     1       3.060  -1.946  -8.999  1.00  0.00     0.029 A 
ATOM     58  C   UNL     1       4.254  -1.514  -9.724  1.00  0.00     0.049 A 
ATOM     59  H   UNL     1       6.191  -2.247  -9.514  1.00  0.00     0.167 HD
ATOM     60  C   UNL     1      10.227  -3.895  -8.962  1.00  0.00     0.037 A 
ATOM     61  C   UNL     1       4.303  -0.554 -10.669  1.00  0.00     0.037 A 
ATOM     62  C   UNL     1      10.355  -2.944 -10.034  1.00  0.00     0.049 A 
ATOM     63  C   UNL     1       5.619  -0.246 -11.339  1.00  0.00     0.074 A 
ATOM     64  C   UNL     1      11.479  -2.625 -10.774  1.00  0.00     0.029 A 
ATOM     65  N   UNL     1       9.321  -2.153 -10.513  1.00  0.00    -0.354 N 
ATOM     66  N   UNL     1       6.796  -0.796 -11.155  1.00  0.00    -0.248 NA
ATOM     67  C   UNL     1       5.610   0.812 -12.360  1.00  0.00     0.031 C 
ATOM     68  C   UNL     1      11.141  -1.594 -11.656  1.00  0.00     0.029 A 
ATOM     69  C   UNL     1       9.789  -1.325 -11.521  1.00  0.00     0.049 A 
ATOM     70  H   UNL     1       8.393  -2.176 -10.185  1.00  0.00     0.167 HD
ATOM     71  C   UNL     1       7.654  -0.180 -12.058  1.00  0.00     0.074 A 
ATOM     72  C   UNL     1       6.859   0.774 -12.801  1.00  0.00     0.031 C 
ATOM     73  C   UNL     1       8.981  -0.386 -12.258  1.00  0.00     0.037 A 
BRANCH  60  74
ATOM     74  C   UNL     1      11.453  -4.639  -8.512  1.00  0.00     0.064 A 
ATOM     75  C   UNL     1      11.597  -6.021  -8.708  1.00  0.00     0.173 A 
ATOM     76  C   UNL     1      12.508  -3.953  -7.892  1.00  0.00     0.173 A 
ATOM     77  F   UNL     1      10.611  -6.730  -9.280  1.00  0.00    -0.203 F 
ATOM     78  C   UNL     1      12.737  -6.692  -8.272  1.00  0.00     0.198 A 
ATOM     79  C   UNL     1      13.662  -4.621  -7.491  1.00  0.00     0.198 A 
ATOM     80  F   UNL     1      12.424  -2.631  -7.680  1.00  0.00    -0.203 F 
ATOM     81  F   UNL     1      12.827  -8.022  -8.418  1.00  0.00    -0.200 F 
ATOM     82  C   UNL     1      13.772  -5.990  -7.673  1.00  0.00     0.200 A 
ATOM     83  F   UNL     1      14.666  -3.938  -6.925  1.00  0.00    -0.200 F 
ATOM     84  F   UNL     1      14.872  -6.636  -7.262  1.00  0.00    -0.200 F 
ENDBRANCH  60  74
BRANCH  61  85
ATOM     85  C   UNL     1       3.069   0.189 -11.044  1.00  0.00     0.064 A 
ATOM     86  C   UNL     1       2.506   0.066 -12.323  1.00  0.00     0.173 A 
ATOM     87  C   UNL     1       2.443   1.061 -10.141  1.00  0.00     0.173 A 
ATOM     88  F   UNL     1       3.080  -0.735 -13.233  1.00  0.00    -0.203 F 
ATOM     89  C   UNL     1       1.383   0.805 -12.691  1.00  0.00     0.198 A 
ATOM     90  C   UNL     1       1.301   1.774 -10.499  1.00  0.00     0.198 A 
ATOM     91  F   UNL     1       2.941   1.219  -8.906  1.00  0.00    -0.203 F 
ATOM     92  F   UNL     1       0.902   0.712 -13.938  1.00  0.00    -0.200 F 
ATOM     93  C   UNL     1       0.778   1.654 -11.777  1.00  0.00     0.200 A 
ATOM     94  F   UNL     1       0.712   2.583  -9.608  1.00  0.00    -0.200 F 
ATOM     95  F   UNL     1      -0.303   2.363 -12.131  1.00  0.00    -0.200 F 
ENDBRANCH  61  85
BRANCH  73  96
ATOM     96  C   UNL     1       9.645   0.395 -13.358  1.00  0.00     0.064 A 
ATOM     97  C   UNL     1       9.836   1.783 -13.276  1.00  0.00     0.173 A 
ATOM     98  C   UNL     1      10.123  -0.264 -14.503  1.00  0.00     0.173 A 
ATOM     99  F   UNL     1       9.392   2.464 -12.209  1.00  0.00    -0.203 F 
ATOM    100  C   UNL     1      10.440   2.486 -14.316  1.00  0.00     0.198 A 
ATOM    101  C   UNL     1      10.762   0.436 -15.522  1.00  0.00     0.198 A 
ATOM    102  F   UNL     1       9.979  -1.592 -14.629  1.00  0.00    -0.203 F 
ATOM    103  F   UNL     1      10.551   3.819 -14.244  1.00  0.00    -0.200 F 
ATOM    104  C   UNL     1      10.908   1.812 -15.434  1.00  0.00     0.200 A 
ATOM    105  F   UNL     1      11.232  -0.221 -16.591  1.00  0.00    -0.200 F 
ATOM    106  F   UNL     1      11.492   2.489 -16.431  1.00  0.00    -0.200 F 
ENDBRANCH  73  96
ENDBRANCH  47  48
ENDBRANCH  40  42
ENDBRANCH  39  40
ENDBRANCH  38  39
ENDBRANCH  37  38
ENDBRANCH  36  37
ENDBRANCH  35  36
ENDBRANCH  34  35
ENDBRANCH  33  34
ENDBRANCH  32  33
ENDBRANCH   1  32
TORSDOF 27
