REMARK SMILES CCc1csc(N2[C@@H]3CC[C@H]2C[C@H](CC(=O)OCCOCCOCCOCCOC(=O)c2ccc(-c4c5nc(c(-c6c(F)c(F)c(F)c(F)c6F)c6ccc([nH]6)c(-c6c(F)c(F)c(F)c(F)c6F)c6nc(c(-c7c(F)c(F)c(F)c(F)c7F)c7ccc4[nH]7)C=C6)C=C5)cc2)C3)n1
REMARK SMILES IDX 22 1 21 2 20 3 19 4 18 5 17 6 15 7 16 8 14 9 13 10 7 11 8 12
REMARK SMILES IDX 11 13 9 14 95 15 10 16 12 17 6 18 3 19 4 20 96 21 5 22 2 23
REMARK SMILES IDX 1 24 23 25 24 26 25 27 26 28 27 29 28 30 29 31 30 32 31 33
REMARK SMILES IDX 32 34 33 35 94 36 34 37 93 38 35 39 36 40 37 41 87 42 38 43
REMARK SMILES IDX 92 44 86 45 88 46 39 47 91 48 85 49 84 50 40 52 72 53 52 54
REMARK SMILES IDX 71 55 53 56 56 57 70 58 89 59 54 60 55 61 69 63 90 64 57 65
REMARK SMILES IDX 41 66 42 67 50 68 43 69 44 70 48 71 51 72 45 73 46 74 49 75
REMARK SMILES IDX 47 76 73 77 74 78 82 79 75 80 76 81 80 82 83 83 77 84 78 85
REMARK SMILES IDX 81 86 79 87 58 88 59 89 67 90 60 91 61 92 65 93 68 94 62 95
REMARK SMILES IDX 63 96 66 97 64 98
REMARK H PARENT 88 51 56 62
REMARK Flexibility Score: inf
ROOT
ATOM      1  C   UNL     1       3.967  10.484  -0.464  1.00  0.00     0.188 C 
ENDROOT
BRANCH   1   2
ATOM      2  C   UNL     1       3.676  11.986  -0.456  1.00  0.00     0.188 C 
BRANCH   2   3
ATOM      3  O   UNL     1       3.632  12.662   0.783  1.00  0.00    -0.376 OA
BRANCH   3   4
ATOM      4  C   UNL     1       2.556  12.450   1.685  1.00  0.00     0.202 C 
BRANCH   4   5
ATOM      5  C   UNL     1       1.165  11.921   1.283  1.00  0.00     0.261 C 
BRANCH   5   6
ATOM      6  O   UNL     1       1.105  10.799   0.382  1.00  0.00    -0.463 OA
BRANCH   6   7
ATOM      7  C   UNL     1       0.419  11.007  -0.765  1.00  0.00     0.306 C 
ATOM      8  O   UNL     1      -0.086  12.084  -1.075  1.00  0.00    -0.252 OA
BRANCH   7   9
ATOM      9  C   UNL     1       0.304   9.817  -1.701  1.00  0.00     0.126 C 
BRANCH   9  10
ATOM     10  C   UNL     1       1.080   8.511  -1.490  1.00  0.00     0.004 C 
ATOM     11  N   UNL     1       0.945   5.565  -1.574  1.00  0.00    -0.342 N 
ATOM     12  C   UNL     1       1.679   6.281  -2.620  1.00  0.00     0.085 C 
ATOM     13  C   UNL     1       1.319   6.244  -0.321  1.00  0.00     0.085 C 
ATOM     14  C   UNL     1       3.091   6.364  -2.009  1.00  0.00     0.027 C 
ATOM     15  C   UNL     1       1.032   7.669  -2.786  1.00  0.00     0.029 C 
ATOM     16  C   UNL     1       2.855   6.319  -0.484  1.00  0.00     0.027 C 
ATOM     17  C   UNL     1       0.647   7.645  -0.296  1.00  0.00     0.029 C 
BRANCH  11  18
ATOM     18  C   UNL     1       0.883   4.194  -1.558  1.00  0.00     0.186 A 
ATOM     19  C   UNL     1       0.790   2.126  -0.694  1.00  0.00     0.053 A 
ATOM     20  C   UNL     1       1.153   1.802  -1.983  1.00  0.00     0.092 A 
ATOM     21  N   UNL     1       0.642   3.489  -0.471  1.00  0.00    -0.225 NA
ATOM     22  S   UNL     1       1.196   3.205  -2.950  1.00  0.00    -0.105 S 
BRANCH  19  23
ATOM     23  C   UNL     1       0.539   1.200   0.456  1.00  0.00     0.054 C 
ATOM     24  C   UNL     1       0.991  -0.236   0.233  1.00  0.00     0.011 C 
ENDBRANCH  19  23
ENDBRANCH  11  18
ENDBRANCH   9  10
ENDBRANCH   7   9
ENDBRANCH   6   7
ENDBRANCH   5   6
ENDBRANCH   4   5
ENDBRANCH   3   4
ENDBRANCH   2   3
ENDBRANCH   1   2
BRANCH   1  25
ATOM     25  O   UNL     1       3.496   9.743   0.644  1.00  0.00    -0.377 OA
BRANCH  25  26
ATOM     26  C   UNL     1       4.277   9.668   1.832  1.00  0.00     0.188 C 
BRANCH  26  27
ATOM     27  C   UNL     1       5.574  10.486   1.985  1.00  0.00     0.188 C 
BRANCH  27  28
ATOM     28  O   UNL     1       6.366  10.583   0.814  1.00  0.00    -0.376 OA
BRANCH  28  29
ATOM     29  C   UNL     1       7.394   9.626   0.601  1.00  0.00     0.202 C 
BRANCH  29  30
ATOM     30  C   UNL     1       6.973   8.153   0.468  1.00  0.00     0.261 C 
BRANCH  30  31
ATOM     31  O   UNL     1       6.393   7.555   1.640  1.00  0.00    -0.460 OA
BRANCH  31  32
ATOM     32  C   UNL     1       7.103   7.600   2.781  1.00  0.00     0.338 C 
ATOM     33  O   UNL     1       8.245   8.014   2.930  1.00  0.00    -0.246 OA
BRANCH  32  34
ATOM     34  C   UNL     1       6.218   7.232   3.900  1.00  0.00     0.060 A 
ATOM     35  C   UNL     1       6.033   8.154   4.936  1.00  0.00     0.016 A 
ATOM     36  C   UNL     1       5.628   5.967   3.959  1.00  0.00     0.016 A 
ATOM     37  C   UNL     1       5.319   7.787   6.074  1.00  0.00     0.010 A 
ATOM     38  C   UNL     1       4.924   5.594   5.109  1.00  0.00     0.010 A 
ATOM     39  C   UNL     1       4.817   6.484   6.192  1.00  0.00    -0.014 A 
BRANCH  39  40
ATOM     40  C   UNL     1       4.408   6.001   7.534  1.00  0.00     0.031 A 
ATOM     41  C   UNL     1       5.403   5.207   8.340  1.00  0.00     0.074 A 
ATOM     42  C   UNL     1       3.216   6.325   8.063  1.00  0.00     0.049 A 
ATOM     43  N   UNL     1       5.296   4.714   9.548  1.00  0.00    -0.248 NA
ATOM     44  C   UNL     1       6.697   4.935   7.694  1.00  0.00     0.031 C 
ATOM     45  C   UNL     1       2.186   7.122   7.401  1.00  0.00     0.029 A 
ATOM     46  N   UNL     1       2.676   6.024   9.289  1.00  0.00    -0.354 N 
ATOM     47  C   UNL     1       6.504   4.076   9.802  1.00  0.00     0.074 A 
ATOM     48  C   UNL     1       7.313   4.206   8.611  1.00  0.00     0.031 C 
ATOM     49  C   UNL     1       1.135   7.248   8.230  1.00  0.00     0.029 A 
ATOM     50  C   UNL     1       1.408   6.519   9.468  1.00  0.00     0.049 A 
ATOM     51  H   UNL     1       3.153   5.503   9.974  1.00  0.00     0.167 HD
ATOM     52  C   UNL     1       6.910   3.450  10.933  1.00  0.00     0.037 A 
ATOM     53  C   UNL     1       0.564   6.385  10.510  1.00  0.00     0.037 A 
ATOM     54  C   UNL     1       6.104   3.320  12.117  1.00  0.00     0.049 A 
ATOM     55  C   UNL     1       1.015   5.624  11.732  1.00  0.00     0.074 A 
ATOM     56  C   UNL     1       6.425   2.712  13.318  1.00  0.00     0.029 A 
ATOM     57  N   UNL     1       4.808   3.799  12.246  1.00  0.00    -0.354 N 
ATOM     58  N   UNL     1       2.167   5.048  11.976  1.00  0.00    -0.248 NA
ATOM     59  C   UNL     1       0.045   5.507  12.831  1.00  0.00     0.031 C 
ATOM     60  C   UNL     1       5.303   2.771  14.152  1.00  0.00     0.029 A 
ATOM     61  C   UNL     1       4.306   3.477  13.497  1.00  0.00     0.049 A 
ATOM     62  H   UNL     1       4.317   4.294  11.551  1.00  0.00     0.167 HD
ATOM     63  C   UNL     1       2.075   4.533  13.264  1.00  0.00     0.074 A 
ATOM     64  C   UNL     1       0.759   4.882  13.756  1.00  0.00     0.031 C 
ATOM     65  C   UNL     1       2.996   3.836  13.977  1.00  0.00     0.037 A 
BRANCH  52  66
ATOM     66  C   UNL     1       8.279   2.831  10.928  1.00  0.00     0.064 A 
ATOM     67  C   UNL     1       9.446   3.611  10.908  1.00  0.00     0.173 A 
ATOM     68  C   UNL     1       8.425   1.436  10.964  1.00  0.00     0.173 A 
ATOM     69  F   UNL     1       9.364   4.949  10.856  1.00  0.00    -0.203 F 
ATOM     70  C   UNL     1      10.706   3.017  10.895  1.00  0.00     0.198 A 
ATOM     71  C   UNL     1       9.686   0.847  10.986  1.00  0.00     0.198 A 
ATOM     72  F   UNL     1       7.344   0.643  10.985  1.00  0.00    -0.203 F 
ATOM     73  F   UNL     1      11.805   3.781  10.820  1.00  0.00    -0.200 F 
ATOM     74  C   UNL     1      10.825   1.636  10.942  1.00  0.00     0.200 A 
ATOM     75  F   UNL     1       9.799  -0.488  11.044  1.00  0.00    -0.200 F 
ATOM     76  F   UNL     1      12.038   1.066  10.935  1.00  0.00    -0.200 F 
ENDBRANCH  52  66
BRANCH  53  77
ATOM     77  C   UNL     1      -0.797   6.982  10.449  1.00  0.00     0.064 A 
ATOM     78  C   UNL     1      -1.171   8.032  11.299  1.00  0.00     0.173 A 
ATOM     79  C   UNL     1      -1.765   6.489   9.560  1.00  0.00     0.173 A 
ATOM     80  F   UNL     1      -0.291   8.521  12.185  1.00  0.00    -0.203 F 
ATOM     81  C   UNL     1      -2.466   8.548  11.282  1.00  0.00     0.198 A 
ATOM     82  C   UNL     1      -3.049   7.028   9.521  1.00  0.00     0.198 A 
ATOM     83  F   UNL     1      -1.462   5.483   8.727  1.00  0.00    -0.203 F 
ATOM     84  F   UNL     1      -2.812   9.512  12.146  1.00  0.00    -0.200 F 
ATOM     85  C   UNL     1      -3.402   8.050  10.388  1.00  0.00     0.200 A 
ATOM     86  F   UNL     1      -3.947   6.551   8.647  1.00  0.00    -0.200 F 
ATOM     87  F   UNL     1      -4.646   8.547  10.372  1.00  0.00    -0.200 F 
ENDBRANCH  53  77
BRANCH  65  88
ATOM     88  C   UNL     1       2.630   3.448  15.383  1.00  0.00     0.064 A 
ATOM     89  C   UNL     1       1.639   2.494  15.658  1.00  0.00     0.173 A 
ATOM     90  C   UNL     1       3.298   4.029  16.474  1.00  0.00     0.173 A 
ATOM     91  F   UNL     1       0.962   1.915  14.655  1.00  0.00    -0.203 F 
ATOM     92  C   UNL     1       1.299   2.170  16.970  1.00  0.00     0.198 A 
ATOM     93  C   UNL     1       2.983   3.673  17.782  1.00  0.00     0.198 A 
ATOM     94  F   UNL     1       4.264   4.937  16.270  1.00  0.00    -0.203 F 
ATOM     95  F   UNL     1       0.301   1.307  17.207  1.00  0.00    -0.200 F 
ATOM     96  C   UNL     1       1.975   2.755  18.030  1.00  0.00     0.200 A 
ATOM     97  F   UNL     1       3.651   4.226  18.804  1.00  0.00    -0.200 F 
ATOM     98  F   UNL     1       1.647   2.441  19.291  1.00  0.00    -0.200 F 
ENDBRANCH  65  88
ENDBRANCH  39  40
ENDBRANCH  32  34
ENDBRANCH  31  32
ENDBRANCH  30  31
ENDBRANCH  29  30
ENDBRANCH  28  29
ENDBRANCH  27  28
ENDBRANCH  26  27
ENDBRANCH  25  26
ENDBRANCH   1  25
TORSDOF 23
