REMARK SMILES O=C(OCCOCCOCCOCCOC(=O)[C@@H]1CC2(CC[NH+](C(=O)C3(c4ccccc4F)CC3)CC2)C[NH2+]1)c1ccc(-c2c3nc(c(-c4c(F)c(F)c(F)c(F)c4F)c4ccc([nH]4)c(-c4c(F)c(F)c(F)c(F)c4F)c4nc(c(-c5c(F)c(F)c(F)c(F)c5F)c5ccc2[nH]5)C=C4)C=C3)cc1
REMARK SMILES IDX 10 1 9 2 8 3 7 4 6 5 5 6 4 7 3 8 2 9 1 10 40 11 41 12 102 13
REMARK SMILES IDX 42 14 101 15 43 16 44 17 45 18 95 19 46 20 100 21 94 22
REMARK SMILES IDX 96 23 47 24 99 25 93 26 92 27 48 29 80 30 60 31 79 32 61 33
REMARK SMILES IDX 64 34 78 35 97 36 62 37 63 38 77 40 98 41 65 42 49 43 50 44
REMARK SMILES IDX 58 45 51 46 52 47 56 48 59 49 53 50 54 51 57 52 55 53 81 54
REMARK SMILES IDX 82 55 90 56 83 57 84 58 88 59 91 60 85 61 86 62 89 63 87 64
REMARK SMILES IDX 66 65 67 66 75 67 68 68 69 69 73 70 76 71 70 72 71 73 74 74
REMARK SMILES IDX 72 75 11 76 12 77 13 78 14 79 15 80 16 81 17 82 18 83 19 84
REMARK SMILES IDX 39 85 20 86 38 87 21 90 37 91 22 92 36 93 23 94 24 96 25 97
REMARK SMILES IDX 26 98 34 99 35 100 27 101 28 102 32 103 29 104 31 105 33 106
REMARK SMILES IDX 30 107
REMARK H PARENT 96 28 64 39 39 88 39 89 23 95
REMARK Flexibility Score: inf
ROOT
ATOM      1  C   UNL     1       4.417  -3.054   1.109  1.00  0.00     0.188 C 
ENDROOT
BRANCH   1   2
ATOM      2  O   UNL     1       3.059  -3.333   1.436  1.00  0.00    -0.377 OA
BRANCH   2   3
ATOM      3  C   UNL     1       2.062  -2.500   0.847  1.00  0.00     0.188 C 
BRANCH   3   4
ATOM      4  C   UNL     1       2.291  -1.010   1.066  1.00  0.00     0.188 C 
BRANCH   4   5
ATOM      5  O   UNL     1       3.520  -0.628   0.460  1.00  0.00    -0.376 OA
BRANCH   5   6
ATOM      6  C   UNL     1       4.394   0.193   1.229  1.00  0.00     0.202 C 
BRANCH   6   7
ATOM      7  C   UNL     1       4.002   1.659   1.248  1.00  0.00     0.261 C 
BRANCH   7   8
ATOM      8  O   UNL     1       2.645   1.898   0.853  1.00  0.00    -0.460 OA
BRANCH   8   9
ATOM      9  C   UNL     1       2.085   1.862  -0.377  1.00  0.00     0.338 C 
ATOM     10  O   UNL     1       0.866   2.013  -0.462  1.00  0.00    -0.246 OA
BRANCH   9  11
ATOM     11  C   UNL     1       2.836   1.713  -1.659  1.00  0.00     0.060 A 
ATOM     12  C   UNL     1       3.942   0.892  -1.881  1.00  0.00     0.016 A 
ATOM     13  C   UNL     1       2.289   2.380  -2.767  1.00  0.00     0.016 A 
ATOM     14  C   UNL     1       4.519   0.757  -3.130  1.00  0.00     0.010 A 
ATOM     15  C   UNL     1       2.856   2.253  -4.036  1.00  0.00     0.010 A 
ATOM     16  C   UNL     1       3.992   1.456  -4.204  1.00  0.00    -0.014 A 
BRANCH  16  17
ATOM     17  C   UNL     1       4.808   1.507  -5.421  1.00  0.00     0.031 A 
ATOM     18  C   UNL     1       5.622   2.742  -5.634  1.00  0.00     0.074 A 
ATOM     19  C   UNL     1       4.946   0.412  -6.184  1.00  0.00     0.049 A 
ATOM     20  N   UNL     1       6.353   3.087  -6.654  1.00  0.00    -0.248 NA
ATOM     21  C   UNL     1       5.627   3.720  -4.529  1.00  0.00     0.031 C 
ATOM     22  C   UNL     1       4.331  -0.889  -5.908  1.00  0.00     0.029 A 
ATOM     23  N   UNL     1       5.673   0.205  -7.322  1.00  0.00    -0.354 N 
ATOM     24  C   UNL     1       6.854   4.342  -6.340  1.00  0.00     0.074 A 
ATOM     25  C   UNL     1       6.367   4.695  -5.029  1.00  0.00     0.031 C 
ATOM     26  C   UNL     1       4.718  -1.763  -6.851  1.00  0.00     0.029 A 
ATOM     27  C   UNL     1       5.530  -1.058  -7.837  1.00  0.00     0.049 A 
ATOM     28  H   UNL     1       6.244   0.895  -7.732  1.00  0.00     0.167 HD
ATOM     29  C   UNL     1       7.638   5.126  -7.109  1.00  0.00     0.037 A 
ATOM     30  C   UNL     1       5.966  -1.555  -9.009  1.00  0.00     0.037 A 
ATOM     31  C   UNL     1       8.108   4.711  -8.400  1.00  0.00     0.049 A 
ATOM     32  C   UNL     1       6.747  -0.629  -9.902  1.00  0.00     0.074 A 
ATOM     33  C   UNL     1       8.854   5.418  -9.319  1.00  0.00     0.029 A 
ATOM     34  N   UNL     1       7.867   3.454  -8.947  1.00  0.00    -0.354 N 
ATOM     35  N   UNL     1       7.133   0.605  -9.668  1.00  0.00    -0.248 NA
ATOM     36  C   UNL     1       7.129  -1.140 -11.222  1.00  0.00     0.031 C 
ATOM     37  C   UNL     1       9.015   4.609 -10.448  1.00  0.00     0.029 A 
ATOM     38  C   UNL     1       8.426   3.373 -10.207  1.00  0.00     0.049 A 
ATOM     39  H   UNL     1       7.371   2.730  -8.502  1.00  0.00     0.167 HD
ATOM     40  C   UNL     1       7.808   1.020 -10.805  1.00  0.00     0.074 A 
ATOM     41  C   UNL     1       7.793  -0.105 -11.723  1.00  0.00     0.031 C 
ATOM     42  C   UNL     1       8.384   2.219 -11.073  1.00  0.00     0.037 A 
BRANCH  29  43
ATOM     43  C   UNL     1       7.926   6.510  -6.613  1.00  0.00     0.064 A 
ATOM     44  C   UNL     1       7.302   7.610  -7.223  1.00  0.00     0.173 A 
ATOM     45  C   UNL     1       8.774   6.760  -5.524  1.00  0.00     0.173 A 
ATOM     46  F   UNL     1       6.467   7.425  -8.256  1.00  0.00    -0.203 F 
ATOM     47  C   UNL     1       7.520   8.906  -6.765  1.00  0.00     0.198 A 
ATOM     48  C   UNL     1       8.968   8.057  -5.050  1.00  0.00     0.198 A 
ATOM     49  F   UNL     1       9.364   5.742  -4.879  1.00  0.00    -0.203 F 
ATOM     50  F   UNL     1       6.918   9.938  -7.371  1.00  0.00    -0.200 F 
ATOM     51  C   UNL     1       8.347   9.128  -5.675  1.00  0.00     0.200 A 
ATOM     52  F   UNL     1       9.734   8.266  -3.971  1.00  0.00    -0.200 F 
ATOM     53  F   UNL     1       8.532  10.373  -5.216  1.00  0.00    -0.200 F 
ENDBRANCH  29  43
BRANCH  30  54
ATOM     54  C   UNL     1       5.609  -2.944  -9.399  1.00  0.00     0.064 A 
ATOM     55  C   UNL     1       4.270  -3.315  -9.612  1.00  0.00     0.173 A 
ATOM     56  C   UNL     1       6.582  -3.946  -9.508  1.00  0.00     0.173 A 
ATOM     57  F   UNL     1       3.296  -2.397  -9.522  1.00  0.00    -0.203 F 
ATOM     58  C   UNL     1       3.917  -4.636  -9.879  1.00  0.00     0.198 A 
ATOM     59  C   UNL     1       6.229  -5.263  -9.804  1.00  0.00     0.198 A 
ATOM     60  F   UNL     1       7.876  -3.643  -9.334  1.00  0.00    -0.203 F 
ATOM     61  F   UNL     1       2.626  -4.967 -10.024  1.00  0.00    -0.200 F 
ATOM     62  C   UNL     1       4.897  -5.610  -9.976  1.00  0.00     0.200 A 
ATOM     63  F   UNL     1       7.182  -6.199  -9.919  1.00  0.00    -0.200 F 
ATOM     64  F   UNL     1       4.559  -6.880 -10.235  1.00  0.00    -0.200 F 
ENDBRANCH  30  54
BRANCH  42  65
ATOM     65  C   UNL     1       9.058   2.370 -12.401  1.00  0.00     0.064 A 
ATOM     66  C   UNL     1      10.456   2.471 -12.470  1.00  0.00     0.173 A 
ATOM     67  C   UNL     1       8.318   2.545 -13.577  1.00  0.00     0.173 A 
ATOM     68  F   UNL     1      11.200   2.323 -11.364  1.00  0.00    -0.203 F 
ATOM     69  C   UNL     1      11.087   2.776 -13.670  1.00  0.00     0.198 A 
ATOM     70  C   UNL     1       8.957   2.818 -14.782  1.00  0.00     0.198 A 
ATOM     71  F   UNL     1       6.981   2.446 -13.555  1.00  0.00    -0.203 F 
ATOM     72  F   UNL     1      12.419   2.924 -13.704  1.00  0.00    -0.200 F 
ATOM     73  C   UNL     1      10.338   2.948 -14.824  1.00  0.00     0.200 A 
ATOM     74  F   UNL     1       8.235   2.965 -15.901  1.00  0.00    -0.200 F 
ATOM     75  F   UNL     1      10.948   3.246 -15.979  1.00  0.00    -0.200 F 
ENDBRANCH  42  65
ENDBRANCH  16  17
ENDBRANCH   9  11
ENDBRANCH   8   9
ENDBRANCH   7   8
ENDBRANCH   6   7
ENDBRANCH   5   6
ENDBRANCH   4   5
ENDBRANCH   3   4
ENDBRANCH   2   3
ENDBRANCH   1   2
BRANCH   1  76
ATOM     76  C   UNL     1       4.899  -3.217  -0.345  1.00  0.00     0.188 C 
BRANCH  76  77
ATOM     77  O   UNL     1       3.885  -3.163  -1.345  1.00  0.00    -0.376 OA
BRANCH  77  78
ATOM     78  C   UNL     1       3.724  -4.374  -2.090  1.00  0.00     0.202 C 
BRANCH  78  79
ATOM     79  C   UNL     1       2.843  -5.425  -1.399  1.00  0.00     0.261 C 
BRANCH  79  80
ATOM     80  O   UNL     1       3.169  -5.627  -0.018  1.00  0.00    -0.459 OA
BRANCH  80  81
ATOM     81  C   UNL     1       4.335  -6.259   0.270  1.00  0.00     0.364 C 
ATOM     82  O   UNL     1       5.054  -6.791  -0.568  1.00  0.00    -0.245 OA
BRANCH  81  83
ATOM     83  C   UNL     1       4.687  -6.161   1.766  1.00  0.00     0.294 C 
ATOM     84  C   UNL     1       4.994  -7.480   2.387  1.00  0.00     0.090 C 
ATOM     85  N   UNL     1       3.596  -5.699   2.653  1.00  0.00    -0.334 N 
ATOM     86  C   UNL     1       3.596  -8.066   2.643  1.00  0.00     0.036 C 
ATOM     87  C   UNL     1       2.752  -6.840   2.998  1.00  0.00     0.268 C 
ATOM     88  H   UNL     1       3.038  -4.994   2.171  1.00  0.00     0.347 HD
ATOM     89  H   UNL     1       3.989  -5.291   3.501  1.00  0.00     0.347 HD
ATOM     90  C   UNL     1       3.699  -9.088   3.772  1.00  0.00     0.075 C 
ATOM     91  C   UNL     1       3.002  -8.780   1.406  1.00  0.00     0.075 C 
ATOM     92  C   UNL     1       4.600 -10.242   3.324  1.00  0.00     0.271 C 
ATOM     93  C   UNL     1       3.932  -9.896   0.962  1.00  0.00     0.271 C 
ATOM     94  N   UNL     1       4.110 -10.825   2.076  1.00  0.00    -0.271 N 
ATOM     95  H   UNL     1       3.766 -11.106   2.955  1.00  0.00     0.356 HD
BRANCH  94  96
ATOM     96  C   UNL     1       3.433 -12.025   1.951  1.00  0.00     0.322 C 
ATOM     97  O   UNL     1       2.575 -12.150   1.069  1.00  0.00    -0.230 OA
BRANCH  96  98
ATOM     98  C   UNL     1       3.739 -13.240   2.799  1.00  0.00     0.113 C 
ATOM     99  C   UNL     1       4.582 -13.374   4.063  1.00  0.00     0.028 C 
ATOM    100  C   UNL     1       3.103 -13.200   4.184  1.00  0.00     0.028 C 
BRANCH  98 101
ATOM    101  C   UNL     1       3.755 -14.507   1.944  1.00  0.00     0.007 A 
ATOM    102  C   UNL     1       4.970 -15.028   1.460  1.00  0.00     0.008 A 
ATOM    103  C   UNL     1       2.569 -15.081   1.465  1.00  0.00     0.127 A 
ATOM    104  C   UNL     1       4.991 -16.057   0.519  1.00  0.00     0.001 A 
ATOM    105  C   UNL     1       2.579 -16.087   0.506  1.00  0.00     0.039 A 
ATOM    106  F   UNL     1       1.385 -14.615   1.893  1.00  0.00    -0.207 F 
ATOM    107  C   UNL     1       3.793 -16.573   0.029  1.00  0.00     0.003 A 
ENDBRANCH  98 101
ENDBRANCH  96  98
ENDBRANCH  94  96
ENDBRANCH  81  83
ENDBRANCH  80  81
ENDBRANCH  79  80
ENDBRANCH  78  79
ENDBRANCH  77  78
ENDBRANCH  76  77
ENDBRANCH   1  76
TORSDOF 23
