REMARK SMILES CCC(CC)C[N@H+]1[C@@H]2CC[C@H]1C[C@H](CC(=O)OCCOCCOCCOCCOC(=O)c1ccc(-c3c4nc(c(-c5c(F)c(F)c(F)c(F)c5F)c5ccc([nH]5)c(-c5c(F)c(F)c(F)c(F)c5F)c5nc(c(-c6c(F)c(F)c(F)c(F)c6F)c6ccc3[nH]6)C=C5)C=C4)cc1)C2
REMARK SMILES IDX 22 1 21 2 20 3 19 4 18 5 17 6 15 7 16 8 14 9 13 10 7 11 8 12
REMARK SMILES IDX 11 13 9 15 95 16 10 17 12 18 6 19 3 20 2 21 1 22 4 23 5 24
REMARK SMILES IDX 23 25 24 26 25 27 26 28 27 29 28 30 29 31 30 32 31 33 32 34
REMARK SMILES IDX 33 35 94 36 34 37 93 38 35 39 36 40 37 41 87 42 38 43 92 44
REMARK SMILES IDX 86 45 88 46 39 47 91 48 85 49 84 50 40 52 72 53 52 54 71 55
REMARK SMILES IDX 53 56 56 57 70 58 89 59 54 60 55 61 69 63 90 64 57 65 41 66
REMARK SMILES IDX 42 67 50 68 43 69 44 70 48 71 51 72 45 73 46 74 49 75 47 76
REMARK SMILES IDX 73 77 74 78 82 79 75 80 76 81 80 82 83 83 77 84 78 85 81 86
REMARK SMILES IDX 79 87 58 88 59 89 67 90 60 91 61 92 65 93 68 94 62 95 63 96
REMARK SMILES IDX 66 97 64 98
REMARK H PARENT 7 14 88 51 56 62
REMARK Flexibility Score: inf
ROOT
ATOM      1  C   UNL     1       5.707   1.642   6.736  1.00  0.00     0.188 C 
ENDROOT
BRANCH   1   2
ATOM      2  C   UNL     1       5.812   3.111   7.154  1.00  0.00     0.188 C 
BRANCH   2   3
ATOM      3  O   UNL     1       5.682   3.335   8.538  1.00  0.00    -0.376 OA
BRANCH   3   4
ATOM      4  C   UNL     1       4.456   3.794   9.084  1.00  0.00     0.202 C 
BRANCH   4   5
ATOM      5  C   UNL     1       3.103   3.807   8.344  1.00  0.00     0.261 C 
BRANCH   5   6
ATOM      6  O   UNL     1       2.952   2.909   7.239  1.00  0.00    -0.463 OA
BRANCH   6   7
ATOM      7  C   UNL     1       2.663   3.502   6.055  1.00  0.00     0.306 C 
ATOM      8  O   UNL     1       2.520   4.712   5.902  1.00  0.00    -0.252 OA
BRANCH   7   9
ATOM      9  C   UNL     1       2.621   2.575   4.868  1.00  0.00     0.126 C 
BRANCH   9  10
ATOM     10  C   UNL     1       2.725   1.052   5.026  1.00  0.00     0.012 C 
ATOM     11  N   UNL     1       1.070  -1.013   3.773  1.00  0.00    -0.330 N 
ATOM     12  C   UNL     1       2.475  -0.927   3.359  1.00  0.00     0.184 C 
ATOM     13  C   UNL     1       1.176  -0.989   5.250  1.00  0.00     0.184 C 
ATOM     14  H   UNL     1       0.633  -1.850   3.388  1.00  0.00     0.348 HD
ATOM     15  C   UNL     1       3.120  -2.008   4.225  1.00  0.00     0.071 C 
ATOM     16  C   UNL     1       3.079   0.450   3.647  1.00  0.00     0.069 C 
ATOM     17  C   UNL     1       2.326  -1.974   5.524  1.00  0.00     0.071 C 
ATOM     18  C   UNL     1       1.539   0.415   5.776  1.00  0.00     0.069 C 
BRANCH  11  19
ATOM     19  C   UNL     1       0.135  -0.011   3.231  1.00  0.00     0.266 C 
BRANCH  19  20
ATOM     20  C   UNL     1       0.373   0.484   1.782  1.00  0.00     0.044 C 
BRANCH  20  21
ATOM     21  C   UNL     1      -0.131  -0.512   0.733  1.00  0.00     0.006 C 
ATOM     22  C   UNL     1       0.550  -0.285  -0.612  1.00  0.00     0.004 C 
ENDBRANCH  20  21
BRANCH  20  23
ATOM     23  C   UNL     1      -0.137   1.934   1.607  1.00  0.00     0.006 C 
ATOM     24  C   UNL     1      -1.615   2.156   1.877  1.00  0.00     0.004 C 
ENDBRANCH  20  23
ENDBRANCH  19  20
ENDBRANCH  11  19
ENDBRANCH   9  10
ENDBRANCH   7   9
ENDBRANCH   6   7
ENDBRANCH   5   6
ENDBRANCH   4   5
ENDBRANCH   3   4
ENDBRANCH   2   3
ENDBRANCH   1   2
BRANCH   1  25
ATOM     25  O   UNL     1       4.765   0.803   7.391  1.00  0.00    -0.377 OA
BRANCH  25  26
ATOM     26  C   UNL     1       4.845   0.535   8.780  1.00  0.00     0.188 C 
BRANCH  26  27
ATOM     27  C   UNL     1       6.216   0.549   9.470  1.00  0.00     0.188 C 
BRANCH  27  28
ATOM     28  O   UNL     1       7.318   0.407   8.595  1.00  0.00    -0.376 OA
BRANCH  28  29
ATOM     29  C   UNL     1       7.796  -0.899   8.309  1.00  0.00     0.202 C 
BRANCH  29  30
ATOM     30  C   UNL     1       6.809  -1.933   7.744  1.00  0.00     0.261 C 
BRANCH  30  31
ATOM     31  O   UNL     1       5.714  -2.309   8.600  1.00  0.00    -0.460 OA
BRANCH  31  32
ATOM     32  C   UNL     1       6.003  -2.749   9.842  1.00  0.00     0.338 C 
ATOM     33  O   UNL     1       7.096  -2.939  10.332  1.00  0.00    -0.246 OA
BRANCH  32  34
ATOM     34  C   UNL     1       4.739  -2.812  10.601  1.00  0.00     0.060 A 
ATOM     35  C   UNL     1       4.573  -1.974  11.710  1.00  0.00     0.016 A 
ATOM     36  C   UNL     1       3.750  -3.733  10.250  1.00  0.00     0.016 A 
ATOM     37  C   UNL     1       3.436  -2.091  12.507  1.00  0.00     0.010 A 
ATOM     38  C   UNL     1       2.620  -3.863  11.060  1.00  0.00     0.010 A 
ATOM     39  C   UNL     1       2.481  -3.073  12.217  1.00  0.00    -0.014 A 
BRANCH  39  40
ATOM     40  C   UNL     1       1.468  -3.422  13.241  1.00  0.00     0.031 A 
ATOM     41  C   UNL     1       1.730  -4.610  14.127  1.00  0.00     0.074 A 
ATOM     42  C   UNL     1       0.364  -2.677  13.418  1.00  0.00     0.049 A 
ATOM     43  N   UNL     1       0.989  -5.127  15.073  1.00  0.00    -0.248 NA
ATOM     44  C   UNL     1       3.007  -5.311  13.913  1.00  0.00     0.031 C 
ATOM     45  C   UNL     1       0.026  -1.473  12.663  1.00  0.00     0.029 A 
ATOM     46  N   UNL     1      -0.680  -2.830  14.296  1.00  0.00    -0.354 N 
ATOM     47  C   UNL     1       1.705  -6.212  15.562  1.00  0.00     0.074 A 
ATOM     48  C   UNL     1       2.920  -6.305  14.783  1.00  0.00     0.031 C 
ATOM     49  C   UNL     1      -1.151  -0.998  13.106  1.00  0.00     0.029 A 
ATOM     50  C   UNL     1      -1.664  -1.884  14.150  1.00  0.00     0.049 A 
ATOM     51  H   UNL     1      -0.720  -3.551  14.966  1.00  0.00     0.167 HD
ATOM     52  C   UNL     1       1.385  -7.049  16.578  1.00  0.00     0.037 A 
ATOM     53  C   UNL     1      -2.851  -1.765  14.777  1.00  0.00     0.037 A 
ATOM     54  C   UNL     1       0.171  -6.958  17.345  1.00  0.00     0.049 A 
ATOM     55  C   UNL     1      -3.227  -2.766  15.841  1.00  0.00     0.074 A 
ATOM     56  C   UNL     1      -0.250  -7.756  18.394  1.00  0.00     0.029 A 
ATOM     57  N   UNL     1      -0.824  -6.013  17.137  1.00  0.00    -0.354 N 
ATOM     58  N   UNL     1      -2.540  -3.780  16.310  1.00  0.00    -0.248 NA
ATOM     59  C   UNL     1      -4.547  -2.600  16.468  1.00  0.00     0.031 C 
ATOM     60  C   UNL     1      -1.526  -7.334  18.779  1.00  0.00     0.029 A 
ATOM     61  C   UNL     1      -1.870  -6.226  18.021  1.00  0.00     0.049 A 
ATOM     62  H   UNL     1      -0.792  -5.298  16.462  1.00  0.00     0.167 HD
ATOM     63  C   UNL     1      -3.323  -4.346  17.310  1.00  0.00     0.074 A 
ATOM     64  C   UNL     1      -4.533  -3.554  17.387  1.00  0.00     0.031 C 
ATOM     65  C   UNL     1      -3.063  -5.421  18.096  1.00  0.00     0.037 A 
BRANCH  52  66
ATOM     66  C   UNL     1       2.352  -8.156  16.891  1.00  0.00     0.064 A 
ATOM     67  C   UNL     1       3.616  -7.903  17.444  1.00  0.00     0.173 A 
ATOM     68  C   UNL     1       2.002  -9.493  16.646  1.00  0.00     0.173 A 
ATOM     69  F   UNL     1       4.008  -6.642  17.684  1.00  0.00    -0.203 F 
ATOM     70  C   UNL     1       4.506  -8.942  17.707  1.00  0.00     0.198 A 
ATOM     71  C   UNL     1       2.879 -10.532  16.944  1.00  0.00     0.198 A 
ATOM     72  F   UNL     1       0.804  -9.794  16.121  1.00  0.00    -0.203 F 
ATOM     73  F   UNL     1       5.731  -8.670  18.179  1.00  0.00    -0.200 F 
ATOM     74  C   UNL     1       4.134 -10.255  17.464  1.00  0.00     0.200 A 
ATOM     75  F   UNL     1       2.512 -11.801  16.721  1.00  0.00    -0.200 F 
ATOM     76  F   UNL     1       4.989 -11.254  17.722  1.00  0.00    -0.200 F 
ENDBRANCH  52  66
BRANCH  53  77
ATOM     77  C   UNL     1      -3.778  -0.658  14.418  1.00  0.00     0.064 A 
ATOM     78  C   UNL     1      -4.086   0.355  15.336  1.00  0.00     0.173 A 
ATOM     79  C   UNL     1      -4.400  -0.608  13.161  1.00  0.00     0.173 A 
ATOM     80  F   UNL     1      -3.539   0.339  16.560  1.00  0.00    -0.203 F 
ATOM     81  C   UNL     1      -4.997   1.361  15.020  1.00  0.00     0.198 A 
ATOM     82  C   UNL     1      -5.285   0.417  12.834  1.00  0.00     0.198 A 
ATOM     83  F   UNL     1      -4.143  -1.554  12.245  1.00  0.00    -0.203 F 
ATOM     84  F   UNL     1      -5.316   2.285  15.937  1.00  0.00    -0.200 F 
ATOM     85  C   UNL     1      -5.591   1.395  13.768  1.00  0.00     0.200 A 
ATOM     86  F   UNL     1      -5.846   0.452  11.618  1.00  0.00    -0.200 F 
ATOM     87  F   UNL     1      -6.466   2.364  13.464  1.00  0.00    -0.200 F 
ENDBRANCH  53  77
BRANCH  65  88
ATOM     88  C   UNL     1      -4.078  -5.771  19.150  1.00  0.00     0.064 A 
ATOM     89  C   UNL     1      -5.343  -6.284  18.826  1.00  0.00     0.173 A 
ATOM     90  C   UNL     1      -3.763  -5.619  20.511  1.00  0.00     0.173 A 
ATOM     91  F   UNL     1      -5.700  -6.438  17.542  1.00  0.00    -0.203 F 
ATOM     92  C   UNL     1      -6.266  -6.596  19.821  1.00  0.00     0.198 A 
ATOM     93  C   UNL     1      -4.675  -5.969  21.503  1.00  0.00     0.198 A 
ATOM     94  F   UNL     1      -2.564  -5.143  20.879  1.00  0.00    -0.203 F 
ATOM     95  F   UNL     1      -7.490  -7.027  19.485  1.00  0.00    -0.200 F 
ATOM     96  C   UNL     1      -5.929  -6.446  21.158  1.00  0.00     0.200 A 
ATOM     97  F   UNL     1      -4.338  -5.841  22.794  1.00  0.00    -0.200 F 
ATOM     98  F   UNL     1      -6.817  -6.753  22.113  1.00  0.00    -0.200 F 
ENDBRANCH  65  88
ENDBRANCH  39  40
ENDBRANCH  32  34
ENDBRANCH  31  32
ENDBRANCH  30  31
ENDBRANCH  29  30
ENDBRANCH  28  29
ENDBRANCH  27  28
ENDBRANCH  26  27
ENDBRANCH  25  26
ENDBRANCH   1  25
TORSDOF 25
