REMARK SMILES C[C@@H]([C@H]1CC=CS1)n1nccc1NC(=O)CC1(CC(=O)OCCOCCOCCOCCOC(=O)c2ccc(-c3c4nc(c(-c5c(F)c(F)c(F)c(F)c5F)c5ccc([nH]5)c(-c5c(F)c(F)c(F)c(F)c5F)c5nc(c(-c6c(F)c(F)c(F)c(F)c6F)c6ccc3[nH]6)C=C5)C=C4)cc2)CCCCC1
REMARK SMILES IDX 25 1 24 2 23 3 22 4 21 5 19 6 20 7 18 8 17 9 99 10 103 11
REMARK SMILES IDX 100 12 102 13 101 14 16 15 14 16 13 17 15 19 12 20 8 21 9 22
REMARK SMILES IDX 10 23 11 24 2 25 1 26 3 27 4 28 7 29 5 30 6 31 26 32 27 33
REMARK SMILES IDX 28 34 29 35 30 36 31 37 32 38 33 39 34 40 35 41 36 42 37 43
REMARK SMILES IDX 98 44 38 45 97 46 39 47 40 48 41 49 91 50 42 51 96 52 90 53
REMARK SMILES IDX 92 54 43 55 95 56 89 57 88 58 44 60 76 61 56 62 75 63 57 64
REMARK SMILES IDX 60 65 74 66 93 67 58 68 59 69 73 71 94 72 61 73 45 74 46 75
REMARK SMILES IDX 54 76 47 77 48 78 52 79 55 80 49 81 50 82 53 83 51 84 77 85
REMARK SMILES IDX 78 86 86 87 79 88 80 89 84 90 87 91 81 92 82 93 85 94 83 95
REMARK SMILES IDX 62 96 63 97 71 98 64 99 65 100 69 101 72 102 66 103 67 104
REMARK SMILES IDX 70 105 68 106
REMARK H PARENT 13 18 92 59 60 70
REMARK Flexibility Score: inf
ROOT
ATOM      1  C   UNL     1       1.968   9.745  -1.849  1.00  0.00     0.188 C 
ENDROOT
BRANCH   1   2
ATOM      2  O   UNL     1       2.621  10.979  -2.108  1.00  0.00    -0.376 OA
BRANCH   2   3
ATOM      3  C   UNL     1       3.237  11.127  -3.390  1.00  0.00     0.202 C 
BRANCH   3   4
ATOM      4  C   UNL     1       4.175   9.992  -3.847  1.00  0.00     0.261 C 
BRANCH   4   5
ATOM      5  O   UNL     1       3.461   8.777  -4.197  1.00  0.00    -0.463 OA
BRANCH   5   6
ATOM      6  C   UNL     1       3.946   7.608  -3.718  1.00  0.00     0.306 C 
ATOM      7  O   UNL     1       5.012   7.503  -3.119  1.00  0.00    -0.252 OA
BRANCH   6   8
ATOM      8  C   UNL     1       2.963   6.436  -3.796  1.00  0.00     0.130 C 
BRANCH   8   9
ATOM      9  C   UNL     1       2.189   5.999  -5.086  1.00  0.00    -0.010 C 
ATOM     10  C   UNL     1       2.438   4.484  -5.338  1.00  0.00     0.008 C 
ATOM     11  C   UNL     1       2.627   6.756  -6.372  1.00  0.00     0.008 C 
ATOM     12  C   UNL     1       3.821   4.112  -5.858  1.00  0.00     0.001 C 
ATOM     13  C   UNL     1       4.023   6.389  -6.876  1.00  0.00     0.001 C 
ATOM     14  C   UNL     1       4.148   4.891  -7.121  1.00  0.00     0.000 C 
BRANCH   9  15
ATOM     15  C   UNL     1       0.631   6.201  -4.952  1.00  0.00     0.108 C 
BRANCH  15  16
ATOM     16  C   UNL     1      -0.115   5.699  -3.725  1.00  0.00     0.226 C 
ATOM     17  N   UNL     1      -0.463   4.343  -3.467  1.00  0.00    -0.311 N 
ATOM     18  H   UNL     1      -0.828   4.162  -2.571  1.00  0.00     0.171 HD
ATOM     19  O   UNL     1      -0.477   6.438  -2.821  1.00  0.00    -0.275 OA
BRANCH  17  20
ATOM     20  C   UNL     1      -0.360   3.252  -4.294  1.00  0.00     0.131 A 
ATOM     21  N   UNL     1      -0.063   1.962  -3.900  1.00  0.00    -0.246 N 
ATOM     22  N   UNL     1       0.186   1.157  -4.956  1.00  0.00    -0.179 NA
ATOM     23  C   UNL     1      -0.172   1.890  -6.011  1.00  0.00     0.137 A 
ATOM     24  C   UNL     1      -0.571   3.189  -5.650  1.00  0.00     0.068 A 
BRANCH  21  25
ATOM     25  C   UNL     1      -0.119   1.408  -2.548  1.00  0.00     0.120 C 
ATOM     26  C   UNL     1      -0.510  -0.080  -2.565  1.00  0.00     0.034 C 
BRANCH  25  27
ATOM     27  C   UNL     1       1.131   1.617  -1.668  1.00  0.00     0.079 C 
ATOM     28  C   UNL     1       2.432   0.955  -2.147  1.00  0.00     0.045 C 
ATOM     29  S   UNL     1       1.583   3.368  -1.314  1.00  0.00    -0.128 SA
ATOM     30  C   UNL     1       3.566   1.747  -1.566  1.00  0.00    -0.019 C 
ATOM     31  C   UNL     1       3.256   2.970  -1.127  1.00  0.00     0.037 C 
ENDBRANCH  25  27
ENDBRANCH  21  25
ENDBRANCH  17  20
ENDBRANCH  15  16
ENDBRANCH   9  15
ENDBRANCH   8   9
ENDBRANCH   6   8
ENDBRANCH   5   6
ENDBRANCH   4   5
ENDBRANCH   3   4
ENDBRANCH   2   3
ENDBRANCH   1   2
BRANCH   1  32
ATOM     32  C   UNL     1       0.755   9.449  -2.724  1.00  0.00     0.188 C 
BRANCH  32  33
ATOM     33  O   UNL     1       1.016   9.479  -4.120  1.00  0.00    -0.377 OA
BRANCH  33  34
ATOM     34  C   UNL     1       0.189  10.258  -4.984  1.00  0.00     0.188 C 
BRANCH  34  35
ATOM     35  C   UNL     1      -0.864  11.162  -4.344  1.00  0.00     0.188 C 
BRANCH  35  36
ATOM     36  O   UNL     1      -1.925  10.542  -3.602  1.00  0.00    -0.376 OA
BRANCH  36  37
ATOM     37  C   UNL     1      -2.248   9.173  -3.826  1.00  0.00     0.202 C 
BRANCH  37  38
ATOM     38  C   UNL     1      -3.265   8.944  -4.921  1.00  0.00     0.261 C 
BRANCH  38  39
ATOM     39  O   UNL     1      -2.691   9.290  -6.172  1.00  0.00    -0.460 OA
BRANCH  39  40
ATOM     40  C   UNL     1      -2.971  10.542  -6.571  1.00  0.00     0.338 C 
ATOM     41  O   UNL     1      -3.456  11.456  -5.906  1.00  0.00    -0.246 OA
BRANCH  40  42
ATOM     42  C   UNL     1      -2.857  10.596  -8.021  1.00  0.00     0.060 A 
ATOM     43  C   UNL     1      -3.261  11.797  -8.606  1.00  0.00     0.016 A 
ATOM     44  C   UNL     1      -2.803   9.383  -8.726  1.00  0.00     0.016 A 
ATOM     45  C   UNL     1      -3.864  11.732  -9.833  1.00  0.00     0.010 A 
ATOM     46  C   UNL     1      -3.442   9.314  -9.933  1.00  0.00     0.010 A 
ATOM     47  C   UNL     1      -4.021  10.477 -10.432  1.00  0.00    -0.014 A 
BRANCH  47  48
ATOM     48  C   UNL     1      -4.633  10.442 -11.735  1.00  0.00     0.031 A 
ATOM     49  C   UNL     1      -3.698  10.952 -12.755  1.00  0.00     0.074 A 
ATOM     50  C   UNL     1      -5.843   9.900 -11.953  1.00  0.00     0.049 A 
ATOM     51  N   UNL     1      -3.813  12.031 -13.448  1.00  0.00    -0.248 NA
ATOM     52  C   UNL     1      -2.375  10.307 -12.863  1.00  0.00     0.031 C 
ATOM     53  C   UNL     1      -6.637   9.119 -10.999  1.00  0.00     0.029 A 
ATOM     54  N   UNL     1      -6.566   9.819 -13.104  1.00  0.00    -0.354 N 
ATOM     55  C   UNL     1      -2.695  12.044 -14.273  1.00  0.00     0.074 A 
ATOM     56  C   UNL     1      -1.748  11.130 -13.702  1.00  0.00     0.031 C 
ATOM     57  C   UNL     1      -7.601   8.454 -11.672  1.00  0.00     0.029 A 
ATOM     58  C   UNL     1      -7.564   8.855 -13.069  1.00  0.00     0.049 A 
ATOM     59  H   UNL     1      -6.397  10.392 -13.887  1.00  0.00     0.167 HD
ATOM     60  C   UNL     1      -2.828  12.484 -15.550  1.00  0.00     0.037 A 
ATOM     61  C   UNL     1      -8.245   8.371 -14.136  1.00  0.00     0.037 A 
ATOM     62  C   UNL     1      -4.014  13.291 -15.683  1.00  0.00     0.049 A 
ATOM     63  C   UNL     1      -8.117   9.354 -15.240  1.00  0.00     0.074 A 
ATOM     64  C   UNL     1      -4.401  14.568 -15.343  1.00  0.00     0.029 A 
ATOM     65  N   UNL     1      -5.153  12.568 -15.914  1.00  0.00    -0.354 N 
ATOM     66  N   UNL     1      -8.665  10.538 -15.219  1.00  0.00    -0.248 NA
ATOM     67  C   UNL     1      -7.087   9.162 -16.259  1.00  0.00     0.031 C 
ATOM     68  C   UNL     1      -5.827  14.563 -15.306  1.00  0.00     0.029 A 
ATOM     69  C   UNL     1      -6.282  13.291 -15.645  1.00  0.00     0.049 A 
ATOM     70  H   UNL     1      -5.159  11.637 -16.235  1.00  0.00     0.167 HD
ATOM     71  C   UNL     1      -7.775  11.337 -15.908  1.00  0.00     0.074 A 
ATOM     72  C   UNL     1      -6.939  10.424 -16.673  1.00  0.00     0.031 C 
ATOM     73  C   UNL     1      -7.560  12.627 -15.526  1.00  0.00     0.037 A 
BRANCH  60  74
ATOM     74  C   UNL     1      -2.257  11.753 -16.751  1.00  0.00     0.064 A 
ATOM     75  C   UNL     1      -2.453  12.324 -18.025  1.00  0.00     0.173 A 
ATOM     76  C   UNL     1      -1.840  10.402 -16.755  1.00  0.00     0.173 A 
ATOM     77  F   UNL     1      -2.858  13.597 -18.145  1.00  0.00    -0.203 F 
ATOM     78  C   UNL     1      -2.330  11.576 -19.198  1.00  0.00     0.198 A 
ATOM     79  C   UNL     1      -1.672   9.673 -17.930  1.00  0.00     0.198 A 
ATOM     80  F   UNL     1      -1.683   9.686 -15.637  1.00  0.00    -0.203 F 
ATOM     81  F   UNL     1      -2.653  12.129 -20.375  1.00  0.00    -0.200 F 
ATOM     82  C   UNL     1      -1.949  10.248 -19.149  1.00  0.00     0.200 A 
ATOM     83  F   UNL     1      -1.323   8.380 -17.856  1.00  0.00    -0.200 F 
ATOM     84  F   UNL     1      -1.893   9.511 -20.265  1.00  0.00    -0.200 F 
ENDBRANCH  60  74
BRANCH  61  85
ATOM     85  C   UNL     1      -8.802   7.013 -14.347  1.00  0.00     0.064 A 
ATOM     86  C   UNL     1      -9.709   6.765 -15.391  1.00  0.00     0.173 A 
ATOM     87  C   UNL     1      -8.262   5.879 -13.708  1.00  0.00     0.173 A 
ATOM     88  F   UNL     1     -10.243   7.786 -16.078  1.00  0.00    -0.203 F 
ATOM     89  C   UNL     1     -10.024   5.465 -15.799  1.00  0.00     0.198 A 
ATOM     90  C   UNL     1      -8.589   4.582 -14.105  1.00  0.00     0.198 A 
ATOM     91  F   UNL     1      -7.334   6.000 -12.749  1.00  0.00    -0.203 F 
ATOM     92  F   UNL     1     -10.834   5.273 -16.849  1.00  0.00    -0.200 F 
ATOM     93  C   UNL     1      -9.455   4.375 -15.162  1.00  0.00     0.200 A 
ATOM     94  F   UNL     1      -8.008   3.537 -13.499  1.00  0.00    -0.200 F 
ATOM     95  F   UNL     1      -9.705   3.131 -15.593  1.00  0.00    -0.200 F 
ENDBRANCH  61  85
BRANCH  73  96
ATOM     96  C   UNL     1      -8.665  13.331 -14.809  1.00  0.00     0.064 A 
ATOM     97  C   UNL     1      -9.141  12.983 -13.536  1.00  0.00     0.173 A 
ATOM     98  C   UNL     1      -9.222  14.460 -15.427  1.00  0.00     0.173 A 
ATOM     99  F   UNL     1      -8.602  11.963 -12.852  1.00  0.00    -0.203 F 
ATOM    100  C   UNL     1     -10.160  13.716 -12.929  1.00  0.00     0.198 A 
ATOM    101  C   UNL     1     -10.209  15.213 -14.802  1.00  0.00     0.198 A 
ATOM    102  F   UNL     1      -8.777  14.855 -16.631  1.00  0.00    -0.203 F 
ATOM    103  F   UNL     1     -10.619  13.355 -11.722  1.00  0.00    -0.200 F 
ATOM    104  C   UNL     1     -10.687  14.834 -13.559  1.00  0.00     0.200 A 
ATOM    105  F   UNL     1     -10.682  16.315 -15.399  1.00  0.00    -0.200 F 
ATOM    106  F   UNL     1     -11.641  15.559 -12.959  1.00  0.00    -0.200 F 
ENDBRANCH  73  96
ENDBRANCH  47  48
ENDBRANCH  40  42
ENDBRANCH  39  40
ENDBRANCH  38  39
ENDBRANCH  37  38
ENDBRANCH  36  37
ENDBRANCH  35  36
ENDBRANCH  34  35
ENDBRANCH  33  34
ENDBRANCH  32  33
ENDBRANCH   1  32
TORSDOF 26
