REMARK SMILES COc1cccc([C@@H]2C[N@@H+](Cc3nccn3C)C[C@H]2C(=O)OCCOCCOCCOCCOC(=O)c2ccc(-c3c4nc(c(-c5c(F)c(F)c(F)c(F)c5F)c5ccc([nH]5)c(-c5c(F)c(F)c(F)c(F)c5F)c5nc(c(-c6c(F)c(F)c(F)c(F)c6F)c6ccc3[nH]6)C=C5)C=C4)cc2)c1
REMARK SMILES IDX 28 1 27 2 26 3 25 4 24 5 23 6 22 7 20 8 21 9 19 10 8 11 9 12
REMARK SMILES IDX 10 13 18 14 7 16 3 17 4 18 100 19 5 20 6 21 2 22 1 23 11 24
REMARK SMILES IDX 12 25 13 26 16 27 14 28 15 29 17 30 29 31 30 32 31 33 32 34
REMARK SMILES IDX 33 35 34 36 35 37 36 38 37 39 38 40 99 41 39 42 98 43 40 44
REMARK SMILES IDX 41 45 42 46 92 47 43 48 97 49 91 50 93 51 44 52 96 53 90 54
REMARK SMILES IDX 89 55 45 57 77 58 57 59 76 60 58 61 61 62 75 63 94 64 59 65
REMARK SMILES IDX 60 66 74 68 95 69 62 70 46 71 47 72 55 73 48 74 49 75 53 76
REMARK SMILES IDX 56 77 50 78 51 79 54 80 52 81 78 82 79 83 87 84 80 85 81 86
REMARK SMILES IDX 85 87 88 88 82 89 83 90 86 91 84 92 63 93 64 94 72 95 65 96
REMARK SMILES IDX 66 97 70 98 73 99 67 100 68 101 71 102 69 103
REMARK H PARENT 10 15 93 56 61 67
REMARK Flexibility Score: inf
ROOT
ATOM      1  O   UNL     1       2.283  -0.789  -6.428  1.00  0.00    -0.377 OA
ENDROOT
BRANCH   1   2
ATOM      2  C   UNL     1       1.780  -0.028  -5.346  1.00  0.00     0.188 C 
BRANCH   2   3
ATOM      3  C   UNL     1       1.964   1.491  -5.367  1.00  0.00     0.188 C 
BRANCH   3   4
ATOM      4  O   UNL     1       2.256   2.092  -6.607  1.00  0.00    -0.376 OA
BRANCH   4   5
ATOM      5  C   UNL     1       3.538   1.953  -7.187  1.00  0.00     0.202 C 
BRANCH   5   6
ATOM      6  C   UNL     1       4.766   1.303  -6.516  1.00  0.00     0.261 C 
BRANCH   6   7
ATOM      7  O   UNL     1       4.584   0.210  -5.595  1.00  0.00    -0.463 OA
BRANCH   7   8
ATOM      8  C   UNL     1       4.960   0.434  -4.313  1.00  0.00     0.315 C 
ATOM      9  O   UNL     1       5.388   1.519  -3.922  1.00  0.00    -0.252 OA
BRANCH   8  10
ATOM     10  C   UNL     1       4.931  -0.758  -3.368  1.00  0.00     0.167 C 
ATOM     11  C   UNL     1       4.144  -2.055  -3.641  1.00  0.00     0.094 C 
ATOM     12  C   UNL     1       5.071  -3.137  -3.063  1.00  0.00     0.272 C 
ATOM     13  N   UNL     1       6.440  -2.667  -3.288  1.00  0.00    -0.327 N 
ATOM     14  C   UNL     1       6.388  -1.209  -3.198  1.00  0.00     0.278 C 
ATOM     15  H   UNL     1       7.075  -3.026  -2.575  1.00  0.00     0.348 HD
BRANCH  11  16
ATOM     16  C   UNL     1       2.749  -2.253  -3.046  1.00  0.00    -0.035 A 
ATOM     17  C   UNL     1       0.980  -1.777  -1.433  1.00  0.00     0.119 A 
ATOM     18  C   UNL     1       0.132  -2.666  -2.092  1.00  0.00     0.046 A 
ATOM     19  C   UNL     1       2.290  -1.593  -1.894  1.00  0.00     0.050 A 
ATOM     20  C   UNL     1       0.580  -3.361  -3.211  1.00  0.00     0.004 A 
ATOM     21  C   UNL     1       1.875  -3.153  -3.687  1.00  0.00     0.004 A 
BRANCH  17  22
ATOM     22  O   UNL     1       0.436  -1.173  -0.332  1.00  0.00    -0.497 OA
ATOM     23  C   UNL     1       1.028   0.058   0.068  1.00  0.00     0.278 C 
ENDBRANCH  17  22
ENDBRANCH  11  16
BRANCH  13  24
ATOM     24  C   UNL     1       7.069  -3.211  -4.505  1.00  0.00     0.339 C 
BRANCH  24  25
ATOM     25  C   UNL     1       6.283  -3.120  -5.785  1.00  0.00     0.164 A 
ATOM     26  N   UNL     1       5.327  -3.962  -6.147  1.00  0.00    -0.236 NA
ATOM     27  N   UNL     1       6.454  -2.160  -6.757  1.00  0.00    -0.333 N 
ATOM     28  C   UNL     1       4.828  -3.492  -7.331  1.00  0.00     0.131 A 
ATOM     29  C   UNL     1       5.508  -2.367  -7.725  1.00  0.00     0.107 A 
ATOM     30  C   UNL     1       7.443  -1.112  -6.784  1.00  0.00     0.151 C 
ENDBRANCH  24  25
ENDBRANCH  13  24
ENDBRANCH   8  10
ENDBRANCH   7   8
ENDBRANCH   6   7
ENDBRANCH   5   6
ENDBRANCH   4   5
ENDBRANCH   3   4
ENDBRANCH   2   3
ENDBRANCH   1   2
BRANCH   1  31
ATOM     31  C   UNL     1       1.670  -0.710  -7.704  1.00  0.00     0.188 C 
BRANCH  31  32
ATOM     32  C   UNL     1       0.380   0.102  -7.919  1.00  0.00     0.188 C 
BRANCH  32  33
ATOM     33  O   UNL     1      -0.434   0.238  -6.771  1.00  0.00    -0.376 OA
BRANCH  33  34
ATOM     34  C   UNL     1      -1.500  -0.676  -6.572  1.00  0.00     0.202 C 
BRANCH  34  35
ATOM     35  C   UNL     1      -1.197  -2.181  -6.528  1.00  0.00     0.261 C 
BRANCH  35  36
ATOM     36  O   UNL     1      -0.505  -2.745  -7.651  1.00  0.00    -0.460 OA
BRANCH  36  37
ATOM     37  C   UNL     1      -1.097  -2.699  -8.860  1.00  0.00     0.338 C 
ATOM     38  O   UNL     1      -2.187  -2.231  -9.139  1.00  0.00    -0.246 OA
BRANCH  37  39
ATOM     39  C   UNL     1      -0.104  -3.178  -9.843  1.00  0.00     0.060 A 
ATOM     40  C   UNL     1       0.420  -2.284 -10.785  1.00  0.00     0.016 A 
ATOM     41  C   UNL     1       0.324  -4.507  -9.812  1.00  0.00     0.016 A 
ATOM     42  C   UNL     1       1.364  -2.724 -11.715  1.00  0.00     0.010 A 
ATOM     43  C   UNL     1       1.250  -4.952 -10.759  1.00  0.00     0.010 A 
ATOM     44  C   UNL     1       1.756  -4.069 -11.729  1.00  0.00    -0.014 A 
BRANCH  44  45
ATOM     45  C   UNL     1       2.566  -4.600 -12.851  1.00  0.00     0.031 A 
ATOM     46  C   UNL     1       1.857  -5.303 -13.974  1.00  0.00     0.074 A 
ATOM     47  C   UNL     1       3.904  -4.473 -12.865  1.00  0.00     0.049 A 
ATOM     48  N   UNL     1       2.353  -5.940 -15.004  1.00  0.00    -0.248 NA
ATOM     49  C   UNL     1       0.387  -5.288 -13.926  1.00  0.00     0.031 C 
ATOM     50  C   UNL     1       4.696  -3.775 -11.856  1.00  0.00     0.029 A 
ATOM     51  N   UNL     1       4.835  -4.949 -13.756  1.00  0.00    -0.354 N 
ATOM     52  C   UNL     1       1.258  -6.411 -15.716  1.00  0.00     0.074 A 
ATOM     53  C   UNL     1       0.073  -6.007 -14.992  1.00  0.00     0.031 C 
ATOM     54  C   UNL     1       5.998  -3.889 -12.170  1.00  0.00     0.029 A 
ATOM     55  C   UNL     1       6.132  -4.704 -13.378  1.00  0.00     0.049 A 
ATOM     56  H   UNL     1       4.595  -5.421 -14.586  1.00  0.00     0.167 HD
ATOM     57  C   UNL     1       1.246  -7.115 -16.873  1.00  0.00     0.037 A 
ATOM     58  C   UNL     1       7.290  -5.125 -13.925  1.00  0.00     0.037 A 
ATOM     59  C   UNL     1       2.431  -7.519 -17.582  1.00  0.00     0.049 A 
ATOM     60  C   UNL     1       7.249  -5.989 -15.162  1.00  0.00     0.074 A 
ATOM     61  C   UNL     1       2.527  -8.211 -18.776  1.00  0.00     0.029 A 
ATOM     62  N   UNL     1       3.728  -7.279 -17.152  1.00  0.00    -0.354 N 
ATOM     63  N   UNL     1       6.213  -6.400 -15.853  1.00  0.00    -0.248 NA
ATOM     64  C   UNL     1       8.540  -6.455 -15.690  1.00  0.00     0.031 C 
ATOM     65  C   UNL     1       3.881  -8.449 -19.033  1.00  0.00     0.029 A 
ATOM     66  C   UNL     1       4.631  -7.848 -18.035  1.00  0.00     0.049 A 
ATOM     67  H   UNL     1       3.971  -6.780 -16.338  1.00  0.00     0.167 HD
ATOM     68  C   UNL     1       6.726  -7.148 -16.907  1.00  0.00     0.074 A 
ATOM     69  C   UNL     1       8.167  -7.118 -16.775  1.00  0.00     0.031 C 
ATOM     70  C   UNL     1       6.064  -7.804 -17.892  1.00  0.00     0.037 A 
BRANCH  57  71
ATOM     71  C   UNL     1      -0.088  -7.528 -17.424  1.00  0.00     0.064 A 
ATOM     72  C   UNL     1      -0.985  -6.597 -17.970  1.00  0.00     0.173 A 
ATOM     73  C   UNL     1      -0.457  -8.882 -17.444  1.00  0.00     0.173 A 
ATOM     74  F   UNL     1      -0.687  -5.289 -17.964  1.00  0.00    -0.203 F 
ATOM     75  C   UNL     1      -2.211  -7.004 -18.491  1.00  0.00     0.198 A 
ATOM     76  C   UNL     1      -1.668  -9.288 -17.995  1.00  0.00     0.198 A 
ATOM     77  F   UNL     1       0.365  -9.814 -16.939  1.00  0.00    -0.203 F 
ATOM     78  F   UNL     1      -3.071  -6.092 -18.964  1.00  0.00    -0.200 F 
ATOM     79  C   UNL     1      -2.547  -8.349 -18.511  1.00  0.00     0.200 A 
ATOM     80  F   UNL     1      -1.985 -10.590 -18.027  1.00  0.00    -0.200 F 
ATOM     81  F   UNL     1      -3.723  -8.739 -19.024  1.00  0.00    -0.200 F 
ENDBRANCH  57  71
BRANCH  58  82
ATOM     82  C   UNL     1       8.588  -4.769 -13.292  1.00  0.00     0.064 A 
ATOM     83  C   UNL     1       9.511  -3.942 -13.946  1.00  0.00     0.173 A 
ATOM     84  C   UNL     1       8.947  -5.272 -12.031  1.00  0.00     0.173 A 
ATOM     85  F   UNL     1       9.229  -3.457 -15.165  1.00  0.00    -0.203 F 
ATOM     86  C   UNL     1      10.748  -3.647 -13.375  1.00  0.00     0.198 A 
ATOM     87  C   UNL     1      10.169  -4.948 -11.445  1.00  0.00     0.198 A 
ATOM     88  F   UNL     1       8.104  -6.072 -11.362  1.00  0.00    -0.203 F 
ATOM     89  F   UNL     1      11.631  -2.895 -14.046  1.00  0.00    -0.200 F 
ATOM     90  C   UNL     1      11.073  -4.144 -12.122  1.00  0.00     0.200 A 
ATOM     91  F   UNL     1      10.472  -5.417 -10.227  1.00  0.00    -0.200 F 
ATOM     92  F   UNL     1      12.259  -3.853 -11.570  1.00  0.00    -0.200 F 
ENDBRANCH  58  82
BRANCH  70  93
ATOM     93  C   UNL     1       6.886  -8.523 -18.924  1.00  0.00     0.064 A 
ATOM     94  C   UNL     1       7.584  -9.701 -18.620  1.00  0.00     0.173 A 
ATOM     95  C   UNL     1       6.921  -8.064 -20.251  1.00  0.00     0.173 A 
ATOM     96  F   UNL     1       7.595 -10.174 -17.365  1.00  0.00    -0.203 F 
ATOM     97  C   UNL     1       8.301 -10.382 -19.601  1.00  0.00     0.198 A 
ATOM     98  C   UNL     1       7.611  -8.766 -21.235  1.00  0.00     0.198 A 
ATOM     99  F   UNL     1       6.264  -6.947 -20.598  1.00  0.00    -0.203 F 
ATOM    100  F   UNL     1       8.996 -11.481 -19.278  1.00  0.00    -0.200 F 
ATOM    101  C   UNL     1       8.305  -9.920 -20.909  1.00  0.00     0.200 A 
ATOM    102  F   UNL     1       7.597  -8.328 -22.502  1.00  0.00    -0.200 F 
ATOM    103  F   UNL     1       8.982 -10.586 -21.854  1.00  0.00    -0.200 F 
ENDBRANCH  70  93
ENDBRANCH  44  45
ENDBRANCH  37  39
ENDBRANCH  36  37
ENDBRANCH  35  36
ENDBRANCH  34  35
ENDBRANCH  33  34
ENDBRANCH  32  33
ENDBRANCH  31  32
ENDBRANCH   1  31
TORSDOF 24
