REMARK SMILES O=C(OCCOCCOCCOCCOC(=O)[C@@H]1CCCC[C@H]1C(=O)Nc1cccc(-c2nnc(-c3ccccc3)o2)c1)c1ccc(-c2c3nc(c(-c4c(F)c(F)c(F)c(F)c4F)c4ccc([nH]4)c(-c4c(F)c(F)c(F)c(F)c4F)c4nc(c(-c5c(F)c(F)c(F)c(F)c5F)c5ccc2[nH]5)C=C4)C=C3)cc1
REMARK SMILES IDX 10 1 9 2 8 3 7 4 6 5 5 6 4 7 3 8 2 9 1 10 44 11 45 12 106 13
REMARK SMILES IDX 46 14 105 15 47 16 48 17 49 18 99 19 50 20 104 21 98 22
REMARK SMILES IDX 100 23 51 24 103 25 97 26 96 27 52 29 84 30 64 31 83 32
REMARK SMILES IDX 65 33 68 34 82 35 101 36 66 37 67 38 81 40 102 41 69 42
REMARK SMILES IDX 53 43 54 44 62 45 55 46 56 47 60 48 63 49 57 50 58 51 61 52
REMARK SMILES IDX 59 53 85 54 86 55 94 56 87 57 88 58 92 59 95 60 89 61 90 62
REMARK SMILES IDX 93 63 91 64 70 65 71 66 79 67 72 68 73 69 77 70 80 71 74 72
REMARK SMILES IDX 75 73 78 74 76 75 11 76 12 77 13 78 14 79 15 80 16 81 17 82
REMARK SMILES IDX 18 83 19 84 23 85 20 86 22 87 21 88 24 89 25 90 26 91 27 93
REMARK SMILES IDX 28 94 43 95 29 96 31 97 30 98 32 99 33 100 42 101 34 102
REMARK SMILES IDX 35 103 36 104 37 105 41 106 38 107 40 108 39 109
REMARK H PARENT 100 28 68 39 26 92
REMARK Flexibility Score: inf
ROOT
ATOM      1  C   UNL     1       4.636   2.970   1.630  1.00  0.00     0.188 C 
ENDROOT
BRANCH   1   2
ATOM      2  O   UNL     1       3.323   3.502   1.482  1.00  0.00    -0.377 OA
BRANCH   2   3
ATOM      3  C   UNL     1       2.217   2.618   1.306  1.00  0.00     0.188 C 
BRANCH   3   4
ATOM      4  C   UNL     1       2.378   1.541   0.243  1.00  0.00     0.188 C 
BRANCH   4   5
ATOM      5  O   UNL     1       3.567   0.836   0.510  1.00  0.00    -0.376 OA
BRANCH   5   6
ATOM      6  C   UNL     1       4.403   0.464  -0.569  1.00  0.00     0.202 C 
BRANCH   6   7
ATOM      7  C   UNL     1       3.790  -0.468  -1.600  1.00  0.00     0.261 C 
BRANCH   7   8
ATOM      8  O   UNL     1       2.407  -0.812  -1.370  1.00  0.00    -0.460 OA
BRANCH   8   9
ATOM      9  C   UNL     1       1.880  -1.788  -0.587  1.00  0.00     0.338 C 
ATOM     10  O   UNL     1       0.695  -2.087  -0.697  1.00  0.00    -0.246 OA
BRANCH   9  11
ATOM     11  C   UNL     1       2.713  -2.539   0.381  1.00  0.00     0.060 A 
ATOM     12  C   UNL     1       3.668  -1.917   1.159  1.00  0.00     0.016 A 
ATOM     13  C   UNL     1       2.471  -3.888   0.633  1.00  0.00     0.016 A 
ATOM     14  C   UNL     1       4.602  -2.604   1.882  1.00  0.00     0.010 A 
ATOM     15  C   UNL     1       3.259  -4.572   1.571  1.00  0.00     0.010 A 
ATOM     16  C   UNL     1       4.369  -3.936   2.152  1.00  0.00    -0.014 A 
BRANCH  16  17
ATOM     17  C   UNL     1       5.391  -4.611   2.965  1.00  0.00     0.031 A 
ATOM     18  C   UNL     1       6.199  -5.674   2.299  1.00  0.00     0.074 A 
ATOM     19  C   UNL     1       5.714  -4.121   4.180  1.00  0.00     0.049 A 
ATOM     20  N   UNL     1       7.093  -6.472   2.809  1.00  0.00    -0.248 NA
ATOM     21  C   UNL     1       5.981  -5.856   0.852  1.00  0.00     0.031 C 
ATOM     22  C   UNL     1       5.099  -2.947   4.820  1.00  0.00     0.029 A 
ATOM     23  N   UNL     1       6.677  -4.505   5.072  1.00  0.00    -0.354 N 
ATOM     24  C   UNL     1       7.503  -7.280   1.760  1.00  0.00     0.074 A 
ATOM     25  C   UNL     1       6.764  -6.887   0.585  1.00  0.00     0.031 C 
ATOM     26  C   UNL     1       5.728  -2.689   5.976  1.00  0.00     0.029 A 
ATOM     27  C   UNL     1       6.697  -3.745   6.218  1.00  0.00     0.049 A 
ATOM     28  H   UNL     1       7.295  -5.254   4.910  1.00  0.00     0.167 HD
ATOM     29  C   UNL     1       8.421  -8.271   1.797  1.00  0.00     0.037 A 
ATOM     30  C   UNL     1       7.380  -3.934   7.360  1.00  0.00     0.037 A 
ATOM     31  C   UNL     1       9.137  -8.617   2.992  1.00  0.00     0.049 A 
ATOM     32  C   UNL     1       8.291  -5.131   7.416  1.00  0.00     0.074 A 
ATOM     33  C   UNL     1      10.008  -9.664   3.210  1.00  0.00     0.029 A 
ATOM     34  N   UNL     1       9.058  -7.898   4.180  1.00  0.00    -0.354 N 
ATOM     35  N   UNL     1       8.586  -5.989   6.466  1.00  0.00    -0.248 NA
ATOM     36  C   UNL     1       8.947  -5.401   8.698  1.00  0.00     0.031 C 
ATOM     37  C   UNL     1      10.424  -9.604   4.545  1.00  0.00     0.029 A 
ATOM     38  C   UNL     1       9.859  -8.484   5.141  1.00  0.00     0.049 A 
ATOM     39  H   UNL     1       8.512  -7.090   4.316  1.00  0.00     0.167 HD
ATOM     40  C   UNL     1       9.472  -6.893   7.030  1.00  0.00     0.074 A 
ATOM     41  C   UNL     1       9.692  -6.453   8.395  1.00  0.00     0.031 C 
ATOM     42  C   UNL     1      10.046  -7.995   6.484  1.00  0.00     0.037 A 
BRANCH  29  43
ATOM     43  C   UNL     1       8.609  -9.069   0.545  1.00  0.00     0.064 A 
ATOM     44  C   UNL     1       9.233  -8.536  -0.593  1.00  0.00     0.173 A 
ATOM     45  C   UNL     1       8.103 -10.375   0.465  1.00  0.00     0.173 A 
ATOM     46  F   UNL     1       9.690  -7.274  -0.585  1.00  0.00    -0.203 F 
ATOM     47  C   UNL     1       9.324  -9.274  -1.771  1.00  0.00     0.198 A 
ATOM     48  C   UNL     1       8.222 -11.120  -0.705  1.00  0.00     0.198 A 
ATOM     49  F   UNL     1       7.475 -10.921   1.516  1.00  0.00    -0.203 F 
ATOM     50  F   UNL     1       9.866  -8.721  -2.866  1.00  0.00    -0.200 F 
ATOM     51  C   UNL     1       8.825 -10.567  -1.823  1.00  0.00     0.200 A 
ATOM     52  F   UNL     1       7.734 -12.367  -0.754  1.00  0.00    -0.200 F 
ATOM     53  F   UNL     1       8.908 -11.273  -2.959  1.00  0.00    -0.200 F 
ENDBRANCH  29  43
BRANCH  30  54
ATOM     54  C   UNL     1       7.152  -3.064   8.548  1.00  0.00     0.064 A 
ATOM     55  C   UNL     1       8.194  -2.330   9.133  1.00  0.00     0.173 A 
ATOM     56  C   UNL     1       5.891  -2.992   9.166  1.00  0.00     0.173 A 
ATOM     57  F   UNL     1       9.424  -2.373   8.600  1.00  0.00    -0.203 F 
ATOM     58  C   UNL     1       7.995  -1.597  10.303  1.00  0.00     0.198 A 
ATOM     59  C   UNL     1       5.684  -2.227  10.311  1.00  0.00     0.198 A 
ATOM     60  F   UNL     1       4.853  -3.673   8.659  1.00  0.00    -0.203 F 
ATOM     61  F   UNL     1       9.028  -0.968  10.880  1.00  0.00    -0.200 F 
ATOM     62  C   UNL     1       6.740  -1.543  10.889  1.00  0.00     0.200 A 
ATOM     63  F   UNL     1       4.464  -2.167  10.863  1.00  0.00    -0.200 F 
ATOM     64  F   UNL     1       6.553  -0.848  12.020  1.00  0.00    -0.200 F 
ENDBRANCH  30  54
BRANCH  42  65
ATOM     65  C   UNL     1      10.989  -8.758   7.363  1.00  0.00     0.064 A 
ATOM     66  C   UNL     1      10.532  -9.508   8.456  1.00  0.00     0.173 A 
ATOM     67  C   UNL     1      12.363  -8.757   7.086  1.00  0.00     0.173 A 
ATOM     68  F   UNL     1       9.227  -9.524   8.767  1.00  0.00    -0.203 F 
ATOM     69  C   UNL     1      11.425 -10.201   9.264  1.00  0.00     0.198 A 
ATOM     70  C   UNL     1      13.248  -9.484   7.873  1.00  0.00     0.198 A 
ATOM     71  F   UNL     1      12.844  -8.061   6.044  1.00  0.00    -0.203 F 
ATOM     72  F   UNL     1      10.977 -10.859  10.342  1.00  0.00    -0.200 F 
ATOM     73  C   UNL     1      12.781 -10.195   8.968  1.00  0.00     0.200 A 
ATOM     74  F   UNL     1      14.554  -9.493   7.573  1.00  0.00    -0.200 F 
ATOM     75  F   UNL     1      13.639 -10.870   9.744  1.00  0.00    -0.200 F 
ENDBRANCH  42  65
ENDBRANCH  16  17
ENDBRANCH   9  11
ENDBRANCH   8   9
ENDBRANCH   7   8
ENDBRANCH   6   7
ENDBRANCH   5   6
ENDBRANCH   4   5
ENDBRANCH   3   4
ENDBRANCH   2   3
ENDBRANCH   1   2
BRANCH   1  76
ATOM     76  C   UNL     1       5.140   2.376   2.952  1.00  0.00     0.188 C 
BRANCH  76  77
ATOM     77  O   UNL     1       4.303   1.526   3.705  1.00  0.00    -0.376 OA
BRANCH  77  78
ATOM     78  C   UNL     1       3.303   2.087   4.551  1.00  0.00     0.202 C 
BRANCH  78  79
ATOM     79  C   UNL     1       3.320   3.556   5.027  1.00  0.00     0.261 C 
BRANCH  79  80
ATOM     80  O   UNL     1       3.509   4.501   3.965  1.00  0.00    -0.463 OA
BRANCH  80  81
ATOM     81  C   UNL     1       4.429   5.497   4.159  1.00  0.00     0.309 C 
ATOM     82  O   UNL     1       4.957   5.761   5.217  1.00  0.00    -0.252 OA
BRANCH  81  83
ATOM     83  C   UNL     1       4.832   6.103   2.806  1.00  0.00     0.111 C 
ATOM     84  C   UNL     1       6.369   6.143   2.713  1.00  0.00     0.016 C 
ATOM     85  C   UNL     1       4.072   7.372   2.429  1.00  0.00     0.093 C 
ATOM     86  C   UNL     1       6.905   7.043   1.613  1.00  0.00     0.001 C 
ATOM     87  C   UNL     1       4.812   8.405   1.565  1.00  0.00     0.014 C 
ATOM     88  C   UNL     1       6.319   8.433   1.760  1.00  0.00     0.001 C 
BRANCH  85  89
ATOM     89  C   UNL     1       2.701   7.021   1.812  1.00  0.00     0.228 C 
ATOM     90  O   UNL     1       1.711   7.033   2.558  1.00  0.00    -0.274 OA
ATOM     91  N   UNL     1       2.452   6.775   0.489  1.00  0.00    -0.326 N 
ATOM     92  H   UNL     1       1.492   6.855   0.283  1.00  0.00     0.169 HD
BRANCH  91  93
ATOM     93  C   UNL     1       3.200   6.438  -0.660  1.00  0.00     0.041 A 
ATOM     94  C   UNL     1       2.670   6.795  -1.903  1.00  0.00     0.026 A 
ATOM     95  C   UNL     1       4.393   5.722  -0.661  1.00  0.00     0.040 A 
ATOM     96  C   UNL     1       3.355   6.497  -3.091  1.00  0.00     0.003 A 
ATOM     97  C   UNL     1       5.073   5.357  -1.840  1.00  0.00     0.041 A 
ATOM     98  C   UNL     1       4.554   5.778  -3.061  1.00  0.00     0.014 A 
BRANCH  97  99
ATOM     99  C   UNL     1       6.341   4.644  -1.742  1.00  0.00     0.248 A 
ATOM    100  N   UNL     1       7.551   5.137  -1.590  1.00  0.00    -0.107 NA
ATOM    101  O   UNL     1       6.310   3.272  -1.619  1.00  0.00    -0.416 OA
ATOM    102  N   UNL     1       8.382   4.071  -1.316  1.00  0.00    -0.107 NA
ATOM    103  C   UNL     1       7.633   2.988  -1.349  1.00  0.00     0.248 A 
BRANCH 103 104
ATOM    104  C   UNL     1       7.998   1.612  -1.025  1.00  0.00     0.039 A 
ATOM    105  C   UNL     1       8.840   1.362   0.072  1.00  0.00     0.014 A 
ATOM    106  C   UNL     1       7.572   0.521  -1.797  1.00  0.00     0.014 A 
ATOM    107  C   UNL     1       9.228   0.059   0.403  1.00  0.00     0.001 A 
ATOM    108  C   UNL     1       7.964  -0.785  -1.467  1.00  0.00     0.001 A 
ATOM    109  C   UNL     1       8.787  -1.014  -0.366  1.00  0.00     0.000 A 
ENDBRANCH 103 104
ENDBRANCH  97  99
ENDBRANCH  91  93
ENDBRANCH  85  89
ENDBRANCH  81  83
ENDBRANCH  80  81
ENDBRANCH  79  80
ENDBRANCH  78  79
ENDBRANCH  77  78
ENDBRANCH  76  77
ENDBRANCH   1  76
TORSDOF 24
