REMARK SMILES C[C@@H](CC[NH+](C)C)NC(=O)Cn1cccc1C(=O)OCCOCCOCCOCCOC(=O)c1ccc(-c2c3nc(c(-c4c(F)c(F)c(F)c(F)c4F)c4ccc([nH]4)c(-c4c(F)c(F)c(F)c(F)c4F)c4nc(c(-c5c(F)c(F)c(F)c(F)c5F)c5ccc2[nH]5)C=C4)C=C3)cc1
REMARK SMILES IDX 23 1 22 2 21 3 20 4 19 5 17 6 18 7 16 8 12 9 13 10 14 11
REMARK SMILES IDX 15 12 11 13 9 14 8 15 10 17 2 18 1 19 3 20 4 21 5 22 6 23
REMARK SMILES IDX 7 24 24 26 25 27 26 28 27 29 28 30 29 31 30 32 31 33 32 34
REMARK SMILES IDX 33 35 34 36 35 37 96 38 36 39 95 40 37 41 38 42 39 43 89 44
REMARK SMILES IDX 40 45 94 46 88 47 90 48 41 49 93 50 87 51 86 52 42 54 74 55
REMARK SMILES IDX 54 56 73 57 55 58 58 59 72 60 91 61 56 62 57 63 71 65 92 66
REMARK SMILES IDX 59 67 43 68 44 69 52 70 45 71 46 72 50 73 53 74 47 75 48 76
REMARK SMILES IDX 51 77 49 78 75 79 76 80 84 81 77 82 78 83 82 84 85 85 79 86
REMARK SMILES IDX 80 87 83 88 81 89 60 90 61 91 69 92 62 93 63 94 67 95 70 96
REMARK SMILES IDX 64 97 65 98 68 99 66 100
REMARK H PARENT 8 16 5 25 90 53 58 64
REMARK Flexibility Score: inf
ROOT
ATOM      1  C   UNL     1       4.260   1.444  -1.653  1.00  0.00     0.188 C 
ENDROOT
BRANCH   1   2
ATOM      2  O   UNL     1       4.676   0.455  -0.716  1.00  0.00    -0.376 OA
BRANCH   2   3
ATOM      3  C   UNL     1       3.850  -0.671  -0.483  1.00  0.00     0.202 C 
BRANCH   3   4
ATOM      4  C   UNL     1       2.449  -0.395   0.040  1.00  0.00     0.261 C 
BRANCH   4   5
ATOM      5  O   UNL     1       1.749   0.605  -0.725  1.00  0.00    -0.459 OA
BRANCH   5   6
ATOM      6  C   UNL     1       1.383   1.726  -0.050  1.00  0.00     0.355 C 
ATOM      7  O   UNL     1       1.580   1.903   1.143  1.00  0.00    -0.244 OA
BRANCH   6   8
ATOM      8  C   UNL     1       0.838   2.735  -0.942  1.00  0.00     0.128 A 
ATOM      9  N   UNL     1       0.016   2.637  -2.056  1.00  0.00    -0.333 N 
ATOM     10  C   UNL     1      -0.268   3.907  -2.522  1.00  0.00     0.087 A 
ATOM     11  C   UNL     1       0.387   4.823  -1.742  1.00  0.00     0.020 A 
ATOM     12  C   UNL     1       1.073   4.094  -0.755  1.00  0.00     0.035 A 
BRANCH   9  13
ATOM     13  C   UNL     1      -0.527   1.458  -2.722  1.00  0.00     0.222 C 
BRANCH  13  14
ATOM     14  C   UNL     1      -1.912   1.085  -2.217  1.00  0.00     0.240 C 
ATOM     15  N   UNL     1      -2.076   0.047  -1.343  1.00  0.00    -0.352 N 
ATOM     16  H   UNL     1      -3.005  -0.168  -1.097  1.00  0.00     0.163 HD
ATOM     17  O   UNL     1      -2.920   1.690  -2.591  1.00  0.00    -0.273 OA
BRANCH  15  18
ATOM     18  C   UNL     1      -1.048  -0.777  -0.732  1.00  0.00     0.084 C 
ATOM     19  C   UNL     1      -0.987  -0.517   0.770  1.00  0.00     0.031 C 
BRANCH  18  20
ATOM     20  C   UNL     1      -1.060  -2.219  -1.268  1.00  0.00     0.086 C 
BRANCH  20  21
ATOM     21  C   UNL     1      -0.997  -3.349  -0.240  1.00  0.00     0.263 C 
BRANCH  21  22
ATOM     22  N   UNL     1      -2.282  -3.954   0.130  1.00  0.00    -0.340 N 
ATOM     23  C   UNL     1      -2.075  -4.896   1.233  1.00  0.00     0.332 C 
ATOM     24  C   UNL     1      -3.347  -3.020   0.472  1.00  0.00     0.332 C 
ATOM     25  H   UNL     1      -2.610  -4.424  -0.714  1.00  0.00     0.347 HD
ENDBRANCH  21  22
ENDBRANCH  20  21
ENDBRANCH  18  20
ENDBRANCH  15  18
ENDBRANCH  13  14
ENDBRANCH   9  13
ENDBRANCH   6   8
ENDBRANCH   5   6
ENDBRANCH   4   5
ENDBRANCH   3   4
ENDBRANCH   2   3
ENDBRANCH   1   2
BRANCH   1  26
ATOM     26  C   UNL     1       3.549   1.098  -2.989  1.00  0.00     0.188 C 
BRANCH  26  27
ATOM     27  O   UNL     1       3.020  -0.219  -3.146  1.00  0.00    -0.377 OA
BRANCH  27  28
ATOM     28  C   UNL     1       3.741  -1.008  -4.102  1.00  0.00     0.188 C 
BRANCH  28  29
ATOM     29  C   UNL     1       5.132  -1.474  -3.623  1.00  0.00     0.188 C 
BRANCH  29  30
ATOM     30  O   UNL     1       5.866  -0.433  -2.989  1.00  0.00    -0.376 OA
BRANCH  30  31
ATOM     31  C   UNL     1       7.033   0.092  -3.600  1.00  0.00     0.202 C 
BRANCH  31  32
ATOM     32  C   UNL     1       6.749   1.073  -4.744  1.00  0.00     0.261 C 
BRANCH  32  33
ATOM     33  O   UNL     1       5.901   0.517  -5.742  1.00  0.00    -0.460 OA
BRANCH  33  34
ATOM     34  C   UNL     1       6.432  -0.578  -6.314  1.00  0.00     0.338 C 
ATOM     35  O   UNL     1       7.515  -1.094  -6.098  1.00  0.00    -0.246 OA
BRANCH  34  36
ATOM     36  C   UNL     1       5.523  -1.087  -7.329  1.00  0.00     0.060 A 
ATOM     37  C   UNL     1       5.645  -2.459  -7.571  1.00  0.00     0.016 A 
ATOM     38  C   UNL     1       5.204  -0.148  -8.310  1.00  0.00     0.016 A 
ATOM     39  C   UNL     1       5.770  -2.855  -8.876  1.00  0.00     0.010 A 
ATOM     40  C   UNL     1       5.401  -0.531  -9.609  1.00  0.00     0.010 A 
ATOM     41  C   UNL     1       5.754  -1.863  -9.863  1.00  0.00    -0.014 A 
BRANCH  41  42
ATOM     42  C   UNL     1       6.081  -2.264 -11.224  1.00  0.00     0.031 A 
ATOM     43  C   UNL     1       4.832  -2.696 -11.958  1.00  0.00     0.074 A 
ATOM     44  C   UNL     1       7.408  -2.221 -11.542  1.00  0.00     0.049 A 
ATOM     45  N   UNL     1       4.704  -3.529 -12.939  1.00  0.00    -0.248 NA
ATOM     46  C   UNL     1       3.509  -2.206 -11.474  1.00  0.00     0.031 C 
ATOM     47  C   UNL     1       8.474  -1.768 -10.622  1.00  0.00     0.029 A 
ATOM     48  N   UNL     1       8.134  -2.553 -12.663  1.00  0.00    -0.354 N 
ATOM     49  C   UNL     1       3.353  -3.503 -13.310  1.00  0.00     0.074 A 
ATOM     50  C   UNL     1       2.643  -2.799 -12.290  1.00  0.00     0.031 C 
ATOM     51  C   UNL     1       9.689  -1.921 -11.186  1.00  0.00     0.029 A 
ATOM     52  C   UNL     1       9.542  -2.452 -12.526  1.00  0.00     0.049 A 
ATOM     53  H   UNL     1       7.706  -2.841 -13.502  1.00  0.00     0.167 HD
ATOM     54  C   UNL     1       2.916  -3.918 -14.527  1.00  0.00     0.037 A 
ATOM     55  C   UNL     1      10.518  -2.814 -13.415  1.00  0.00     0.037 A 
ATOM     56  C   UNL     1       3.990  -4.453 -15.295  1.00  0.00     0.049 A 
ATOM     57  C   UNL     1       9.796  -3.247 -14.627  1.00  0.00     0.074 A 
ATOM     58  C   UNL     1       4.694  -5.626 -15.209  1.00  0.00     0.029 A 
ATOM     59  N   UNL     1       4.692  -3.573 -16.082  1.00  0.00    -0.354 N 
ATOM     60  N   UNL     1       9.177  -2.450 -15.448  1.00  0.00    -0.248 NA
ATOM     61  C   UNL     1       9.647  -4.684 -14.885  1.00  0.00     0.031 C 
ATOM     62  C   UNL     1       5.994  -5.293 -15.653  1.00  0.00     0.029 A 
ATOM     63  C   UNL     1       6.012  -3.962 -16.081  1.00  0.00     0.049 A 
ATOM     64  H   UNL     1       4.317  -2.800 -16.562  1.00  0.00     0.167 HD
ATOM     65  C   UNL     1       8.319  -3.302 -16.109  1.00  0.00     0.074 A 
ATOM     66  C   UNL     1       8.853  -4.633 -15.950  1.00  0.00     0.031 C 
ATOM     67  C   UNL     1       7.021  -2.946 -16.291  1.00  0.00     0.037 A 
BRANCH  54  68
ATOM     68  C   UNL     1       1.605  -3.664 -15.194  1.00  0.00     0.064 A 
ATOM     69  C   UNL     1       1.198  -4.544 -16.218  1.00  0.00     0.173 A 
ATOM     70  C   UNL     1       0.905  -2.452 -15.089  1.00  0.00     0.173 A 
ATOM     71  F   UNL     1       1.796  -5.736 -16.372  1.00  0.00    -0.203 F 
ATOM     72  C   UNL     1       0.225  -4.186 -17.146  1.00  0.00     0.198 A 
ATOM     73  C   UNL     1      -0.106  -2.120 -15.991  1.00  0.00     0.198 A 
ATOM     74  F   UNL     1       1.246  -1.524 -14.186  1.00  0.00    -0.203 F 
ATOM     75  F   UNL     1      -0.041  -4.999 -18.177  1.00  0.00    -0.200 F 
ATOM     76  C   UNL     1      -0.418  -2.968 -17.039  1.00  0.00     0.200 A 
ATOM     77  F   UNL     1      -0.727  -0.937 -15.881  1.00  0.00    -0.200 F 
ATOM     78  F   UNL     1      -1.310  -2.594 -17.965  1.00  0.00    -0.200 F 
ENDBRANCH  54  68
BRANCH  55  79
ATOM     79  C   UNL     1      12.026  -2.963 -13.412  1.00  0.00     0.064 A 
ATOM     80  C   UNL     1      12.902  -2.505 -12.417  1.00  0.00     0.173 A 
ATOM     81  C   UNL     1      12.675  -3.669 -14.465  1.00  0.00     0.173 A 
ATOM     82  F   UNL     1      12.485  -1.700 -11.437  1.00  0.00    -0.203 F 
ATOM     83  C   UNL     1      14.271  -2.834 -12.409  1.00  0.00     0.198 A 
ATOM     84  C   UNL     1      14.026  -4.021 -14.445  1.00  0.00     0.198 A 
ATOM     85  F   UNL     1      12.016  -4.051 -15.566  1.00  0.00    -0.203 F 
ATOM     86  F   UNL     1      15.054  -2.386 -11.417  1.00  0.00    -0.200 F 
ATOM     87  C   UNL     1      14.824  -3.619 -13.402  1.00  0.00     0.200 A 
ATOM     88  F   UNL     1      14.533  -4.764 -15.439  1.00  0.00    -0.200 F 
ATOM     89  F   UNL     1      16.116  -3.969 -13.366  1.00  0.00    -0.200 F 
ENDBRANCH  55  79
BRANCH  67  90
ATOM     90  C   UNL     1       6.806  -1.447 -16.253  1.00  0.00     0.064 A 
ATOM     91  C   UNL     1       7.362  -0.631 -17.249  1.00  0.00     0.173 A 
ATOM     92  C   UNL     1       6.195  -0.781 -15.179  1.00  0.00     0.173 A 
ATOM     93  F   UNL     1       7.951  -1.190 -18.317  1.00  0.00    -0.203 F 
ATOM     94  C   UNL     1       7.327   0.763 -17.158  1.00  0.00     0.198 A 
ATOM     95  C   UNL     1       6.153   0.610 -15.084  1.00  0.00     0.198 A 
ATOM     96  F   UNL     1       5.624  -1.470 -14.194  1.00  0.00    -0.203 F 
ATOM     97  F   UNL     1       7.876   1.509 -18.126  1.00  0.00    -0.200 F 
ATOM     98  C   UNL     1       6.728   1.383 -16.072  1.00  0.00     0.200 A 
ATOM     99  F   UNL     1       5.554   1.193 -14.034  1.00  0.00    -0.200 F 
ATOM    100  F   UNL     1       6.694   2.721 -15.986  1.00  0.00    -0.200 F 
ENDBRANCH  67  90
ENDBRANCH  41  42
ENDBRANCH  34  36
ENDBRANCH  33  34
ENDBRANCH  32  33
ENDBRANCH  31  32
ENDBRANCH  30  31
ENDBRANCH  29  30
ENDBRANCH  28  29
ENDBRANCH  27  28
ENDBRANCH  26  27
ENDBRANCH   1  26
TORSDOF 26
