REMARK SMILES C=CCN(CC(=O)OCCOCCOCCOCCOC(=O)c1ccc(-c2c3nc(c(-c4c(F)c(F)c(F)c(F)c4F)c4ccc([nH]4)c(-c4c(F)c(F)c(F)c(F)c4F)c4nc(c(-c5c(F)c(F)c(F)c(F)c5F)c5ccc2[nH]5)C=C4)C=C3)cc1)c1nccn(C)c1=O
REMARK SMILES IDX 13 1 12 2 11 3 10 4 9 5 8 6 6 7 7 8 5 9 4 10 3 11 2 12 1 13
REMARK SMILES IDX 86 14 87 15 92 16 88 17 90 18 93 19 89 20 91 21 14 22 15 23
REMARK SMILES IDX 16 24 17 25 18 26 19 27 20 28 21 29 22 30 23 31 24 32 85 33
REMARK SMILES IDX 25 34 84 35 26 36 27 37 28 38 78 39 29 40 83 41 77 42 79 43
REMARK SMILES IDX 30 44 82 45 76 46 75 47 31 49 63 50 43 51 62 52 44 53 47 54
REMARK SMILES IDX 61 55 80 56 45 57 46 58 60 60 81 61 48 62 32 63 33 64 41 65
REMARK SMILES IDX 34 66 35 67 39 68 42 69 36 70 37 71 40 72 38 73 64 74 65 75
REMARK SMILES IDX 73 76 66 77 67 78 71 79 74 80 68 81 69 82 72 83 70 84 49 85
REMARK SMILES IDX 50 86 58 87 51 88 52 89 56 90 59 91 53 92 54 93 57 94 55 95
REMARK H PARENT 79 48 47 59
REMARK Flexibility Score: inf
ROOT
ATOM      1  C   UNL     1      -4.331   0.318  -3.335  1.00  0.00     0.188 C 
ENDROOT
BRANCH   1   2
ATOM      2  C   UNL     1      -4.964  -0.652  -4.345  1.00  0.00     0.188 C 
BRANCH   2   3
ATOM      3  O   UNL     1      -6.284  -1.125  -4.067  1.00  0.00    -0.376 OA
BRANCH   3   4
ATOM      4  C   UNL     1      -6.588  -1.449  -2.713  1.00  0.00     0.202 C 
BRANCH   4   5
ATOM      5  C   UNL     1      -5.759  -2.578  -2.086  1.00  0.00     0.261 C 
BRANCH   5   6
ATOM      6  O   UNL     1      -4.344  -2.306  -2.144  1.00  0.00    -0.462 OA
BRANCH   6   7
ATOM      7  C   UNL     1      -3.520  -3.381  -2.145  1.00  0.00     0.325 C 
ATOM      8  O   UNL     1      -3.899  -4.520  -1.887  1.00  0.00    -0.250 OA
BRANCH   7   9
ATOM      9  C   UNL     1      -2.076  -3.073  -2.571  1.00  0.00     0.241 C 
BRANCH   9  10
ATOM     10  N   UNL     1      -1.581  -1.690  -2.374  1.00  0.00    -0.337 N 
BRANCH  10  11
ATOM     11  C   UNL     1      -1.466  -1.261  -0.975  1.00  0.00     0.146 C 
BRANCH  11  12
ATOM     12  C   UNL     1      -0.057  -1.442  -0.478  1.00  0.00    -0.014 C 
ATOM     13  C   UNL     1       0.682  -0.459   0.059  1.00  0.00     0.006 C 
ENDBRANCH  11  12
ENDBRANCH  10  11
BRANCH  10  14
ATOM     14  C   UNL     1      -0.981  -0.913  -3.389  1.00  0.00     0.196 A 
ATOM     15  N   UNL     1      -0.122   0.025  -3.057  1.00  0.00    -0.233 NA
ATOM     16  C   UNL     1      -1.368  -1.084  -4.910  1.00  0.00     0.293 A 
ATOM     17  C   UNL     1       0.466   0.779  -4.029  1.00  0.00     0.131 A 
ATOM     18  N   UNL     1      -0.824  -0.128  -5.770  1.00  0.00    -0.314 N 
ATOM     19  O   UNL     1      -2.146  -1.959  -5.264  1.00  0.00    -0.265 OA
ATOM     20  C   UNL     1       0.137   0.745  -5.322  1.00  0.00     0.109 A 
ATOM     21  C   UNL     1      -1.328   0.007  -7.127  1.00  0.00     0.153 C 
ENDBRANCH  10  14
ENDBRANCH   9  10
ENDBRANCH   7   9
ENDBRANCH   6   7
ENDBRANCH   5   6
ENDBRANCH   4   5
ENDBRANCH   3   4
ENDBRANCH   2   3
ENDBRANCH   1   2
BRANCH   1  22
ATOM     22  O   UNL     1      -5.286   1.209  -2.783  1.00  0.00    -0.377 OA
BRANCH  22  23
ATOM     23  C   UNL     1      -5.244   2.563  -3.188  1.00  0.00     0.188 C 
BRANCH  23  24
ATOM     24  C   UNL     1      -5.120   2.804  -4.696  1.00  0.00     0.188 C 
BRANCH  24  25
ATOM     25  O   UNL     1      -3.851   2.577  -5.317  1.00  0.00    -0.376 OA
BRANCH  25  26
ATOM     26  C   UNL     1      -2.653   2.939  -4.634  1.00  0.00     0.202 C 
BRANCH  26  27
ATOM     27  C   UNL     1      -2.041   4.271  -5.049  1.00  0.00     0.261 C 
BRANCH  27  28
ATOM     28  O   UNL     1      -2.489   5.260  -4.119  1.00  0.00    -0.460 OA
BRANCH  28  29
ATOM     29  C   UNL     1      -3.669   5.827  -4.455  1.00  0.00     0.338 C 
ATOM     30  O   UNL     1      -4.134   5.938  -5.566  1.00  0.00    -0.246 OA
BRANCH  29  31
ATOM     31  C   UNL     1      -4.428   6.082  -3.207  1.00  0.00     0.060 A 
ATOM     32  C   UNL     1      -5.820   6.164  -3.321  1.00  0.00     0.016 A 
ATOM     33  C   UNL     1      -3.812   6.181  -1.951  1.00  0.00     0.016 A 
ATOM     34  C   UNL     1      -6.593   6.421  -2.198  1.00  0.00     0.010 A 
ATOM     35  C   UNL     1      -4.585   6.445  -0.822  1.00  0.00     0.010 A 
ATOM     36  C   UNL     1      -5.969   6.621  -0.961  1.00  0.00    -0.014 A 
BRANCH  36  37
ATOM     37  C   UNL     1      -6.752   7.289   0.095  1.00  0.00     0.031 A 
ATOM     38  C   UNL     1      -6.732   8.791   0.118  1.00  0.00     0.074 A 
ATOM     39  C   UNL     1      -7.523   6.581   0.934  1.00  0.00     0.049 A 
ATOM     40  N   UNL     1      -7.448   9.620   0.828  1.00  0.00    -0.248 NA
ATOM     41  C   UNL     1      -5.780   9.449  -0.796  1.00  0.00     0.031 C 
ATOM     42  C   UNL     1      -7.608   5.123   0.980  1.00  0.00     0.029 A 
ATOM     43  N   UNL     1      -8.393   7.004   1.903  1.00  0.00    -0.354 N 
ATOM     44  C   UNL     1      -7.049  10.889   0.433  1.00  0.00     0.074 A 
ATOM     45  C   UNL     1      -6.001  10.730  -0.548  1.00  0.00     0.031 C 
ATOM     46  C   UNL     1      -8.486   4.770   1.935  1.00  0.00     0.029 A 
ATOM     47  C   UNL     1      -9.020   5.978   2.562  1.00  0.00     0.049 A 
ATOM     48  H   UNL     1      -8.552   7.954   2.107  1.00  0.00     0.167 HD
ATOM     49  C   UNL     1      -7.529  12.084   0.844  1.00  0.00     0.037 A 
ATOM     50  C   UNL     1      -9.928   6.026   3.554  1.00  0.00     0.037 A 
ATOM     51  C   UNL     1      -8.563  12.228   1.830  1.00  0.00     0.049 A 
ATOM     52  C   UNL     1     -10.424   7.372   4.016  1.00  0.00     0.074 A 
ATOM     53  C   UNL     1      -9.145  13.385   2.312  1.00  0.00     0.029 A 
ATOM     54  N   UNL     1      -9.159  11.166   2.495  1.00  0.00    -0.354 N 
ATOM     55  N   UNL     1     -10.096   8.569   3.587  1.00  0.00    -0.248 NA
ATOM     56  C   UNL     1     -11.430   7.375   5.087  1.00  0.00     0.031 C 
ATOM     57  C   UNL     1     -10.062  13.025   3.305  1.00  0.00     0.029 A 
ATOM     58  C   UNL     1     -10.083  11.642   3.408  1.00  0.00     0.049 A 
ATOM     59  H   UNL     1      -8.955  10.216   2.341  1.00  0.00     0.167 HD
ATOM     60  C   UNL     1     -10.865   9.463   4.319  1.00  0.00     0.074 A 
ATOM     61  C   UNL     1     -11.694   8.668   5.203  1.00  0.00     0.031 C 
ATOM     62  C   UNL     1     -10.886  10.818   4.274  1.00  0.00     0.037 A 
BRANCH  49  63
ATOM     63  C   UNL     1      -6.920  13.315   0.247  1.00  0.00     0.064 A 
ATOM     64  C   UNL     1      -7.189  13.703  -1.075  1.00  0.00     0.173 A 
ATOM     65  C   UNL     1      -6.066  14.124   1.010  1.00  0.00     0.173 A 
ATOM     66  F   UNL     1      -7.979  12.948  -1.852  1.00  0.00    -0.203 F 
ATOM     67  C   UNL     1      -6.612  14.850  -1.615  1.00  0.00     0.198 A 
ATOM     68  C   UNL     1      -5.509  15.281   0.473  1.00  0.00     0.198 A 
ATOM     69  F   UNL     1      -5.770  13.790   2.274  1.00  0.00    -0.203 F 
ATOM     70  F   UNL     1      -6.851  15.181  -2.892  1.00  0.00    -0.200 F 
ATOM     71  C   UNL     1      -5.779  15.641  -0.839  1.00  0.00     0.200 A 
ATOM     72  F   UNL     1      -4.705  16.046   1.225  1.00  0.00    -0.200 F 
ATOM     73  F   UNL     1      -5.227  16.746  -1.359  1.00  0.00    -0.200 F 
ENDBRANCH  49  63
BRANCH  50  74
ATOM     74  C   UNL     1     -10.428   4.769   4.169  1.00  0.00     0.064 A 
ATOM     75  C   UNL     1     -11.755   4.351   4.004  1.00  0.00     0.173 A 
ATOM     76  C   UNL     1      -9.586   3.968   4.955  1.00  0.00     0.173 A 
ATOM     77  F   UNL     1     -12.605   5.093   3.279  1.00  0.00    -0.203 F 
ATOM     78  C   UNL     1     -12.228   3.194   4.622  1.00  0.00     0.198 A 
ATOM     79  C   UNL     1     -10.052   2.798   5.551  1.00  0.00     0.198 A 
ATOM     80  F   UNL     1      -8.306   4.322   5.145  1.00  0.00    -0.203 F 
ATOM     81  F   UNL     1     -13.515   2.845   4.489  1.00  0.00    -0.200 F 
ATOM     82  C   UNL     1     -11.375   2.417   5.391  1.00  0.00     0.200 A 
ATOM     83  F   UNL     1      -9.221   2.045   6.284  1.00  0.00    -0.200 F 
ATOM     84  F   UNL     1     -11.831   1.306   5.987  1.00  0.00    -0.200 F 
ENDBRANCH  50  74
BRANCH  62  85
ATOM     85  C   UNL     1     -11.837  11.514   5.200  1.00  0.00     0.064 A 
ATOM     86  C   UNL     1     -11.595  11.578   6.580  1.00  0.00     0.173 A 
ATOM     87  C   UNL     1     -12.981  12.152   4.699  1.00  0.00     0.173 A 
ATOM     88  F   UNL     1     -10.520  10.973   7.106  1.00  0.00    -0.203 F 
ATOM     89  C   UNL     1     -12.483  12.231   7.430  1.00  0.00     0.198 A 
ATOM     90  C   UNL     1     -13.851  12.829   5.548  1.00  0.00     0.198 A 
ATOM     91  F   UNL     1     -13.248  12.127   3.384  1.00  0.00    -0.203 F 
ATOM     92  F   UNL     1     -12.259  12.239   8.751  1.00  0.00    -0.200 F 
ATOM     93  C   UNL     1     -13.606  12.861   6.912  1.00  0.00     0.200 A 
ATOM     94  F   UNL     1     -14.928  13.448   5.046  1.00  0.00    -0.200 F 
ATOM     95  F   UNL     1     -14.457  13.492   7.732  1.00  0.00    -0.200 F 
ENDBRANCH  62  85
ENDBRANCH  36  37
ENDBRANCH  29  31
ENDBRANCH  28  29
ENDBRANCH  27  28
ENDBRANCH  26  27
ENDBRANCH  25  26
ENDBRANCH  24  25
ENDBRANCH  23  24
ENDBRANCH  22  23
ENDBRANCH   1  22
TORSDOF 24
