REMARK SMILES O=C(OCCOCCOCCOCCOC(=O)c1ccc(-c2c3nc(c(-c4c(F)c(F)c(F)c(F)c4F)c4ccc([nH]4)c(-c4c(F)c(F)c(F)c(F)c4F)c4nc(c(-c5c(F)c(F)c(F)c(F)c5F)c5ccc2[nH]5)C=C4)C=C3)cc1)C(=O)/C(=C/c1cnn(Cc2ccccc2Cl)c1)c1ccc2ccccc2n1
REMARK SMILES IDX 8 1 7 2 6 3 5 4 4 5 3 6 2 7 1 8 81 9 82 10 83 11 84 12 98 13
REMARK SMILES IDX 99 14 107 15 100 16 106 17 101 18 105 19 102 20 104 21
REMARK SMILES IDX 103 22 85 23 86 24 97 25 87 26 88 27 89 28 90 29 91 30 95 31
REMARK SMILES IDX 92 32 94 33 96 34 93 35 9 36 10 37 11 38 12 39 13 40 14 41
REMARK SMILES IDX 15 42 16 43 17 44 18 45 19 46 80 47 20 48 79 49 21 50 22 51
REMARK SMILES IDX 23 52 73 53 24 54 78 55 72 56 74 57 25 58 77 59 71 60 70 61
REMARK SMILES IDX 26 63 58 64 38 65 57 66 39 67 42 68 56 69 75 70 40 71 41 72
REMARK SMILES IDX 55 74 76 75 43 76 27 77 28 78 36 79 29 80 30 81 34 82 37 83
REMARK SMILES IDX 31 84 32 85 35 86 33 87 59 88 60 89 68 90 61 91 62 92 66 93
REMARK SMILES IDX 69 94 63 95 64 96 67 97 65 98 44 99 45 100 53 101 46 102
REMARK SMILES IDX 47 103 51 104 54 105 48 106 49 107 52 108 50 109
REMARK H PARENT 74 62 42 73
REMARK Flexibility Score: inf
ROOT
ATOM      1  C   UNL     1       1.537   1.264  -2.125  1.00  0.00     0.188 C 
ENDROOT
BRANCH   1   2
ATOM      2  C   UNL     1       2.227   1.395  -0.753  1.00  0.00     0.188 C 
BRANCH   2   3
ATOM      3  O   UNL     1       3.629   1.428  -0.652  1.00  0.00    -0.376 OA
BRANCH   3   4
ATOM      4  C   UNL     1       4.419   0.268  -0.664  1.00  0.00     0.202 C 
BRANCH   4   5
ATOM      5  C   UNL     1       3.854  -1.058  -0.247  1.00  0.00     0.261 C 
BRANCH   5   6
ATOM      6  O   UNL     1       3.386  -1.176   1.104  1.00  0.00    -0.457 OA
BRANCH   6   7
ATOM      7  C   UNL     1       3.403  -0.325   2.129  1.00  0.00     0.379 C 
ATOM      8  O   UNL     1       2.471  -0.389   2.930  1.00  0.00    -0.242 OA
BRANCH   7   9
ATOM      9  C   UNL     1       4.492   0.751   2.404  1.00  0.00     0.272 C 
ATOM     10  O   UNL     1       4.031   1.837   2.779  1.00  0.00    -0.281 OA
BRANCH   9  11
ATOM     11  C   UNL     1       6.065   0.614   2.208  1.00  0.00     0.056 C 
ATOM     12  C   UNL     1       6.367  -0.625   1.620  1.00  0.00     0.026 C 
BRANCH  11  13
ATOM     13  C   UNL     1       6.668   2.203   2.380  1.00  0.00     0.075 A 
ATOM     14  C   UNL     1       6.365   2.864   1.227  1.00  0.00     0.030 A 
ATOM     15  N   UNL     1       7.908   2.588   2.943  1.00  0.00    -0.248 NA
ATOM     16  C   UNL     1       7.269   2.532   0.271  1.00  0.00     0.012 A 
ATOM     17  C   UNL     1       9.039   2.635   2.145  1.00  0.00     0.071 A 
ATOM     18  C   UNL     1       8.434   1.991   0.793  1.00  0.00     0.000 A 
ATOM     19  C   UNL     1      10.787   2.326   2.580  1.00  0.00     0.029 A 
ATOM     20  C   UNL     1       9.156   0.545   0.175  1.00  0.00     0.010 A 
ATOM     21  C   UNL     1      11.761   0.968   1.838  1.00  0.00     0.002 A 
ATOM     22  C   UNL     1      10.899  -0.082   0.626  1.00  0.00     0.001 A 
ENDBRANCH  11  13
BRANCH  12  23
ATOM     23  C   UNL     1       7.335  -1.250   0.654  1.00  0.00     0.013 A 
ATOM     24  C   UNL     1       8.382  -2.194   0.902  1.00  0.00     0.143 A 
ATOM     25  C   UNL     1       7.428  -1.168  -0.761  1.00  0.00     0.117 A 
ATOM     26  N   UNL     1       9.226  -2.392  -0.144  1.00  0.00    -0.181 NA
ATOM     27  N   UNL     1       8.822  -1.478  -1.079  1.00  0.00    -0.268 N 
BRANCH  27  28
ATOM     28  C   UNL     1       9.928  -0.470  -1.864  1.00  0.00     0.181 C 
BRANCH  28  29
ATOM     29  C   UNL     1      10.580   1.172  -1.305  1.00  0.00    -0.008 A 
ATOM     30  C   UNL     1      11.115   1.846  -2.405  1.00  0.00     0.007 A 
ATOM     31  C   UNL     1      10.570   1.861   0.328  1.00  0.00     0.046 A 
ATOM     32  C   UNL     1      11.745   3.062  -2.168  1.00  0.00     0.000 A 
ATOM     33  C   UNL     1      11.250   3.143   0.317  1.00  0.00     0.021 A 
ATOM     34  Cl  UNL     1       9.652   0.502   2.211  1.00  0.00    -0.084 Cl
ATOM     35  C   UNL     1      11.830   3.655  -0.882  1.00  0.00     0.002 A 
ENDBRANCH  28  29
ENDBRANCH  27  28
ENDBRANCH  12  23
ENDBRANCH   9  11
ENDBRANCH   7   9
ENDBRANCH   6   7
ENDBRANCH   5   6
ENDBRANCH   4   5
ENDBRANCH   3   4
ENDBRANCH   2   3
ENDBRANCH   1   2
BRANCH   1  36
ATOM     36  O   UNL     1       2.200   1.388  -3.369  1.00  0.00    -0.377 OA
BRANCH  36  37
ATOM     37  C   UNL     1       3.520   0.917  -3.497  1.00  0.00     0.188 C 
BRANCH  37  38
ATOM     38  C   UNL     1       4.611   2.000  -3.248  1.00  0.00     0.188 C 
BRANCH  38  39
ATOM     39  O   UNL     1       4.247   3.251  -2.713  1.00  0.00    -0.376 OA
BRANCH  39  40
ATOM     40  C   UNL     1       3.213   3.989  -3.339  1.00  0.00     0.202 C 
BRANCH  40  41
ATOM     41  C   UNL     1       2.861   3.880  -4.850  1.00  0.00     0.261 C 
BRANCH  41  42
ATOM     42  O   UNL     1       3.298   2.733  -5.612  1.00  0.00    -0.460 OA
BRANCH  42  43
ATOM     43  C   UNL     1       4.494   2.800  -6.251  1.00  0.00     0.338 C 
ATOM     44  O   UNL     1       5.242   3.759  -6.296  1.00  0.00    -0.246 OA
BRANCH  43  45
ATOM     45  C   UNL     1       4.892   1.419  -6.666  1.00  0.00     0.060 A 
ATOM     46  C   UNL     1       6.022   0.812  -6.081  1.00  0.00     0.016 A 
ATOM     47  C   UNL     1       4.129   0.700  -7.583  1.00  0.00     0.016 A 
ATOM     48  C   UNL     1       6.381  -0.503  -6.401  1.00  0.00     0.010 A 
ATOM     49  C   UNL     1       4.521  -0.598  -7.944  1.00  0.00     0.010 A 
ATOM     50  C   UNL     1       5.655  -1.205  -7.368  1.00  0.00    -0.014 A 
BRANCH  50  51
ATOM     51  C   UNL     1       6.142  -2.511  -7.892  1.00  0.00     0.031 A 
ATOM     52  C   UNL     1       6.831  -2.537  -9.230  1.00  0.00     0.074 A 
ATOM     53  C   UNL     1       5.950  -3.660  -7.216  1.00  0.00     0.049 A 
ATOM     54  N   UNL     1       7.196  -3.561  -9.959  1.00  0.00    -0.248 NA
ATOM     55  C   UNL     1       7.147  -1.230  -9.829  1.00  0.00     0.031 C 
ATOM     56  C   UNL     1       5.350  -3.770  -5.889  1.00  0.00     0.029 A 
ATOM     57  N   UNL     1       6.215  -4.963  -7.573  1.00  0.00    -0.354 N 
ATOM     58  C   UNL     1       7.754  -3.024 -11.113  1.00  0.00     0.074 A 
ATOM     59  C   UNL     1       7.677  -1.584 -10.991  1.00  0.00     0.031 C 
ATOM     60  C   UNL     1       5.259  -5.071  -5.558  1.00  0.00     0.029 A 
ATOM     61  C   UNL     1       5.744  -5.887  -6.670  1.00  0.00     0.049 A 
ATOM     62  H   UNL     1       6.696  -5.210  -8.396  1.00  0.00     0.167 HD
ATOM     63  C   UNL     1       8.275  -3.676 -12.178  1.00  0.00     0.037 A 
ATOM     64  C   UNL     1       5.664  -7.232  -6.754  1.00  0.00     0.037 A 
ATOM     65  C   UNL     1       8.354  -5.109 -12.293  1.00  0.00     0.049 A 
ATOM     66  C   UNL     1       6.174  -7.928  -7.996  1.00  0.00     0.074 A 
ATOM     67  C   UNL     1       8.908  -5.859 -13.316  1.00  0.00     0.029 A 
ATOM     68  N   UNL     1       7.849  -6.008 -11.367  1.00  0.00    -0.354 N 
ATOM     69  N   UNL     1       6.746  -7.416  -9.059  1.00  0.00    -0.248 NA
ATOM     70  C   UNL     1       6.021  -9.391  -8.053  1.00  0.00     0.031 C 
ATOM     71  C   UNL     1       8.658  -7.208 -13.054  1.00  0.00     0.029 A 
ATOM     72  C   UNL     1       8.029  -7.304 -11.824  1.00  0.00     0.049 A 
ATOM     73  H   UNL     1       7.426  -5.763 -10.512  1.00  0.00     0.167 HD
ATOM     74  C   UNL     1       7.045  -8.491  -9.890  1.00  0.00     0.074 A 
ATOM     75  C   UNL     1       6.621  -9.686  -9.197  1.00  0.00     0.031 C 
ATOM     76  C   UNL     1       7.612  -8.489 -11.121  1.00  0.00     0.037 A 
BRANCH  63  77
ATOM     77  C   UNL     1       8.771  -2.865 -13.340  1.00  0.00     0.064 A 
ATOM     78  C   UNL     1       9.945  -2.102 -13.268  1.00  0.00     0.173 A 
ATOM     79  C   UNL     1       8.112  -2.940 -14.578  1.00  0.00     0.173 A 
ATOM     80  F   UNL     1      10.608  -1.989 -12.108  1.00  0.00    -0.203 F 
ATOM     81  C   UNL     1      10.436  -1.440 -14.391  1.00  0.00     0.198 A 
ATOM     82  C   UNL     1       8.625  -2.306 -15.706  1.00  0.00     0.198 A 
ATOM     83  F   UNL     1       6.987  -3.662 -14.703  1.00  0.00    -0.203 F 
ATOM     84  F   UNL     1      11.545  -0.693 -14.293  1.00  0.00    -0.200 F 
ATOM     85  C   UNL     1       9.785  -1.554 -15.611  1.00  0.00     0.200 A 
ATOM     86  F   UNL     1       8.005  -2.437 -16.886  1.00  0.00    -0.200 F 
ATOM     87  F   UNL     1      10.276  -0.940 -16.695  1.00  0.00    -0.200 F 
ENDBRANCH  63  77
BRANCH  64  88
ATOM     88  C   UNL     1       5.019  -8.027  -5.668  1.00  0.00     0.064 A 
ATOM     89  C   UNL     1       5.731  -9.007  -4.960  1.00  0.00     0.173 A 
ATOM     90  C   UNL     1       3.654  -7.885  -5.374  1.00  0.00     0.173 A 
ATOM     91  F   UNL     1       7.033  -9.205  -5.218  1.00  0.00    -0.203 F 
ATOM     92  C   UNL     1       5.096  -9.842  -4.042  1.00  0.00     0.198 A 
ATOM     93  C   UNL     1       3.030  -8.688  -4.421  1.00  0.00     0.198 A 
ATOM     94  F   UNL     1       2.917  -6.968  -6.019  1.00  0.00    -0.203 F 
ATOM     95  F   UNL     1       5.784 -10.829  -3.451  1.00  0.00    -0.200 F 
ATOM     96  C   UNL     1       3.747  -9.680  -3.770  1.00  0.00     0.200 A 
ATOM     97  F   UNL     1       1.730  -8.513  -4.148  1.00  0.00    -0.200 F 
ATOM     98  F   UNL     1       3.134 -10.488  -2.895  1.00  0.00    -0.200 F 
ENDBRANCH  64  88
BRANCH  76  99
ATOM     99  C   UNL     1       7.838  -9.816 -11.791  1.00  0.00     0.064 A 
ATOM    100  C   UNL     1       6.772 -10.605 -12.248  1.00  0.00     0.173 A 
ATOM    101  C   UNL     1       9.142 -10.279 -12.031  1.00  0.00     0.173 A 
ATOM    102  F   UNL     1       5.505 -10.215 -12.037  1.00  0.00    -0.203 F 
ATOM    103  C   UNL     1       7.001 -11.819 -12.890  1.00  0.00     0.198 A 
ATOM    104  C   UNL     1       9.368 -11.473 -12.711  1.00  0.00     0.198 A 
ATOM    105  F   UNL     1      10.201  -9.561 -11.627  1.00  0.00    -0.203 F 
ATOM    106  F   UNL     1       5.964 -12.581 -13.266  1.00  0.00    -0.200 F 
ATOM    107  C   UNL     1       8.298 -12.247 -13.131  1.00  0.00     0.200 A 
ATOM    108  F   UNL     1      10.623 -11.871 -12.964  1.00  0.00    -0.200 F 
ATOM    109  F   UNL     1       8.516 -13.408 -13.763  1.00  0.00    -0.200 F 
ENDBRANCH  76  99
ENDBRANCH  50  51
ENDBRANCH  43  45
ENDBRANCH  42  43
ENDBRANCH  41  42
ENDBRANCH  40  41
ENDBRANCH  39  40
ENDBRANCH  38  39
ENDBRANCH  37  38
ENDBRANCH  36  37
ENDBRANCH   1  36
TORSDOF 25
