REMARK SMILES CO[C@H]1C[C@@H](C(=O)OCCOCCOCCOCCOC(=O)c2ccc(-c3c4nc(c(-c5c(F)c(F)c(F)c(F)c5F)c5ccc([nH]5)c(-c5c(F)c(F)c(F)c(F)c5F)c5nc(c(-c6c(F)c(F)c(F)c(F)c6F)c6ccc3[nH]6)C=C5)C=C4)cc2)N(C(=O)c2cc(SC)ccc2C)C1
REMARK SMILES IDX 13 1 12 2 11 3 10 4 9 5 8 6 6 7 7 8 5 9 3 10 4 11 98 12
REMARK SMILES IDX 86 13 2 14 1 15 87 16 88 17 89 18 90 19 96 20 91 21 95 22
REMARK SMILES IDX 97 23 94 24 92 25 93 26 14 27 15 28 16 29 17 30 18 31 19 32
REMARK SMILES IDX 20 33 21 34 22 35 23 36 24 37 85 38 25 39 84 40 26 41 27 42
REMARK SMILES IDX 28 43 78 44 29 45 83 46 77 47 79 48 30 49 82 50 76 51 75 52
REMARK SMILES IDX 31 54 63 55 43 56 62 57 44 58 47 59 61 60 80 61 45 62 46 63
REMARK SMILES IDX 60 65 81 66 48 67 32 68 33 69 41 70 34 71 35 72 39 73 42 74
REMARK SMILES IDX 36 75 37 76 40 77 38 78 64 79 65 80 73 81 66 82 67 83 71 84
REMARK SMILES IDX 74 85 68 86 69 87 72 88 70 89 49 90 50 91 58 92 51 93 52 94
REMARK SMILES IDX 56 95 59 96 53 97 54 98 57 99 55 100
REMARK H PARENT 79 53 47 64
REMARK Flexibility Score: inf
ROOT
ATOM      1  C   UNL     1      -1.385  -1.326  -4.481  1.00  0.00     0.188 C 
ENDROOT
BRANCH   1   2
ATOM      2  C   UNL     1      -1.123  -2.714  -5.094  1.00  0.00     0.188 C 
BRANCH   2   3
ATOM      3  O   UNL     1      -2.213  -3.189  -5.878  1.00  0.00    -0.376 OA
BRANCH   3   4
ATOM      4  C   UNL     1      -3.325  -3.843  -5.280  1.00  0.00     0.202 C 
BRANCH   4   5
ATOM      5  C   UNL     1      -3.746  -3.550  -3.836  1.00  0.00     0.261 C 
BRANCH   5   6
ATOM      6  O   UNL     1      -2.604  -3.482  -2.973  1.00  0.00    -0.462 OA
BRANCH   6   7
ATOM      7  C   UNL     1      -2.655  -4.037  -1.747  1.00  0.00     0.329 C 
ATOM      8  O   UNL     1      -3.614  -4.650  -1.299  1.00  0.00    -0.250 OA
BRANCH   7   9
ATOM      9  C   UNL     1      -1.333  -3.840  -0.991  1.00  0.00     0.198 C 
ATOM     10  C   UNL     1       0.694  -2.612  -0.522  1.00  0.00     0.140 C 
ATOM     11  C   UNL     1      -0.624  -2.515  -1.292  1.00  0.00     0.071 C 
ATOM     12  C   UNL     1       0.988  -4.125  -0.526  1.00  0.00     0.152 C 
ATOM     13  N   UNL     1      -0.201  -4.767  -1.082  1.00  0.00    -0.322 N 
BRANCH  10  14
ATOM     14  O   UNL     1       1.756  -1.918  -1.179  1.00  0.00    -0.380 OA
ATOM     15  C   UNL     1       1.639  -0.502  -1.150  1.00  0.00     0.195 C 
ENDBRANCH  10  14
BRANCH  13  16
ATOM     16  C   UNL     1      -0.095  -6.055  -1.568  1.00  0.00     0.254 C 
ATOM     17  O   UNL     1       0.880  -6.771  -1.353  1.00  0.00    -0.269 OA
BRANCH  16  18
ATOM     18  C   UNL     1      -1.096  -6.561  -2.526  1.00  0.00     0.044 A 
ATOM     19  C   UNL     1      -2.202  -7.270  -2.041  1.00  0.00     0.029 A 
ATOM     20  C   UNL     1      -0.875  -6.434  -3.909  1.00  0.00    -0.038 A 
ATOM     21  C   UNL     1      -3.145  -7.808  -2.927  1.00  0.00     0.008 A 
ATOM     22  C   UNL     1      -1.826  -6.970  -4.785  1.00  0.00     0.005 A 
ATOM     23  C   UNL     1       0.380  -5.845  -4.492  1.00  0.00     0.045 C 
ATOM     24  C   UNL     1      -2.964  -7.617  -4.299  1.00  0.00     0.015 A 
BRANCH  21  25
ATOM     25  S   UNL     1      -4.519  -8.714  -2.226  1.00  0.00    -0.130 SA
ATOM     26  C   UNL     1      -5.159  -9.643  -3.649  1.00  0.00     0.091 C 
ENDBRANCH  21  25
ENDBRANCH  16  18
ENDBRANCH  13  16
ENDBRANCH   7   9
ENDBRANCH   6   7
ENDBRANCH   5   6
ENDBRANCH   4   5
ENDBRANCH   3   4
ENDBRANCH   2   3
ENDBRANCH   1   2
BRANCH   1  27
ATOM     27  O   UNL     1      -1.536  -0.247  -5.391  1.00  0.00    -0.377 OA
BRANCH  27  28
ATOM     28  C   UNL     1      -2.368  -0.520  -6.498  1.00  0.00     0.188 C 
BRANCH  28  29
ATOM     29  C   UNL     1      -1.631  -0.970  -7.778  1.00  0.00     0.188 C 
BRANCH  29  30
ATOM     30  O   UNL     1      -0.220  -1.163  -7.809  1.00  0.00    -0.376 OA
BRANCH  30  31
ATOM     31  C   UNL     1       0.669  -0.289  -7.126  1.00  0.00     0.202 C 
BRANCH  31  32
ATOM     32  C   UNL     1       0.671   1.200  -7.481  1.00  0.00     0.261 C 
BRANCH  32  33
ATOM     33  O   UNL     1      -0.590   1.843  -7.247  1.00  0.00    -0.460 OA
BRANCH  33  34
ATOM     34  C   UNL     1      -1.271   2.194  -8.366  1.00  0.00     0.338 C 
ATOM     35  O   UNL     1      -0.902   2.103  -9.515  1.00  0.00    -0.246 OA
BRANCH  34  36
ATOM     36  C   UNL     1      -2.665   2.528  -8.000  1.00  0.00     0.060 A 
ATOM     37  C   UNL     1      -3.682   1.922  -8.754  1.00  0.00     0.016 A 
ATOM     38  C   UNL     1      -2.978   3.382  -6.939  1.00  0.00     0.016 A 
ATOM     39  C   UNL     1      -5.015   2.211  -8.486  1.00  0.00     0.010 A 
ATOM     40  C   UNL     1      -4.316   3.706  -6.696  1.00  0.00     0.010 A 
ATOM     41  C   UNL     1      -5.329   3.160  -7.505  1.00  0.00    -0.014 A 
BRANCH  41  42
ATOM     42  C   UNL     1      -6.660   3.804  -7.579  1.00  0.00     0.031 A 
ATOM     43  C   UNL     1      -6.784   5.007  -8.476  1.00  0.00     0.074 A 
ATOM     44  C   UNL     1      -7.735   3.296  -6.955  1.00  0.00     0.049 A 
ATOM     45  N   UNL     1      -7.835   5.728  -8.768  1.00  0.00    -0.248 NA
ATOM     46  C   UNL     1      -5.548   5.449  -9.146  1.00  0.00     0.031 C 
ATOM     47  C   UNL     1      -7.742   2.106  -6.108  1.00  0.00     0.029 A 
ATOM     48  N   UNL     1      -9.038   3.724  -6.951  1.00  0.00    -0.354 N 
ATOM     49  C   UNL     1      -7.388   6.690  -9.665  1.00  0.00     0.074 A 
ATOM     50  C   UNL     1      -5.968   6.495  -9.838  1.00  0.00     0.031 C 
ATOM     51  C   UNL     1      -8.992   1.905  -5.654  1.00  0.00     0.029 A 
ATOM     52  C   UNL     1      -9.865   2.961  -6.165  1.00  0.00     0.049 A 
ATOM     53  H   UNL     1      -9.351   4.504  -7.463  1.00  0.00     0.167 HD
ATOM     54  C   UNL     1      -8.103   7.646 -10.302  1.00  0.00     0.037 A 
ATOM     55  C   UNL     1     -11.175   3.115  -5.889  1.00  0.00     0.037 A 
ATOM     56  C   UNL     1      -9.509   7.857 -10.104  1.00  0.00     0.049 A 
ATOM     57  C   UNL     1     -11.932   4.247  -6.542  1.00  0.00     0.074 A 
ATOM     58  C   UNL     1     -10.326   8.821 -10.665  1.00  0.00     0.029 A 
ATOM     59  N   UNL     1     -10.306   7.088  -9.269  1.00  0.00    -0.354 N 
ATOM     60  N   UNL     1     -11.507   5.148  -7.397  1.00  0.00    -0.248 NA
ATOM     61  C   UNL     1     -13.355   4.376  -6.198  1.00  0.00     0.031 C 
ATOM     62  C   UNL     1     -11.611   8.661 -10.135  1.00  0.00     0.029 A 
ATOM     63  C   UNL     1     -11.605   7.563  -9.289  1.00  0.00     0.049 A 
ATOM     64  H   UNL     1      -9.993   6.318  -8.740  1.00  0.00     0.167 HD
ATOM     65  C   UNL     1     -12.614   5.923  -7.720  1.00  0.00     0.074 A 
ATOM     66  C   UNL     1     -13.733   5.378  -6.979  1.00  0.00     0.031 C 
ATOM     67  C   UNL     1     -12.703   6.989  -8.554  1.00  0.00     0.037 A 
BRANCH  54  68
ATOM     68  C   UNL     1      -7.357   8.543 -11.244  1.00  0.00     0.064 A 
ATOM     69  C   UNL     1      -6.872   8.074 -12.474  1.00  0.00     0.173 A 
ATOM     70  C   UNL     1      -7.123   9.886 -10.913  1.00  0.00     0.173 A 
ATOM     71  F   UNL     1      -7.046   6.791 -12.824  1.00  0.00    -0.203 F 
ATOM     72  C   UNL     1      -6.159   8.911 -13.329  1.00  0.00     0.198 A 
ATOM     73  C   UNL     1      -6.435  10.727 -11.783  1.00  0.00     0.198 A 
ATOM     74  F   UNL     1      -7.560  10.381  -9.746  1.00  0.00    -0.203 F 
ATOM     75  F   UNL     1      -5.660   8.428 -14.475  1.00  0.00    -0.200 F 
ATOM     76  C   UNL     1      -5.947  10.238 -12.986  1.00  0.00     0.200 A 
ATOM     77  F   UNL     1      -6.237  12.011 -11.453  1.00  0.00    -0.200 F 
ATOM     78  F   UNL     1      -5.264  11.044 -13.810  1.00  0.00    -0.200 F 
ENDBRANCH  54  68
BRANCH  55  79
ATOM     79  C   UNL     1     -11.860   2.191  -4.947  1.00  0.00     0.064 A 
ATOM     80  C   UNL     1     -12.873   1.324  -5.382  1.00  0.00     0.173 A 
ATOM     81  C   UNL     1     -11.549   2.192  -3.579  1.00  0.00     0.173 A 
ATOM     82  F   UNL     1     -13.226   1.303  -6.676  1.00  0.00    -0.203 F 
ATOM     83  C   UNL     1     -13.567   0.516  -4.482  1.00  0.00     0.198 A 
ATOM     84  C   UNL     1     -12.223   1.362  -2.684  1.00  0.00     0.198 A 
ATOM     85  F   UNL     1     -10.591   3.003  -3.108  1.00  0.00    -0.203 F 
ATOM     86  F   UNL     1     -14.570  -0.258  -4.917  1.00  0.00    -0.200 F 
ATOM     87  C   UNL     1     -13.239   0.534  -3.135  1.00  0.00     0.200 A 
ATOM     88  F   UNL     1     -11.895   1.375  -1.385  1.00  0.00    -0.200 F 
ATOM     89  F   UNL     1     -13.910  -0.238  -2.269  1.00  0.00    -0.200 F 
ENDBRANCH  55  79
BRANCH  67  90
ATOM     90  C   UNL     1     -14.061   7.599  -8.749  1.00  0.00     0.064 A 
ATOM     91  C   UNL     1     -14.692   8.339  -7.739  1.00  0.00     0.173 A 
ATOM     92  C   UNL     1     -14.723   7.468  -9.980  1.00  0.00     0.173 A 
ATOM     93  F   UNL     1     -14.105   8.483  -6.541  1.00  0.00    -0.203 F 
ATOM     94  C   UNL     1     -15.953   8.894  -7.941  1.00  0.00     0.198 A 
ATOM     95  C   UNL     1     -15.968   8.053 -10.190  1.00  0.00     0.198 A 
ATOM     96  F   UNL     1     -14.157   6.781 -10.983  1.00  0.00    -0.203 F 
ATOM     97  F   UNL     1     -16.562   9.548  -6.942  1.00  0.00    -0.200 F 
ATOM     98  C   UNL     1     -16.587   8.756  -9.167  1.00  0.00     0.200 A 
ATOM     99  F   UNL     1     -16.571   7.933 -11.380  1.00  0.00    -0.200 F 
ATOM    100  F   UNL     1     -17.799   9.294  -9.361  1.00  0.00    -0.200 F 
ENDBRANCH  67  90
ENDBRANCH  41  42
ENDBRANCH  34  36
ENDBRANCH  33  34
ENDBRANCH  32  33
ENDBRANCH  31  32
ENDBRANCH  30  31
ENDBRANCH  29  30
ENDBRANCH  28  29
ENDBRANCH  27  28
ENDBRANCH   1  27
TORSDOF 24
