REMARK SMILES Cc1n[nH]c(C[N@H+]2CCC[C@H](c3cccc(C(=O)OCCOCCOCCOCCOC(=O)c4ccc(-c5c6nc(c(-c7c(F)c(F)c(F)c(F)c7F)c7ccc([nH]7)c(-c7c(F)c(F)c(F)c(F)c7F)c7nc(c(-c8c(F)c(F)c(F)c(F)c8F)c8ccc5[nH]8)C=C7)C=C6)cc4)c3)C2)n1
REMARK SMILES IDX 24 1 23 2 22 3 21 4 20 5 19 6 17 7 18 8 16 9 12 10 13 11
REMARK SMILES IDX 97 12 14 13 15 14 11 15 7 16 8 17 98 18 9 20 10 21 6 22 5 23
REMARK SMILES IDX 1 24 2 25 3 26 99 27 4 28 25 30 26 31 27 32 28 33 29 34
REMARK SMILES IDX 30 35 31 36 32 37 33 38 34 39 35 40 96 41 36 42 95 43 37 44
REMARK SMILES IDX 38 45 39 46 89 47 40 48 94 49 88 50 90 51 41 52 93 53 87 54
REMARK SMILES IDX 86 55 42 57 74 58 54 59 73 60 55 61 58 62 72 63 91 64 56 65
REMARK SMILES IDX 57 66 71 68 92 69 59 70 43 71 44 72 52 73 45 74 46 75 50 76
REMARK SMILES IDX 53 77 47 78 48 79 51 80 49 81 75 82 76 83 84 84 77 85 78 86
REMARK SMILES IDX 82 87 85 88 79 89 80 90 83 91 81 92 60 93 61 94 69 95 62 96
REMARK SMILES IDX 63 97 67 98 70 99 64 100 65 101 68 102 66 103
REMARK H PARENT 7 19 4 29 90 56 58 67
REMARK Flexibility Score: inf
ROOT
ATOM      1  C   UNL     1       0.615  10.326   4.117  1.00  0.00     0.188 C 
ENDROOT
BRANCH   1   2
ATOM      2  C   UNL     1       0.020  11.689   3.692  1.00  0.00     0.188 C 
BRANCH   2   3
ATOM      3  O   UNL     1      -0.985  12.197   4.559  1.00  0.00    -0.376 OA
BRANCH   3   4
ATOM      4  C   UNL     1      -2.262  12.424   3.984  1.00  0.00     0.202 C 
BRANCH   4   5
ATOM      5  C   UNL     1      -3.079  11.134   3.873  1.00  0.00     0.261 C 
BRANCH   5   6
ATOM      6  O   UNL     1      -2.474  10.147   3.026  1.00  0.00    -0.460 OA
BRANCH   6   7
ATOM      7  C   UNL     1      -2.328  10.473   1.719  1.00  0.00     0.338 C 
ATOM      8  O   UNL     1      -2.753  11.466   1.160  1.00  0.00    -0.246 OA
BRANCH   7   9
ATOM      9  C   UNL     1      -1.359   9.522   1.130  1.00  0.00     0.060 A 
ATOM     10  C   UNL     1      -0.463   7.260   0.959  1.00  0.00    -0.038 A 
ATOM     11  C   UNL     1       0.563   7.776   0.149  1.00  0.00     0.004 A 
ATOM     12  C   UNL     1      -1.387   8.171   1.491  1.00  0.00     0.020 A 
ATOM     13  C   UNL     1       0.613   9.133  -0.190  1.00  0.00     0.001 A 
ATOM     14  C   UNL     1      -0.365  10.004   0.278  1.00  0.00     0.016 A 
BRANCH  10  15
ATOM     15  C   UNL     1      -0.608   5.765   1.268  1.00  0.00     0.074 C 
ATOM     16  N   UNL     1      -0.344   4.900  -1.067  1.00  0.00    -0.328 N 
ATOM     17  C   UNL     1      -1.764   4.539  -1.151  1.00  0.00     0.262 C 
ATOM     18  C   UNL     1       0.168   4.818   0.317  1.00  0.00     0.270 C 
ATOM     19  H   UNL     1      -0.285   5.878  -1.351  1.00  0.00     0.348 HD
ATOM     20  C   UNL     1      -2.632   5.353  -0.188  1.00  0.00     0.062 C 
ATOM     21  C   UNL     1      -2.080   5.289   1.236  1.00  0.00     0.020 C 
BRANCH  16  22
ATOM     22  C   UNL     1       0.499   4.154  -2.016  1.00  0.00     0.340 C 
BRANCH  22  23
ATOM     23  C   UNL     1       0.529   2.680  -1.798  1.00  0.00     0.179 A 
ATOM     24  C   UNL     1       1.031  -0.370  -0.103  1.00  0.00     0.092 C 
ATOM     25  C   UNL     1       0.699   0.720  -1.040  1.00  0.00     0.147 A 
ATOM     26  N   UNL     1      -0.036   0.544  -2.144  1.00  0.00    -0.159 NA
ATOM     27  N   UNL     1       1.088   2.011  -0.809  1.00  0.00    -0.211 NA
ATOM     28  N   UNL     1      -0.118   1.798  -2.615  1.00  0.00    -0.258 N 
ATOM     29  H   UNL     1      -0.584   2.050  -3.445  1.00  0.00     0.192 HD
ENDBRANCH  22  23
ENDBRANCH  16  22
ENDBRANCH  10  15
ENDBRANCH   7   9
ENDBRANCH   6   7
ENDBRANCH   5   6
ENDBRANCH   4   5
ENDBRANCH   3   4
ENDBRANCH   2   3
ENDBRANCH   1   2
BRANCH   1  30
ATOM     30  O   UNL     1       0.481   9.801   5.436  1.00  0.00    -0.377 OA
BRANCH  30  31
ATOM     31  C   UNL     1       0.070  10.657   6.488  1.00  0.00     0.188 C 
BRANCH  31  32
ATOM     32  C   UNL     1       0.876  11.954   6.731  1.00  0.00     0.188 C 
BRANCH  32  33
ATOM     33  O   UNL     1       1.783  12.302   5.687  1.00  0.00    -0.376 OA
BRANCH  33  34
ATOM     34  C   UNL     1       3.172  12.322   5.982  1.00  0.00     0.202 C 
BRANCH  34  35
ATOM     35  C   UNL     1       3.820  10.938   5.949  1.00  0.00     0.261 C 
BRANCH  35  36
ATOM     36  O   UNL     1       3.156  10.008   6.789  1.00  0.00    -0.460 OA
BRANCH  36  37
ATOM     37  C   UNL     1       3.113  10.346   8.090  1.00  0.00     0.338 C 
ATOM     38  O   UNL     1       3.621  11.319   8.620  1.00  0.00    -0.246 OA
BRANCH  37  39
ATOM     39  C   UNL     1       2.416   9.290   8.832  1.00  0.00     0.060 A 
ATOM     40  C   UNL     1       2.336   9.513  10.207  1.00  0.00     0.016 A 
ATOM     41  C   UNL     1       2.390   8.011   8.264  1.00  0.00     0.016 A 
ATOM     42  C   UNL     1       2.655   8.461  11.023  1.00  0.00     0.010 A 
ATOM     43  C   UNL     1       2.746   6.968   9.075  1.00  0.00     0.010 A 
ATOM     44  C   UNL     1       2.996   7.250  10.416  1.00  0.00    -0.014 A 
BRANCH  44  45
ATOM     45  C   UNL     1       3.754   6.320  11.213  1.00  0.00     0.031 A 
ATOM     46  C   UNL     1       2.946   5.417  12.044  1.00  0.00     0.074 A 
ATOM     47  C   UNL     1       5.093   6.245  11.104  1.00  0.00     0.049 A 
ATOM     48  N   UNL     1       2.982   5.271  13.325  1.00  0.00    -0.248 NA
ATOM     49  C   UNL     1       1.898   4.644  11.363  1.00  0.00     0.031 C 
ATOM     50  C   UNL     1       5.957   6.845  10.083  1.00  0.00     0.029 A 
ATOM     51  N   UNL     1       5.951   5.483  11.829  1.00  0.00    -0.354 N 
ATOM     52  C   UNL     1       2.060   4.272  13.604  1.00  0.00     0.074 A 
ATOM     53  C   UNL     1       1.328   4.020  12.390  1.00  0.00     0.031 C 
ATOM     54  C   UNL     1       7.159   6.225  10.113  1.00  0.00     0.029 A 
ATOM     55  C   UNL     1       7.169   5.269  11.210  1.00  0.00     0.049 A 
ATOM     56  H   UNL     1       5.726   5.116  12.714  1.00  0.00     0.167 HD
ATOM     57  C   UNL     1       2.107   3.564  14.760  1.00  0.00     0.037 A 
ATOM     58  C   UNL     1       8.043   4.278  11.514  1.00  0.00     0.037 A 
ATOM     59  C   UNL     1       2.841   4.249  15.788  1.00  0.00     0.049 A 
ATOM     60  C   UNL     1       7.684   3.752  12.861  1.00  0.00     0.074 A 
ATOM     61  C   UNL     1       2.721   5.494  16.380  1.00  0.00     0.029 A 
ATOM     62  N   UNL     1       4.098   3.806  16.122  1.00  0.00    -0.354 N 
ATOM     63  N   UNL     1       7.862   4.396  13.982  1.00  0.00    -0.248 NA
ATOM     64  C   UNL     1       6.717   2.662  12.920  1.00  0.00     0.031 C 
ATOM     65  C   UNL     1       4.058   5.933  16.602  1.00  0.00     0.029 A 
ATOM     66  C   UNL     1       4.903   4.918  16.158  1.00  0.00     0.049 A 
ATOM     67  H   UNL     1       4.368   2.876  16.301  1.00  0.00     0.167 HD
ATOM     68  C   UNL     1       6.758   4.073  14.759  1.00  0.00     0.074 A 
ATOM     69  C   UNL     1       6.138   2.933  14.092  1.00  0.00     0.031 C 
ATOM     70  C   UNL     1       6.274   4.927  15.708  1.00  0.00     0.037 A 
BRANCH  57  71
ATOM     71  C   UNL     1       1.736   2.113  14.830  1.00  0.00     0.064 A 
ATOM     72  C   UNL     1       1.525   1.509  16.079  1.00  0.00     0.173 A 
ATOM     73  C   UNL     1       1.834   1.235  13.726  1.00  0.00     0.173 A 
ATOM     74  F   UNL     1       1.466   2.252  17.194  1.00  0.00    -0.203 F 
ATOM     75  C   UNL     1       1.452   0.121  16.216  1.00  0.00     0.198 A 
ATOM     76  C   UNL     1       1.696  -0.142  13.858  1.00  0.00     0.198 A 
ATOM     77  F   UNL     1       2.174   1.667  12.504  1.00  0.00    -0.203 F 
ATOM     78  F   UNL     1       1.362  -0.420  17.438  1.00  0.00    -0.200 F 
ATOM     79  C   UNL     1       1.532  -0.702  15.106  1.00  0.00     0.200 A 
ATOM     80  F   UNL     1       1.800  -0.922  12.773  1.00  0.00    -0.200 F 
ATOM     81  F   UNL     1       1.505  -2.034  15.243  1.00  0.00    -0.200 F 
ENDBRANCH  57  71
BRANCH  58  82
ATOM     82  C   UNL     1       8.947   3.555  10.588  1.00  0.00     0.064 A 
ATOM     83  C   UNL     1       9.999   2.766  11.080  1.00  0.00     0.173 A 
ATOM     84  C   UNL     1       8.666   3.429   9.212  1.00  0.00     0.173 A 
ATOM     85  F   UNL     1      10.296   2.777  12.387  1.00  0.00    -0.203 F 
ATOM     86  C   UNL     1      10.721   1.904  10.248  1.00  0.00     0.198 A 
ATOM     87  C   UNL     1       9.401   2.586   8.379  1.00  0.00     0.198 A 
ATOM     88  F   UNL     1       7.614   4.048   8.659  1.00  0.00    -0.203 F 
ATOM     89  F   UNL     1      11.679   1.123  10.766  1.00  0.00    -0.200 F 
ATOM     90  C   UNL     1      10.421   1.815   8.898  1.00  0.00     0.200 A 
ATOM     91  F   UNL     1       9.074   2.485   7.082  1.00  0.00    -0.200 F 
ATOM     92  F   UNL     1      11.085   0.959   8.109  1.00  0.00    -0.200 F 
ENDBRANCH  58  82
BRANCH  70  93
ATOM     93  C   UNL     1       7.107   6.114  16.093  1.00  0.00     0.064 A 
ATOM     94  C   UNL     1       7.492   7.120  15.190  1.00  0.00     0.173 A 
ATOM     95  C   UNL     1       7.393   6.322  17.450  1.00  0.00     0.173 A 
ATOM     96  F   UNL     1       7.150   7.053  13.896  1.00  0.00    -0.203 F 
ATOM     97  C   UNL     1       8.182   8.251  15.621  1.00  0.00     0.198 A 
ATOM     98  C   UNL     1       8.048   7.472  17.883  1.00  0.00     0.198 A 
ATOM     99  F   UNL     1       6.992   5.427  18.368  1.00  0.00    -0.203 F 
ATOM    100  F   UNL     1       8.553   9.189  14.736  1.00  0.00    -0.200 F 
ATOM    101  C   UNL     1       8.454   8.429  16.967  1.00  0.00     0.200 A 
ATOM    102  F   UNL     1       8.260   7.666  19.192  1.00  0.00    -0.200 F 
ATOM    103  F   UNL     1       9.082   9.537  17.387  1.00  0.00    -0.200 F 
ENDBRANCH  70  93
ENDBRANCH  44  45
ENDBRANCH  37  39
ENDBRANCH  36  37
ENDBRANCH  35  36
ENDBRANCH  34  35
ENDBRANCH  33  34
ENDBRANCH  32  33
ENDBRANCH  31  32
ENDBRANCH  30  31
ENDBRANCH   1  30
TORSDOF 23
