REMARK SMILES O=C(OCCOCCOCCOCCOC(=O)c1cccnc1C(=O)Nc1ccc([N+](=O)[O-])cc1)c1ccc(-c2c3nc(c(-c4c(F)c(F)c(F)c(F)c4F)c4ccc([nH]4)c(-c4c(F)c(F)c(F)c(F)c4F)c4nc(c(-c5c(F)c(F)c(F)c(F)c5F)c5ccc2[nH]5)C=C4)C=C3)cc1
REMARK SMILES IDX 10 1 9 2 8 3 7 4 6 5 5 6 4 7 3 8 2 9 1 10 36 11 37 12 98 13
REMARK SMILES IDX 38 14 97 15 39 16 40 17 41 18 91 19 42 20 96 21 90 22 92 23
REMARK SMILES IDX 43 24 95 25 89 26 88 27 44 29 76 30 56 31 75 32 57 33 60 34
REMARK SMILES IDX 74 35 93 36 58 37 59 38 73 40 94 41 61 42 45 43 46 44 54 45
REMARK SMILES IDX 47 46 48 47 52 48 55 49 49 50 50 51 53 52 51 53 77 54 78 55
REMARK SMILES IDX 86 56 79 57 80 58 84 59 87 60 81 61 82 62 85 63 83 64 62 65
REMARK SMILES IDX 63 66 71 67 64 68 65 69 69 70 72 71 66 72 67 73 70 74 68 75
REMARK SMILES IDX 11 76 12 77 13 78 14 79 15 80 16 81 17 82 18 83 19 84 23 85
REMARK SMILES IDX 20 86 22 87 21 88 24 89 25 90 26 91 27 93 28 94 35 95 29 96
REMARK SMILES IDX 34 97 30 98 31 99 32 100 33 101
REMARK H PARENT 92 28 60 39 26 92
REMARK Flexibility Score: inf
ROOT
ATOM      1  C   UNL     1       4.489  -1.672  -2.479  1.00  0.00     0.188 C 
ENDROOT
BRANCH   1   2
ATOM      2  O   UNL     1       3.171  -2.207  -2.663  1.00  0.00    -0.377 OA
BRANCH   2   3
ATOM      3  C   UNL     1       2.039  -1.460  -2.233  1.00  0.00     0.188 C 
BRANCH   3   4
ATOM      4  C   UNL     1       1.987  -1.103  -0.751  1.00  0.00     0.188 C 
BRANCH   4   5
ATOM      5  O   UNL     1       3.271  -0.764  -0.253  1.00  0.00    -0.376 OA
BRANCH   5   6
ATOM      6  C   UNL     1       3.861  -1.666   0.675  1.00  0.00     0.202 C 
BRANCH   6   7
ATOM      7  C   UNL     1       3.745  -1.137   2.099  1.00  0.00     0.261 C 
BRANCH   7   8
ATOM      8  O   UNL     1       2.410  -0.692   2.372  1.00  0.00    -0.460 OA
BRANCH   8   9
ATOM      9  C   UNL     1       1.881   0.493   1.976  1.00  0.00     0.338 C 
ATOM     10  O   UNL     1       0.659   0.624   1.938  1.00  0.00    -0.246 OA
BRANCH   9  11
ATOM     11  C   UNL     1       2.711   1.706   1.714  1.00  0.00     0.060 A 
ATOM     12  C   UNL     1       3.838   1.766   0.888  1.00  0.00     0.016 A 
ATOM     13  C   UNL     1       2.240   2.899   2.276  1.00  0.00     0.016 A 
ATOM     14  C   UNL     1       4.501   2.956   0.638  1.00  0.00     0.010 A 
ATOM     15  C   UNL     1       2.904   4.104   2.045  1.00  0.00     0.010 A 
ATOM     16  C   UNL     1       4.054   4.121   1.245  1.00  0.00    -0.014 A 
BRANCH  16  17
ATOM     17  C   UNL     1       4.966   5.272   1.254  1.00  0.00     0.031 A 
ATOM     18  C   UNL     1       5.750   5.495   2.508  1.00  0.00     0.074 A 
ATOM     19  C   UNL     1       5.177   5.992   0.142  1.00  0.00     0.049 A 
ATOM     20  N   UNL     1       6.500   6.501   2.857  1.00  0.00    -0.248 NA
ATOM     21  C   UNL     1       5.675   4.419   3.514  1.00  0.00     0.031 C 
ATOM     22  C   UNL     1       4.588   5.717  -1.170  1.00  0.00     0.029 A 
ATOM     23  N   UNL     1       5.960   7.093  -0.064  1.00  0.00    -0.354 N 
ATOM     24  C   UNL     1       6.934   6.207   4.143  1.00  0.00     0.074 A 
ATOM     25  C   UNL     1       6.370   4.931   4.514  1.00  0.00     0.031 C 
ATOM     26  C   UNL     1       5.033   6.631  -2.047  1.00  0.00     0.029 A 
ATOM     27  C   UNL     1       5.864   7.597  -1.337  1.00  0.00     0.049 A 
ATOM     28  H   UNL     1       6.536   7.486   0.631  1.00  0.00     0.167 HD
ATOM     29  C   UNL     1       7.724   6.960   4.941  1.00  0.00     0.037 A 
ATOM     30  C   UNL     1       6.356   8.747  -1.833  1.00  0.00     0.037 A 
ATOM     31  C   UNL     1       8.266   8.221   4.515  1.00  0.00     0.049 A 
ATOM     32  C   UNL     1       7.134   9.633  -0.894  1.00  0.00     0.074 A 
ATOM     33  C   UNL     1       9.028   9.126   5.225  1.00  0.00     0.029 A 
ATOM     34  N   UNL     1       8.089   8.751   3.240  1.00  0.00    -0.354 N 
ATOM     35  N   UNL     1       7.468   9.419   0.359  1.00  0.00    -0.248 NA
ATOM     36  C   UNL     1       7.585  10.923  -1.424  1.00  0.00     0.031 C 
ATOM     37  C   UNL     1       9.259  10.231   4.398  1.00  0.00     0.029 A 
ATOM     38  C   UNL     1       8.707   9.983   3.148  1.00  0.00     0.049 A 
ATOM     39  H   UNL     1       7.595   8.311   2.511  1.00  0.00     0.167 HD
ATOM     40  C   UNL     1       8.190  10.533   0.761  1.00  0.00     0.074 A 
ATOM     41  C   UNL     1       8.255  11.414  -0.391  1.00  0.00     0.031 C 
ATOM     42  C   UNL     1       8.750  10.812   1.967  1.00  0.00     0.037 A 
BRANCH  29  43
ATOM     43  C   UNL     1       7.930   6.476   6.347  1.00  0.00     0.064 A 
ATOM     44  C   UNL     1       8.645   5.305   6.646  1.00  0.00     0.173 A 
ATOM     45  C   UNL     1       7.318   7.155   7.413  1.00  0.00     0.173 A 
ATOM     46  F   UNL     1       9.220   4.596   5.662  1.00  0.00    -0.203 F 
ATOM     47  C   UNL     1       8.692   4.804   7.946  1.00  0.00     0.198 A 
ATOM     48  C   UNL     1       7.400   6.672   8.717  1.00  0.00     0.198 A 
ATOM     49  F   UNL     1       6.613   8.273   7.188  1.00  0.00    -0.203 F 
ATOM     50  F   UNL     1       9.300   3.634   8.189  1.00  0.00    -0.200 F 
ATOM     51  C   UNL     1       8.072   5.489   8.980  1.00  0.00     0.200 A 
ATOM     52  F   UNL     1       6.802   7.338   9.714  1.00  0.00    -0.200 F 
ATOM     53  F   UNL     1       8.102   4.996  10.226  1.00  0.00    -0.200 F 
ENDBRANCH  29  43
BRANCH  30  54
ATOM     54  C   UNL     1       6.082   9.140  -3.242  1.00  0.00     0.064 A 
ATOM     55  C   UNL     1       7.118   9.256  -4.177  1.00  0.00     0.173 A 
ATOM     56  C   UNL     1       4.776   9.404  -3.688  1.00  0.00     0.173 A 
ATOM     57  F   UNL     1       8.386   9.031  -3.802  1.00  0.00    -0.203 F 
ATOM     58  C   UNL     1       6.863   9.632  -5.496  1.00  0.00     0.198 A 
ATOM     59  C   UNL     1       4.518   9.749  -5.013  1.00  0.00     0.198 A 
ATOM     60  F   UNL     1       3.743   9.307  -2.838  1.00  0.00    -0.203 F 
ATOM     61  F   UNL     1       7.879   9.772  -6.359  1.00  0.00    -0.200 F 
ATOM     62  C   UNL     1       5.563   9.871  -5.915  1.00  0.00     0.200 A 
ATOM     63  F   UNL     1       3.257   9.958  -5.416  1.00  0.00    -0.200 F 
ATOM     64  F   UNL     1       5.318  10.221  -7.185  1.00  0.00    -0.200 F 
ENDBRANCH  30  54
BRANCH  42  65
ATOM     65  C   UNL     1       9.524  12.092   2.072  1.00  0.00     0.064 A 
ATOM     66  C   UNL     1       8.891  13.342   2.083  1.00  0.00     0.173 A 
ATOM     67  C   UNL     1      10.919  12.054   2.225  1.00  0.00     0.173 A 
ATOM     68  F   UNL     1       7.561  13.428   1.925  1.00  0.00    -0.203 F 
ATOM     69  C   UNL     1       9.631  14.512   2.217  1.00  0.00     0.198 A 
ATOM     70  C   UNL     1      11.650  13.223   2.399  1.00  0.00     0.198 A 
ATOM     71  F   UNL     1      11.568  10.880   2.231  1.00  0.00    -0.203 F 
ATOM     72  F   UNL     1       9.013  15.701   2.172  1.00  0.00    -0.200 F 
ATOM     73  C   UNL     1      11.007  14.452   2.386  1.00  0.00     0.200 A 
ATOM     74  F   UNL     1      12.975  13.161   2.583  1.00  0.00    -0.200 F 
ATOM     75  F   UNL     1      11.715  15.579   2.530  1.00  0.00    -0.200 F 
ENDBRANCH  42  65
ENDBRANCH  16  17
ENDBRANCH   9  11
ENDBRANCH   8   9
ENDBRANCH   7   8
ENDBRANCH   6   7
ENDBRANCH   5   6
ENDBRANCH   4   5
ENDBRANCH   3   4
ENDBRANCH   2   3
ENDBRANCH   1   2
BRANCH   1  76
ATOM     76  C   UNL     1       4.783  -0.144  -2.485  1.00  0.00     0.188 C 
BRANCH  76  77
ATOM     77  O   UNL     1       3.698   0.682  -2.883  1.00  0.00    -0.376 OA
BRANCH  77  78
ATOM     78  C   UNL     1       3.928   1.666  -3.893  1.00  0.00     0.202 C 
BRANCH  78  79
ATOM     79  C   UNL     1       3.262   1.255  -5.347  1.00  0.00     0.261 C 
BRANCH  79  80
ATOM     80  O   UNL     1       4.093   0.310  -6.935  1.00  0.00    -0.460 OA
BRANCH  80  81
ATOM     81  C   UNL     1       4.839  -0.670  -7.716  1.00  0.00     0.340 C 
ATOM     82  O   UNL     1       5.077  -0.437  -8.900  1.00  0.00    -0.246 OA
BRANCH  81  83
ATOM     83  C   UNL     1       5.236  -2.054  -7.190  1.00  0.00     0.091 A 
ATOM     84  C   UNL     1       4.522  -3.132  -7.743  1.00  0.00     0.020 A 
ATOM     85  C   UNL     1       6.137  -2.380  -6.156  1.00  0.00     0.142 A 
ATOM     86  C   UNL     1       4.684  -4.431  -7.246  1.00  0.00     0.021 A 
ATOM     87  N   UNL     1       6.308  -3.655  -5.677  1.00  0.00    -0.250 NA
ATOM     88  C   UNL     1       5.579  -4.642  -6.218  1.00  0.00     0.112 A 
BRANCH  85  89
ATOM     89  C   UNL     1       6.965  -1.413  -5.361  1.00  0.00     0.275 C 
ATOM     90  O   UNL     1       8.049  -1.727  -4.873  1.00  0.00    -0.267 OA
ATOM     91  N   UNL     1       6.516  -0.141  -5.174  1.00  0.00    -0.321 N 
ATOM     92  H   UNL     1       7.153   0.521  -4.821  1.00  0.00     0.170 HD
BRANCH  91  93
ATOM     93  C   UNL     1       5.229   0.286  -5.446  1.00  0.00     0.042 A 
ATOM     94  C   UNL     1       5.182   1.819  -6.392  1.00  0.00     0.033 A 
ATOM     95  C   UNL     1       3.775  -0.835  -5.433  1.00  0.00     0.033 A 
ATOM     96  C   UNL     1       3.765   2.182  -7.409  1.00  0.00     0.088 A 
ATOM     97  C   UNL     1       2.360  -0.466  -6.498  1.00  0.00     0.088 A 
ATOM     98  C   UNL     1       2.374   1.053  -7.443  1.00  0.00     0.269 A 
BRANCH  98  99
ATOM     99  N   UNL     1       1.151   1.501  -8.069  1.00  0.00     0.062 N 
ATOM    100  O   UNL     1       1.114   2.677  -8.451  1.00  0.00    -0.258 OA
ATOM    101  O   UNL     1       0.211   0.699  -8.109  1.00  0.00    -0.258 OA
ENDBRANCH  98  99
ENDBRANCH  91  93
ENDBRANCH  85  89
ENDBRANCH  81  83
ENDBRANCH  80  81
ENDBRANCH  79  80
ENDBRANCH  78  79
ENDBRANCH  77  78
ENDBRANCH  76  77
ENDBRANCH   1  76
TORSDOF 23
