REMARK SMILES C[C@H](NC(=O)c1c(C(=O)OCCOCCOCCOCCOC(=O)c2ccc(-c3c4nc(c(-c5c(F)c(F)c(F)c(F)c5F)c5ccc([nH]5)c(-c5c(F)c(F)c(F)c(F)c5F)c5nc(c(-c6c(F)c(F)c(F)c(F)c6F)c6ccc3[nH]6)C=C5)C=C4)cc2)cnn1C)[C@]12C[C@H]3C[C@H](C[C@H](C3)C1)C2
REMARK SMILES IDX 15 1 14 2 13 3 12 4 11 5 10 6 8 7 9 8 7 9 6 10 90 11 88 12
REMARK SMILES IDX 89 13 91 14 4 15 3 16 5 18 2 19 1 20 92 21 93 22 100 23
REMARK SMILES IDX 101 24 94 25 98 26 96 27 95 28 99 29 97 30 16 31 17 32 18 33
REMARK SMILES IDX 19 34 20 35 21 36 22 37 23 38 24 39 25 40 26 41 87 42 27 43
REMARK SMILES IDX 86 44 28 45 29 46 30 47 80 48 31 49 85 50 79 51 81 52 32 53
REMARK SMILES IDX 84 54 78 55 77 56 33 58 65 59 45 60 64 61 46 62 49 63 63 64
REMARK SMILES IDX 82 65 47 66 48 67 62 69 83 70 50 71 34 72 35 73 43 74 36 75
REMARK SMILES IDX 37 76 41 77 44 78 38 79 39 80 42 81 40 82 66 83 67 84 75 85
REMARK SMILES IDX 68 86 69 87 73 88 76 89 70 90 71 91 74 92 72 93 51 94 52 95
REMARK SMILES IDX 60 96 53 97 54 98 58 99 61 100 55 101 56 102 59 103 57 104
REMARK H PARENT 3 17 81 57 49 68
REMARK Flexibility Score: inf
ROOT
ATOM      1  C   UNL     1       5.320   1.027  -2.142  1.00  0.00     0.188 C 
ENDROOT
BRANCH   1   2
ATOM      2  C   UNL     1       6.758   1.164  -1.621  1.00  0.00     0.188 C 
BRANCH   2   3
ATOM      3  O   UNL     1       7.408  -0.082  -1.369  1.00  0.00    -0.376 OA
BRANCH   3   4
ATOM      4  C   UNL     1       7.566  -0.425   0.004  1.00  0.00     0.202 C 
BRANCH   4   5
ATOM      5  C   UNL     1       6.301  -1.011   0.646  1.00  0.00     0.261 C 
BRANCH   5   6
ATOM      6  O   UNL     1       5.191  -0.103   0.686  1.00  0.00    -0.460 OA
BRANCH   6   7
ATOM      7  C   UNL     1       5.335   0.996   1.466  1.00  0.00     0.342 C 
ATOM      8  O   UNL     1       6.318   1.224   2.162  1.00  0.00    -0.246 OA
BRANCH   7   9
ATOM      9  C   UNL     1       4.286   1.973   1.264  1.00  0.00     0.111 A 
ATOM     10  C   UNL     1       2.925   1.786   1.004  1.00  0.00     0.140 A 
ATOM     11  N   UNL     1       2.405   3.056   1.091  1.00  0.00    -0.262 N 
ATOM     12  C   UNL     1       4.474   3.369   1.265  1.00  0.00     0.151 A 
ATOM     13  N   UNL     1       3.336   4.031   1.081  1.00  0.00    -0.180 NA
ATOM     14  C   UNL     1       1.051   3.455   1.386  1.00  0.00     0.174 C 
BRANCH  10  15
ATOM     15  C   UNL     1       2.213   0.534   0.922  1.00  0.00     0.270 C 
ATOM     16  N   UNL     1       1.192   0.324   0.029  1.00  0.00    -0.348 N 
ATOM     17  H   UNL     1       0.767  -0.557   0.135  1.00  0.00     0.164 HD
ATOM     18  O   UNL     1       2.497  -0.417   1.651  1.00  0.00    -0.267 OA
BRANCH  16  19
ATOM     19  C   UNL     1       0.590   1.121  -1.051  1.00  0.00     0.085 C 
ATOM     20  C   UNL     1       1.248   0.733  -2.378  1.00  0.00     0.031 C 
BRANCH  19  21
ATOM     21  C   UNL     1      -1.004   1.043  -1.048  1.00  0.00    -0.009 C 
ATOM     22  C   UNL     1      -1.562   0.234   0.165  1.00  0.00     0.012 C 
ATOM     23  C   UNL     1      -1.615   0.411  -2.336  1.00  0.00     0.012 C 
ATOM     24  C   UNL     1      -1.580   2.489  -0.941  1.00  0.00     0.012 C 
ATOM     25  C   UNL     1      -3.100   0.242   0.204  1.00  0.00    -0.010 C 
ATOM     26  C   UNL     1      -3.157   0.416  -2.300  1.00  0.00    -0.010 C 
ATOM     27  C   UNL     1      -3.116   2.499  -0.898  1.00  0.00    -0.010 C 
ATOM     28  C   UNL     1      -3.594   1.690   0.317  1.00  0.00     0.007 C 
ATOM     29  C   UNL     1      -3.643  -0.387  -1.086  1.00  0.00     0.007 C 
ATOM     30  C   UNL     1      -3.662   1.863  -2.183  1.00  0.00     0.007 C 
ENDBRANCH  19  21
ENDBRANCH  16  19
ENDBRANCH  10  15
ENDBRANCH   7   9
ENDBRANCH   6   7
ENDBRANCH   5   6
ENDBRANCH   4   5
ENDBRANCH   3   4
ENDBRANCH   2   3
ENDBRANCH   1   2
BRANCH   1  31
ATOM     31  O   UNL     1       4.809  -0.290  -2.233  1.00  0.00    -0.377 OA
BRANCH  31  32
ATOM     32  C   UNL     1       5.396  -1.206  -3.151  1.00  0.00     0.188 C 
BRANCH  32  33
ATOM     33  C   UNL     1       6.511  -0.787  -4.130  1.00  0.00     0.188 C 
BRANCH  33  34
ATOM     34  O   UNL     1       6.369   0.526  -4.662  1.00  0.00    -0.376 OA
BRANCH  34  35
ATOM     35  C   UNL     1       5.978   0.612  -6.026  1.00  0.00     0.202 C 
BRANCH  35  36
ATOM     36  C   UNL     1       4.467   0.452  -6.223  1.00  0.00     0.261 C 
BRANCH  36  37
ATOM     37  O   UNL     1       3.968  -0.862  -5.925  1.00  0.00    -0.460 OA
BRANCH  37  38
ATOM     38  C   UNL     1       4.458  -1.878  -6.667  1.00  0.00     0.338 C 
ATOM     39  O   UNL     1       5.234  -1.810  -7.603  1.00  0.00    -0.246 OA
BRANCH  38  40
ATOM     40  C   UNL     1       4.015  -3.141  -6.053  1.00  0.00     0.060 A 
ATOM     41  C   UNL     1       4.979  -4.093  -5.701  1.00  0.00     0.016 A 
ATOM     42  C   UNL     1       2.655  -3.388  -5.847  1.00  0.00     0.016 A 
ATOM     43  C   UNL     1       4.578  -5.322  -5.180  1.00  0.00     0.010 A 
ATOM     44  C   UNL     1       2.255  -4.623  -5.340  1.00  0.00     0.010 A 
ATOM     45  C   UNL     1       3.212  -5.607  -5.040  1.00  0.00    -0.014 A 
BRANCH  45  46
ATOM     46  C   UNL     1       2.769  -6.994  -4.776  1.00  0.00     0.031 A 
ATOM     47  C   UNL     1       2.452  -7.874  -5.951  1.00  0.00     0.074 A 
ATOM     48  C   UNL     1       2.638  -7.457  -3.522  1.00  0.00     0.049 A 
ATOM     49  N   UNL     1       2.015  -9.107  -5.974  1.00  0.00    -0.248 NA
ATOM     50  C   UNL     1       2.652  -7.280  -7.283  1.00  0.00     0.031 C 
ATOM     51  C   UNL     1       2.938  -6.706  -2.306  1.00  0.00     0.029 A 
ATOM     52  N   UNL     1       2.204  -8.677  -3.070  1.00  0.00    -0.354 N 
ATOM     53  C   UNL     1       1.885  -9.433  -7.317  1.00  0.00     0.074 A 
ATOM     54  C   UNL     1       2.263  -8.263  -8.080  1.00  0.00     0.031 C 
ATOM     55  C   UNL     1       2.674  -7.483  -1.241  1.00  0.00     0.029 A 
ATOM     56  C   UNL     1       2.164  -8.773  -1.702  1.00  0.00     0.049 A 
ATOM     57  H   UNL     1       1.947  -9.414  -3.671  1.00  0.00     0.167 HD
ATOM     58  C   UNL     1       1.491 -10.605  -7.866  1.00  0.00     0.037 A 
ATOM     59  C   UNL     1       1.748  -9.787  -0.920  1.00  0.00     0.037 A 
ATOM     60  C   UNL     1       1.112 -11.766  -7.109  1.00  0.00     0.049 A 
ATOM     61  C   UNL     1       1.244 -11.057  -1.556  1.00  0.00     0.074 A 
ATOM     62  C   UNL     1       0.737 -13.015  -7.571  1.00  0.00     0.029 A 
ATOM     63  N   UNL     1       1.046 -11.813  -5.724  1.00  0.00    -0.354 N 
ATOM     64  N   UNL     1       1.171 -11.377  -2.825  1.00  0.00    -0.248 NA
ATOM     65  C   UNL     1       0.759 -12.105  -0.646  1.00  0.00     0.031 C 
ATOM     66  C   UNL     1       0.399 -13.804  -6.466  1.00  0.00     0.029 A 
ATOM     67  C   UNL     1       0.604 -13.060  -5.315  1.00  0.00     0.049 A 
ATOM     68  H   UNL     1       1.278 -11.070  -5.122  1.00  0.00     0.167 HD
ATOM     69  C   UNL     1       0.665 -12.670  -2.866  1.00  0.00     0.074 A 
ATOM     70  C   UNL     1       0.450 -13.078  -1.493  1.00  0.00     0.031 C 
ATOM     71  C   UNL     1       0.405 -13.451  -3.943  1.00  0.00     0.037 A 
BRANCH  58  72
ATOM     72  C   UNL     1       1.426 -10.673  -9.361  1.00  0.00     0.064 A 
ATOM     73  C   UNL     1       2.587 -10.726 -10.146  1.00  0.00     0.173 A 
ATOM     74  C   UNL     1       0.186 -10.690 -10.015  1.00  0.00     0.173 A 
ATOM     75  F   UNL     1       3.796 -10.692  -9.567  1.00  0.00    -0.203 F 
ATOM     76  C   UNL     1       2.508 -10.768 -11.536  1.00  0.00     0.198 A 
ATOM     77  C   UNL     1       0.111 -10.757 -11.404  1.00  0.00     0.198 A 
ATOM     78  F   UNL     1      -0.953 -10.639  -9.308  1.00  0.00    -0.203 F 
ATOM     79  F   UNL     1       3.630 -10.770 -12.269  1.00  0.00    -0.200 F 
ATOM     80  C   UNL     1       1.271 -10.788 -12.163  1.00  0.00     0.200 A 
ATOM     81  F   UNL     1      -1.085 -10.781 -12.008  1.00  0.00    -0.200 F 
ATOM     82  F   UNL     1       1.197 -10.826 -13.500  1.00  0.00    -0.200 F 
ENDBRANCH  58  72
BRANCH  59  83
ATOM     83  C   UNL     1       1.797  -9.652   0.558  1.00  0.00     0.064 A 
ATOM     84  C   UNL     1       2.720 -10.386   1.315  1.00  0.00     0.173 A 
ATOM     85  C   UNL     1       0.912  -8.807   1.243  1.00  0.00     0.173 A 
ATOM     86  F   UNL     1       3.566 -11.229   0.705  1.00  0.00    -0.203 F 
ATOM     87  C   UNL     1       2.749 -10.289   2.704  1.00  0.00     0.198 A 
ATOM     88  C   UNL     1       0.957  -8.694   2.631  1.00  0.00     0.198 A 
ATOM     89  F   UNL     1       0.005  -8.091   0.563  1.00  0.00    -0.203 F 
ATOM     90  F   UNL     1       3.614 -11.032   3.408  1.00  0.00    -0.200 F 
ATOM     91  C   UNL     1       1.871  -9.439   3.361  1.00  0.00     0.200 A 
ATOM     92  F   UNL     1       0.108  -7.871   3.262  1.00  0.00    -0.200 F 
ATOM     93  F   UNL     1       1.898  -9.348   4.697  1.00  0.00    -0.200 F 
ENDBRANCH  59  83
BRANCH  71  94
ATOM     94  C   UNL     1      -0.106 -14.837  -3.684  1.00  0.00     0.064 A 
ATOM     95  C   UNL     1      -1.425 -15.068  -3.268  1.00  0.00     0.173 A 
ATOM     96  C   UNL     1       0.720 -15.950  -3.904  1.00  0.00     0.173 A 
ATOM     97  F   UNL     1      -2.248 -14.035  -3.031  1.00  0.00    -0.203 F 
ATOM     98  C   UNL     1      -1.894 -16.363  -3.065  1.00  0.00     0.198 A 
ATOM     99  C   UNL     1       0.240 -17.244  -3.724  1.00  0.00     0.198 A 
ATOM    100  F   UNL     1       1.988 -15.781  -4.309  1.00  0.00    -0.203 F 
ATOM    101  F   UNL     1      -3.147 -16.560  -2.632  1.00  0.00    -0.200 F 
ATOM    102  C   UNL     1      -1.064 -17.450  -3.300  1.00  0.00     0.200 A 
ATOM    103  F   UNL     1       1.040 -18.293  -3.963  1.00  0.00    -0.200 F 
ATOM    104  F   UNL     1      -1.520 -18.696  -3.112  1.00  0.00    -0.200 F 
ENDBRANCH  71  94
ENDBRANCH  45  46
ENDBRANCH  38  40
ENDBRANCH  37  38
ENDBRANCH  36  37
ENDBRANCH  35  36
ENDBRANCH  34  35
ENDBRANCH  33  34
ENDBRANCH  32  33
ENDBRANCH  31  32
ENDBRANCH   1  31
TORSDOF 23
