REMARK SMILES CCCCCCNC(=O)Nc1cccc(-c2ccc([C@@H](C)C(=O)OCCOCCOCCOCCOC(=O)c3ccc(-c4c5nc(c(-c6c(F)c(F)c(F)c(F)c6F)c6ccc([nH]6)c(-c6c(F)c(F)c(F)c(F)c6F)c6nc(c(-c7c(F)c(F)c(F)c(F)c7F)c7ccc4[nH]7)C=C6)C=C5)cc3)cc2F)c1
REMARK SMILES IDX 27 1 26 2 25 3 24 4 22 5 23 6 20 7 21 8 19 9 16 10 17 11
REMARK SMILES IDX 103 12 18 13 102 14 104 15 15 16 11 17 12 18 105 19 13 20
REMARK SMILES IDX 14 21 10 22 7 23 8 24 9 26 6 28 5 29 4 30 3 31 2 32 1 33
REMARK SMILES IDX 28 34 29 35 30 36 31 37 32 38 33 39 34 40 35 41 36 42 37 43
REMARK SMILES IDX 38 44 39 45 40 46 101 47 41 48 100 49 42 50 43 51 44 52
REMARK SMILES IDX 94 53 45 54 99 55 93 56 95 57 46 58 98 59 92 60 91 61 47 63
REMARK SMILES IDX 79 64 59 65 78 66 60 67 63 68 77 69 96 70 61 71 62 72 76 74
REMARK SMILES IDX 97 75 64 76 48 77 49 78 57 79 50 80 51 81 55 82 58 83 52 84
REMARK SMILES IDX 53 85 56 86 54 87 80 88 81 89 89 90 82 91 83 92 87 93 90 94
REMARK SMILES IDX 84 95 85 96 88 97 86 98 65 99 66 100 74 101 67 102 68 103
REMARK SMILES IDX 72 104 75 105 69 106 70 107 73 108 71 109
REMARK H PARENT 7 25 10 27 95 62 63 73
REMARK Flexibility Score: inf
ROOT
ATOM      1  O   UNL     1       2.296  -5.044   3.928  1.00  0.00    -0.376 OA
ENDROOT
BRANCH   1   2
ATOM      2  C   UNL     1       2.183  -5.177   2.519  1.00  0.00     0.202 C 
BRANCH   2   3
ATOM      3  C   UNL     1       0.973  -5.953   2.009  1.00  0.00     0.261 C 
BRANCH   3   4
ATOM      4  O   UNL     1      -0.295  -5.388   2.386  1.00  0.00    -0.463 OA
BRANCH   4   5
ATOM      5  C   UNL     1      -0.860  -5.950   3.487  1.00  0.00     0.313 C 
ATOM      6  O   UNL     1      -0.318  -6.801   4.186  1.00  0.00    -0.252 OA
BRANCH   5   7
ATOM      7  C   UNL     1      -2.303  -5.548   3.709  1.00  0.00     0.126 C 
ATOM      8  C   UNL     1      -3.174  -6.389   2.774  1.00  0.00     0.025 C 
BRANCH   7   9
ATOM      9  C   UNL     1      -2.680  -4.072   3.677  1.00  0.00    -0.031 A 
ATOM     10  C   UNL     1      -3.879  -1.461   3.683  1.00  0.00     0.018 A 
ATOM     11  C   UNL     1      -3.457  -2.083   2.493  1.00  0.00     0.012 A 
ATOM     12  C   UNL     1      -3.606  -2.151   4.870  1.00  0.00     0.131 A 
ATOM     13  C   UNL     1      -2.860  -3.357   2.486  1.00  0.00     0.005 A 
ATOM     14  C   UNL     1      -3.020  -3.423   4.875  1.00  0.00     0.044 A 
ATOM     15  F   UNL     1      -3.957  -1.623   6.053  1.00  0.00    -0.206 F 
BRANCH  10  16
ATOM     16  C   UNL     1      -4.571  -0.150   3.671  1.00  0.00    -0.013 A 
ATOM     17  C   UNL     1      -4.710   2.180   4.407  1.00  0.00     0.043 A 
ATOM     18  C   UNL     1      -5.771   2.427   3.539  1.00  0.00     0.026 A 
ATOM     19  C   UNL     1      -4.182   0.886   4.539  1.00  0.00     0.035 A 
ATOM     20  C   UNL     1      -6.179   1.413   2.674  1.00  0.00     0.003 A 
ATOM     21  C   UNL     1      -5.570   0.150   2.724  1.00  0.00     0.009 A 
BRANCH  17  22
ATOM     22  N   UNL     1      -4.033   3.285   4.945  1.00  0.00    -0.308 N 
ATOM     23  N   UNL     1      -1.968   3.123   3.777  1.00  0.00    -0.338 N 
ATOM     24  C   UNL     1      -2.716   3.618   4.804  1.00  0.00     0.319 C 
ATOM     25  H   UNL     1      -1.009   3.345   3.802  1.00  0.00     0.165 HD
ATOM     26  O   UNL     1      -2.213   4.462   5.548  1.00  0.00    -0.249 OA
ATOM     27  H   UNL     1      -4.576   3.897   5.494  1.00  0.00     0.171 HD
BRANCH  23  28
ATOM     28  C   UNL     1      -2.398   2.312   2.652  1.00  0.00     0.117 C 
BRANCH  28  29
ATOM     29  C   UNL     1      -1.627   2.447   1.360  1.00  0.00     0.021 C 
BRANCH  29  30
ATOM     30  C   UNL     1      -0.273   1.774   1.395  1.00  0.00     0.002 C 
BRANCH  30  31
ATOM     31  C   UNL     1      -0.180   0.286   1.722  1.00  0.00    -0.000 C 
BRANCH  31  32
ATOM     32  C   UNL     1      -0.806  -0.634   0.680  1.00  0.00    -0.003 C 
ATOM     33  C   UNL     1      -0.039  -0.642  -0.627  1.00  0.00     0.004 C 
ENDBRANCH  31  32
ENDBRANCH  30  31
ENDBRANCH  29  30
ENDBRANCH  28  29
ENDBRANCH  23  28
ENDBRANCH  17  22
ENDBRANCH  10  16
ENDBRANCH   7   9
ENDBRANCH   5   7
ENDBRANCH   4   5
ENDBRANCH   3   4
ENDBRANCH   2   3
ENDBRANCH   1   2
BRANCH   1  34
ATOM     34  C   UNL     1       1.526  -4.058   4.622  1.00  0.00     0.188 C 
BRANCH  34  35
ATOM     35  C   UNL     1       0.970  -2.857   3.842  1.00  0.00     0.188 C 
BRANCH  35  36
ATOM     36  O   UNL     1       1.863  -2.279   2.893  1.00  0.00    -0.377 OA
BRANCH  36  37
ATOM     37  C   UNL     1       3.170  -1.994   3.386  1.00  0.00     0.188 C 
BRANCH  37  38
ATOM     38  C   UNL     1       3.182  -0.668   4.111  1.00  0.00     0.188 C 
BRANCH  38  39
ATOM     39  O   UNL     1       2.384  -0.648   5.288  1.00  0.00    -0.376 OA
BRANCH  39  40
ATOM     40  C   UNL     1       2.372   0.646   5.906  1.00  0.00     0.202 C 
BRANCH  40  41
ATOM     41  C   UNL     1       1.531   1.707   5.171  1.00  0.00     0.261 C 
BRANCH  41  42
ATOM     42  O   UNL     1       1.931   2.114   3.838  1.00  0.00    -0.460 OA
BRANCH  42  43
ATOM     43  C   UNL     1       3.223   2.353   3.489  1.00  0.00     0.338 C 
ATOM     44  O   UNL     1       4.191   2.358   4.208  1.00  0.00    -0.246 OA
BRANCH  43  45
ATOM     45  C   UNL     1       3.257   2.366   1.993  1.00  0.00     0.060 A 
ATOM     46  C   UNL     1       3.977   1.396   1.277  1.00  0.00     0.016 A 
ATOM     47  C   UNL     1       2.466   3.269   1.297  1.00  0.00     0.016 A 
ATOM     48  C   UNL     1       3.879   1.312  -0.131  1.00  0.00     0.010 A 
ATOM     49  C   UNL     1       2.317   3.134  -0.089  1.00  0.00     0.010 A 
ATOM     50  C   UNL     1       3.043   2.181  -0.842  1.00  0.00    -0.014 A 
BRANCH  50  51
ATOM     51  C   UNL     1       2.999   2.286  -2.346  1.00  0.00     0.031 A 
ATOM     52  C   UNL     1       3.247   3.655  -2.946  1.00  0.00     0.074 A 
ATOM     53  C   UNL     1       2.667   1.290  -3.198  1.00  0.00     0.049 A 
ATOM     54  N   UNL     1       2.984   4.115  -4.144  1.00  0.00    -0.248 NA
ATOM     55  C   UNL     1       3.808   4.663  -2.031  1.00  0.00     0.031 C 
ATOM     56  C   UNL     1       2.420  -0.104  -2.852  1.00  0.00     0.029 A 
ATOM     57  N   UNL     1       2.435   1.327  -4.561  1.00  0.00    -0.354 N 
ATOM     58  C   UNL     1       3.275   5.472  -4.087  1.00  0.00     0.074 A 
ATOM     59  C   UNL     1       3.610   5.775  -2.714  1.00  0.00     0.031 C 
ATOM     60  C   UNL     1       2.003  -0.772  -3.944  1.00  0.00     0.029 A 
ATOM     61  C   UNL     1       1.973   0.140  -5.085  1.00  0.00     0.049 A 
ATOM     62  H   UNL     1       2.587   2.131  -5.108  1.00  0.00     0.167 HD
ATOM     63  C   UNL     1       3.343   6.383  -5.085  1.00  0.00     0.037 A 
ATOM     64  C   UNL     1       1.574  -0.181  -6.336  1.00  0.00     0.037 A 
ATOM     65  C   UNL     1       3.165   6.080  -6.476  1.00  0.00     0.049 A 
ATOM     66  C   UNL     1       1.674   0.834  -7.452  1.00  0.00     0.074 A 
ATOM     67  C   UNL     1       3.357   6.907  -7.567  1.00  0.00     0.029 A 
ATOM     68  N   UNL     1       2.785   4.843  -6.968  1.00  0.00    -0.354 N 
ATOM     69  N   UNL     1       2.034   2.092  -7.399  1.00  0.00    -0.248 NA
ATOM     70  C   UNL     1       1.351   0.367  -8.812  1.00  0.00     0.031 C 
ATOM     71  C   UNL     1       3.072   6.176  -8.724  1.00  0.00     0.029 A 
ATOM     72  C   UNL     1       2.735   4.886  -8.351  1.00  0.00     0.049 A 
ATOM     73  H   UNL     1       2.582   4.053  -6.418  1.00  0.00     0.167 HD
ATOM     74  C   UNL     1       2.048   2.542  -8.715  1.00  0.00     0.074 A 
ATOM     75  C   UNL     1       1.643   1.432  -9.546  1.00  0.00     0.031 C 
ATOM     76  C   UNL     1       2.384   3.768  -9.186  1.00  0.00     0.037 A 
BRANCH  63  77
ATOM     77  C   UNL     1       3.687   7.790  -4.696  1.00  0.00     0.064 A 
ATOM     78  C   UNL     1       4.951   8.123  -4.182  1.00  0.00     0.173 A 
ATOM     79  C   UNL     1       2.734   8.811  -4.811  1.00  0.00     0.173 A 
ATOM     80  F   UNL     1       5.893   7.177  -4.041  1.00  0.00    -0.203 F 
ATOM     81  C   UNL     1       5.223   9.409  -3.729  1.00  0.00     0.198 A 
ATOM     82  C   UNL     1       3.026  10.108  -4.399  1.00  0.00     0.198 A 
ATOM     83  F   UNL     1       1.516   8.550  -5.309  1.00  0.00    -0.203 F 
ATOM     84  F   UNL     1       6.402   9.676  -3.151  1.00  0.00    -0.200 F 
ATOM     85  C   UNL     1       4.263  10.401  -3.842  1.00  0.00     0.200 A 
ATOM     86  F   UNL     1       2.104  11.072  -4.524  1.00  0.00    -0.200 F 
ATOM     87  F   UNL     1       4.524  11.639  -3.399  1.00  0.00    -0.200 F 
ENDBRANCH  63  77
BRANCH  64  88
ATOM     88  C   UNL     1       1.086  -1.554  -6.647  1.00  0.00     0.064 A 
ATOM     89  C   UNL     1       1.881  -2.450  -7.377  1.00  0.00     0.173 A 
ATOM     90  C   UNL     1      -0.205  -1.968  -6.293  1.00  0.00     0.173 A 
ATOM     91  F   UNL     1       3.110  -2.084  -7.771  1.00  0.00    -0.203 F 
ATOM     92  C   UNL     1       1.393  -3.696  -7.768  1.00  0.00     0.198 A 
ATOM     93  C   UNL     1      -0.685  -3.224  -6.666  1.00  0.00     0.198 A 
ATOM     94  F   UNL     1      -1.010  -1.146  -5.605  1.00  0.00    -0.203 F 
ATOM     95  F   UNL     1       2.153  -4.506  -8.517  1.00  0.00    -0.200 F 
ATOM     96  C   UNL     1       0.110  -4.082  -7.411  1.00  0.00     0.200 A 
ATOM     97  F   UNL     1      -1.926  -3.596  -6.322  1.00  0.00    -0.200 F 
ATOM     98  F   UNL     1      -0.364  -5.274  -7.800  1.00  0.00    -0.200 F 
ENDBRANCH  64  88
BRANCH  76  99
ATOM     99  C   UNL     1       2.425   3.974 -10.672  1.00  0.00     0.064 A 
ATOM    100  C   UNL     1       1.258   4.075 -11.441  1.00  0.00     0.173 A 
ATOM    101  C   UNL     1       3.657   4.161 -11.321  1.00  0.00     0.173 A 
ATOM    102  F   UNL     1       0.057   3.893 -10.871  1.00  0.00    -0.203 F 
ATOM    103  C   UNL     1       1.321   4.346 -12.806  1.00  0.00     0.198 A 
ATOM    104  C   UNL     1       3.716   4.458 -12.680  1.00  0.00     0.198 A 
ATOM    105  F   UNL     1       4.804   4.081 -10.630  1.00  0.00    -0.203 F 
ATOM    106  F   UNL     1       0.194   4.411 -13.527  1.00  0.00    -0.200 F 
ATOM    107  C   UNL     1       2.548   4.548 -13.421  1.00  0.00     0.200 A 
ATOM    108  F   UNL     1       4.901   4.667 -13.268  1.00  0.00    -0.200 F 
ATOM    109  F   UNL     1       2.605   4.828 -14.731  1.00  0.00    -0.200 F 
ENDBRANCH  76  99
ENDBRANCH  50  51
ENDBRANCH  43  45
ENDBRANCH  42  43
ENDBRANCH  41  42
ENDBRANCH  40  41
ENDBRANCH  39  40
ENDBRANCH  38  39
ENDBRANCH  37  38
ENDBRANCH  36  37
ENDBRANCH  35  36
ENDBRANCH  34  35
ENDBRANCH   1  34
TORSDOF 28
