REMARK SMILES CCOC(=O)[C@@H](C)Oc1ccc(Br)cc1/C=C/C(=O)OCCOCCOCCOCCOC(=O)c1ccc(-c2c3nc(c(-c4c(F)c(F)c(F)c(F)c4F)c4ccc([nH]4)c(-c4c(F)c(F)c(F)c(F)c4F)c4nc(c(-c5c(F)c(F)c(F)c(F)c5F)c5ccc2[nH]5)C=C4)C=C3)cc1
REMARK SMILES IDX 24 1 23 2 22 3 21 4 20 5 18 6 19 7 17 8 16 9 15 10 9 11
REMARK SMILES IDX 10 12 11 13 14 14 12 15 13 16 8 17 6 18 7 19 4 20 5 21 3 22
REMARK SMILES IDX 2 23 1 24 25 25 26 26 27 27 28 28 29 29 30 30 31 31 32 32
REMARK SMILES IDX 33 33 34 34 35 35 36 36 97 37 37 38 96 39 38 40 39 41 40 42
REMARK SMILES IDX 90 43 41 44 95 45 89 46 91 47 42 48 94 49 88 50 87 51 43 53
REMARK SMILES IDX 75 54 55 55 74 56 56 57 59 58 73 59 92 60 57 61 58 62 72 64
REMARK SMILES IDX 93 65 60 66 44 67 45 68 53 69 46 70 47 71 51 72 54 73 48 74
REMARK SMILES IDX 49 75 52 76 50 77 76 78 77 79 85 80 78 81 79 82 83 83 86 84
REMARK SMILES IDX 80 85 81 86 84 87 82 88 61 89 62 90 70 91 63 92 64 93 68 94
REMARK SMILES IDX 71 95 65 96 66 97 69 98 67 99
REMARK H PARENT 91 52 59 63
REMARK Flexibility Score: inf
ROOT
ATOM      1  C   UNL     1       1.255 -11.335   1.021  1.00  0.00     0.188 C 
ENDROOT
BRANCH   1   2
ATOM      2  O   UNL     1       2.367 -12.206   1.135  1.00  0.00    -0.376 OA
BRANCH   2   3
ATOM      3  C   UNL     1       3.219 -12.400   0.022  1.00  0.00     0.202 C 
BRANCH   3   4
ATOM      4  C   UNL     1       3.905 -11.191  -0.633  1.00  0.00     0.261 C 
BRANCH   4   5
ATOM      5  O   UNL     1       3.104 -10.016  -0.782  1.00  0.00    -0.460 OA
BRANCH   5   6
ATOM      6  C   UNL     1       2.214 -10.020  -1.794  1.00  0.00     0.330 C 
ATOM      7  O   UNL     1       2.039 -10.925  -2.596  1.00  0.00    -0.247 OA
BRANCH   6   8
ATOM      8  C   UNL     1       1.333  -8.835  -1.732  1.00  0.00     0.094 C 
ATOM      9  C   UNL     1       1.554  -7.729  -0.998  1.00  0.00     0.019 C 
BRANCH   9  10
ATOM     10  C   UNL     1       0.606  -6.600  -1.010  1.00  0.00     0.018 A 
ATOM     11  C   UNL     1       1.053  -5.271  -1.096  1.00  0.00     0.127 A 
ATOM     12  C   UNL     1       0.135  -4.270  -1.419  1.00  0.00     0.048 A 
ATOM     13  C   UNL     1      -1.235  -4.529  -1.445  1.00  0.00     0.019 A 
ATOM     14  C   UNL     1      -0.780  -6.848  -0.981  1.00  0.00     0.027 A 
ATOM     15  C   UNL     1      -1.690  -5.812  -1.183  1.00  0.00     0.018 A 
ATOM     16  Br  UNL     1      -3.545  -6.168  -1.174  1.00  0.00    -0.051 Br
BRANCH  11  17
ATOM     17  O   UNL     1       2.391  -5.003  -0.964  1.00  0.00    -0.478 OA
BRANCH  17  18
ATOM     18  C   UNL     1       2.767  -4.012   0.014  1.00  0.00     0.279 C 
ATOM     19  C   UNL     1       2.298  -4.340   1.436  1.00  0.00     0.066 C 
BRANCH  18  20
ATOM     20  C   UNL     1       2.539  -2.546  -0.394  1.00  0.00     0.347 C 
ATOM     21  O   UNL     1       3.222  -1.960  -1.226  1.00  0.00    -0.248 OA
BRANCH  20  22
ATOM     22  O   UNL     1       1.411  -2.028   0.176  1.00  0.00    -0.463 OA
BRANCH  22  23
ATOM     23  C   UNL     1       0.851  -0.876  -0.477  1.00  0.00     0.229 C 
ATOM     24  C   UNL     1       1.190   0.386   0.281  1.00  0.00     0.049 C 
ENDBRANCH  22  23
ENDBRANCH  20  22
ENDBRANCH  18  20
ENDBRANCH  17  18
ENDBRANCH  11  17
ENDBRANCH   9  10
ENDBRANCH   6   8
ENDBRANCH   5   6
ENDBRANCH   4   5
ENDBRANCH   3   4
ENDBRANCH   2   3
ENDBRANCH   1   2
BRANCH   1  25
ATOM     25  C   UNL     1       1.428 -10.017   1.802  1.00  0.00     0.188 C 
BRANCH  25  26
ATOM     26  O   UNL     1       2.742  -9.637   2.186  1.00  0.00    -0.377 OA
BRANCH  26  27
ATOM     27  C   UNL     1       3.536 -10.526   2.972  1.00  0.00     0.188 C 
BRANCH  27  28
ATOM     28  C   UNL     1       2.933 -11.719   3.755  1.00  0.00     0.188 C 
BRANCH  28  29
ATOM     29  O   UNL     1       1.521 -11.703   3.873  1.00  0.00    -0.376 OA
BRANCH  29  30
ATOM     30  C   UNL     1       0.968 -11.415   5.143  1.00  0.00     0.202 C 
BRANCH  30  31
ATOM     31  C   UNL     1       1.228 -10.008   5.700  1.00  0.00     0.261 C 
BRANCH  31  32
ATOM     32  O   UNL     1       2.603  -9.599   5.760  1.00  0.00    -0.460 OA
BRANCH  32  33
ATOM     33  C   UNL     1       3.407 -10.256   6.622  1.00  0.00     0.338 C 
ATOM     34  O   UNL     1       3.100 -11.169   7.372  1.00  0.00    -0.246 OA
BRANCH  33  35
ATOM     35  C   UNL     1       4.790  -9.800   6.378  1.00  0.00     0.060 A 
ATOM     36  C   UNL     1       5.754 -10.727   5.959  1.00  0.00     0.016 A 
ATOM     37  C   UNL     1       5.128  -8.457   6.554  1.00  0.00     0.016 A 
ATOM     38  C   UNL     1       7.071 -10.316   5.747  1.00  0.00     0.010 A 
ATOM     39  C   UNL     1       6.450  -8.051   6.360  1.00  0.00     0.010 A 
ATOM     40  C   UNL     1       7.434  -8.984   5.989  1.00  0.00    -0.014 A 
BRANCH  40  41
ATOM     41  C   UNL     1       8.867  -8.607   6.050  1.00  0.00     0.031 A 
ATOM     42  C   UNL     1       9.521  -8.508   7.400  1.00  0.00     0.074 A 
ATOM     43  C   UNL     1       9.579  -8.364   4.936  1.00  0.00     0.049 A 
ATOM     44  N   UNL     1      10.734  -8.134   7.716  1.00  0.00    -0.248 NA
ATOM     45  C   UNL     1       8.684  -8.876   8.554  1.00  0.00     0.031 C 
ATOM     46  C   UNL     1       9.072  -8.467   3.570  1.00  0.00     0.029 A 
ATOM     47  N   UNL     1      10.885  -7.968   4.784  1.00  0.00    -0.354 N 
ATOM     48  C   UNL     1      10.803  -8.214   9.101  1.00  0.00     0.074 A 
ATOM     49  C   UNL     1       9.500  -8.636   9.568  1.00  0.00     0.031 C 
ATOM     50  C   UNL     1      10.053  -8.128   2.716  1.00  0.00     0.029 A 
ATOM     51  C   UNL     1      11.244  -7.749   3.477  1.00  0.00     0.049 A 
ATOM     52  H   UNL     1      11.504  -7.852   5.540  1.00  0.00     0.167 HD
ATOM     53  C   UNL     1      11.860  -7.968   9.910  1.00  0.00     0.037 A 
ATOM     54  C   UNL     1      12.394  -7.272   2.961  1.00  0.00     0.037 A 
ATOM     55  C   UNL     1      13.152  -7.541   9.441  1.00  0.00     0.049 A 
ATOM     56  C   UNL     1      13.533  -6.924   3.888  1.00  0.00     0.074 A 
ATOM     57  C   UNL     1      14.294  -7.281  10.177  1.00  0.00     0.029 A 
ATOM     58  N   UNL     1      13.469  -7.300   8.112  1.00  0.00    -0.354 N 
ATOM     59  N   UNL     1      13.602  -7.027   5.194  1.00  0.00    -0.248 NA
ATOM     60  C   UNL     1      14.755  -6.394   3.266  1.00  0.00     0.031 C 
ATOM     61  C   UNL     1      15.282  -6.818   9.302  1.00  0.00     0.029 A 
ATOM     62  C   UNL     1      14.780  -6.861   8.011  1.00  0.00     0.049 A 
ATOM     63  H   UNL     1      12.854  -7.422   7.353  1.00  0.00     0.167 HD
ATOM     64  C   UNL     1      14.881  -6.610   5.545  1.00  0.00     0.074 A 
ATOM     65  C   UNL     1      15.558  -6.263   4.313  1.00  0.00     0.031 C 
ATOM     66  C   UNL     1      15.445  -6.525   6.776  1.00  0.00     0.037 A 
BRANCH  53  67
ATOM     67  C   UNL     1      11.648  -8.116  11.390  1.00  0.00     0.064 A 
ATOM     68  C   UNL     1      11.431  -9.368  11.987  1.00  0.00     0.173 A 
ATOM     69  C   UNL     1      11.676  -6.990  12.226  1.00  0.00     0.173 A 
ATOM     70  F   UNL     1      11.379 -10.477  11.232  1.00  0.00    -0.203 F 
ATOM     71  C   UNL     1      11.216  -9.481  13.358  1.00  0.00     0.198 A 
ATOM     72  C   UNL     1      11.497  -7.111  13.601  1.00  0.00     0.198 A 
ATOM     73  F   UNL     1      11.883  -5.769  11.710  1.00  0.00    -0.203 F 
ATOM     74  F   UNL     1      10.951 -10.680  13.897  1.00  0.00    -0.200 F 
ATOM     75  C   UNL     1      11.257  -8.354  14.165  1.00  0.00     0.200 A 
ATOM     76  F   UNL     1      11.551  -6.022  14.380  1.00  0.00    -0.200 F 
ATOM     77  F   UNL     1      11.054  -8.465  15.485  1.00  0.00    -0.200 F 
ENDBRANCH  53  67
BRANCH  54  78
ATOM     78  C   UNL     1      12.526  -7.081   1.492  1.00  0.00     0.064 A 
ATOM     79  C   UNL     1      13.418  -7.856   0.737  1.00  0.00     0.173 A 
ATOM     80  C   UNL     1      11.778  -6.106   0.814  1.00  0.00     0.173 A 
ATOM     81  F   UNL     1      14.177  -8.782   1.341  1.00  0.00    -0.203 F 
ATOM     82  C   UNL     1      13.569  -7.652  -0.633  1.00  0.00     0.198 A 
ATOM     83  C   UNL     1      11.907  -5.924  -0.561  1.00  0.00     0.198 A 
ATOM     84  F   UNL     1      10.914  -5.333   1.489  1.00  0.00    -0.203 F 
ATOM     85  F   UNL     1      14.466  -8.373  -1.321  1.00  0.00    -0.200 F 
ATOM     86  C   UNL     1      12.808  -6.692  -1.283  1.00  0.00     0.200 A 
ATOM     87  F   UNL     1      11.160  -5.003  -1.186  1.00  0.00    -0.200 F 
ATOM     88  F   UNL     1      12.951  -6.499  -2.601  1.00  0.00    -0.200 F 
ENDBRANCH  54  78
BRANCH  66  89
ATOM     89  C   UNL     1      16.880  -6.083   6.855  1.00  0.00     0.064 A 
ATOM     90  C   UNL     1      17.268  -4.765   6.572  1.00  0.00     0.173 A 
ATOM     91  C   UNL     1      17.876  -6.984   7.266  1.00  0.00     0.173 A 
ATOM     92  F   UNL     1      16.360  -3.866   6.164  1.00  0.00    -0.203 F 
ATOM     93  C   UNL     1      18.602  -4.374   6.668  1.00  0.00     0.198 A 
ATOM     94  C   UNL     1      19.202  -6.580   7.396  1.00  0.00     0.198 A 
ATOM     95  F   UNL     1      17.560  -8.254   7.559  1.00  0.00    -0.203 F 
ATOM     96  F   UNL     1      18.957  -3.124   6.341  1.00  0.00    -0.200 F 
ATOM     97  C   UNL     1      19.566  -5.279   7.089  1.00  0.00     0.200 A 
ATOM     98  F   UNL     1      20.128  -7.452   7.822  1.00  0.00    -0.200 F 
ATOM     99  F   UNL     1      20.846  -4.898   7.191  1.00  0.00    -0.200 F 
ENDBRANCH  66  89
ENDBRANCH  40  41
ENDBRANCH  33  35
ENDBRANCH  32  33
ENDBRANCH  31  32
ENDBRANCH  30  31
ENDBRANCH  29  30
ENDBRANCH  28  29
ENDBRANCH  27  28
ENDBRANCH  26  27
ENDBRANCH  25  26
ENDBRANCH   1  25
TORSDOF 26
