REMARK SMILES Cc1ccc(S(=O)(=O)n2cc(C(=O)C(=O)NCC(=O)N[C@H](Cc3c[nH]c4ccccc34)C(=O)OCCOCCOCCOCCOC(=O)c3ccc(-c4c5nc(c(-c6c(F)c(F)c(F)c(F)c6F)c6ccc([nH]6)c(-c6c(F)c(F)c(F)c(F)c6F)c6nc(c(-c7c(F)c(F)c(F)c(F)c7F)c7ccc4[nH]7)C=C6)C=C5)cc3)c3ccccc32)cc1
REMARK SMILES IDX 38 1 37 2 36 3 35 4 34 5 32 6 33 7 21 8 20 9 18 10 19 11
REMARK SMILES IDX 17 13 16 14 14 15 15 16 12 18 13 19 11 20 9 21 10 22 117 23
REMARK SMILES IDX 112 24 116 25 113 26 115 27 114 28 6 29 7 30 8 31 5 32 1 33
REMARK SMILES IDX 2 34 3 35 119 36 4 37 118 38 22 39 23 40 24 41 31 42 25 43
REMARK SMILES IDX 26 44 30 45 27 47 29 48 28 49 39 50 40 51 41 52 42 53 43 54
REMARK SMILES IDX 44 55 45 56 46 57 47 58 48 59 49 60 50 61 111 62 51 63
REMARK SMILES IDX 110 64 52 65 53 66 54 67 104 68 55 69 109 70 103 71 105 72
REMARK SMILES IDX 56 73 108 74 102 75 101 76 57 78 89 79 69 80 88 81 70 82
REMARK SMILES IDX 73 83 87 84 106 85 71 86 72 87 86 89 107 90 74 91 58 92
REMARK SMILES IDX 59 93 67 94 60 95 61 96 65 97 68 98 62 99 63 100 66 101
REMARK SMILES IDX 64 102 90 103 91 104 99 105 92 106 93 107 97 108 100 109
REMARK SMILES IDX 94 110 95 111 98 112 96 113 75 114 76 115 84 116 77 117
REMARK SMILES IDX 78 118 82 119 85 120 79 121 80 122 83 123 81 124
REMARK H PARENT 20 12 16 17 25 46 105 77 73 88
REMARK Flexibility Score: inf
ROOT
ATOM      1  C   UNL     1      -9.694  -1.220   0.590  1.00  0.00     0.188 C 
ENDROOT
BRANCH   1   2
ATOM      2  O   UNL     1      -8.630  -1.524   1.508  1.00  0.00    -0.376 OA
BRANCH   2   3
ATOM      3  C   UNL     1      -8.779  -1.125   2.836  1.00  0.00     0.202 C 
BRANCH   3   4
ATOM      4  C   UNL     1      -7.823  -0.115   3.425  1.00  0.00     0.261 C 
BRANCH   4   5
ATOM      5  O   UNL     1      -8.460   1.165   3.497  1.00  0.00    -0.462 OA
BRANCH   5   6
ATOM      6  C   UNL     1      -9.166   1.504   2.402  1.00  0.00     0.329 C 
ATOM      7  O   UNL     1      -8.891   1.141   1.270  1.00  0.00    -0.250 OA
BRANCH   6   8
ATOM      8  C   UNL     1     -10.170   2.567   2.632  1.00  0.00     0.196 C 
BRANCH   8   9
ATOM      9  N   UNL     1      -9.340   3.580   3.323  1.00  0.00    -0.341 N 
ATOM     10  C   UNL     1      -8.015   3.962   3.041  1.00  0.00     0.240 C 
ATOM     11  O   UNL     1      -7.521   4.795   3.815  1.00  0.00    -0.273 OA
ATOM     12  H   UNL     1      -9.769   4.045   4.077  1.00  0.00     0.164 HD
BRANCH  10  13
ATOM     13  C   UNL     1      -7.085   3.381   1.838  1.00  0.00     0.216 C 
BRANCH  13  14
ATOM     14  N   UNL     1      -6.364   2.073   1.951  1.00  0.00    -0.340 N 
ATOM     15  C   UNL     1      -6.078   1.018   1.049  1.00  0.00     0.292 C 
ATOM     16  O   UNL     1      -5.360   0.064   1.348  1.00  0.00    -0.265 OA
ATOM     17  H   UNL     1      -6.009   1.910   2.854  1.00  0.00     0.164 HD
BRANCH  15  18
ATOM     18  C   UNL     1      -6.637   1.026  -0.348  1.00  0.00     0.252 C 
ATOM     19  O   UNL     1      -6.745   2.182  -0.780  1.00  0.00    -0.283 OA
BRANCH  18  20
ATOM     20  C   UNL     1      -7.126  -0.115  -1.191  1.00  0.00     0.054 A 
ATOM     21  N   UNL     1      -8.348  -1.824  -2.063  1.00  0.00    -0.240 N 
ATOM     22  C   UNL     1      -7.285  -1.526  -1.166  1.00  0.00     0.117 A 
ATOM     23  C   UNL     1      -8.823  -0.583  -2.550  1.00  0.00     0.065 A 
ATOM     24  C   UNL     1      -7.726   0.244  -2.422  1.00  0.00     0.012 A 
ATOM     25  C   UNL     1      -9.896  -0.254  -3.405  1.00  0.00     0.028 A 
ATOM     26  C   UNL     1      -7.570   1.318  -3.304  1.00  0.00     0.011 A 
ATOM     27  C   UNL     1      -9.654   0.737  -4.354  1.00  0.00     0.002 A 
ATOM     28  C   UNL     1      -8.489   1.491  -4.327  1.00  0.00     0.001 A 
BRANCH  21  29
ATOM     29  S   UNL     1      -8.584  -2.989  -3.293  1.00  0.00     0.268 S 
ATOM     30  O   UNL     1      -7.784  -2.374  -4.348  1.00  0.00    -0.201 OA
ATOM     31  O   UNL     1     -10.047  -2.990  -3.336  1.00  0.00    -0.201 OA
BRANCH  29  32
ATOM     32  C   UNL     1      -8.353  -4.672  -3.658  1.00  0.00     0.088 A 
ATOM     33  C   UNL     1      -8.942  -8.505  -5.560  1.00  0.00     0.044 C 
ATOM     34  C   UNL     1      -8.689  -7.202  -4.864  1.00  0.00    -0.051 A 
ATOM     35  C   UNL     1      -8.914  -6.069  -5.618  1.00  0.00     0.005 A 
ATOM     36  C   UNL     1      -8.280  -7.065  -3.513  1.00  0.00     0.005 A 
ATOM     37  C   UNL     1      -8.735  -4.845  -5.024  1.00  0.00     0.022 A 
ATOM     38  C   UNL     1      -8.123  -5.794  -2.887  1.00  0.00     0.022 A 
ENDBRANCH  29  32
ENDBRANCH  21  29
ENDBRANCH  18  20
ENDBRANCH  15  18
ENDBRANCH  13  14
ENDBRANCH  10  13
ENDBRANCH   8   9
BRANCH   8  39
ATOM     39  C   UNL     1     -11.729   2.184   2.950  1.00  0.00     0.074 C 
BRANCH  39  40
ATOM     40  C   UNL     1     -12.579   1.328   3.971  1.00  0.00    -0.020 A 
ATOM     41  C   UNL     1     -12.728   0.297   4.821  1.00  0.00     0.087 A 
ATOM     42  C   UNL     1     -13.784   0.605   3.825  1.00  0.00     0.003 A 
ATOM     43  N   UNL     1     -14.162   0.119   6.069  1.00  0.00    -0.361 N 
ATOM     44  C   UNL     1     -15.052   0.135   5.328  1.00  0.00     0.046 A 
ATOM     45  C   UNL     1     -14.686   0.699   2.259  1.00  0.00     0.010 A 
ATOM     46  H   UNL     1     -14.149   0.039   7.050  1.00  0.00     0.166 HD
ATOM     47  C   UNL     1     -16.739  -0.146   5.026  1.00  0.00     0.026 A 
ATOM     48  C   UNL     1     -16.331   0.395   2.189  1.00  0.00     0.001 A 
ATOM     49  C   UNL     1     -17.268  -0.009   3.487  1.00  0.00     0.002 A 
ENDBRANCH  39  40
ENDBRANCH   8  39
ENDBRANCH   6   8
ENDBRANCH   5   6
ENDBRANCH   4   5
ENDBRANCH   3   4
ENDBRANCH   2   3
ENDBRANCH   1   2
BRANCH   1  50
ATOM     50  C   UNL     1     -11.084  -0.591   0.807  1.00  0.00     0.188 C 
BRANCH  50  51
ATOM     51  O   UNL     1     -11.655  -0.670   2.086  1.00  0.00    -0.377 OA
BRANCH  51  52
ATOM     52  C   UNL     1     -11.508  -1.925   2.695  1.00  0.00     0.188 C 
BRANCH  52  53
ATOM     53  C   UNL     1     -12.628  -2.782   2.334  1.00  0.00     0.188 C 
BRANCH  53  54
ATOM     54  O   UNL     1     -12.025  -3.643   1.376  1.00  0.00    -0.376 OA
BRANCH  54  55
ATOM     55  C   UNL     1     -12.901  -3.915   0.318  1.00  0.00     0.202 C 
BRANCH  55  56
ATOM     56  C   UNL     1     -14.174  -4.502   0.934  1.00  0.00     0.261 C 
BRANCH  56  57
ATOM     57  O   UNL     1     -13.709  -5.603   1.853  1.00  0.00    -0.460 OA
BRANCH  57  58
ATOM     58  C   UNL     1     -13.825  -5.644   3.232  1.00  0.00     0.338 C 
ATOM     59  O   UNL     1     -14.891  -5.861   3.794  1.00  0.00    -0.246 OA
BRANCH  58  60
ATOM     60  C   UNL     1     -12.528  -5.450   4.083  1.00  0.00     0.060 A 
ATOM     61  C   UNL     1     -12.591  -5.148   5.466  1.00  0.00     0.016 A 
ATOM     62  C   UNL     1     -11.290  -5.240   3.510  1.00  0.00     0.016 A 
ATOM     63  C   UNL     1     -11.574  -4.386   6.159  1.00  0.00     0.010 A 
ATOM     64  C   UNL     1     -10.358  -4.382   4.159  1.00  0.00     0.010 A 
ATOM     65  C   UNL     1     -10.476  -3.864   5.478  1.00  0.00    -0.014 A 
BRANCH  65  66
ATOM     66  C   UNL     1      -9.420  -2.866   6.028  1.00  0.00     0.031 A 
ATOM     67  C   UNL     1      -7.975  -3.054   5.469  1.00  0.00     0.074 A 
ATOM     68  C   UNL     1      -9.698  -1.585   6.458  1.00  0.00     0.049 A 
ATOM     69  N   UNL     1      -7.003  -2.197   5.431  1.00  0.00    -0.248 NA
ATOM     70  C   UNL     1      -7.543  -4.311   4.854  1.00  0.00     0.031 C 
ATOM     71  C   UNL     1      -9.691  -0.441   5.571  1.00  0.00     0.029 A 
ATOM     72  N   UNL     1     -10.371  -1.014   7.537  1.00  0.00    -0.354 N 
ATOM     73  C   UNL     1      -5.977  -2.648   4.566  1.00  0.00     0.074 A 
ATOM     74  C   UNL     1      -6.402  -3.983   4.233  1.00  0.00     0.031 C 
ATOM     75  C   UNL     1     -10.159   0.684   6.069  1.00  0.00     0.029 A 
ATOM     76  C   UNL     1     -10.613   0.351   7.401  1.00  0.00     0.049 A 
ATOM     77  H   UNL     1     -10.650  -1.531   8.327  1.00  0.00     0.167 HD
ATOM     78  C   UNL     1      -4.930  -1.818   4.187  1.00  0.00     0.037 A 
ATOM     79  C   UNL     1     -11.449   1.298   7.891  1.00  0.00     0.037 A 
ATOM     80  C   UNL     1      -5.035  -0.496   4.878  1.00  0.00     0.049 A 
ATOM     81  C   UNL     1      -9.870   1.968   8.214  1.00  0.00     0.074 A 
ATOM     82  C   UNL     1      -4.872   0.836   4.539  1.00  0.00     0.029 A 
ATOM     83  N   UNL     1      -5.529  -0.430   6.180  1.00  0.00    -0.354 N 
ATOM     84  N   UNL     1      -8.747   2.038   7.461  1.00  0.00    -0.248 NA
ATOM     85  C   UNL     1      -9.476   2.032   9.646  1.00  0.00     0.031 C 
ATOM     86  C   UNL     1      -5.592   1.645   5.482  1.00  0.00     0.029 A 
ATOM     87  C   UNL     1      -5.996   0.836   6.527  1.00  0.00     0.049 A 
ATOM     88  H   UNL     1      -5.545  -1.201   6.793  1.00  0.00     0.167 HD
ATOM     89  C   UNL     1      -7.633   1.681   8.255  1.00  0.00     0.074 A 
ATOM     90  C   UNL     1      -8.136   1.936   9.598  1.00  0.00     0.031 C 
ATOM     91  C   UNL     1      -6.427   1.060   7.906  1.00  0.00     0.037 A 
BRANCH  78  92
ATOM     92  C   UNL     1      -3.837  -2.058   3.060  1.00  0.00     0.064 A 
ATOM     93  C   UNL     1      -2.826  -1.082   2.809  1.00  0.00     0.173 A 
ATOM     94  C   UNL     1      -3.743  -3.149   2.160  1.00  0.00     0.173 A 
ATOM     95  F   UNL     1      -2.626  -0.056   3.644  1.00  0.00    -0.203 F 
ATOM     96  C   UNL     1      -1.917  -1.128   1.733  1.00  0.00     0.198 A 
ATOM     97  C   UNL     1      -2.769  -3.238   1.129  1.00  0.00     0.198 A 
ATOM     98  F   UNL     1      -4.568  -4.196   2.227  1.00  0.00    -0.203 F 
ATOM     99  F   UNL     1      -1.058  -0.114   1.539  1.00  0.00    -0.200 F 
ATOM    100  C   UNL     1      -1.876  -2.216   0.898  1.00  0.00     0.200 A 
ATOM    101  F   UNL     1      -2.704  -4.340   0.363  1.00  0.00    -0.200 F 
ATOM    102  F   UNL     1      -0.964  -2.296  -0.084  1.00  0.00    -0.200 F 
ENDBRANCH  78  92
BRANCH  79 103
ATOM    103  C   UNL     1     -12.728   1.028   6.745  1.00  0.00     0.064 A 
ATOM    104  C   UNL     1     -14.056   2.037   5.654  1.00  0.00     0.173 A 
ATOM    105  C   UNL     1     -12.741  -0.931   6.453  1.00  0.00     0.173 A 
ATOM    106  F   UNL     1     -14.142   3.357   5.909  1.00  0.00    -0.203 F 
ATOM    107  C   UNL     1     -15.297   1.385   4.229  1.00  0.00     0.198 A 
ATOM    108  C   UNL     1     -13.846  -1.628   5.021  1.00  0.00     0.198 A 
ATOM    109  F   UNL     1     -12.596  -1.747   7.520  1.00  0.00    -0.203 F 
ATOM    110  F   UNL     1     -16.157   2.284   3.674  1.00  0.00    -0.200 F 
ATOM    111  C   UNL     1     -15.044  -0.671   3.831  1.00  0.00     0.200 A 
ATOM    112  F   UNL     1     -14.062  -2.954   5.070  1.00  0.00    -0.200 F 
ATOM    113  F   UNL     1     -15.624  -1.575   2.968  1.00  0.00    -0.200 F 
ENDBRANCH  79 103
BRANCH  91 114
ATOM    114  C   UNL     1      -5.363   0.612   8.942  1.00  0.00     0.064 A 
ATOM    115  C   UNL     1      -5.686   0.195  10.233  1.00  0.00     0.173 A 
ATOM    116  C   UNL     1      -3.967   0.570   8.646  1.00  0.00     0.173 A 
ATOM    117  F   UNL     1      -6.935  -0.180  10.546  1.00  0.00    -0.203 F 
ATOM    118  C   UNL     1      -4.725   0.138  11.242  1.00  0.00     0.198 A 
ATOM    119  C   UNL     1      -2.999   0.358   9.626  1.00  0.00     0.198 A 
ATOM    120  F   UNL     1      -3.488   0.725   7.404  1.00  0.00    -0.203 F 
ATOM    121  F   UNL     1      -5.118   0.005  12.515  1.00  0.00    -0.200 F 
ATOM    122  C   UNL     1      -3.381   0.251  10.942  1.00  0.00     0.200 A 
ATOM    123  F   UNL     1      -1.702   0.298   9.290  1.00  0.00    -0.200 F 
ATOM    124  F   UNL     1      -2.461   0.236  11.915  1.00  0.00    -0.200 F 
ENDBRANCH  91 114
ENDBRANCH  65  66
ENDBRANCH  58  60
ENDBRANCH  57  58
ENDBRANCH  56  57
ENDBRANCH  55  56
ENDBRANCH  54  55
ENDBRANCH  53  54
ENDBRANCH  52  53
ENDBRANCH  51  52
ENDBRANCH  50  51
ENDBRANCH   1  50
TORSDOF 29
