REMARK SMILES COCc1c(C(=O)OCCOCCOCCOCCOC(=O)c2ccc(-c3c4nc(c(-c5c(F)c(F)c(F)c(F)c5F)c5ccc([nH]5)c(-c5c(F)c(F)c(F)c(F)c5F)c5nc(c(-c6c(F)c(F)c(F)c(F)c6F)c6ccc3[nH]6)C=C5)C=C4)cc2)sc2ccccc12
REMARK SMILES IDX 14 1 13 2 12 3 11 4 10 5 9 6 8 7 6 8 7 9 5 10 4 11 92 12
REMARK SMILES IDX 86 13 87 14 91 15 88 16 90 17 89 18 3 19 2 20 1 21 15 22
REMARK SMILES IDX 16 23 17 24 18 25 19 26 20 27 21 28 22 29 23 30 24 31 85 32
REMARK SMILES IDX 25 33 84 34 26 35 27 36 28 37 78 38 29 39 83 40 77 41 79 42
REMARK SMILES IDX 30 43 82 44 76 45 75 46 31 48 63 49 43 50 62 51 44 52 47 53
REMARK SMILES IDX 61 54 80 55 45 56 46 57 60 59 81 60 48 61 32 62 33 63 41 64
REMARK SMILES IDX 34 65 35 66 39 67 42 68 36 69 37 70 40 71 38 72 64 73 65 74
REMARK SMILES IDX 73 75 66 76 67 77 71 78 74 79 68 80 69 81 72 82 70 83 49 84
REMARK SMILES IDX 50 85 58 86 51 87 52 88 56 89 59 90 53 91 54 92 57 93 55 94
REMARK H PARENT 79 47 47 58
REMARK Flexibility Score: inf
ROOT
ATOM      1  O   UNL     1      -0.902   3.417  -0.715  1.00  0.00    -0.377 OA
ENDROOT
BRANCH   1   2
ATOM      2  C   UNL     1      -0.527   2.053  -0.876  1.00  0.00     0.188 C 
BRANCH   2   3
ATOM      3  C   UNL     1       0.602   1.425  -0.038  1.00  0.00     0.188 C 
BRANCH   3   4
ATOM      4  O   UNL     1       1.512   2.349   0.547  1.00  0.00    -0.376 OA
BRANCH   4   5
ATOM      5  C   UNL     1       2.858   2.293   0.103  1.00  0.00     0.202 C 
BRANCH   5   6
ATOM      6  C   UNL     1       3.050   2.866  -1.305  1.00  0.00     0.261 C 
BRANCH   6   7
ATOM      7  O   UNL     1       2.406   2.094  -2.330  1.00  0.00    -0.459 OA
BRANCH   7   8
ATOM      8  C   UNL     1       2.850   0.818  -2.510  1.00  0.00     0.348 C 
ATOM      9  O   UNL     1       3.838   0.348  -1.956  1.00  0.00    -0.245 OA
BRANCH   8  10
ATOM     10  C   UNL     1       1.894   0.071  -3.303  1.00  0.00     0.119 A 
ATOM     11  C   UNL     1       1.431  -1.222  -3.086  1.00  0.00     0.011 A 
ATOM     12  C   UNL     1       0.454  -1.609  -4.088  1.00  0.00    -0.001 A 
ATOM     13  S   UNL     1       1.185   0.793  -4.674  1.00  0.00    -0.128 S 
ATOM     14  C   UNL     1       0.237  -0.590  -5.020  1.00  0.00     0.036 A 
ATOM     15  C   UNL     1      -0.281  -2.812  -4.256  1.00  0.00     0.010 A 
ATOM     16  C   UNL     1      -0.662  -0.738  -6.094  1.00  0.00     0.019 A 
ATOM     17  C   UNL     1      -1.165  -2.970  -5.329  1.00  0.00     0.001 A 
ATOM     18  C   UNL     1      -1.351  -1.942  -6.240  1.00  0.00     0.001 A 
BRANCH  11  19
ATOM     19  C   UNL     1       1.857  -2.092  -1.931  1.00  0.00     0.197 C 
BRANCH  19  20
ATOM     20  O   UNL     1       1.134  -1.745  -0.747  1.00  0.00    -0.380 OA
ATOM     21  C   UNL     1       1.954  -1.756   0.415  1.00  0.00     0.195 C 
ENDBRANCH  19  20
ENDBRANCH  11  19
ENDBRANCH   8  10
ENDBRANCH   7   8
ENDBRANCH   6   7
ENDBRANCH   5   6
ENDBRANCH   4   5
ENDBRANCH   3   4
ENDBRANCH   2   3
ENDBRANCH   1   2
BRANCH   1  22
ATOM     22  C   UNL     1      -0.513   4.110   0.457  1.00  0.00     0.188 C 
BRANCH  22  23
ATOM     23  C   UNL     1      -0.861   3.490   1.825  1.00  0.00     0.188 C 
BRANCH  23  24
ATOM     24  O   UNL     1      -1.500   2.220   1.746  1.00  0.00    -0.376 OA
BRANCH  24  25
ATOM     25  C   UNL     1      -2.828   2.162   2.248  1.00  0.00     0.202 C 
BRANCH  25  26
ATOM     26  C   UNL     1      -3.876   2.661   1.248  1.00  0.00     0.261 C 
BRANCH  26  27
ATOM     27  O   UNL     1      -3.697   4.019   0.821  1.00  0.00    -0.460 OA
BRANCH  27  28
ATOM     28  C   UNL     1      -3.796   4.982   1.761  1.00  0.00     0.338 C 
ATOM     29  O   UNL     1      -4.068   4.846   2.939  1.00  0.00    -0.246 OA
BRANCH  28  30
ATOM     30  C   UNL     1      -3.319   6.239   1.151  1.00  0.00     0.060 A 
ATOM     31  C   UNL     1      -2.320   6.974   1.807  1.00  0.00     0.016 A 
ATOM     32  C   UNL     1      -3.819   6.661  -0.083  1.00  0.00     0.016 A 
ATOM     33  C   UNL     1      -1.830   8.146   1.231  1.00  0.00     0.010 A 
ATOM     34  C   UNL     1      -3.353   7.849  -0.642  1.00  0.00     0.010 A 
ATOM     35  C   UNL     1      -2.379   8.609   0.027  1.00  0.00    -0.014 A 
BRANCH  35  36
ATOM     36  C   UNL     1      -2.138  10.002  -0.407  1.00  0.00     0.031 A 
ATOM     37  C   UNL     1      -3.088  11.055   0.090  1.00  0.00     0.074 A 
ATOM     38  C   UNL     1      -1.132  10.323  -1.238  1.00  0.00     0.049 A 
ATOM     39  N   UNL     1      -3.154  12.326  -0.205  1.00  0.00    -0.248 NA
ATOM     40  C   UNL     1      -4.111  10.603   1.049  1.00  0.00     0.031 C 
ATOM     41  C   UNL     1      -0.132   9.395  -1.759  1.00  0.00     0.029 A 
ATOM     42  N   UNL     1      -0.802  11.530  -1.802  1.00  0.00    -0.354 N 
ATOM     43  C   UNL     1      -4.222  12.823   0.530  1.00  0.00     0.074 A 
ATOM     44  C   UNL     1      -4.793  11.716   1.263  1.00  0.00     0.031 C 
ATOM     45  C   UNL     1       0.692  10.064  -2.586  1.00  0.00     0.029 A 
ATOM     46  C   UNL     1       0.256  11.458  -2.674  1.00  0.00     0.049 A 
ATOM     47  H   UNL     1      -1.278  12.368  -1.601  1.00  0.00     0.167 HD
ATOM     48  C   UNL     1      -4.685  14.092   0.590  1.00  0.00     0.037 A 
ATOM     49  C   UNL     1       0.787  12.409  -3.467  1.00  0.00     0.037 A 
ATOM     50  C   UNL     1      -4.133  15.185  -0.161  1.00  0.00     0.049 A 
ATOM     51  C   UNL     1       0.202  13.800  -3.444  1.00  0.00     0.074 A 
ATOM     52  C   UNL     1      -4.525  16.511  -0.173  1.00  0.00     0.029 A 
ATOM     53  N   UNL     1      -3.072  15.070  -1.047  1.00  0.00    -0.354 N 
ATOM     54  N   UNL     1      -0.787  14.274  -2.725  1.00  0.00    -0.248 NA
ATOM     55  C   UNL     1       0.810  14.790  -4.346  1.00  0.00     0.031 C 
ATOM     56  C   UNL     1      -3.732  17.190  -1.104  1.00  0.00     0.029 A 
ATOM     57  C   UNL     1      -2.810  16.298  -1.630  1.00  0.00     0.049 A 
ATOM     58  H   UNL     1      -2.579  14.239  -1.234  1.00  0.00     0.167 HD
ATOM     59  C   UNL     1      -0.899  15.617  -3.062  1.00  0.00     0.074 A 
ATOM     60  C   UNL     1       0.129  15.886  -4.046  1.00  0.00     0.031 C 
ATOM     61  C   UNL     1      -1.771  16.546  -2.597  1.00  0.00     0.037 A 
BRANCH  48  62
ATOM     62  C   UNL     1      -5.868  14.347   1.475  1.00  0.00     0.064 A 
ATOM     63  C   UNL     1      -5.760  14.314   2.873  1.00  0.00     0.173 A 
ATOM     64  C   UNL     1      -7.124  14.626   0.918  1.00  0.00     0.173 A 
ATOM     65  F   UNL     1      -4.584  14.028   3.453  1.00  0.00    -0.203 F 
ATOM     66  C   UNL     1      -6.873  14.526   3.682  1.00  0.00     0.198 A 
ATOM     67  C   UNL     1      -8.229  14.865   1.730  1.00  0.00     0.198 A 
ATOM     68  F   UNL     1      -7.281  14.664  -0.414  1.00  0.00    -0.203 F 
ATOM     69  F   UNL     1      -6.758  14.438   5.014  1.00  0.00    -0.200 F 
ATOM     70  C   UNL     1      -8.105  14.807   3.110  1.00  0.00     0.200 A 
ATOM     71  F   UNL     1      -9.417  15.143   1.176  1.00  0.00    -0.200 F 
ATOM     72  F   UNL     1      -9.175  15.012   3.889  1.00  0.00    -0.200 F 
ENDBRANCH  48  62
BRANCH  49  73
ATOM     73  C   UNL     1       1.928  12.083  -4.362  1.00  0.00     0.064 A 
ATOM     74  C   UNL     1       3.201  12.624  -4.134  1.00  0.00     0.173 A 
ATOM     75  C   UNL     1       1.765  11.249  -5.478  1.00  0.00     0.173 A 
ATOM     76  F   UNL     1       3.401  13.451  -3.098  1.00  0.00    -0.203 F 
ATOM     77  C   UNL     1       4.263  12.356  -4.997  1.00  0.00     0.198 A 
ATOM     78  C   UNL     1       2.834  10.961  -6.325  1.00  0.00     0.198 A 
ATOM     79  F   UNL     1       0.566  10.713  -5.746  1.00  0.00    -0.203 F 
ATOM     80  F   UNL     1       5.458  12.924  -4.782  1.00  0.00    -0.200 F 
ATOM     81  C   UNL     1       4.080  11.521  -6.088  1.00  0.00     0.200 A 
ATOM     82  F   UNL     1       2.654  10.148  -7.375  1.00  0.00    -0.200 F 
ATOM     83  F   UNL     1       5.101  11.264  -6.917  1.00  0.00    -0.200 F 
ENDBRANCH  49  73
BRANCH  61  84
ATOM     84  C   UNL     1      -1.625  17.950  -3.106  1.00  0.00     0.064 A 
ATOM     85  C   UNL     1      -2.001  18.306  -4.410  1.00  0.00     0.173 A 
ATOM     86  C   UNL     1      -1.158  18.965  -2.256  1.00  0.00     0.173 A 
ATOM     87  F   UNL     1      -2.442  17.370  -5.264  1.00  0.00    -0.203 F 
ATOM     88  C   UNL     1      -1.895  19.622  -4.849  1.00  0.00     0.198 A 
ATOM     89  C   UNL     1      -1.081  20.285  -2.690  1.00  0.00     0.198 A 
ATOM     90  F   UNL     1      -0.795  18.677  -0.997  1.00  0.00    -0.203 F 
ATOM     91  F   UNL     1      -2.221  19.934  -6.112  1.00  0.00    -0.200 F 
ATOM     92  C   UNL     1      -1.443  20.611  -3.987  1.00  0.00     0.200 A 
ATOM     93  F   UNL     1      -0.659  21.241  -1.851  1.00  0.00    -0.200 F 
ATOM     94  F   UNL     1      -1.353  21.880  -4.410  1.00  0.00    -0.200 F 
ENDBRANCH  61  84
ENDBRANCH  35  36
ENDBRANCH  28  30
ENDBRANCH  27  28
ENDBRANCH  26  27
ENDBRANCH  25  26
ENDBRANCH  24  25
ENDBRANCH  23  24
ENDBRANCH  22  23
ENDBRANCH   1  22
TORSDOF 22
