REMARK SMILES CC1CC[NH+]([C@H](c2ccc(F)cc2)c2ccc([C@@H](C)C(=O)OCCOCCOCCOCCOC(=O)c3ccc(-c4c5nc(c(-c6c(F)c(F)c(F)c(F)c6F)c6ccc([nH]6)c(-c6c(F)c(F)c(F)c(F)c6F)c6nc(c(-c7c(F)c(F)c(F)c(F)c7F)c7ccc4[nH]7)C=C6)C=C5)cc3)cc2-c2ccc(C(F)(F)F)cc2)CC1
REMARK SMILES IDX 27 1 26 2 25 3 24 4 23 5 22 6 20 7 21 8 18 9 19 10 17 11
REMARK SMILES IDX 14 12 15 13 101 14 16 15 100 16 6 17 5 18 1 19 2 20 3 21
REMARK SMILES IDX 113 22 4 23 112 24 7 26 8 27 13 28 9 29 12 30 10 31 11 32
REMARK SMILES IDX 102 33 103 34 111 35 104 36 110 37 105 38 106 39 107 40
REMARK SMILES IDX 108 41 109 42 28 43 29 44 30 45 31 46 32 47 33 48 34 49
REMARK SMILES IDX 35 50 36 51 37 52 38 53 99 54 39 55 98 56 40 57 41 58 42 59
REMARK SMILES IDX 92 60 43 61 97 62 91 63 93 64 44 65 96 66 90 67 89 68 45 70
REMARK SMILES IDX 77 71 57 72 76 73 58 74 61 75 75 76 94 77 59 78 60 79 74 81
REMARK SMILES IDX 95 82 62 83 46 84 47 85 55 86 48 87 49 88 53 89 56 90 50 91
REMARK SMILES IDX 51 92 54 93 52 94 78 95 79 96 87 97 80 98 81 99 85 100
REMARK SMILES IDX 88 101 82 102 83 103 86 104 84 105 63 106 64 107 72 108
REMARK SMILES IDX 65 109 66 110 70 111 73 112 67 113 68 114 71 115 69 116
REMARK H PARENT 5 25 93 69 61 80
REMARK Flexibility Score: inf
ROOT
ATOM      1  C   UNL     1       3.344   5.298  -1.169  1.00  0.00     0.188 C 
ENDROOT
BRANCH   1   2
ATOM      2  C   UNL     1       4.418   6.397  -1.137  1.00  0.00     0.188 C 
BRANCH   2   3
ATOM      3  O   UNL     1       4.093   7.755  -1.409  1.00  0.00    -0.376 OA
BRANCH   3   4
ATOM      4  C   UNL     1       3.113   8.085  -2.379  1.00  0.00     0.202 C 
BRANCH   4   5
ATOM      5  C   UNL     1       3.212   7.540  -3.815  1.00  0.00     0.261 C 
BRANCH   5   6
ATOM      6  O   UNL     1       3.496   6.134  -3.958  1.00  0.00    -0.463 OA
BRANCH   6   7
ATOM      7  C   UNL     1       4.765   5.811  -4.305  1.00  0.00     0.313 C 
ATOM      8  O   UNL     1       5.644   6.648  -4.507  1.00  0.00    -0.252 OA
BRANCH   7   9
ATOM      9  C   UNL     1       5.042   4.317  -4.492  1.00  0.00     0.126 C 
ATOM     10  C   UNL     1       5.150   4.054  -5.992  1.00  0.00     0.025 C 
BRANCH   9  11
ATOM     11  C   UNL     1       4.165   3.269  -3.805  1.00  0.00    -0.033 A 
ATOM     12  C   UNL     1       2.562   1.268  -2.436  1.00  0.00     0.022 A 
ATOM     13  C   UNL     1       2.016   2.258  -3.290  1.00  0.00     0.011 A 
ATOM     14  C   UNL     1       3.974   1.311  -2.260  1.00  0.00    -0.009 A 
ATOM     15  C   UNL     1       2.787   3.212  -3.975  1.00  0.00     0.005 A 
ATOM     16  C   UNL     1       4.736   2.304  -2.948  1.00  0.00     0.013 A 
BRANCH  12  17
ATOM     17  C   UNL     1       1.670   0.122  -1.840  1.00  0.00     0.247 C 
BRANCH  17  18
ATOM     18  N   UNL     1       0.241   0.025  -2.308  1.00  0.00    -0.325 N 
ATOM     19  C   UNL     1      -3.338   1.310  -4.531  1.00  0.00     0.008 C 
ATOM     20  C   UNL     1      -1.949   1.131  -3.926  1.00  0.00    -0.003 C 
ATOM     21  C   UNL     1      -1.293  -0.184  -4.330  1.00  0.00     0.065 C 
ATOM     22  C   UNL     1      -2.038   1.133  -2.411  1.00  0.00     0.065 C 
ATOM     23  C   UNL     1       0.114  -0.311  -3.731  1.00  0.00     0.263 C 
ATOM     24  C   UNL     1      -0.665   1.032  -1.760  1.00  0.00     0.263 C 
ATOM     25  H   UNL     1      -0.142  -0.806  -1.858  1.00  0.00     0.348 HD
ENDBRANCH  17  18
BRANCH  17  26
ATOM     26  C   UNL     1       1.751  -0.084  -0.308  1.00  0.00     0.014 A 
ATOM     27  C   UNL     1       1.353   0.908   0.598  1.00  0.00     0.013 A 
ATOM     28  C   UNL     1       2.164  -1.322   0.229  1.00  0.00     0.013 A 
ATOM     29  C   UNL     1       1.323   0.662   1.975  1.00  0.00     0.040 A 
ATOM     30  C   UNL     1       2.216  -1.538   1.612  1.00  0.00     0.040 A 
ATOM     31  C   UNL     1       1.782  -0.545   2.473  1.00  0.00     0.123 A 
ATOM     32  F   UNL     1       1.795  -0.751   3.796  1.00  0.00    -0.207 F 
ENDBRANCH  17  26
ENDBRANCH  12  17
BRANCH  14  33
ATOM     33  C   UNL     1       4.716   0.383  -1.381  1.00  0.00    -0.018 A 
ATOM     34  C   UNL     1       5.256   0.837  -0.166  1.00  0.00     0.009 A 
ATOM     35  C   UNL     1       4.909  -0.963  -1.726  1.00  0.00     0.009 A 
ATOM     36  C   UNL     1       5.920  -0.038   0.702  1.00  0.00     0.014 A 
ATOM     37  C   UNL     1       5.561  -1.844  -0.854  1.00  0.00     0.014 A 
ATOM     38  C   UNL     1       6.058  -1.395   0.378  1.00  0.00     0.056 A 
BRANCH  38  39
ATOM     39  C   UNL     1       6.733  -2.339   1.343  1.00  0.00     0.416 C 
ATOM     40  F   UNL     1       8.078  -2.140   1.414  1.00  0.00    -0.166 F 
ATOM     41  F   UNL     1       6.268  -2.211   2.617  1.00  0.00    -0.166 F 
ATOM     42  F   UNL     1       6.566  -3.653   1.021  1.00  0.00    -0.166 F 
ENDBRANCH  38  39
ENDBRANCH  14  33
ENDBRANCH   9  11
ENDBRANCH   7   9
ENDBRANCH   6   7
ENDBRANCH   5   6
ENDBRANCH   4   5
ENDBRANCH   3   4
ENDBRANCH   2   3
ENDBRANCH   1   2
BRANCH   1  43
ATOM     43  O   UNL     1       2.081   5.703  -1.663  1.00  0.00    -0.377 OA
BRANCH  43  44
ATOM     44  C   UNL     1       1.068   5.885  -0.687  1.00  0.00     0.188 C 
BRANCH  44  45
ATOM     45  C   UNL     1       1.456   6.675   0.581  1.00  0.00     0.188 C 
BRANCH  45  46
ATOM     46  O   UNL     1       2.619   6.185   1.236  1.00  0.00    -0.376 OA
BRANCH  46  47
ATOM     47  C   UNL     1       2.441   5.346   2.366  1.00  0.00     0.202 C 
BRANCH  47  48
ATOM     48  C   UNL     1       1.797   3.981   2.121  1.00  0.00     0.261 C 
BRANCH  48  49
ATOM     49  O   UNL     1       0.514   3.987   1.466  1.00  0.00    -0.460 OA
BRANCH  49  50
ATOM     50  C   UNL     1      -0.558   4.453   2.128  1.00  0.00     0.338 C 
ATOM     51  O   UNL     1      -0.591   4.843   3.287  1.00  0.00    -0.246 OA
BRANCH  50  52
ATOM     52  C   UNL     1      -1.676   4.572   1.164  1.00  0.00     0.060 A 
ATOM     53  C   UNL     1      -2.106   5.844   0.762  1.00  0.00     0.016 A 
ATOM     54  C   UNL     1      -2.317   3.436   0.667  1.00  0.00     0.016 A 
ATOM     55  C   UNL     1      -3.186   5.987  -0.117  1.00  0.00     0.010 A 
ATOM     56  C   UNL     1      -3.417   3.585  -0.189  1.00  0.00     0.010 A 
ATOM     57  C   UNL     1      -3.876   4.859  -0.575  1.00  0.00    -0.014 A 
BRANCH  57  58
ATOM     58  C   UNL     1      -5.188   5.005  -1.268  1.00  0.00     0.031 A 
ATOM     59  C   UNL     1      -6.442   4.686  -0.495  1.00  0.00     0.074 A 
ATOM     60  C   UNL     1      -5.290   5.432  -2.542  1.00  0.00     0.049 A 
ATOM     61  N   UNL     1      -7.691   4.698  -0.885  1.00  0.00    -0.248 NA
ATOM     62  C   UNL     1      -6.257   4.287   0.909  1.00  0.00     0.031 C 
ATOM     63  C   UNL     1      -4.170   5.801  -3.403  1.00  0.00     0.029 A 
ATOM     64  N   UNL     1      -6.400   5.625  -3.333  1.00  0.00    -0.354 N 
ATOM     65  C   UNL     1      -8.432   4.293   0.218  1.00  0.00     0.074 A 
ATOM     66  C   UNL     1      -7.494   3.996   1.276  1.00  0.00     0.031 C 
ATOM     67  C   UNL     1      -4.649   6.184  -4.601  1.00  0.00     0.029 A 
ATOM     68  C   UNL     1      -6.107   6.056  -4.605  1.00  0.00     0.049 A 
ATOM     69  H   UNL     1      -7.319   5.468  -3.018  1.00  0.00     0.167 HD
ATOM     70  C   UNL     1      -9.776   4.199   0.350  1.00  0.00     0.037 A 
ATOM     71  C   UNL     1      -6.918   6.307  -5.655  1.00  0.00     0.037 A 
ATOM     72  C   UNL     1     -10.718   4.516  -0.689  1.00  0.00     0.049 A 
ATOM     73  C   UNL     1      -8.411   6.142  -5.508  1.00  0.00     0.074 A 
ATOM     74  C   UNL     1     -12.100   4.486  -0.633  1.00  0.00     0.029 A 
ATOM     75  N   UNL     1     -10.376   4.915  -1.972  1.00  0.00    -0.354 N 
ATOM     76  N   UNL     1      -9.103   5.787  -4.453  1.00  0.00    -0.248 NA
ATOM     77  C   UNL     1      -9.236   6.414  -6.696  1.00  0.00     0.031 C 
ATOM     78  C   UNL     1     -12.594   4.805  -1.900  1.00  0.00     0.029 A 
ATOM     79  C   UNL     1     -11.522   5.103  -2.727  1.00  0.00     0.049 A 
ATOM     80  H   UNL     1      -9.456   5.046  -2.297  1.00  0.00     0.167 HD
ATOM     81  C   UNL     1     -10.439   5.815  -4.839  1.00  0.00     0.074 A 
ATOM     82  C   UNL     1     -10.464   6.232  -6.224  1.00  0.00     0.031 C 
ATOM     83  C   UNL     1     -11.542   5.523  -4.106  1.00  0.00     0.037 A 
BRANCH  70  84
ATOM     84  C   UNL     1     -10.312   3.719   1.668  1.00  0.00     0.064 A 
ATOM     85  C   UNL     1     -10.956   2.475   1.760  1.00  0.00     0.173 A 
ATOM     86  C   UNL     1     -10.227   4.500   2.831  1.00  0.00     0.173 A 
ATOM     87  F   UNL     1     -11.068   1.690   0.677  1.00  0.00    -0.203 F 
ATOM     88  C   UNL     1     -11.500   2.036   2.963  1.00  0.00     0.198 A 
ATOM     89  C   UNL     1     -10.741   4.042   4.041  1.00  0.00     0.198 A 
ATOM     90  F   UNL     1      -9.607   5.689   2.801  1.00  0.00    -0.203 F 
ATOM     91  F   UNL     1     -12.137   0.858   3.018  1.00  0.00    -0.200 F 
ATOM     92  C   UNL     1     -11.386   2.816   4.104  1.00  0.00     0.200 A 
ATOM     93  F   UNL     1     -10.601   4.782   5.149  1.00  0.00    -0.200 F 
ATOM     94  F   UNL     1     -11.893   2.383   5.266  1.00  0.00    -0.200 F 
ENDBRANCH  70  84
BRANCH  71  95
ATOM     95  C   UNL     1      -6.327   6.759  -6.945  1.00  0.00     0.064 A 
ATOM     96  C   UNL     1      -5.545   5.898  -7.730  1.00  0.00     0.173 A 
ATOM     97  C   UNL     1      -6.509   8.071  -7.404  1.00  0.00     0.173 A 
ATOM     98  F   UNL     1      -5.347   4.630  -7.340  1.00  0.00    -0.203 F 
ATOM     99  C   UNL     1      -4.941   6.342  -8.905  1.00  0.00     0.198 A 
ATOM    100  C   UNL     1      -5.926   8.507  -8.593  1.00  0.00     0.198 A 
ATOM    101  F   UNL     1      -7.274   8.924  -6.707  1.00  0.00    -0.203 F 
ATOM    102  F   UNL     1      -4.166   5.509  -9.613  1.00  0.00    -0.200 F 
ATOM    103  C   UNL     1      -5.132   7.645  -9.336  1.00  0.00     0.200 A 
ATOM    104  F   UNL     1      -6.134   9.759  -9.021  1.00  0.00    -0.200 F 
ATOM    105  F   UNL     1      -4.553   8.071 -10.467  1.00  0.00    -0.200 F 
ENDBRANCH  71  95
BRANCH  83 106
ATOM    106  C   UNL     1     -12.888   5.658  -4.761  1.00  0.00     0.064 A 
ATOM    107  C   UNL     1     -13.787   6.650  -4.335  1.00  0.00     0.173 A 
ATOM    108  C   UNL     1     -13.333   4.743  -5.725  1.00  0.00     0.173 A 
ATOM    109  F   UNL     1     -13.417   7.544  -3.405  1.00  0.00    -0.203 F 
ATOM    110  C   UNL     1     -15.087   6.704  -4.832  1.00  0.00     0.198 A 
ATOM    111  C   UNL     1     -14.624   4.820  -6.244  1.00  0.00     0.198 A 
ATOM    112  F   UNL     1     -12.512   3.781  -6.173  1.00  0.00    -0.203 F 
ATOM    113  F   UNL     1     -15.940   7.630  -4.373  1.00  0.00    -0.200 F 
ATOM    114  C   UNL     1     -15.503   5.791  -5.787  1.00  0.00     0.200 A 
ATOM    115  F   UNL     1     -15.019   3.949  -7.183  1.00  0.00    -0.200 F 
ATOM    116  F   UNL     1     -16.753   5.845  -6.267  1.00  0.00    -0.200 F 
ENDBRANCH  83 106
ENDBRANCH  57  58
ENDBRANCH  50  52
ENDBRANCH  49  50
ENDBRANCH  48  49
ENDBRANCH  47  48
ENDBRANCH  46  47
ENDBRANCH  45  46
ENDBRANCH  44  45
ENDBRANCH  43  44
ENDBRANCH   1  43
TORSDOF 26
