REMARK SMILES Cc1cccc(O[C@H](C)C(=O)NNC(=O)[C@H]2[C@@H]3CC[C@@H](C3)[C@@H]2C(=O)OCCOCCOCCOCCOC(=O)c2ccc(-c3c4nc(c(-c5c(F)c(F)c(F)c(F)c5F)c5ccc([nH]5)c(-c5c(F)c(F)c(F)c(F)c5F)c5nc(c(-c6c(F)c(F)c(F)c(F)c6F)c6ccc3[nH]6)C=C5)C=C4)cc2)c1
REMARK SMILES IDX 29 1 28 2 27 3 26 4 25 5 23 6 24 7 22 8 16 9 17 10 18 11
REMARK SMILES IDX 21 12 20 13 19 14 14 15 13 16 15 18 12 19 10 20 11 21 8 23
REMARK SMILES IDX 9 24 7 25 6 26 1 27 2 28 3 29 103 30 4 31 5 32 30 33 31 34
REMARK SMILES IDX 32 35 33 36 34 37 35 38 36 39 37 40 38 41 39 42 40 43 41 44
REMARK SMILES IDX 102 45 42 46 101 47 43 48 44 49 45 50 95 51 46 52 100 53
REMARK SMILES IDX 94 54 96 55 47 56 99 57 93 58 92 59 48 61 80 62 60 63 79 64
REMARK SMILES IDX 61 65 64 66 78 67 97 68 62 69 63 70 77 72 98 73 65 74 49 75
REMARK SMILES IDX 50 76 58 77 51 78 52 79 56 80 59 81 53 82 54 83 57 84 55 85
REMARK SMILES IDX 81 86 82 87 90 88 83 89 84 90 88 91 91 92 85 93 86 94 89 95
REMARK SMILES IDX 87 96 66 97 67 98 75 99 68 100 69 101 73 102 76 103 70 104
REMARK SMILES IDX 71 105 74 106 72 107
REMARK H PARENT 13 17 12 22 96 60 64 71
REMARK Flexibility Score: inf
ROOT
ATOM      1  C   UNL     1       6.162   2.372   0.864  1.00  0.00     0.188 C 
ENDROOT
BRANCH   1   2
ATOM      2  O   UNL     1       7.448   2.606  -0.288  1.00  0.00    -0.376 OA
BRANCH   2   3
ATOM      3  C   UNL     1       7.710   3.554  -1.750  1.00  0.00     0.202 C 
BRANCH   3   4
ATOM      4  C   UNL     1       6.643   3.811  -3.315  1.00  0.00     0.261 C 
BRANCH   4   5
ATOM      5  O   UNL     1       5.144   2.950  -3.794  1.00  0.00    -0.463 OA
BRANCH   5   6
ATOM      6  C   UNL     1       4.565   1.662  -4.042  1.00  0.00     0.310 C 
ATOM      7  O   UNL     1       5.145   0.586  -4.199  1.00  0.00    -0.252 OA
BRANCH   6   8
ATOM      8  C   UNL     1       3.027   1.391  -3.877  1.00  0.00     0.115 C 
ATOM      9  C   UNL     1       2.731   0.215  -2.853  1.00  0.00     0.098 C 
ATOM     10  C   UNL     1       1.800  -0.730  -3.654  1.00  0.00     0.003 C 
ATOM     11  C   UNL     1       2.642  -1.469  -4.713  1.00  0.00     0.005 C 
ATOM     12  C   UNL     1       1.016   0.237  -4.534  1.00  0.00     0.009 C 
ATOM     13  C   UNL     1       2.279   0.873  -5.142  1.00  0.00     0.004 C 
ATOM     14  C   UNL     1       2.896  -0.382  -5.765  1.00  0.00     0.005 C 
BRANCH   9  15
ATOM     15  C   UNL     1       2.214   0.409  -1.411  1.00  0.00     0.242 C 
ATOM     16  N   UNL     1       1.233   1.263  -0.994  1.00  0.00    -0.267 N 
ATOM     17  H   UNL     1       1.027   1.244  -0.031  1.00  0.00     0.191 HD
ATOM     18  O   UNL     1       2.686  -0.322  -0.523  1.00  0.00    -0.273 OA
BRANCH  16  19
ATOM     19  N   UNL     1       0.499   2.146  -1.747  1.00  0.00    -0.264 N 
ATOM     20  C   UNL     1      -0.284   3.165  -1.294  1.00  0.00     0.279 C 
ATOM     21  O   UNL     1      -0.494   4.069  -2.118  1.00  0.00    -0.269 OA
ATOM     22  H   UNL     1       0.542   2.029  -2.723  1.00  0.00     0.191 HD
BRANCH  20  23
ATOM     23  C   UNL     1      -1.010   3.215   0.083  1.00  0.00     0.260 C 
ATOM     24  C   UNL     1      -2.442   2.675  -0.034  1.00  0.00     0.064 C 
BRANCH  23  25
ATOM     25  O   UNL     1      -0.409   3.082   1.355  1.00  0.00    -0.481 OA
BRANCH  25  26
ATOM     26  C   UNL     1      -0.172   1.918   2.009  1.00  0.00     0.120 A 
ATOM     27  C   UNL     1       1.711   1.174   5.253  1.00  0.00     0.044 C 
ATOM     28  C   UNL     1       0.945   0.988   3.978  1.00  0.00    -0.047 A 
ATOM     29  C   UNL     1       0.744  -0.293   3.467  1.00  0.00     0.003 A 
ATOM     30  C   UNL     1       0.465   2.082   3.247  1.00  0.00     0.049 A 
ATOM     31  C   UNL     1       0.041  -0.470   2.276  1.00  0.00     0.004 A 
ATOM     32  C   UNL     1      -0.426   0.632   1.555  1.00  0.00     0.046 A 
ENDBRANCH  25  26
ENDBRANCH  23  25
ENDBRANCH  20  23
ENDBRANCH  16  19
ENDBRANCH   9  15
ENDBRANCH   6   8
ENDBRANCH   5   6
ENDBRANCH   4   5
ENDBRANCH   3   4
ENDBRANCH   2   3
ENDBRANCH   1   2
BRANCH   1  33
ATOM     33  C   UNL     1       4.464   2.201   0.776  1.00  0.00     0.188 C 
BRANCH  33  34
ATOM     34  O   UNL     1       3.382   3.118   0.467  1.00  0.00    -0.377 OA
BRANCH  34  35
ATOM     35  C   UNL     1       3.091   4.399   1.026  1.00  0.00     0.188 C 
BRANCH  35  36
ATOM     36  C   UNL     1       3.180   4.552   2.517  1.00  0.00     0.188 C 
BRANCH  36  37
ATOM     37  O   UNL     1       4.405   3.963   2.894  1.00  0.00    -0.376 OA
BRANCH  37  38
ATOM     38  C   UNL     1       4.462   3.550   4.242  1.00  0.00     0.202 C 
BRANCH  38  39
ATOM     39  C   UNL     1       4.731   4.737   5.160  1.00  0.00     0.261 C 
BRANCH  39  40
ATOM     40  O   UNL     1       5.945   5.386   4.715  1.00  0.00    -0.460 OA
BRANCH  40  41
ATOM     41  C   UNL     1       5.748   6.489   3.929  1.00  0.00     0.338 C 
ATOM     42  O   UNL     1       4.986   7.400   4.182  1.00  0.00    -0.246 OA
BRANCH  41  43
ATOM     43  C   UNL     1       6.333   6.247   2.574  1.00  0.00     0.060 A 
ATOM     44  C   UNL     1       5.794   6.850   1.451  1.00  0.00     0.016 A 
ATOM     45  C   UNL     1       7.243   5.253   2.332  1.00  0.00     0.016 A 
ATOM     46  C   UNL     1       5.820   6.171   0.197  1.00  0.00     0.010 A 
ATOM     47  C   UNL     1       7.295   4.676   1.038  1.00  0.00     0.010 A 
ATOM     48  C   UNL     1       6.282   4.853   0.025  1.00  0.00    -0.014 A 
BRANCH  48  49
ATOM     49  C   UNL     1       5.481   3.643  -1.112  1.00  0.00     0.031 A 
ATOM     50  C   UNL     1       6.075   1.876  -1.731  1.00  0.00     0.074 A 
ATOM     51  C   UNL     1       4.438   4.320  -1.700  1.00  0.00     0.049 A 
ATOM     52  N   UNL     1       6.784   1.734  -2.891  1.00  0.00    -0.248 NA
ATOM     53  C   UNL     1       6.530   0.520  -1.091  1.00  0.00     0.031 C 
ATOM     54  C   UNL     1       3.261   3.807  -2.325  1.00  0.00     0.029 A 
ATOM     55  N   UNL     1       4.336   5.667  -2.091  1.00  0.00    -0.354 N 
ATOM     56  C   UNL     1       7.528   0.620  -3.156  1.00  0.00     0.074 A 
ATOM     57  C   UNL     1       7.473  -0.040  -1.895  1.00  0.00     0.031 C 
ATOM     58  C   UNL     1       2.917   4.551  -3.394  1.00  0.00     0.029 A 
ATOM     59  C   UNL     1       3.788   5.685  -3.379  1.00  0.00     0.049 A 
ATOM     60  H   UNL     1       4.601   6.451  -1.558  1.00  0.00     0.167 HD
ATOM     61  C   UNL     1       8.071   0.313  -4.395  1.00  0.00     0.037 A 
ATOM     62  C   UNL     1       3.892   6.618  -4.341  1.00  0.00     0.037 A 
ATOM     63  C   UNL     1       7.472   1.003  -5.562  1.00  0.00     0.049 A 
ATOM     64  C   UNL     1       4.526   6.104  -5.611  1.00  0.00     0.074 A 
ATOM     65  C   UNL     1       6.475   0.555  -6.422  1.00  0.00     0.029 A 
ATOM     66  N   UNL     1       7.678   2.330  -5.931  1.00  0.00    -0.354 N 
ATOM     67  N   UNL     1       5.237   5.010  -5.753  1.00  0.00    -0.248 NA
ATOM     68  C   UNL     1       4.370   6.841  -6.859  1.00  0.00     0.031 C 
ATOM     69  C   UNL     1       5.903   1.651  -7.095  1.00  0.00     0.029 A 
ATOM     70  C   UNL     1       6.675   2.760  -6.811  1.00  0.00     0.049 A 
ATOM     71  H   UNL     1       8.425   2.889  -5.617  1.00  0.00     0.167 HD
ATOM     72  C   UNL     1       5.737   4.961  -7.051  1.00  0.00     0.074 A 
ATOM     73  C   UNL     1       5.080   6.080  -7.704  1.00  0.00     0.031 C 
ATOM     74  C   UNL     1       6.658   4.042  -7.511  1.00  0.00     0.037 A 
BRANCH  61  75
ATOM     75  C   UNL     1       8.867  -0.976  -4.577  1.00  0.00     0.064 A 
ATOM     76  C   UNL     1       8.605  -1.923  -5.595  1.00  0.00     0.173 A 
ATOM     77  C   UNL     1       9.912  -1.325  -3.702  1.00  0.00     0.173 A 
ATOM     78  F   UNL     1       7.771  -1.675  -6.609  1.00  0.00    -0.203 F 
ATOM     79  C   UNL     1       9.200  -3.187  -5.618  1.00  0.00     0.198 A 
ATOM     80  C   UNL     1      10.508  -2.594  -3.724  1.00  0.00     0.198 A 
ATOM     81  F   UNL     1      10.365  -0.438  -2.802  1.00  0.00    -0.203 F 
ATOM     82  F   UNL     1       8.854  -4.067  -6.569  1.00  0.00    -0.200 F 
ATOM     83  C   UNL     1      10.121  -3.538  -4.658  1.00  0.00     0.200 A 
ATOM     84  F   UNL     1      11.443  -2.910  -2.817  1.00  0.00    -0.200 F 
ATOM     85  F   UNL     1      10.642  -4.773  -4.641  1.00  0.00    -0.200 F 
ENDBRANCH  61  75
BRANCH  62  86
ATOM     86  C   UNL     1       3.925   7.973  -3.730  1.00  0.00     0.064 A 
ATOM     87  C   UNL     1       2.704   8.328  -3.103  1.00  0.00     0.173 A 
ATOM     88  C   UNL     1       5.105   8.504  -3.203  1.00  0.00     0.173 A 
ATOM     89  F   UNL     1       1.548   7.831  -3.574  1.00  0.00    -0.203 F 
ATOM     90  C   UNL     1       2.691   8.958  -1.863  1.00  0.00     0.198 A 
ATOM     91  C   UNL     1       5.081   9.176  -1.976  1.00  0.00     0.198 A 
ATOM     92  F   UNL     1       6.286   8.202  -3.759  1.00  0.00    -0.203 F 
ATOM     93  F   UNL     1       1.547   9.043  -1.169  1.00  0.00    -0.200 F 
ATOM     94  C   UNL     1       3.885   9.343  -1.282  1.00  0.00     0.200 A 
ATOM     95  F   UNL     1       6.232   9.520  -1.383  1.00  0.00    -0.200 F 
ATOM     96  F   UNL     1       3.897   9.780  -0.014  1.00  0.00    -0.200 F 
ENDBRANCH  62  86
BRANCH  74  97
ATOM     97  C   UNL     1       7.469   4.079  -8.826  1.00  0.00     0.064 A 
ATOM     98  C   UNL     1       7.512   5.137  -9.748  1.00  0.00     0.173 A 
ATOM     99  C   UNL     1       8.336   2.995  -9.168  1.00  0.00     0.173 A 
ATOM    100  F   UNL     1       6.895   6.300  -9.527  1.00  0.00    -0.203 F 
ATOM    101  C   UNL     1       8.263   5.080 -10.933  1.00  0.00     0.198 A 
ATOM    102  C   UNL     1       9.112   2.957 -10.326  1.00  0.00     0.198 A 
ATOM    103  F   UNL     1       8.515   1.936  -8.368  1.00  0.00    -0.203 F 
ATOM    104  F   UNL     1       8.225   6.115 -11.785  1.00  0.00    -0.200 F 
ATOM    105  C   UNL     1       9.063   3.995 -11.222  1.00  0.00     0.200 A 
ATOM    106  F   UNL     1       9.927   1.914 -10.546  1.00  0.00    -0.200 F 
ATOM    107  F   UNL     1       9.810   3.968 -12.332  1.00  0.00    -0.200 F 
ENDBRANCH  74  97
ENDBRANCH  48  49
ENDBRANCH  41  43
ENDBRANCH  40  41
ENDBRANCH  39  40
ENDBRANCH  38  39
ENDBRANCH  37  38
ENDBRANCH  36  37
ENDBRANCH  35  36
ENDBRANCH  34  35
ENDBRANCH  33  34
ENDBRANCH   1  33
TORSDOF 25
