REMARK SMILES CC(C)c1noc(C[N@@H+]2[C@@H](C(=O)OCCOCCOCCOCCOC(=O)c3ccc(-c4c5nc(c(-c6c(F)c(F)c(F)c(F)c6F)c6ccc([nH]6)c(-c6c(F)c(F)c(F)c(F)c6F)c6nc(c(-c7c(F)c(F)c(F)c(F)c7F)c7ccc4[nH]7)C=C6)C=C5)cc3)C[C@H]3CCCC[C@@H]32)n1
REMARK SMILES IDX 18 1 17 2 16 3 15 4 14 5 13 6 11 7 12 8 10 9 9 10 97 11
REMARK SMILES IDX 91 13 92 14 96 15 93 16 95 17 94 18 8 19 7 20 4 21 5 22
REMARK SMILES IDX 98 23 6 24 2 25 1 26 3 27 19 28 20 29 21 30 22 31 23 32
REMARK SMILES IDX 24 33 25 34 26 35 27 36 28 37 29 38 90 39 30 40 89 41 31 42
REMARK SMILES IDX 32 43 33 44 83 45 34 46 88 47 82 48 84 49 35 50 87 51 81 52
REMARK SMILES IDX 80 53 36 55 68 56 48 57 67 58 49 59 52 60 66 61 85 62 50 63
REMARK SMILES IDX 51 64 65 66 86 67 53 68 37 69 38 70 46 71 39 72 40 73 44 74
REMARK SMILES IDX 47 75 41 76 42 77 45 78 43 79 69 80 70 81 78 82 71 83 72 84
REMARK SMILES IDX 76 85 79 86 73 87 74 88 77 89 75 90 54 91 55 92 63 93 56 94
REMARK SMILES IDX 57 95 61 96 64 97 58 98 59 99 62 100 60 101
REMARK H PARENT 9 12 84 54 52 65
REMARK Flexibility Score: inf
ROOT
ATOM      1  C   UNL     1      -7.853  -0.188  -1.290  1.00  0.00     0.188 C 
ENDROOT
BRANCH   1   2
ATOM      2  C   UNL     1      -8.171  -0.816   0.081  1.00  0.00     0.188 C 
BRANCH   2   3
ATOM      3  O   UNL     1      -9.379  -0.340   0.644  1.00  0.00    -0.376 OA
BRANCH   3   4
ATOM      4  C   UNL     1      -9.349   0.654   1.648  1.00  0.00     0.202 C 
BRANCH   4   5
ATOM      5  C   UNL     1      -8.510   1.935   1.497  1.00  0.00     0.261 C 
BRANCH   5   6
ATOM      6  O   UNL     1      -7.305   1.837   0.735  1.00  0.00    -0.459 OA
BRANCH   6   7
ATOM      7  C   UNL     1      -6.229   1.301   1.365  1.00  0.00     0.365 C 
ATOM      8  O   UNL     1      -6.232   0.939   2.536  1.00  0.00    -0.245 OA
BRANCH   7   9
ATOM      9  C   UNL     1      -5.030   1.201   0.387  1.00  0.00     0.296 C 
ATOM     10  N   UNL     1      -4.653  -0.234   0.159  1.00  0.00    -0.313 N 
ATOM     11  C   UNL     1      -3.759  -0.545   1.281  1.00  0.00     0.188 C 
ATOM     12  H   UNL     1      -5.465  -0.851   0.157  1.00  0.00     0.349 HD
ATOM     13  C   UNL     1      -3.850   1.875   1.087  1.00  0.00     0.087 C 
ATOM     14  C   UNL     1      -2.931   0.726   1.464  1.00  0.00     0.054 C 
ATOM     15  C   UNL     1      -2.856  -1.778   1.295  1.00  0.00     0.065 C 
ATOM     16  C   UNL     1      -2.341   0.735   2.860  1.00  0.00     0.010 C 
ATOM     17  C   UNL     1      -2.020  -1.802   2.587  1.00  0.00     0.006 C 
ATOM     18  C   UNL     1      -1.381  -0.454   2.967  1.00  0.00     0.001 C 
BRANCH  10  19
ATOM     19  C   UNL     1      -4.145  -0.548  -1.199  1.00  0.00     0.364 C 
BRANCH  19  20
ATOM     20  C   UNL     1      -2.845   0.043  -1.616  1.00  0.00     0.281 A 
ATOM     21  C   UNL     1      -0.846   0.598  -1.841  1.00  0.00     0.174 A 
ATOM     22  N   UNL     1      -1.508   1.714  -2.176  1.00  0.00    -0.062 NA
ATOM     23  N   UNL     1      -1.640  -0.476  -1.547  1.00  0.00    -0.191 NA
ATOM     24  O   UNL     1      -2.849   1.341  -2.038  1.00  0.00    -0.333 OA
BRANCH  21  25
ATOM     25  C   UNL     1       0.637   0.538  -1.701  1.00  0.00     0.055 C 
ATOM     26  C   UNL     1       1.040   0.085  -0.293  1.00  0.00     0.016 C 
ATOM     27  C   UNL     1       1.249  -0.387  -2.750  1.00  0.00     0.016 C 
ENDBRANCH  21  25
ENDBRANCH  19  20
ENDBRANCH  10  19
ENDBRANCH   7   9
ENDBRANCH   6   7
ENDBRANCH   5   6
ENDBRANCH   4   5
ENDBRANCH   3   4
ENDBRANCH   2   3
ENDBRANCH   1   2
BRANCH   1  28
ATOM     28  O   UNL     1      -8.564   0.973  -1.685  1.00  0.00    -0.377 OA
BRANCH  28  29
ATOM     29  C   UNL     1      -9.983   0.942  -1.754  1.00  0.00     0.188 C 
BRANCH  29  30
ATOM     30  C   UNL     1     -10.788  -0.380  -1.716  1.00  0.00     0.188 C 
BRANCH  30  31
ATOM     31  O   UNL     1     -10.022  -1.554  -1.918  1.00  0.00    -0.376 OA
BRANCH  31  32
ATOM     32  C   UNL     1     -10.148  -2.236  -3.151  1.00  0.00     0.202 C 
BRANCH  32  33
ATOM     33  C   UNL     1      -9.656  -1.497  -4.402  1.00  0.00     0.261 C 
BRANCH  33  34
ATOM     34  O   UNL     1     -10.189  -0.180  -4.606  1.00  0.00    -0.460 OA
BRANCH  34  35
ATOM     35  C   UNL     1     -11.510  -0.082  -4.859  1.00  0.00     0.338 C 
ATOM     36  O   UNL     1     -12.317  -0.995  -4.944  1.00  0.00    -0.246 OA
BRANCH  35  37
ATOM     37  C   UNL     1     -11.866   1.350  -4.838  1.00  0.00     0.060 A 
ATOM     38  C   UNL     1     -12.776   1.815  -3.879  1.00  0.00     0.016 A 
ATOM     39  C   UNL     1     -11.287   2.232  -5.752  1.00  0.00     0.016 A 
ATOM     40  C   UNL     1     -13.133   3.163  -3.850  1.00  0.00     0.010 A 
ATOM     41  C   UNL     1     -11.667   3.576  -5.741  1.00  0.00     0.010 A 
ATOM     42  C   UNL     1     -12.616   4.040  -4.812  1.00  0.00    -0.014 A 
BRANCH  42  43
ATOM     43  C   UNL     1     -13.223   5.381  -4.983  1.00  0.00     0.031 A 
ATOM     44  C   UNL     1     -14.260   5.554  -6.060  1.00  0.00     0.074 A 
ATOM     45  C   UNL     1     -12.876   6.418  -4.201  1.00  0.00     0.049 A 
ATOM     46  N   UNL     1     -14.883   6.635  -6.452  1.00  0.00    -0.248 NA
ATOM     47  C   UNL     1     -14.644   4.339  -6.799  1.00  0.00     0.031 C 
ATOM     48  C   UNL     1     -11.917   6.365  -3.100  1.00  0.00     0.029 A 
ATOM     49  N   UNL     1     -13.285   7.729  -4.228  1.00  0.00    -0.354 N 
ATOM     50  C   UNL     1     -15.711   6.236  -7.493  1.00  0.00     0.074 A 
ATOM     51  C   UNL     1     -15.505   4.818  -7.684  1.00  0.00     0.031 C 
ATOM     52  C   UNL     1     -11.796   7.595  -2.568  1.00  0.00     0.029 A 
ATOM     53  C   UNL     1     -12.638   8.527  -3.316  1.00  0.00     0.049 A 
ATOM     54  H   UNL     1     -13.977   8.065  -4.843  1.00  0.00     0.167 HD
ATOM     55  C   UNL     1     -16.567   6.988  -8.222  1.00  0.00     0.037 A 
ATOM     56  C   UNL     1     -12.699   9.862  -3.134  1.00  0.00     0.037 A 
ATOM     57  C   UNL     1     -16.783   8.394  -8.015  1.00  0.00     0.049 A 
ATOM     58  C   UNL     1     -13.619  10.683  -4.007  1.00  0.00     0.074 A 
ATOM     59  C   UNL     1     -17.667   9.233  -8.668  1.00  0.00     0.029 A 
ATOM     60  N   UNL     1     -16.098   9.171  -7.093  1.00  0.00    -0.354 N 
ATOM     61  N   UNL     1     -14.438  10.291  -4.954  1.00  0.00    -0.248 NA
ATOM     62  C   UNL     1     -13.625  12.137  -3.783  1.00  0.00     0.031 C 
ATOM     63  C   UNL     1     -17.466  10.532  -8.194  1.00  0.00     0.029 A 
ATOM     64  C   UNL     1     -16.512  10.489  -7.191  1.00  0.00     0.049 A 
ATOM     65  H   UNL     1     -15.419   8.836  -6.464  1.00  0.00     0.167 HD
ATOM     66  C   UNL     1     -15.081  11.438  -5.405  1.00  0.00     0.074 A 
ATOM     67  C   UNL     1     -14.570  12.540  -4.619  1.00  0.00     0.031 C 
ATOM     68  C   UNL     1     -16.011  11.571  -6.383  1.00  0.00     0.037 A 
BRANCH  55  69
ATOM     69  C   UNL     1     -17.315   6.324  -9.339  1.00  0.00     0.064 A 
ATOM     70  C   UNL     1     -18.364   5.424  -9.102  1.00  0.00     0.173 A 
ATOM     71  C   UNL     1     -17.026   6.661 -10.671  1.00  0.00     0.173 A 
ATOM     72  F   UNL     1     -18.669   5.057  -7.848  1.00  0.00    -0.203 F 
ATOM     73  C   UNL     1     -19.091   4.881 -10.158  1.00  0.00     0.198 A 
ATOM     74  C   UNL     1     -17.775   6.140 -11.722  1.00  0.00     0.198 A 
ATOM     75  F   UNL     1     -16.032   7.518 -10.951  1.00  0.00    -0.203 F 
ATOM     76  F   UNL     1     -20.071   4.000  -9.912  1.00  0.00    -0.200 F 
ATOM     77  C   UNL     1     -18.805   5.249 -11.465  1.00  0.00     0.200 A 
ATOM     78  F   UNL     1     -17.506   6.509 -12.981  1.00  0.00    -0.200 F 
ATOM     79  F   UNL     1     -19.522   4.744 -12.478  1.00  0.00    -0.200 F 
ENDBRANCH  55  69
BRANCH  56  80
ATOM     80  C   UNL     1     -11.843  10.530  -2.114  1.00  0.00     0.064 A 
ATOM     81  C   UNL     1     -12.406  11.211  -1.025  1.00  0.00     0.173 A 
ATOM     82  C   UNL     1     -10.447  10.567  -2.250  1.00  0.00     0.173 A 
ATOM     83  F   UNL     1     -13.737  11.230  -0.863  1.00  0.00    -0.203 F 
ATOM     84  C   UNL     1     -11.612  11.939  -0.140  1.00  0.00     0.198 A 
ATOM     85  C   UNL     1      -9.650  11.263  -1.342  1.00  0.00     0.198 A 
ATOM     86  F   UNL     1      -9.853   9.936  -3.274  1.00  0.00    -0.203 F 
ATOM     87  F   UNL     1     -12.185  12.646   0.843  1.00  0.00    -0.200 F 
ATOM     88  C   UNL     1     -10.235  11.962  -0.298  1.00  0.00     0.200 A 
ATOM     89  F   UNL     1      -8.319  11.271  -1.492  1.00  0.00    -0.200 F 
ATOM     90  F   UNL     1      -9.473  12.672   0.546  1.00  0.00    -0.200 F 
ENDBRANCH  56  80
BRANCH  68  91
ATOM     91  C   UNL     1     -16.584  12.940  -6.621  1.00  0.00     0.064 A 
ATOM     92  C   UNL     1     -15.825  13.976  -7.184  1.00  0.00     0.173 A 
ATOM     93  C   UNL     1     -17.931  13.202  -6.322  1.00  0.00     0.173 A 
ATOM     94  F   UNL     1     -14.531  13.783  -7.478  1.00  0.00    -0.203 F 
ATOM     95  C   UNL     1     -16.384  15.232  -7.408  1.00  0.00     0.198 A 
ATOM     96  C   UNL     1     -18.496  14.447  -6.583  1.00  0.00     0.198 A 
ATOM     97  F   UNL     1     -18.706  12.243  -5.793  1.00  0.00    -0.203 F 
ATOM     98  F   UNL     1     -15.624  16.224  -7.894  1.00  0.00    -0.200 F 
ATOM     99  C   UNL     1     -17.720  15.464  -7.116  1.00  0.00     0.200 A 
ATOM    100  F   UNL     1     -19.793  14.661  -6.320  1.00  0.00    -0.200 F 
ATOM    101  F   UNL     1     -18.258  16.670  -7.343  1.00  0.00    -0.200 F 
ENDBRANCH  68  91
ENDBRANCH  42  43
ENDBRANCH  35  37
ENDBRANCH  34  35
ENDBRANCH  33  34
ENDBRANCH  32  33
ENDBRANCH  31  32
ENDBRANCH  30  31
ENDBRANCH  29  30
ENDBRANCH  28  29
ENDBRANCH   1  28
TORSDOF 23
