REMARK SMILES C[C@](NC(=O)[C@](C)([NH3+])C(F)(F)F)(C(=O)OCCOCCOCCOCCOC(=O)c1ccc(-c2c3nc(c(-c4c(F)c(F)c(F)c(F)c4F)c4ccc([nH]4)c(-c4c(F)c(F)c(F)c(F)c4F)c4nc(c(-c5c(F)c(F)c(F)c(F)c5F)c5ccc2[nH]5)C=C4)C=C3)cc1)c1ccccc1
REMARK SMILES IDX 20 1 19 2 18 3 17 4 16 5 15 6 13 7 14 8 2 9 1 10 93 11 94 12
REMARK SMILES IDX 98 13 95 14 97 15 96 16 3 17 4 18 5 20 6 21 7 22 8 23 9 27
REMARK SMILES IDX 10 28 11 29 12 30 21 31 22 32 23 33 24 34 25 35 26 36 27 37
REMARK SMILES IDX 28 38 29 39 30 40 31 41 92 42 32 43 91 44 33 45 34 46 35 47
REMARK SMILES IDX 85 48 36 49 90 50 84 51 86 52 37 53 89 54 83 55 82 56 38 58
REMARK SMILES IDX 70 59 50 60 69 61 51 62 54 63 68 64 87 65 52 66 53 67 67 69
REMARK SMILES IDX 88 70 55 71 39 72 40 73 48 74 41 75 42 76 46 77 49 78 43 79
REMARK SMILES IDX 44 80 47 81 45 82 71 83 72 84 80 85 73 86 74 87 78 88 81 89
REMARK SMILES IDX 75 90 76 91 79 92 77 93 56 94 57 95 65 96 58 97 59 98 63 99
REMARK SMILES IDX 66 100 60 101 61 102 64 103 62 104
REMARK H PARENT 3 19 8 24 8 25 8 26 86 57 54 68
REMARK Flexibility Score: inf
ROOT
ATOM      1  C   UNL     1      -5.576   4.438  -0.750  1.00  0.00     0.188 C 
ENDROOT
BRANCH   1   2
ATOM      2  C   UNL     1      -4.923   4.867   0.576  1.00  0.00     0.188 C 
BRANCH   2   3
ATOM      3  O   UNL     1      -3.953   5.899   0.405  1.00  0.00    -0.376 OA
BRANCH   3   4
ATOM      4  C   UNL     1      -2.585   5.515   0.386  1.00  0.00     0.202 C 
BRANCH   4   5
ATOM      5  C   UNL     1      -2.126   4.766  -0.876  1.00  0.00     0.261 C 
BRANCH   5   6
ATOM      6  O   UNL     1      -2.813   3.522  -1.142  1.00  0.00    -0.461 OA
BRANCH   6   7
ATOM      7  C   UNL     1      -2.616   2.529  -0.237  1.00  0.00     0.336 C 
ATOM      8  O   UNL     1      -1.830   2.633   0.700  1.00  0.00    -0.249 OA
BRANCH   7   9
ATOM      9  C   UNL     1      -3.417   1.196  -0.584  1.00  0.00     0.161 C 
ATOM     10  C   UNL     1      -2.264   0.351  -1.172  1.00  0.00     0.053 C 
BRANCH   9  11
ATOM     11  C   UNL     1      -4.093   0.811   0.741  1.00  0.00    -0.012 A 
ATOM     12  C   UNL     1      -5.381   1.306   1.059  1.00  0.00     0.007 A 
ATOM     13  C   UNL     1      -3.432   0.083   1.735  1.00  0.00     0.007 A 
ATOM     14  C   UNL     1      -6.004   1.037   2.277  1.00  0.00     0.000 A 
ATOM     15  C   UNL     1      -4.048  -0.176   2.965  1.00  0.00     0.000 A 
ATOM     16  C   UNL     1      -5.333   0.289   3.232  1.00  0.00     0.000 A 
ENDBRANCH   9  11
BRANCH   9  17
ATOM     17  N   UNL     1      -4.459   1.303  -1.655  1.00  0.00    -0.331 N 
ATOM     18  C   UNL     1      -5.423   0.498  -2.194  1.00  0.00     0.291 C 
ATOM     19  H   UNL     1      -4.445   2.188  -2.086  1.00  0.00     0.165 HD
ATOM     20  O   UNL     1      -6.089   1.084  -3.065  1.00  0.00    -0.267 OA
BRANCH  18  21
ATOM     21  C   UNL     1      -5.804  -0.984  -1.818  1.00  0.00     0.267 C 
ATOM     22  C   UNL     1      -6.974  -1.433  -2.729  1.00  0.00     0.100 C 
BRANCH  21  23
ATOM     23  N   UNL     1      -6.392  -1.094  -0.450  1.00  0.00    -0.337 N 
ATOM     24  H   UNL     1      -6.620  -2.069  -0.256  1.00  0.00     0.345 HD
ATOM     25  H   UNL     1      -7.240  -0.529  -0.398  1.00  0.00     0.345 HD
ATOM     26  H   UNL     1      -5.718  -0.759   0.238  1.00  0.00     0.345 HD
ENDBRANCH  21  23
BRANCH  21  27
ATOM     27  C   UNL     1      -4.625  -1.929  -2.104  1.00  0.00     0.453 C 
ATOM     28  F   UNL     1      -5.011  -3.226  -2.169  1.00  0.00    -0.164 F 
ATOM     29  F   UNL     1      -4.013  -1.641  -3.275  1.00  0.00    -0.164 F 
ATOM     30  F   UNL     1      -3.697  -1.867  -1.120  1.00  0.00    -0.164 F 
ENDBRANCH  21  27
ENDBRANCH  18  21
ENDBRANCH   9  17
ENDBRANCH   7   9
ENDBRANCH   6   7
ENDBRANCH   5   6
ENDBRANCH   4   5
ENDBRANCH   3   4
ENDBRANCH   2   3
ENDBRANCH   1   2
BRANCH   1  31
ATOM     31  O   UNL     1      -6.254   5.414  -1.515  1.00  0.00    -0.377 OA
BRANCH  31  32
ATOM     32  C   UNL     1      -5.588   6.650  -1.655  1.00  0.00     0.188 C 
BRANCH  32  33
ATOM     33  C   UNL     1      -6.056   7.703  -0.635  1.00  0.00     0.188 C 
BRANCH  33  34
ATOM     34  O   UNL     1      -7.129   7.462   0.266  1.00  0.00    -0.376 OA
BRANCH  34  35
ATOM     35  C   UNL     1      -8.183   6.560  -0.022  1.00  0.00     0.202 C 
BRANCH  35  36
ATOM     36  C   UNL     1      -8.977   6.603  -1.343  1.00  0.00     0.261 C 
BRANCH  36  37
ATOM     37  O   UNL     1      -8.300   7.073  -2.509  1.00  0.00    -0.460 OA
BRANCH  37  38
ATOM     38  C   UNL     1      -8.357   8.402  -2.739  1.00  0.00     0.338 C 
ATOM     39  O   UNL     1      -8.930   9.250  -2.078  1.00  0.00    -0.246 OA
BRANCH  38  40
ATOM     40  C   UNL     1      -7.449   8.701  -3.866  1.00  0.00     0.060 A 
ATOM     41  C   UNL     1      -6.410   9.622  -3.667  1.00  0.00     0.016 A 
ATOM     42  C   UNL     1      -7.596   8.054  -5.096  1.00  0.00     0.016 A 
ATOM     43  C   UNL     1      -5.523   9.909  -4.700  1.00  0.00     0.010 A 
ATOM     44  C   UNL     1      -6.734   8.377  -6.146  1.00  0.00     0.010 A 
ATOM     45  C   UNL     1      -5.716   9.328  -5.958  1.00  0.00    -0.014 A 
BRANCH  45  46
ATOM     46  C   UNL     1      -5.027   9.908  -7.131  1.00  0.00     0.031 A 
ATOM     47  C   UNL     1      -5.737  10.995  -7.886  1.00  0.00     0.074 A 
ATOM     48  C   UNL     1      -3.805   9.497  -7.509  1.00  0.00     0.049 A 
ATOM     49  N   UNL     1      -5.381  11.625  -8.974  1.00  0.00    -0.248 NA
ATOM     50  C   UNL     1      -7.034  11.427  -7.335  1.00  0.00     0.031 C 
ATOM     51  C   UNL     1      -3.004   8.483  -6.829  1.00  0.00     0.029 A 
ATOM     52  N   UNL     1      -3.034   9.880  -8.578  1.00  0.00    -0.354 N 
ATOM     53  C   UNL     1      -6.410  12.519  -9.240  1.00  0.00     0.074 A 
ATOM     54  C   UNL     1      -7.415  12.334  -8.218  1.00  0.00     0.031 C 
ATOM     55  C   UNL     1      -1.860   8.304  -7.513  1.00  0.00     0.029 A 
ATOM     56  C   UNL     1      -1.866   9.168  -8.694  1.00  0.00     0.049 A 
ATOM     57  H   UNL     1      -3.293  10.597  -9.201  1.00  0.00     0.167 HD
ATOM     58  C   UNL     1      -6.505  13.417 -10.247  1.00  0.00     0.037 A 
ATOM     59  C   UNL     1      -0.930   9.196  -9.663  1.00  0.00     0.037 A 
ATOM     60  C   UNL     1      -5.506  13.588 -11.267  1.00  0.00     0.049 A 
ATOM     61  C   UNL     1      -1.093  10.152 -10.819  1.00  0.00     0.074 A 
ATOM     62  C   UNL     1      -5.494  14.483 -12.320  1.00  0.00     0.029 A 
ATOM     63  N   UNL     1      -4.347  12.833 -11.366  1.00  0.00    -0.354 N 
ATOM     64  N   UNL     1      -2.049  11.020 -11.048  1.00  0.00    -0.248 NA
ATOM     65  C   UNL     1      -0.045  10.132 -11.850  1.00  0.00     0.031 C 
ATOM     66  C   UNL     1      -4.355  14.231 -13.091  1.00  0.00     0.029 A 
ATOM     67  C   UNL     1      -3.626  13.220 -12.483  1.00  0.00     0.049 A 
ATOM     68  H   UNL     1      -4.077  12.126 -10.735  1.00  0.00     0.167 HD
ATOM     69  C   UNL     1      -1.705  11.668 -12.229  1.00  0.00     0.074 A 
ATOM     70  C   UNL     1      -0.447  11.099 -12.663  1.00  0.00     0.031 C 
ATOM     71  C   UNL     1      -2.369  12.646 -12.893  1.00  0.00     0.037 A 
BRANCH  58  72
ATOM     72  C   UNL     1      -7.751  14.248 -10.312  1.00  0.00     0.064 A 
ATOM     73  C   UNL     1      -8.020  15.254  -9.372  1.00  0.00     0.173 A 
ATOM     74  C   UNL     1      -8.687  14.039 -11.336  1.00  0.00     0.173 A 
ATOM     75  F   UNL     1      -7.167  15.480  -8.361  1.00  0.00    -0.203 F 
ATOM     76  C   UNL     1      -9.194  16.000  -9.438  1.00  0.00     0.198 A 
ATOM     77  C   UNL     1      -9.844  14.807 -11.417  1.00  0.00     0.198 A 
ATOM     78  F   UNL     1      -8.478  13.088 -12.259  1.00  0.00    -0.203 F 
ATOM     79  F   UNL     1      -9.457  16.918  -8.498  1.00  0.00    -0.200 F 
ATOM     80  C   UNL     1     -10.102  15.780 -10.464  1.00  0.00     0.200 A 
ATOM     81  F   UNL     1     -10.715  14.601 -12.415  1.00  0.00    -0.200 F 
ATOM     82  F   UNL     1     -11.229  16.502 -10.528  1.00  0.00    -0.200 F 
ENDBRANCH  58  72
BRANCH  59  83
ATOM     83  C   UNL     1       0.233   8.272  -9.598  1.00  0.00     0.064 A 
ATOM     84  C   UNL     1       1.532   8.753  -9.390  1.00  0.00     0.173 A 
ATOM     85  C   UNL     1       0.069   6.888  -9.760  1.00  0.00     0.173 A 
ATOM     86  F   UNL     1       1.745  10.070  -9.255  1.00  0.00    -0.203 F 
ATOM     87  C   UNL     1       2.625   7.888  -9.363  1.00  0.00     0.198 A 
ATOM     88  C   UNL     1       1.158   6.021  -9.704  1.00  0.00     0.198 A 
ATOM     89  F   UNL     1      -1.154   6.375  -9.964  1.00  0.00    -0.203 F 
ATOM     90  F   UNL     1       3.862   8.379  -9.208  1.00  0.00    -0.200 F 
ATOM     91  C   UNL     1       2.436   6.522  -9.514  1.00  0.00     0.200 A 
ATOM     92  F   UNL     1       0.968   4.701  -9.837  1.00  0.00    -0.200 F 
ATOM     93  F   UNL     1       3.486   5.690  -9.483  1.00  0.00    -0.200 F 
ENDBRANCH  59  83
BRANCH  71  94
ATOM     94  C   UNL     1      -1.735  13.196 -14.138  1.00  0.00     0.064 A 
ATOM     95  C   UNL     1      -1.684  12.457 -15.329  1.00  0.00     0.173 A 
ATOM     96  C   UNL     1      -1.230  14.506 -14.155  1.00  0.00     0.173 A 
ATOM     97  F   UNL     1      -2.142  11.197 -15.361  1.00  0.00    -0.203 F 
ATOM     98  C   UNL     1      -1.133  13.002 -16.486  1.00  0.00     0.198 A 
ATOM     99  C   UNL     1      -0.708  15.058 -15.322  1.00  0.00     0.198 A 
ATOM    100  F   UNL     1      -1.263  15.258 -13.045  1.00  0.00    -0.203 F 
ATOM    101  F   UNL     1      -1.057  12.264 -17.602  1.00  0.00    -0.200 F 
ATOM    102  C   UNL     1      -0.655  14.305 -16.484  1.00  0.00     0.200 A 
ATOM    103  F   UNL     1      -0.263  16.322 -15.321  1.00  0.00    -0.200 F 
ATOM    104  F   UNL     1      -0.138  14.832 -17.602  1.00  0.00    -0.200 F 
ENDBRANCH  71  94
ENDBRANCH  45  46
ENDBRANCH  38  40
ENDBRANCH  37  38
ENDBRANCH  36  37
ENDBRANCH  35  36
ENDBRANCH  34  35
ENDBRANCH  33  34
ENDBRANCH  32  33
ENDBRANCH  31  32
ENDBRANCH   1  31
TORSDOF 25
