REMARK SMILES O=C(OCCOCCOCCOCCOC(=O)c1ccc(NC(=O)c2ccc([N+](=O)[O-])cc2Cl)cc1Cl)c1ccc(-c2c3nc(c(-c4c(F)c(F)c(F)c(F)c4F)c4ccc([nH]4)c(-c4c(F)c(F)c(F)c(F)c4F)c4nc(c(-c5c(F)c(F)c(F)c(F)c5F)c5ccc2[nH]5)C=C4)C=C3)cc1
REMARK SMILES IDX 10 1 9 2 8 3 7 4 6 5 5 6 4 7 3 8 2 9 1 10 38 11 39 12 100 13
REMARK SMILES IDX 40 14 99 15 41 16 42 17 43 18 93 19 44 20 98 21 92 22 94 23
REMARK SMILES IDX 45 24 97 25 91 26 90 27 46 29 78 30 58 31 77 32 59 33 62 34
REMARK SMILES IDX 76 35 95 36 60 37 61 38 75 40 96 41 63 42 47 43 48 44 56 45
REMARK SMILES IDX 49 46 50 47 54 48 57 49 51 50 52 51 55 52 53 53 79 54 80 55
REMARK SMILES IDX 88 56 81 57 82 58 86 59 89 60 83 61 84 62 87 63 85 64 64 65
REMARK SMILES IDX 65 66 73 67 66 68 67 69 71 70 74 71 68 72 69 73 72 74 70 75
REMARK SMILES IDX 11 76 12 77 13 78 14 79 15 80 16 81 17 82 18 83 19 84 36 85
REMARK SMILES IDX 20 86 35 87 37 88 21 89 22 90 23 91 24 93 25 94 26 95 33 96
REMARK SMILES IDX 27 97 32 98 34 99 28 100 29 101 30 102 31 103
REMARK H PARENT 94 28 62 39 22 92
REMARK Flexibility Score: inf
ROOT
ATOM      1  C   UNL     1       4.009   3.048  -2.313  1.00  0.00     0.188 C 
ENDROOT
BRANCH   1   2
ATOM      2  O   UNL     1       2.590   3.094  -2.359  1.00  0.00    -0.377 OA
BRANCH   2   3
ATOM      3  C   UNL     1       1.888   2.326  -1.385  1.00  0.00     0.188 C 
BRANCH   3   4
ATOM      4  C   UNL     1       2.311   0.860  -1.289  1.00  0.00     0.188 C 
BRANCH   4   5
ATOM      5  O   UNL     1       3.648   0.745  -0.791  1.00  0.00    -0.376 OA
BRANCH   5   6
ATOM      6  C   UNL     1       4.429  -0.282  -1.403  1.00  0.00     0.202 C 
BRANCH   6   7
ATOM      7  C   UNL     1       4.229  -1.671  -0.792  1.00  0.00     0.261 C 
BRANCH   7   8
ATOM      8  O   UNL     1       2.866  -1.903  -0.411  1.00  0.00    -0.460 OA
BRANCH   8   9
ATOM      9  C   UNL     1       2.291  -1.692   0.799  1.00  0.00     0.338 C 
ATOM     10  O   UNL     1       1.108  -2.000   0.942  1.00  0.00    -0.246 OA
BRANCH   9  11
ATOM     11  C   UNL     1       3.007  -1.126   1.989  1.00  0.00     0.060 A 
ATOM     12  C   UNL     1       4.150  -0.325   1.950  1.00  0.00     0.016 A 
ATOM     13  C   UNL     1       2.440  -1.388   3.249  1.00  0.00     0.016 A 
ATOM     14  C   UNL     1       4.767   0.127   3.108  1.00  0.00     0.010 A 
ATOM     15  C   UNL     1       3.035  -0.915   4.423  1.00  0.00     0.010 A 
ATOM     16  C   UNL     1       4.227  -0.188   4.349  1.00  0.00    -0.014 A 
BRANCH  16  17
ATOM     17  C   UNL     1       5.048   0.090   5.540  1.00  0.00     0.031 A 
ATOM     18  C   UNL     1       5.809  -1.052   6.139  1.00  0.00     0.074 A 
ATOM     19  C   UNL     1       5.221   1.355   5.960  1.00  0.00     0.049 A 
ATOM     20  N   UNL     1       6.569  -1.081   7.200  1.00  0.00    -0.248 NA
ATOM     21  C   UNL     1       5.715  -2.341   5.431  1.00  0.00     0.031 C 
ATOM     22  C   UNL     1       4.628   2.538   5.336  1.00  0.00     0.029 A 
ATOM     23  N   UNL     1       5.970   1.857   6.989  1.00  0.00    -0.354 N 
ATOM     24  C   UNL     1       7.011  -2.392   7.304  1.00  0.00     0.074 A 
ATOM     25  C   UNL     1       6.443  -3.132   6.202  1.00  0.00     0.031 C 
ATOM     26  C   UNL     1       5.046   3.634   5.992  1.00  0.00     0.029 A 
ATOM     27  C   UNL     1       5.880   3.221   7.116  1.00  0.00     0.049 A 
ATOM     28  H   UNL     1       6.520   1.295   7.581  1.00  0.00     0.167 HD
ATOM     29  C   UNL     1       7.816  -2.925   8.252  1.00  0.00     0.037 A 
ATOM     30  C   UNL     1       6.389   4.029   8.065  1.00  0.00     0.037 A 
ATOM     31  C   UNL     1       8.368  -2.157   9.332  1.00  0.00     0.049 A 
ATOM     32  C   UNL     1       7.208   3.397   9.161  1.00  0.00     0.074 A 
ATOM     33  C   UNL     1       9.141  -2.583  10.395  1.00  0.00     0.029 A 
ATOM     34  N   UNL     1       8.200  -0.785   9.477  1.00  0.00    -0.354 N 
ATOM     35  N   UNL     1       7.561   2.141   9.309  1.00  0.00    -0.248 NA
ATOM     36  C   UNL     1       7.686   4.285  10.227  1.00  0.00     0.031 C 
ATOM     37  C   UNL     1       9.402  -1.474  11.208  1.00  0.00     0.029 A 
ATOM     38  C   UNL     1       8.839  -0.348  10.623  1.00  0.00     0.049 A 
ATOM     39  H   UNL     1       7.699  -0.209   8.856  1.00  0.00     0.167 HD
ATOM     40  C   UNL     1       8.311   2.087  10.475  1.00  0.00     0.074 A 
ATOM     41  C   UNL     1       8.380   3.445  10.982  1.00  0.00     0.031 C 
ATOM     42  C   UNL     1       8.885   1.018  11.081  1.00  0.00     0.037 A 
BRANCH  29  43
ATOM     43  C   UNL     1       8.057  -4.404   8.190  1.00  0.00     0.064 A 
ATOM     44  C   UNL     1       8.860  -4.990   7.200  1.00  0.00     0.173 A 
ATOM     45  C   UNL     1       7.431  -5.254   9.115  1.00  0.00     0.173 A 
ATOM     46  F   UNL     1       9.454  -4.225   6.272  1.00  0.00    -0.203 F 
ATOM     47  C   UNL     1       9.003  -6.374   7.121  1.00  0.00     0.198 A 
ATOM     48  C   UNL     1       7.598  -6.634   9.049  1.00  0.00     0.198 A 
ATOM     49  F   UNL     1       6.644  -4.746  10.074  1.00  0.00    -0.203 F 
ATOM     50  F   UNL     1       9.723  -6.916   6.129  1.00  0.00    -0.200 F 
ATOM     51  C   UNL     1       8.374  -7.194   8.046  1.00  0.00     0.200 A 
ATOM     52  F   UNL     1       6.990  -7.424   9.945  1.00  0.00    -0.200 F 
ATOM     53  F   UNL     1       8.504  -8.525   7.962  1.00  0.00    -0.200 F 
ENDBRANCH  29  43
BRANCH  30  54
ATOM     54  C   UNL     1       6.092   5.487   8.050  1.00  0.00     0.064 A 
ATOM     55  C   UNL     1       7.104   6.439   7.870  1.00  0.00     0.173 A 
ATOM     56  C   UNL     1       4.781   5.961   8.224  1.00  0.00     0.173 A 
ATOM     57  F   UNL     1       8.377   6.045   7.722  1.00  0.00    -0.203 F 
ATOM     58  C   UNL     1       6.819   7.805   7.878  1.00  0.00     0.198 A 
ATOM     59  C   UNL     1       4.493   7.324   8.200  1.00  0.00     0.198 A 
ATOM     60  F   UNL     1       3.772   5.096   8.406  1.00  0.00    -0.203 F 
ATOM     61  F   UNL     1       7.813   8.695   7.749  1.00  0.00    -0.200 F 
ATOM     62  C   UNL     1       5.514   8.246   8.036  1.00  0.00     0.200 A 
ATOM     63  F   UNL     1       3.228   7.742   8.339  1.00  0.00    -0.200 F 
ATOM     64  F   UNL     1       5.241   9.558   8.038  1.00  0.00    -0.200 F 
ENDBRANCH  30  54
BRANCH  42  65
ATOM     65  C   UNL     1       9.657   1.286  12.337  1.00  0.00     0.064 A 
ATOM     66  C   UNL     1       9.011   1.581  13.545  1.00  0.00     0.173 A 
ATOM     67  C   UNL     1      11.056   1.187  12.339  1.00  0.00     0.173 A 
ATOM     68  F   UNL     1       7.676   1.699  13.586  1.00  0.00    -0.203 F 
ATOM     69  C   UNL     1       9.742   1.788  14.710  1.00  0.00     0.198 A 
ATOM     70  C   UNL     1      11.781   1.364  13.512  1.00  0.00     0.198 A 
ATOM     71  F   UNL     1      11.716   0.898  11.207  1.00  0.00    -0.203 F 
ATOM     72  F   UNL     1       9.110   2.110  15.847  1.00  0.00    -0.200 F 
ATOM     73  C   UNL     1      11.125   1.670  14.695  1.00  0.00     0.200 A 
ATOM     74  F   UNL     1      13.115   1.235  13.499  1.00  0.00    -0.200 F 
ATOM     75  F   UNL     1      11.826   1.857  15.821  1.00  0.00    -0.200 F 
ENDBRANCH  42  65
ENDBRANCH  16  17
ENDBRANCH   9  11
ENDBRANCH   8   9
ENDBRANCH   7   8
ENDBRANCH   6   7
ENDBRANCH   5   6
ENDBRANCH   4   5
ENDBRANCH   3   4
ENDBRANCH   2   3
ENDBRANCH   1   2
BRANCH   1  76
ATOM     76  C   UNL     1       4.734   3.501  -1.027  1.00  0.00     0.188 C 
BRANCH  76  77
ATOM     77  O   UNL     1       3.892   3.898   0.048  1.00  0.00    -0.376 OA
BRANCH  77  78
ATOM     78  C   UNL     1       3.810   5.305   0.270  1.00  0.00     0.202 C 
BRANCH  78  79
ATOM     79  C   UNL     1       2.977   6.066  -0.768  1.00  0.00     0.261 C 
BRANCH  79  80
ATOM     80  O   UNL     1       3.497   5.992  -2.107  1.00  0.00    -0.460 OA
BRANCH  80  81
ATOM     81  C   UNL     1       4.661   6.615  -2.392  1.00  0.00     0.339 C 
ATOM     82  O   UNL     1       5.350   7.268  -1.629  1.00  0.00    -0.246 OA
BRANCH  81  83
ATOM     83  C   UNL     1       5.107   6.113  -3.712  1.00  0.00     0.078 A 
ATOM     84  C   UNL     1       6.345   5.450  -3.764  1.00  0.00     0.019 A 
ATOM     85  C   UNL     1       4.292   6.130  -4.845  1.00  0.00     0.057 A 
ATOM     86  C   UNL     1       6.725   4.736  -4.911  1.00  0.00     0.027 A 
ATOM     87  C   UNL     1       4.691   5.434  -5.995  1.00  0.00     0.047 A 
ATOM     88  Cl  UNL     1       2.795   6.989  -4.907  1.00  0.00    -0.083 Cl
ATOM     89  C   UNL     1       5.886   4.699  -6.024  1.00  0.00     0.043 A 
BRANCH  89  90
ATOM     90  N   UNL     1       6.170   4.009  -7.217  1.00  0.00    -0.322 N 
ATOM     91  C   UNL     1       7.059   3.012  -7.540  1.00  0.00     0.257 C 
ATOM     92  H   UNL     1       5.619   4.302  -7.978  1.00  0.00     0.170 HD
ATOM     93  O   UNL     1       7.287   2.751  -8.720  1.00  0.00    -0.269 OA
BRANCH  91  94
ATOM     94  C   UNL     1       7.723   2.179  -6.524  1.00  0.00     0.059 A 
ATOM     95  C   UNL     1       9.128   2.147  -6.541  1.00  0.00     0.022 A 
ATOM     96  C   UNL     1       7.014   1.347  -5.646  1.00  0.00     0.060 A 
ATOM     97  C   UNL     1       9.825   1.341  -5.637  1.00  0.00     0.086 A 
ATOM     98  C   UNL     1       7.707   0.542  -4.736  1.00  0.00     0.107 A 
ATOM     99  Cl  UNL     1       5.293   1.221  -5.661  1.00  0.00    -0.083 Cl
ATOM    100  C   UNL     1       9.109   0.553  -4.727  1.00  0.00     0.270 A 
BRANCH 100 101
ATOM    101  N   UNL     1       9.830  -0.272  -3.750  1.00  0.00     0.062 N 
ATOM    102  O   UNL     1      11.055  -0.386  -3.884  1.00  0.00    -0.258 OA
ATOM    103  O   UNL     1       9.164  -0.788  -2.841  1.00  0.00    -0.258 OA
ENDBRANCH 100 101
ENDBRANCH  91  94
ENDBRANCH  89  90
ENDBRANCH  81  83
ENDBRANCH  80  81
ENDBRANCH  79  80
ENDBRANCH  78  79
ENDBRANCH  77  78
ENDBRANCH  76  77
ENDBRANCH   1  76
TORSDOF 23
