REMARK SMILES CSCC[C@@H](C(=O)OCCOCCOCCOCCOC(=O)c1ccc(-c2c3nc(c(-c4c(F)c(F)c(F)c(F)c4F)c4ccc([nH]4)c(-c4c(F)c(F)c(F)c(F)c4F)c4nc(c(-c5c(F)c(F)c(F)c(F)c5F)c5ccc2[nH]5)C=C4)C=C3)cc1)N1C(=O)/C(=C/c2ccccc2F)SC1=S
REMARK SMILES IDX 13 1 12 2 11 3 10 4 9 5 8 6 6 7 7 8 5 9 4 10 3 11 2 12 1 13
REMARK SMILES IDX 86 14 87 15 99 16 88 17 89 18 98 19 100 20 90 21 91 22 92 23
REMARK SMILES IDX 96 24 93 25 95 26 97 27 94 28 14 29 15 30 16 31 17 32 18 33
REMARK SMILES IDX 19 34 20 35 21 36 22 37 23 38 24 39 85 40 25 41 84 42 26 43
REMARK SMILES IDX 27 44 28 45 78 46 29 47 83 48 77 49 79 50 30 51 82 52 76 53
REMARK SMILES IDX 75 54 31 56 63 57 43 58 62 59 44 60 47 61 61 62 80 63 45 64
REMARK SMILES IDX 46 65 60 67 81 68 48 69 32 70 33 71 41 72 34 73 35 74 39 75
REMARK SMILES IDX 42 76 36 77 37 78 40 79 38 80 64 81 65 82 73 83 66 84 67 85
REMARK SMILES IDX 71 86 74 87 68 88 69 89 72 90 70 91 49 92 50 93 58 94 51 95
REMARK SMILES IDX 52 96 56 97 59 98 53 99 54 100 57 101 55 102
REMARK H PARENT 79 55 47 66
REMARK Flexibility Score: inf
ROOT
ATOM      1  C   UNL     1       2.947  -1.925   4.506  1.00  0.00     0.188 C 
ENDROOT
BRANCH   1   2
ATOM      2  C   UNL     1       3.893  -2.919   3.807  1.00  0.00     0.188 C 
BRANCH   2   3
ATOM      3  O   UNL     1       5.130  -2.339   3.423  1.00  0.00    -0.376 OA
BRANCH   3   4
ATOM      4  C   UNL     1       5.329  -2.073   2.042  1.00  0.00     0.202 C 
BRANCH   4   5
ATOM      5  C   UNL     1       4.294  -1.215   1.298  1.00  0.00     0.261 C 
BRANCH   5   6
ATOM      6  O   UNL     1       2.946  -1.450   1.735  1.00  0.00    -0.462 OA
BRANCH   6   7
ATOM      7  C   UNL     1       1.996  -1.755   0.827  1.00  0.00     0.329 C 
ATOM      8  O   UNL     1       2.204  -1.907  -0.370  1.00  0.00    -0.250 OA
BRANCH   7   9
ATOM      9  C   UNL     1       0.594  -1.872   1.482  1.00  0.00     0.202 C 
BRANCH   9  10
ATOM     10  C   UNL     1       0.248  -0.587   2.298  1.00  0.00     0.048 C 
BRANCH  10  11
ATOM     11  C   UNL     1       0.883   0.770   1.972  1.00  0.00     0.072 C 
BRANCH  11  12
ATOM     12  S   UNL     1       0.132   1.644   0.561  1.00  0.00    -0.165 SA
ATOM     13  C   UNL     1       0.923   0.796  -0.820  1.00  0.00     0.085 C 
ENDBRANCH  11  12
ENDBRANCH  10  11
ENDBRANCH   9  10
BRANCH   9  14
ATOM     14  N   UNL     1       0.359  -3.176   2.230  1.00  0.00    -0.278 N 
ATOM     15  C   UNL     1       1.089  -4.305   1.861  1.00  0.00     0.266 C 
ATOM     16  C   UNL     1      -0.723  -3.464   3.056  1.00  0.00     0.149 C 
ATOM     17  O   UNL     1       2.020  -4.349   1.069  1.00  0.00    -0.268 OA
ATOM     18  C   UNL     1       0.591  -5.535   2.532  1.00  0.00     0.081 C 
ATOM     19  S   UNL     1      -0.662  -5.137   3.613  1.00  0.00    -0.054 SA
ATOM     20  S   UNL     1      -2.013  -2.526   3.546  1.00  0.00    -0.052 S 
ATOM     21  C   UNL     1       1.055  -6.753   2.220  1.00  0.00     0.032 C 
BRANCH  21  22
ATOM     22  C   UNL     1       0.454  -8.030   2.632  1.00  0.00     0.012 A 
ATOM     23  C   UNL     1       1.151  -8.933   3.441  1.00  0.00     0.011 A 
ATOM     24  C   UNL     1      -0.808  -8.399   2.144  1.00  0.00     0.130 A 
ATOM     25  C   UNL     1       0.585 -10.176   3.754  1.00  0.00     0.001 A 
ATOM     26  C   UNL     1      -1.374  -9.632   2.454  1.00  0.00     0.040 A 
ATOM     27  F   UNL     1      -1.487  -7.570   1.337  1.00  0.00    -0.206 F 
ATOM     28  C   UNL     1      -0.674 -10.525   3.261  1.00  0.00     0.003 A 
ENDBRANCH  21  22
ENDBRANCH   9  14
ENDBRANCH   7   9
ENDBRANCH   6   7
ENDBRANCH   5   6
ENDBRANCH   4   5
ENDBRANCH   3   4
ENDBRANCH   2   3
ENDBRANCH   1   2
BRANCH   1  29
ATOM     29  O   UNL     1       3.234  -0.540   4.374  1.00  0.00    -0.377 OA
BRANCH  29  30
ATOM     30  C   UNL     1       4.491  -0.047   4.843  1.00  0.00     0.188 C 
BRANCH  30  31
ATOM     31  C   UNL     1       5.388  -0.878   5.794  1.00  0.00     0.188 C 
BRANCH  31  32
ATOM     32  O   UNL     1       4.722  -1.905   6.511  1.00  0.00    -0.376 OA
BRANCH  32  33
ATOM     33  C   UNL     1       4.368  -1.638   7.859  1.00  0.00     0.202 C 
BRANCH  33  34
ATOM     34  C   UNL     1       3.334  -0.525   8.078  1.00  0.00     0.261 C 
BRANCH  34  35
ATOM     35  O   UNL     1       3.736   0.789   7.656  1.00  0.00    -0.460 OA
BRANCH  35  36
ATOM     36  C   UNL     1       4.865   1.300   8.193  1.00  0.00     0.338 C 
ATOM     37  O   UNL     1       5.577   0.806   9.043  1.00  0.00    -0.246 OA
BRANCH  36  38
ATOM     38  C   UNL     1       5.206   2.517   7.430  1.00  0.00     0.060 A 
ATOM     39  C   UNL     1       6.428   2.574   6.748  1.00  0.00     0.016 A 
ATOM     40  C   UNL     1       4.325   3.599   7.411  1.00  0.00     0.016 A 
ATOM     41  C   UNL     1       6.797   3.741   6.080  1.00  0.00     0.010 A 
ATOM     42  C   UNL     1       4.704   4.774   6.763  1.00  0.00     0.010 A 
ATOM     43  C   UNL     1       5.959   4.863   6.133  1.00  0.00    -0.014 A 
BRANCH  43  44
ATOM     44  C   UNL     1       6.488   6.194   5.757  1.00  0.00     0.031 A 
ATOM     45  C   UNL     1       7.020   7.072   6.856  1.00  0.00     0.074 A 
ATOM     46  C   UNL     1       6.500   6.617   4.482  1.00  0.00     0.049 A 
ATOM     47  N   UNL     1       7.448   8.307   6.805  1.00  0.00    -0.248 NA
ATOM     48  C   UNL     1       7.067   6.473   8.200  1.00  0.00     0.031 C 
ATOM     49  C   UNL     1       6.058   5.839   3.328  1.00  0.00     0.029 A 
ATOM     50  N   UNL     1       6.888   7.822   3.952  1.00  0.00    -0.354 N 
ATOM     51  C   UNL     1       7.801   8.634   8.108  1.00  0.00     0.074 A 
ATOM     52  C   UNL     1       7.511   7.481   8.931  1.00  0.00     0.031 C 
ATOM     53  C   UNL     1       6.182   6.595   2.223  1.00  0.00     0.029 A 
ATOM     54  C   UNL     1       6.675   7.920   2.600  1.00  0.00     0.049 A 
ATOM     55  H   UNL     1       7.281   8.546   4.491  1.00  0.00     0.167 HD
ATOM     56  C   UNL     1       8.325   9.791   8.574  1.00  0.00     0.037 A 
ATOM     57  C   UNL     1       6.834   8.972   1.773  1.00  0.00     0.037 A 
ATOM     58  C   UNL     1       8.606  10.937   7.752  1.00  0.00     0.049 A 
ATOM     59  C   UNL     1       7.343  10.279   2.329  1.00  0.00     0.074 A 
ATOM     60  C   UNL     1       9.148  12.154   8.122  1.00  0.00     0.029 A 
ATOM     61  N   UNL     1       8.354  11.007   6.389  1.00  0.00    -0.354 N 
ATOM     62  N   UNL     1       7.694  10.579   3.557  1.00  0.00    -0.248 NA
ATOM     63  C   UNL     1       7.480  11.395   1.381  1.00  0.00     0.031 C 
ATOM     64  C   UNL     1       9.169  12.982   6.995  1.00  0.00     0.029 A 
ATOM     65  C   UNL     1       8.704  12.258   5.909  1.00  0.00     0.049 A 
ATOM     66  H   UNL     1       7.981  10.277   5.844  1.00  0.00     0.167 HD
ATOM     67  C   UNL     1       8.124  11.901   3.522  1.00  0.00     0.074 A 
ATOM     68  C   UNL     1       7.998  12.342   2.149  1.00  0.00     0.031 C 
ATOM     69  C   UNL     1       8.586  12.677   4.534  1.00  0.00     0.037 A 
BRANCH  56  70
ATOM     70  C   UNL     1       8.590   9.883  10.049  1.00  0.00     0.064 A 
ATOM     71  C   UNL     1       9.609   9.142  10.667  1.00  0.00     0.173 A 
ATOM     72  C   UNL     1       7.819  10.735  10.854  1.00  0.00     0.173 A 
ATOM     73  F   UNL     1      10.363   8.298   9.945  1.00  0.00    -0.203 F 
ATOM     74  C   UNL     1       9.825   9.226  12.040  1.00  0.00     0.198 A 
ATOM     75  C   UNL     1       8.060  10.842  12.221  1.00  0.00     0.198 A 
ATOM     76  F   UNL     1       6.832  11.466  10.315  1.00  0.00    -0.203 F 
ATOM     77  F   UNL     1      10.765   8.465  12.617  1.00  0.00    -0.200 F 
ATOM     78  C   UNL     1       9.055  10.081  12.815  1.00  0.00     0.200 A 
ATOM     79  F   UNL     1       7.323  11.678  12.966  1.00  0.00    -0.200 F 
ATOM     80  F   UNL     1       9.266  10.164  14.135  1.00  0.00    -0.200 F 
ENDBRANCH  56  70
BRANCH  57  81
ATOM     81  C   UNL     1       6.492   8.843   0.332  1.00  0.00     0.064 A 
ATOM     82  C   UNL     1       7.487   8.899  -0.655  1.00  0.00     0.173 A 
ATOM     83  C   UNL     1       5.164   8.682  -0.091  1.00  0.00     0.173 A 
ATOM     84  F   UNL     1       8.768   9.080  -0.304  1.00  0.00    -0.203 F 
ATOM     85  C   UNL     1       7.164   8.818  -2.009  1.00  0.00     0.198 A 
ATOM     86  C   UNL     1       4.846   8.571  -1.443  1.00  0.00     0.198 A 
ATOM     87  F   UNL     1       4.174   8.628   0.812  1.00  0.00    -0.203 F 
ATOM     88  F   UNL     1       8.129   8.924  -2.932  1.00  0.00    -0.200 F 
ATOM     89  C   UNL     1       5.845   8.647  -2.401  1.00  0.00     0.200 A 
ATOM     90  F   UNL     1       3.572   8.395  -1.817  1.00  0.00    -0.200 F 
ATOM     91  F   UNL     1       5.536   8.565  -3.702  1.00  0.00    -0.200 F 
ENDBRANCH  57  81
BRANCH  69  92
ATOM     92  C   UNL     1       9.040  14.068   4.193  1.00  0.00     0.064 A 
ATOM     93  C   UNL     1       8.135  15.080   3.841  1.00  0.00     0.173 A 
ATOM     94  C   UNL     1      10.401  14.405   4.273  1.00  0.00     0.173 A 
ATOM     95  F   UNL     1       6.825  14.809   3.739  1.00  0.00    -0.203 F 
ATOM     96  C   UNL     1       8.578  16.370   3.558  1.00  0.00     0.198 A 
ATOM     97  C   UNL     1      10.836  15.703   4.022  1.00  0.00     0.198 A 
ATOM     98  F   UNL     1      11.309  13.478   4.614  1.00  0.00    -0.203 F 
ATOM     99  F   UNL     1       7.700  17.309   3.178  1.00  0.00    -0.200 F 
ATOM    100  C   UNL     1       9.926  16.683   3.658  1.00  0.00     0.200 A 
ATOM    101  F   UNL     1      12.137  16.007   4.137  1.00  0.00    -0.200 F 
ATOM    102  F   UNL     1      10.348  17.927   3.396  1.00  0.00    -0.200 F 
ENDBRANCH  69  92
ENDBRANCH  43  44
ENDBRANCH  36  38
ENDBRANCH  35  36
ENDBRANCH  34  35
ENDBRANCH  33  34
ENDBRANCH  32  33
ENDBRANCH  31  32
ENDBRANCH  30  31
ENDBRANCH  29  30
ENDBRANCH   1  29
TORSDOF 25
