REMARK SMILES Cc1n[nH]cc1CNC(=O)NC[C@H](CC(C)C)C(=O)OCCOCCOCCOCCOC(=O)c1ccc(-c2c3nc(c(-c4c(F)c(F)c(F)c(F)c4F)c4ccc([nH]4)c(-c4c(F)c(F)c(F)c(F)c4F)c4nc(c(-c5c(F)c(F)c(F)c(F)c5F)c5ccc2[nH]5)C=C4)C=C3)cc1
REMARK SMILES IDX 25 1 24 2 23 3 22 4 21 5 20 6 18 7 19 8 13 9 12 10 11 11
REMARK SMILES IDX 8 12 9 13 10 15 7 17 6 18 1 19 2 20 3 21 4 22 5 23 14 25
REMARK SMILES IDX 15 26 16 27 17 28 26 29 27 30 28 31 29 32 30 33 31 34 32 35
REMARK SMILES IDX 33 36 34 37 35 38 36 39 97 40 37 41 96 42 38 43 39 44 40 45
REMARK SMILES IDX 90 46 41 47 95 48 89 49 91 50 42 51 94 52 88 53 87 54 43 56
REMARK SMILES IDX 75 57 55 58 74 59 56 60 59 61 73 62 92 63 57 64 58 65 72 67
REMARK SMILES IDX 93 68 60 69 44 70 45 71 53 72 46 73 47 74 51 75 54 76 48 77
REMARK SMILES IDX 49 78 52 79 50 80 76 81 77 82 85 83 78 84 79 85 83 86 86 87
REMARK SMILES IDX 80 88 81 89 84 90 82 91 61 92 62 93 70 94 63 95 64 96 68 97
REMARK SMILES IDX 71 98 65 99 66 100 69 101 67 102
REMARK H PARENT 8 14 11 16 4 24 91 55 59 66
REMARK Flexibility Score: inf
ROOT
ATOM      1  C   UNL     1       2.314   2.897   2.730  1.00  0.00     0.188 C 
ENDROOT
BRANCH   1   2
ATOM      2  C   UNL     1       2.650   3.603   4.048  1.00  0.00     0.188 C 
BRANCH   2   3
ATOM      3  O   UNL     1       2.352   2.765   5.146  1.00  0.00    -0.376 OA
BRANCH   3   4
ATOM      4  C   UNL     1       1.427   3.199   6.132  1.00  0.00     0.202 C 
BRANCH   4   5
ATOM      5  C   UNL     1       0.288   4.197   5.846  1.00  0.00     0.261 C 
BRANCH   5   6
ATOM      6  O   UNL     1      -0.260   4.218   4.513  1.00  0.00    -0.463 OA
BRANCH   6   7
ATOM      7  C   UNL     1      -0.184   5.424   3.900  1.00  0.00     0.310 C 
ATOM      8  O   UNL     1       0.379   6.398   4.403  1.00  0.00    -0.252 OA
BRANCH   7   9
ATOM      9  C   UNL     1      -0.796   5.550   2.514  1.00  0.00     0.119 C 
BRANCH   9  10
ATOM     10  C   UNL     1      -1.518   6.929   2.505  1.00  0.00     0.133 C 
BRANCH  10  11
ATOM     11  N   UNL     1      -2.643   7.068   1.607  1.00  0.00    -0.337 N 
ATOM     12  N   UNL     1      -4.540   6.857   2.994  1.00  0.00    -0.334 N 
ATOM     13  C   UNL     1      -3.963   7.147   1.822  1.00  0.00     0.315 C 
ATOM     14  H   UNL     1      -5.459   7.200   3.074  1.00  0.00     0.165 HD
ATOM     15  O   UNL     1      -4.681   7.508   0.889  1.00  0.00    -0.249 OA
ATOM     16  H   UNL     1      -2.391   7.114   0.657  1.00  0.00     0.165 HD
BRANCH  12  17
ATOM     17  C   UNL     1      -4.089   6.143   4.161  1.00  0.00     0.157 C 
BRANCH  17  18
ATOM     18  C   UNL     1      -4.191   6.960   5.391  1.00  0.00     0.012 A 
ATOM     19  C   UNL     1      -4.369   5.056   7.186  1.00  0.00     0.069 C 
ATOM     20  C   UNL     1      -4.310   6.467   6.723  1.00  0.00     0.064 A 
ATOM     21  N   UNL     1      -4.374   7.461   7.616  1.00  0.00    -0.181 NA
ATOM     22  N   UNL     1      -4.282   8.574   6.873  1.00  0.00    -0.285 N 
ATOM     23  C   UNL     1      -4.151   8.329   5.541  1.00  0.00     0.111 A 
ATOM     24  H   UNL     1      -4.306   9.481   7.255  1.00  0.00     0.189 HD
ENDBRANCH  17  18
ENDBRANCH  12  17
ENDBRANCH  10  11
ENDBRANCH   9  10
BRANCH   9  25
ATOM     25  C   UNL     1      -1.452   4.401   1.706  1.00  0.00     0.020 C 
BRANCH  25  26
ATOM     26  C   UNL     1      -1.992   3.090   2.305  1.00  0.00    -0.017 C 
ATOM     27  C   UNL     1      -3.268   3.209   3.118  1.00  0.00     0.007 C 
ATOM     28  C   UNL     1      -2.241   2.095   1.156  1.00  0.00     0.007 C 
ENDBRANCH  25  26
ENDBRANCH   9  25
ENDBRANCH   7   9
ENDBRANCH   6   7
ENDBRANCH   5   6
ENDBRANCH   4   5
ENDBRANCH   3   4
ENDBRANCH   2   3
ENDBRANCH   1   2
BRANCH   1  29
ATOM     29  O   UNL     1       1.031   2.289   2.659  1.00  0.00    -0.377 OA
BRANCH  29  30
ATOM     30  C   UNL     1       0.790   1.114   3.443  1.00  0.00     0.188 C 
BRANCH  30  31
ATOM     31  C   UNL     1       1.926   0.094   3.591  1.00  0.00     0.188 C 
BRANCH  31  32
ATOM     32  O   UNL     1       2.603  -0.347   2.416  1.00  0.00    -0.376 OA
BRANCH  32  33
ATOM     33  C   UNL     1       1.919  -0.304   1.170  1.00  0.00     0.202 C 
BRANCH  33  34
ATOM     34  C   UNL     1       1.008  -1.495   0.877  1.00  0.00     0.261 C 
BRANCH  34  35
ATOM     35  O   UNL     1      -0.118  -1.567   1.766  1.00  0.00    -0.460 OA
BRANCH  35  36
ATOM     36  C   UNL     1       0.008  -2.466   2.765  1.00  0.00     0.338 C 
ATOM     37  O   UNL     1       0.964  -3.197   2.994  1.00  0.00    -0.246 OA
BRANCH  36  38
ATOM     38  C   UNL     1      -1.169  -2.423   3.647  1.00  0.00     0.060 A 
ATOM     39  C   UNL     1      -0.951  -2.465   5.030  1.00  0.00     0.016 A 
ATOM     40  C   UNL     1      -2.465  -2.496   3.128  1.00  0.00     0.016 A 
ATOM     41  C   UNL     1      -2.022  -2.664   5.896  1.00  0.00     0.010 A 
ATOM     42  C   UNL     1      -3.539  -2.701   3.998  1.00  0.00     0.010 A 
ATOM     43  C   UNL     1      -3.312  -2.842   5.378  1.00  0.00    -0.014 A 
BRANCH  43  44
ATOM     44  C   UNL     1      -4.375  -3.390   6.254  1.00  0.00     0.031 A 
ATOM     45  C   UNL     1      -4.657  -4.868   6.200  1.00  0.00     0.074 A 
ATOM     46  C   UNL     1      -5.039  -2.598   7.113  1.00  0.00     0.049 A 
ATOM     47  N   UNL     1      -5.557  -5.569   6.840  1.00  0.00    -0.248 NA
ATOM     48  C   UNL     1      -3.805  -5.664   5.301  1.00  0.00     0.031 C 
ATOM     49  C   UNL     1      -4.815  -1.165   7.286  1.00  0.00     0.029 A 
ATOM     50  N   UNL     1      -6.044  -2.893   7.998  1.00  0.00    -0.354 N 
ATOM     51  C   UNL     1      -5.376  -6.883   6.427  1.00  0.00     0.074 A 
ATOM     52  C   UNL     1      -4.310  -6.879   5.449  1.00  0.00     0.031 C 
ATOM     53  C   UNL     1      -5.671  -0.700   8.212  1.00  0.00     0.029 A 
ATOM     54  C   UNL     1      -6.521  -1.797   8.672  1.00  0.00     0.049 A 
ATOM     55  H   UNL     1      -6.391  -3.804   8.137  1.00  0.00     0.167 HD
ATOM     56  C   UNL     1      -6.029  -7.996   6.838  1.00  0.00     0.037 A 
ATOM     57  C   UNL     1      -7.544  -1.694   9.542  1.00  0.00     0.037 A 
ATOM     58  C   UNL     1      -7.096  -7.992   7.803  1.00  0.00     0.049 A 
ATOM     59  C   UNL     1      -8.311  -2.937   9.921  1.00  0.00     0.074 A 
ATOM     60  C   UNL     1      -7.846  -9.057   8.269  1.00  0.00     0.029 A 
ATOM     61  N   UNL     1      -7.566  -6.858   8.449  1.00  0.00    -0.354 N 
ATOM     62  N   UNL     1      -8.132  -4.176   9.528  1.00  0.00    -0.248 NA
ATOM     63  C   UNL     1      -9.418  -2.767  10.872  1.00  0.00     0.031 C 
ATOM     64  C   UNL     1      -8.796  -8.562   9.169  1.00  0.00     0.029 A 
ATOM     65  C   UNL     1      -8.601  -7.196   9.304  1.00  0.00     0.049 A 
ATOM     66  H   UNL     1      -7.214  -5.947   8.320  1.00  0.00     0.167 HD
ATOM     67  C   UNL     1      -9.074  -4.935  10.212  1.00  0.00     0.074 A 
ATOM     68  C   UNL     1      -9.815  -4.019  11.053  1.00  0.00     0.031 C 
ATOM     69  C   UNL     1      -9.307  -6.269  10.151  1.00  0.00     0.037 A 
BRANCH  56  70
ATOM     70  C   UNL     1      -5.614  -9.307   6.236  1.00  0.00     0.064 A 
ATOM     71  C   UNL     1      -4.385  -9.904   6.556  1.00  0.00     0.173 A 
ATOM     72  C   UNL     1      -6.465  -9.991   5.355  1.00  0.00     0.173 A 
ATOM     73  F   UNL     1      -3.527  -9.284   7.380  1.00  0.00    -0.203 F 
ATOM     74  C   UNL     1      -4.015 -11.126   5.999  1.00  0.00     0.198 A 
ATOM     75  C   UNL     1      -6.105 -11.226   4.823  1.00  0.00     0.198 A 
ATOM     76  F   UNL     1      -7.652  -9.465   5.017  1.00  0.00    -0.203 F 
ATOM     77  F   UNL     1      -2.818 -11.656   6.285  1.00  0.00    -0.200 F 
ATOM     78  C   UNL     1      -4.878 -11.790   5.140  1.00  0.00     0.200 A 
ATOM     79  F   UNL     1      -6.945 -11.872   4.003  1.00  0.00    -0.200 F 
ATOM     80  F   UNL     1      -4.525 -12.970   4.613  1.00  0.00    -0.200 F 
ENDBRANCH  56  70
BRANCH  57  81
ATOM     81  C   UNL     1      -7.920  -0.370  10.105  1.00  0.00     0.064 A 
ATOM     82  C   UNL     1      -7.782  -0.095  11.473  1.00  0.00     0.173 A 
ATOM     83  C   UNL     1      -8.470   0.633   9.292  1.00  0.00     0.173 A 
ATOM     84  F   UNL     1      -7.283  -1.029  12.296  1.00  0.00    -0.203 F 
ATOM     85  C   UNL     1      -8.210   1.118  12.011  1.00  0.00     0.198 A 
ATOM     86  C   UNL     1      -8.866   1.857   9.826  1.00  0.00     0.198 A 
ATOM     87  F   UNL     1      -8.622   0.424   7.976  1.00  0.00    -0.203 F 
ATOM     88  F   UNL     1      -8.124   1.329  13.331  1.00  0.00    -0.200 F 
ATOM     89  C   UNL     1      -8.748   2.094  11.186  1.00  0.00     0.200 A 
ATOM     90  F   UNL     1      -9.372   2.803   9.022  1.00  0.00    -0.200 F 
ATOM     91  F   UNL     1      -9.165   3.257  11.705  1.00  0.00    -0.200 F 
ENDBRANCH  57  81
BRANCH  69  92
ATOM     92  C   UNL     1     -10.364  -6.826  11.061  1.00  0.00     0.064 A 
ATOM     93  C   UNL     1     -11.729  -6.582  10.850  1.00  0.00     0.173 A 
ATOM     94  C   UNL     1     -10.003  -7.644  12.143  1.00  0.00     0.173 A 
ATOM     95  F   UNL     1     -12.124  -5.796   9.837  1.00  0.00    -0.203 F 
ATOM     96  C   UNL     1     -12.691  -7.109  11.707  1.00  0.00     0.198 A 
ATOM     97  C   UNL     1     -10.969  -8.196  12.979  1.00  0.00     0.198 A 
ATOM     98  F   UNL     1      -8.711  -7.917  12.384  1.00  0.00    -0.203 F 
ATOM     99  F   UNL     1     -13.985  -6.817  11.519  1.00  0.00    -0.200 F 
ATOM    100  C   UNL     1     -12.311  -7.921  12.766  1.00  0.00     0.200 A 
ATOM    101  F   UNL     1     -10.601  -8.993  13.992  1.00  0.00    -0.200 F 
ATOM    102  F   UNL     1     -13.239  -8.431  13.587  1.00  0.00    -0.200 F 
ENDBRANCH  69  92
ENDBRANCH  43  44
ENDBRANCH  36  38
ENDBRANCH  35  36
ENDBRANCH  34  35
ENDBRANCH  33  34
ENDBRANCH  32  33
ENDBRANCH  31  32
ENDBRANCH  30  31
ENDBRANCH  29  30
ENDBRANCH   1  29
TORSDOF 26
