REMARK SMILES COc1ncccc1C[C@H](C(=O)OCCOCCOCCOCCOC(=O)c1ccc(-c2c3nc(c(-c4c(F)c(F)c(F)c(F)c4F)c4ccc([nH]4)c(-c4c(F)c(F)c(F)c(F)c4F)c4nc(c(-c5c(F)c(F)c(F)c(F)c5F)c5ccc2[nH]5)C=C4)C=C3)cc1)c1ccc(F)cc1
REMARK SMILES IDX 18 1 17 2 16 3 15 4 14 5 13 6 11 7 12 8 10 9 9 10 8 11 3 12
REMARK SMILES IDX 4 13 5 14 7 15 6 16 2 17 1 18 91 19 92 20 97 21 93 22 96 23
REMARK SMILES IDX 94 24 95 25 19 26 20 27 21 28 22 29 23 30 24 31 25 32 26 33
REMARK SMILES IDX 27 34 28 35 29 36 90 37 30 38 89 39 31 40 32 41 33 42 83 43
REMARK SMILES IDX 34 44 88 45 82 46 84 47 35 48 87 49 81 50 80 51 36 53 68 54
REMARK SMILES IDX 48 55 67 56 49 57 52 58 66 59 85 60 50 61 51 62 65 64 86 65
REMARK SMILES IDX 53 66 37 67 38 68 46 69 39 70 40 71 44 72 47 73 41 74 42 75
REMARK SMILES IDX 45 76 43 77 69 78 70 79 78 80 71 81 72 82 76 83 79 84 73 85
REMARK SMILES IDX 74 86 77 87 75 88 54 89 55 90 63 91 56 92 57 93 61 94 64 95
REMARK SMILES IDX 58 96 59 97 62 98 60 99
REMARK H PARENT 84 52 52 63
REMARK Flexibility Score: inf
ROOT
ATOM      1  C   UNL     1       1.920   1.281  -2.193  1.00  0.00     0.188 C 
ENDROOT
BRANCH   1   2
ATOM      2  C   UNL     1       1.589   2.670  -1.613  1.00  0.00     0.188 C 
BRANCH   2   3
ATOM      3  O   UNL     1       2.503   3.752  -1.749  1.00  0.00    -0.376 OA
BRANCH   3   4
ATOM      4  C   UNL     1       3.809   3.498  -2.226  1.00  0.00     0.202 C 
BRANCH   4   5
ATOM      5  C   UNL     1       4.770   2.746  -1.288  1.00  0.00     0.261 C 
BRANCH   5   6
ATOM      6  O   UNL     1       4.265   1.606  -0.554  1.00  0.00    -0.463 OA
BRANCH   6   7
ATOM      7  C   UNL     1       3.757   1.825   0.693  1.00  0.00     0.313 C 
ATOM      8  O   UNL     1       3.637   2.940   1.191  1.00  0.00    -0.252 OA
BRANCH   7   9
ATOM      9  C   UNL     1       3.382   0.530   1.457  1.00  0.00     0.134 C 
BRANCH   9  10
ATOM     10  C   UNL     1       1.932   0.037   1.087  1.00  0.00     0.061 C 
BRANCH  10  11
ATOM     11  C   UNL     1       1.601  -1.407   0.752  1.00  0.00     0.015 A 
ATOM     12  C   UNL     1       2.117  -2.114  -0.336  1.00  0.00     0.216 A 
ATOM     13  N   UNL     1       1.897  -3.429  -0.571  1.00  0.00    -0.222 NA
ATOM     14  C   UNL     1       1.115  -4.085   0.309  1.00  0.00     0.115 A 
ATOM     15  C   UNL     1       0.733  -2.120   1.596  1.00  0.00     0.011 A 
ATOM     16  C   UNL     1       0.493  -3.474   1.381  1.00  0.00     0.021 A 
BRANCH  12  17
ATOM     17  O   UNL     1       2.724  -1.428  -1.348  1.00  0.00    -0.481 OA
ATOM     18  C   UNL     1       4.074  -1.816  -1.558  1.00  0.00     0.280 C 
ENDBRANCH  12  17
ENDBRANCH  10  11
ENDBRANCH   9  10
BRANCH   9  19
ATOM     19  C   UNL     1       4.536  -0.464   1.632  1.00  0.00    -0.033 A 
ATOM     20  C   UNL     1       4.320  -1.784   2.062  1.00  0.00     0.007 A 
ATOM     21  C   UNL     1       5.875  -0.064   1.455  1.00  0.00     0.007 A 
ATOM     22  C   UNL     1       5.357  -2.716   2.116  1.00  0.00     0.039 A 
ATOM     23  C   UNL     1       6.924  -0.982   1.554  1.00  0.00     0.039 A 
ATOM     24  C   UNL     1       6.651  -2.309   1.846  1.00  0.00     0.123 A 
ATOM     25  F   UNL     1       7.648  -3.200   1.892  1.00  0.00    -0.207 F 
ENDBRANCH   9  19
ENDBRANCH   7   9
ENDBRANCH   6   7
ENDBRANCH   5   6
ENDBRANCH   4   5
ENDBRANCH   3   4
ENDBRANCH   2   3
ENDBRANCH   1   2
BRANCH   1  26
ATOM     26  O   UNL     1       2.684   1.294  -3.389  1.00  0.00    -0.377 OA
BRANCH  26  27
ATOM     27  C   UNL     1       1.970   0.907  -4.547  1.00  0.00     0.188 C 
BRANCH  27  28
ATOM     28  C   UNL     1       0.770   1.815  -4.841  1.00  0.00     0.188 C 
BRANCH  28  29
ATOM     29  O   UNL     1      -0.154   1.818  -3.765  1.00  0.00    -0.376 OA
BRANCH  29  30
ATOM     30  C   UNL     1      -1.333   1.041  -3.805  1.00  0.00     0.202 C 
BRANCH  30  31
ATOM     31  C   UNL     1      -1.282  -0.488  -3.960  1.00  0.00     0.261 C 
BRANCH  31  32
ATOM     32  O   UNL     1      -0.295  -1.042  -4.833  1.00  0.00    -0.460 OA
BRANCH  32  33
ATOM     33  C   UNL     1      -0.448  -0.862  -6.159  1.00  0.00     0.338 C 
ATOM     34  O   UNL     1      -1.343  -0.257  -6.724  1.00  0.00    -0.246 OA
BRANCH  33  35
ATOM     35  C   UNL     1       0.784  -1.360  -6.810  1.00  0.00     0.060 A 
ATOM     36  C   UNL     1       1.553  -0.471  -7.572  1.00  0.00     0.016 A 
ATOM     37  C   UNL     1       1.197  -2.685  -6.641  1.00  0.00     0.016 A 
ATOM     38  C   UNL     1       2.725  -0.909  -8.187  1.00  0.00     0.010 A 
ATOM     39  C   UNL     1       2.353  -3.133  -7.286  1.00  0.00     0.010 A 
ATOM     40  C   UNL     1       3.103  -2.254  -8.087  1.00  0.00    -0.014 A 
BRANCH  40  41
ATOM     41  C   UNL     1       4.141  -2.785  -9.002  1.00  0.00     0.031 A 
ATOM     42  C   UNL     1       3.686  -3.414 -10.289  1.00  0.00     0.074 A 
ATOM     43  C   UNL     1       5.450  -2.684  -8.718  1.00  0.00     0.049 A 
ATOM     44  N   UNL     1       4.388  -3.984 -11.234  1.00  0.00    -0.248 NA
ATOM     45  C   UNL     1       2.235  -3.397 -10.543  1.00  0.00     0.031 C 
ATOM     46  C   UNL     1       6.012  -2.052  -7.528  1.00  0.00     0.029 A 
ATOM     47  N   UNL     1       6.546  -3.126  -9.417  1.00  0.00    -0.354 N 
ATOM     48  C   UNL     1       3.467  -4.394 -12.189  1.00  0.00     0.074 A 
ATOM     49  C   UNL     1       2.154  -4.038 -11.698  1.00  0.00     0.031 C 
ATOM     50  C   UNL     1       7.352  -2.161  -7.570  1.00  0.00     0.029 A 
ATOM     51  C   UNL     1       7.737  -2.899  -8.773  1.00  0.00     0.049 A 
ATOM     52  H   UNL     1       6.484  -3.563 -10.297  1.00  0.00     0.167 HD
ATOM     53  C   UNL     1       3.697  -5.004 -13.375  1.00  0.00     0.037 A 
ATOM     54  C   UNL     1       8.988  -3.272  -9.109  1.00  0.00     0.037 A 
ATOM     55  C   UNL     1       5.004  -5.366 -13.853  1.00  0.00     0.049 A 
ATOM     56  C   UNL     1       9.210  -4.033 -10.394  1.00  0.00     0.074 A 
ATOM     57  C   UNL     1       5.347  -5.983 -15.042  1.00  0.00     0.029 A 
ATOM     58  N   UNL     1       6.184  -5.153 -13.156  1.00  0.00    -0.354 N 
ATOM     59  N   UNL     1       8.340  -4.395 -11.306  1.00  0.00    -0.248 NA
ATOM     60  C   UNL     1      10.592  -4.432 -10.698  1.00  0.00     0.031 C 
ATOM     61  C   UNL     1       6.729  -6.198 -15.038  1.00  0.00     0.029 A 
ATOM     62  C   UNL     1       7.255  -5.653 -13.878  1.00  0.00     0.049 A 
ATOM     63  H   UNL     1       6.251  -4.712 -12.278  1.00  0.00     0.167 HD
ATOM     64  C   UNL     1       9.069  -5.032 -12.303  1.00  0.00     0.074 A 
ATOM     65  C   UNL     1      10.457  -4.994 -11.891  1.00  0.00     0.031 C 
ATOM     66  C   UNL     1       8.633  -5.596 -13.457  1.00  0.00     0.037 A 
BRANCH  53  67
ATOM     67  C   UNL     1       2.505  -5.349 -14.219  1.00  0.00     0.064 A 
ATOM     68  C   UNL     1       1.738  -4.361 -14.855  1.00  0.00     0.173 A 
ATOM     69  C   UNL     1       2.139  -6.689 -14.413  1.00  0.00     0.173 A 
ATOM     70  F   UNL     1       2.034  -3.063 -14.687  1.00  0.00    -0.203 F 
ATOM     71  C   UNL     1       0.635  -4.702 -15.635  1.00  0.00     0.198 A 
ATOM     72  C   UNL     1       1.056  -7.028 -15.219  1.00  0.00     0.198 A 
ATOM     73  F   UNL     1       2.837  -7.673 -13.827  1.00  0.00    -0.203 F 
ATOM     74  F   UNL     1      -0.112  -3.739 -16.192  1.00  0.00    -0.200 F 
ATOM     75  C   UNL     1       0.301  -6.034 -15.823  1.00  0.00     0.200 A 
ATOM     76  F   UNL     1       0.742  -8.317 -15.410  1.00  0.00    -0.200 F 
ATOM     77  F   UNL     1      -0.755  -6.361 -16.580  1.00  0.00    -0.200 F 
ENDBRANCH  53  67
BRANCH  54  78
ATOM     78  C   UNL     1      10.130  -2.956  -8.210  1.00  0.00     0.064 A 
ATOM     79  C   UNL     1      11.145  -2.074  -8.607  1.00  0.00     0.173 A 
ATOM     80  C   UNL     1      10.250  -3.560  -6.949  1.00  0.00     0.173 A 
ATOM     81  F   UNL     1      11.092  -1.493  -9.814  1.00  0.00    -0.203 F 
ATOM     82  C   UNL     1      12.247  -1.827  -7.789  1.00  0.00     0.198 A 
ATOM     83  C   UNL     1      11.335  -3.287  -6.118  1.00  0.00     0.198 A 
ATOM     84  F   UNL     1       9.311  -4.416  -6.521  1.00  0.00    -0.203 F 
ATOM     85  F   UNL     1      13.230  -1.025  -8.218  1.00  0.00    -0.200 F 
ATOM     86  C   UNL     1      12.338  -2.429  -6.543  1.00  0.00     0.200 A 
ATOM     87  F   UNL     1      11.414  -3.862  -4.910  1.00  0.00    -0.200 F 
ATOM     88  F   UNL     1      13.398  -2.192  -5.758  1.00  0.00    -0.200 F 
ENDBRANCH  54  78
BRANCH  66  89
ATOM     89  C   UNL     1       9.666  -6.175 -14.382  1.00  0.00     0.064 A 
ATOM     90  C   UNL     1      10.369  -7.348 -14.068  1.00  0.00     0.173 A 
ATOM     91  C   UNL     1       9.921  -5.571 -15.624  1.00  0.00     0.173 A 
ATOM     92  F   UNL     1      10.172  -7.958 -12.890  1.00  0.00    -0.203 F 
ATOM     93  C   UNL     1      11.308  -7.877 -14.950  1.00  0.00     0.198 A 
ATOM     94  C   UNL     1      10.834  -6.123 -16.518  1.00  0.00     0.198 A 
ATOM     95  F   UNL     1       9.269  -4.454 -15.980  1.00  0.00    -0.203 F 
ATOM     96  F   UNL     1      12.006  -8.969 -14.606  1.00  0.00    -0.200 F 
ATOM     97  C   UNL     1      11.534  -7.270 -16.176  1.00  0.00     0.200 A 
ATOM     98  F   UNL     1      11.036  -5.545 -17.710  1.00  0.00    -0.200 F 
ATOM     99  F   UNL     1      12.431  -7.787 -17.027  1.00  0.00    -0.200 F 
ENDBRANCH  66  89
ENDBRANCH  40  41
ENDBRANCH  33  35
ENDBRANCH  32  33
ENDBRANCH  31  32
ENDBRANCH  30  31
ENDBRANCH  29  30
ENDBRANCH  28  29
ENDBRANCH  27  28
ENDBRANCH  26  27
ENDBRANCH   1  26
TORSDOF 24
