REMARK SMILES CCOc1cc2c(cc1OCC)[C@H](C(=O)OCCOCCOCCOCCOC(=O)c1ccc(-c3c4nc(c(-c5c(F)c(F)c(F)c(F)c5F)c5ccc([nH]5)c(-c5c(F)c(F)c(F)c(F)c5F)c5nc(c(-c6c(F)c(F)c(F)c(F)c6F)c6ccc3[nH]6)C=C5)C=C4)cc1)[C@H](c1ccc(OC)c(O)c1)N(C)C2=O
REMARK SMILES IDX 22 1 21 2 20 3 19 4 18 5 17 6 16 7 14 8 15 9 13 10 4 11 5 12
REMARK SMILES IDX 9 13 6 14 8 15 7 16 106 17 104 18 107 19 94 20 105 21 3 22
REMARK SMILES IDX 2 23 1 24 10 25 11 26 12 27 95 28 96 29 103 30 97 31 101 32
REMARK SMILES IDX 98 33 102 34 99 36 100 37 23 38 24 39 25 40 26 41 27 42
REMARK SMILES IDX 28 43 29 44 30 45 31 46 32 47 93 48 33 49 92 50 34 51 35 52
REMARK SMILES IDX 36 53 86 54 37 55 91 56 85 57 87 58 38 59 90 60 84 61 83 62
REMARK SMILES IDX 39 64 71 65 51 66 70 67 52 68 55 69 69 70 88 71 53 72 54 73
REMARK SMILES IDX 68 75 89 76 56 77 40 78 41 79 49 80 42 81 43 82 47 83 50 84
REMARK SMILES IDX 44 85 45 86 48 87 46 88 72 89 73 90 81 91 74 92 75 93 79 94
REMARK SMILES IDX 82 95 76 96 77 97 80 98 78 99 57 100 58 101 66 102 59 103
REMARK SMILES IDX 60 104 64 105 67 106 61 107 62 108 65 109 63 110
REMARK H PARENT 102 35 87 63 55 74
REMARK Flexibility Score: inf
ROOT
ATOM      1  O   UNL     1       6.401   5.740   3.130  1.00  0.00    -0.377 OA
ENDROOT
BRANCH   1   2
ATOM      2  C   UNL     1       5.189   5.234   3.654  1.00  0.00     0.188 C 
BRANCH   2   3
ATOM      3  C   UNL     1       5.229   4.839   5.121  1.00  0.00     0.188 C 
BRANCH   3   4
ATOM      4  O   UNL     1       6.293   5.470   5.821  1.00  0.00    -0.376 OA
BRANCH   4   5
ATOM      5  C   UNL     1       7.317   4.563   6.217  1.00  0.00     0.202 C 
BRANCH   5   6
ATOM      6  C   UNL     1       8.285   4.071   5.114  1.00  0.00     0.261 C 
BRANCH   6   7
ATOM      7  O   UNL     1       7.730   3.545   3.879  1.00  0.00    -0.463 OA
BRANCH   7   8
ATOM      8  C   UNL     1       7.239   2.291   3.918  1.00  0.00     0.316 C 
ATOM      9  O   UNL     1       7.185   1.642   4.963  1.00  0.00    -0.251 OA
BRANCH   8  10
ATOM     10  C   UNL     1       6.749   1.712   2.588  1.00  0.00     0.157 C 
ATOM     11  C   UNL     1       2.526   0.981   2.059  1.00  0.00     0.161 A 
ATOM     12  C   UNL     1       3.470   0.601   1.097  1.00  0.00     0.064 A 
ATOM     13  C   UNL     1       2.959   1.459   3.300  1.00  0.00     0.161 A 
ATOM     14  C   UNL     1       4.838   0.740   1.338  1.00  0.00     0.048 A 
ATOM     15  C   UNL     1       4.340   1.592   3.525  1.00  0.00     0.056 A 
ATOM     16  C   UNL     1       5.281   1.332   2.523  1.00  0.00    -0.015 A 
ATOM     17  C   UNL     1       5.807   0.393   0.248  1.00  0.00     0.254 C 
ATOM     18  N   UNL     1       7.010   1.107   0.239  1.00  0.00    -0.333 N 
ATOM     19  O   UNL     1       5.487  -0.416  -0.615  1.00  0.00    -0.269 OA
ATOM     20  C   UNL     1       7.193   2.253   1.174  1.00  0.00     0.134 C 
ATOM     21  C   UNL     1       7.901   0.971  -0.899  1.00  0.00     0.147 C 
BRANCH  11  22
ATOM     22  O   UNL     1       1.206   1.032   1.702  1.00  0.00    -0.490 OA
BRANCH  22  23
ATOM     23  C   UNL     1       0.646  -0.226   1.309  1.00  0.00     0.226 C 
ATOM     24  C   UNL     1       0.589  -0.368  -0.203  1.00  0.00     0.049 C 
ENDBRANCH  22  23
ENDBRANCH  11  22
BRANCH  13  25
ATOM     25  O   UNL     1       2.225   1.899   4.367  1.00  0.00    -0.490 OA
BRANCH  25  26
ATOM     26  C   UNL     1       0.821   1.672   4.424  1.00  0.00     0.226 C 
ATOM     27  C   UNL     1       0.059   2.869   3.883  1.00  0.00     0.049 C 
ENDBRANCH  25  26
ENDBRANCH  13  25
BRANCH  20  28
ATOM     28  C   UNL     1       6.556   3.503   0.517  1.00  0.00    -0.020 A 
ATOM     29  C   UNL     1       7.163   4.750   0.646  1.00  0.00     0.010 A 
ATOM     30  C   UNL     1       5.429   3.464  -0.343  1.00  0.00     0.056 A 
ATOM     31  C   UNL     1       6.572   5.905   0.097  1.00  0.00     0.051 A 
ATOM     32  C   UNL     1       4.854   4.615  -0.914  1.00  0.00     0.157 A 
ATOM     33  C   UNL     1       5.375   5.864  -0.627  1.00  0.00     0.160 A 
BRANCH  32  34
ATOM     34  O   UNL     1       3.796   4.458  -1.764  1.00  0.00    -0.504 OA
ATOM     35  H   UNL     1       3.396   5.209  -2.157  1.00  0.00     0.293 HD
ENDBRANCH  32  34
BRANCH  33  36
ATOM     36  O   UNL     1       4.878   7.097  -0.936  1.00  0.00    -0.493 OA
ATOM     37  C   UNL     1       3.696   7.208  -1.717  1.00  0.00     0.278 C 
ENDBRANCH  33  36
ENDBRANCH  20  28
ENDBRANCH   8  10
ENDBRANCH   7   8
ENDBRANCH   6   7
ENDBRANCH   5   6
ENDBRANCH   4   5
ENDBRANCH   3   4
ENDBRANCH   2   3
ENDBRANCH   1   2
BRANCH   1  38
ATOM     38  C   UNL     1       6.892   7.014   3.514  1.00  0.00     0.188 C 
BRANCH  38  39
ATOM     39  C   UNL     1       5.958   8.056   4.137  1.00  0.00     0.188 C 
BRANCH  39  40
ATOM     40  O   UNL     1       4.643   8.215   3.614  1.00  0.00    -0.376 OA
BRANCH  40  41
ATOM     41  C   UNL     1       4.452   8.134   2.204  1.00  0.00     0.202 C 
BRANCH  41  42
ATOM     42  C   UNL     1       4.825   9.393   1.440  1.00  0.00     0.261 C 
BRANCH  42  43
ATOM     43  O   UNL     1       6.240   9.406   1.201  1.00  0.00    -0.460 OA
BRANCH  43  44
ATOM     44  C   UNL     1       6.926  10.344   1.873  1.00  0.00     0.338 C 
ATOM     45  O   UNL     1       6.483  11.239   2.581  1.00  0.00    -0.246 OA
BRANCH  44  46
ATOM     46  C   UNL     1       8.363  10.062   1.763  1.00  0.00     0.060 A 
ATOM     47  C   UNL     1       9.128  10.188   2.928  1.00  0.00     0.016 A 
ATOM     48  C   UNL     1       8.961   9.788   0.529  1.00  0.00     0.016 A 
ATOM     49  C   UNL     1      10.512  10.165   2.847  1.00  0.00     0.010 A 
ATOM     50  C   UNL     1      10.350   9.764   0.447  1.00  0.00     0.010 A 
ATOM     51  C   UNL     1      11.120  10.030   1.593  1.00  0.00    -0.014 A 
BRANCH  51  52
ATOM     52  C   UNL     1      12.531  10.435   1.439  1.00  0.00     0.031 A 
ATOM     53  C   UNL     1      12.808  11.809   0.894  1.00  0.00     0.074 A 
ATOM     54  C   UNL     1      13.522   9.608   1.803  1.00  0.00     0.049 A 
ATOM     55  N   UNL     1      13.946  12.363   0.572  1.00  0.00    -0.248 NA
ATOM     56  C   UNL     1      11.635  12.674   0.673  1.00  0.00     0.031 C 
ATOM     57  C   UNL     1      13.340   8.287   2.400  1.00  0.00     0.029 A 
ATOM     58  N   UNL     1      14.880   9.757   1.710  1.00  0.00    -0.354 N 
ATOM     59  C   UNL     1      13.624  13.627   0.093  1.00  0.00     0.074 A 
ATOM     60  C   UNL     1      12.186  13.752   0.137  1.00  0.00     0.031 C 
ATOM     61  C   UNL     1      14.546   7.732   2.600  1.00  0.00     0.029 A 
ATOM     62  C   UNL     1      15.576   8.642   2.103  1.00  0.00     0.049 A 
ATOM     63  H   UNL     1      15.313  10.582   1.392  1.00  0.00     0.167 HD
ATOM     64  C   UNL     1      14.463  14.596  -0.339  1.00  0.00     0.037 A 
ATOM     65  C   UNL     1      16.895   8.385   2.029  1.00  0.00     0.037 A 
ATOM     66  C   UNL     1      15.893  14.444  -0.365  1.00  0.00     0.049 A 
ATOM     67  C   UNL     1      17.805   9.449   1.471  1.00  0.00     0.074 A 
ATOM     68  C   UNL     1      16.852  15.353  -0.768  1.00  0.00     0.029 A 
ATOM     69  N   UNL     1      16.564  13.293   0.025  1.00  0.00    -0.354 N 
ATOM     70  N   UNL     1      17.502  10.646   1.027  1.00  0.00    -0.248 NA
ATOM     71  C   UNL     1      19.237   9.132   1.405  1.00  0.00     0.031 C 
ATOM     72  C   UNL     1      18.100  14.730  -0.682  1.00  0.00     0.029 A 
ATOM     73  C   UNL     1      17.926  13.458  -0.155  1.00  0.00     0.049 A 
ATOM     74  H   UNL     1      16.135  12.479   0.377  1.00  0.00     0.167 HD
ATOM     75  C   UNL     1      18.704  11.239   0.666  1.00  0.00     0.074 A 
ATOM     76  C   UNL     1      19.743  10.267   0.944  1.00  0.00     0.031 C 
ATOM     77  C   UNL     1      18.933  12.475   0.157  1.00  0.00     0.037 A 
BRANCH  64  78
ATOM     78  C   UNL     1      13.861  15.874  -0.849  1.00  0.00     0.064 A 
ATOM     79  C   UNL     1      13.204  16.780  -0.001  1.00  0.00     0.173 A 
ATOM     80  C   UNL     1      13.964  16.211  -2.208  1.00  0.00     0.173 A 
ATOM     81  F   UNL     1      13.063  16.502   1.304  1.00  0.00    -0.203 F 
ATOM     82  C   UNL     1      12.649  17.957  -0.499  1.00  0.00     0.198 A 
ATOM     83  C   UNL     1      13.438  17.405  -2.696  1.00  0.00     0.198 A 
ATOM     84  F   UNL     1      14.581  15.385  -3.065  1.00  0.00    -0.203 F 
ATOM     85  F   UNL     1      11.981  18.780   0.321  1.00  0.00    -0.200 F 
ATOM     86  C   UNL     1      12.774  18.273  -1.843  1.00  0.00     0.200 A 
ATOM     87  F   UNL     1      13.573  17.714  -3.993  1.00  0.00    -0.200 F 
ATOM     88  F   UNL     1      12.249  19.410  -2.319  1.00  0.00    -0.200 F 
ENDBRANCH  64  78
BRANCH  65  89
ATOM     89  C   UNL     1      17.419   7.068   2.475  1.00  0.00     0.064 A 
ATOM     90  C   UNL     1      18.249   6.961   3.598  1.00  0.00     0.173 A 
ATOM     91  C   UNL     1      17.091   5.885   1.793  1.00  0.00     0.173 A 
ATOM     92  F   UNL     1      18.604   8.062   4.276  1.00  0.00    -0.203 F 
ATOM     93  C   UNL     1      18.746   5.726   4.012  1.00  0.00     0.198 A 
ATOM     94  C   UNL     1      17.563   4.648   2.226  1.00  0.00     0.198 A 
ATOM     95  F   UNL     1      16.294   5.928   0.715  1.00  0.00    -0.203 F 
ATOM     96  F   UNL     1      19.573   5.658   5.064  1.00  0.00    -0.200 F 
ATOM     97  C   UNL     1      18.397   4.570   3.330  1.00  0.00     0.200 A 
ATOM     98  F   UNL     1      17.205   3.532   1.576  1.00  0.00    -0.200 F 
ATOM     99  F   UNL     1      18.868   3.382   3.734  1.00  0.00    -0.200 F 
ENDBRANCH  65  89
BRANCH  77 100
ATOM    100  C   UNL     1      20.360  12.876  -0.075  1.00  0.00     0.064 A 
ATOM    101  C   UNL     1      21.113  12.350  -1.133  1.00  0.00     0.173 A 
ATOM    102  C   UNL     1      20.945  13.873   0.722  1.00  0.00     0.173 A 
ATOM    103  F   UNL     1      20.602  11.386  -1.913  1.00  0.00    -0.203 F 
ATOM    104  C   UNL     1      22.407  12.801  -1.378  1.00  0.00     0.198 A 
ATOM    105  C   UNL     1      22.224  14.345   0.453  1.00  0.00     0.198 A 
ATOM    106  F   UNL     1      20.259  14.413   1.741  1.00  0.00    -0.203 F 
ATOM    107  F   UNL     1      23.124  12.263  -2.374  1.00  0.00    -0.200 F 
ATOM    108  C   UNL     1      22.956  13.806  -0.595  1.00  0.00     0.200 A 
ATOM    109  F   UNL     1      22.744  15.330   1.198  1.00  0.00    -0.200 F 
ATOM    110  F   UNL     1      24.192  14.256  -0.849  1.00  0.00    -0.200 F 
ENDBRANCH  77 100
ENDBRANCH  51  52
ENDBRANCH  44  46
ENDBRANCH  43  44
ENDBRANCH  42  43
ENDBRANCH  41  42
ENDBRANCH  40  41
ENDBRANCH  39  40
ENDBRANCH  38  39
ENDBRANCH   1  38
TORSDOF 27
