REMARK SMILES COC(=O)c1sc(SCC(=O)OCCOCCOCCOCCOC(=O)c2ccc(-c3c4nc(c(-c5c(F)c(F)c(F)c(F)c5F)c5ccc([nH]5)c(-c5c(F)c(F)c(F)c(F)c5F)c5nc(c(-c6c(F)c(F)c(F)c(F)c6F)c6ccc3[nH]6)C=C5)C=C4)cc2)c(NC(=O)c2ccccc2)c1O
REMARK SMILES IDX 17 1 16 2 15 3 14 4 13 5 12 6 10 7 11 8 9 9 8 10 7 11 5 12
REMARK SMILES IDX 6 13 100 14 90 15 3 16 4 17 2 18 1 19 101 20 91 22 92 23
REMARK SMILES IDX 93 25 94 26 95 27 99 28 96 29 98 30 97 31 18 32 19 33 20 34
REMARK SMILES IDX 21 35 22 36 23 37 24 38 25 39 26 40 27 41 28 42 89 43 29 44
REMARK SMILES IDX 88 45 30 46 31 47 32 48 82 49 33 50 87 51 81 52 83 53 34 54
REMARK SMILES IDX 86 55 80 56 79 57 35 59 67 60 47 61 66 62 48 63 51 64 65 65
REMARK SMILES IDX 84 66 49 67 50 68 64 70 85 71 52 72 36 73 37 74 45 75 38 76
REMARK SMILES IDX 39 77 43 78 46 79 40 80 41 81 44 82 42 83 68 84 69 85 77 86
REMARK SMILES IDX 70 87 71 88 75 89 78 90 72 91 73 92 76 93 74 94 53 95 54 96
REMARK SMILES IDX 62 97 55 98 56 99 60 100 63 101 57 102 58 103 61 104 59 105
REMARK H PARENT 101 21 91 24 83 58 51 69
REMARK Flexibility Score: inf
ROOT
ATOM      1  C   UNL     1      -3.507  -0.835   6.379  1.00  0.00     0.188 C 
ENDROOT
BRANCH   1   2
ATOM      2  C   UNL     1      -4.253  -1.652   7.435  1.00  0.00     0.188 C 
BRANCH   2   3
ATOM      3  O   UNL     1      -4.439  -0.933   8.658  1.00  0.00    -0.376 OA
BRANCH   3   4
ATOM      4  C   UNL     1      -3.288  -0.830   9.502  1.00  0.00     0.202 C 
BRANCH   4   5
ATOM      5  C   UNL     1      -2.837  -2.166  10.096  1.00  0.00     0.261 C 
BRANCH   5   6
ATOM      6  O   UNL     1      -1.863  -2.826   9.258  1.00  0.00    -0.463 OA
BRANCH   6   7
ATOM      7  C   UNL     1      -2.039  -4.175   9.049  1.00  0.00     0.316 C 
ATOM      8  O   UNL     1      -3.033  -4.802   9.399  1.00  0.00    -0.251 OA
BRANCH   7   9
ATOM      9  C   UNL     1      -0.583  -4.866   8.556  1.00  0.00     0.198 C 
BRANCH   9  10
ATOM     10  S   UNL     1       0.179  -5.796   6.281  1.00  0.00    -0.101 SA
BRANCH  10  11
ATOM     11  C   UNL     1       0.006  -4.814   4.772  1.00  0.00     0.089 A 
ATOM     12  C   UNL     1       0.552  -3.754   2.581  1.00  0.00     0.157 A 
ATOM     13  S   UNL     1       1.425  -4.516   3.842  1.00  0.00    -0.116 S 
ATOM     14  C   UNL     1      -0.801  -3.775   2.851  1.00  0.00     0.166 A 
ATOM     15  C   UNL     1      -1.127  -4.334   4.127  1.00  0.00     0.109 A 
BRANCH  12  16
ATOM     16  C   UNL     1       1.290  -3.207   1.460  1.00  0.00     0.352 C 
ATOM     17  O   UNL     1       2.504  -3.234   1.300  1.00  0.00    -0.245 OA
BRANCH  16  18
ATOM     18  O   UNL     1       0.419  -2.607   0.588  1.00  0.00    -0.465 OA
ATOM     19  C   UNL     1       1.047  -1.976  -0.533  1.00  0.00     0.282 C 
ENDBRANCH  16  18
ENDBRANCH  12  16
BRANCH  14  20
ATOM     20  O   UNL     1      -1.744  -3.271   2.022  1.00  0.00    -0.504 OA
ATOM     21  H   UNL     1      -1.496  -2.913   1.193  1.00  0.00     0.293 HD
ENDBRANCH  14  20
BRANCH  15  22
ATOM     22  N   UNL     1      -2.442  -4.348   4.585  1.00  0.00    -0.317 N 
ATOM     23  C   UNL     1      -2.868  -4.651   5.851  1.00  0.00     0.255 C 
ATOM     24  H   UNL     1      -3.140  -4.115   3.930  1.00  0.00     0.170 HD
ATOM     25  O   UNL     1      -4.046  -4.774   6.149  1.00  0.00    -0.269 OA
BRANCH  23  26
ATOM     26  C   UNL     1      -1.814  -4.818   6.860  1.00  0.00     0.040 A 
ATOM     27  C   UNL     1      -1.615  -6.450   7.605  1.00  0.00     0.014 A 
ATOM     28  C   UNL     1      -0.452  -3.611   6.940  1.00  0.00     0.014 A 
ATOM     29  C   UNL     1      -0.031  -6.925   8.315  1.00  0.00     0.001 A 
ATOM     30  C   UNL     1       1.143  -4.103   7.614  1.00  0.00     0.001 A 
ATOM     31  C   UNL     1       1.330  -5.744   8.334  1.00  0.00     0.000 A 
ENDBRANCH  23  26
ENDBRANCH  15  22
ENDBRANCH  10  11
ENDBRANCH   9  10
ENDBRANCH   7   9
ENDBRANCH   6   7
ENDBRANCH   5   6
ENDBRANCH   4   5
ENDBRANCH   3   4
ENDBRANCH   2   3
ENDBRANCH   1   2
BRANCH   1  32
ATOM     32  O   UNL     1      -2.150  -0.648   6.780  1.00  0.00    -0.377 OA
BRANCH  32  33
ATOM     33  C   UNL     1      -1.342   0.214   5.984  1.00  0.00     0.188 C 
BRANCH  33  34
ATOM     34  C   UNL     1      -2.051   1.310   5.181  1.00  0.00     0.188 C 
BRANCH  34  35
ATOM     35  O   UNL     1      -2.811   0.836   4.066  1.00  0.00    -0.376 OA
BRANCH  35  36
ATOM     36  C   UNL     1      -2.125   0.029   3.107  1.00  0.00     0.202 C 
BRANCH  36  37
ATOM     37  C   UNL     1      -1.002   0.748   2.365  1.00  0.00     0.261 C 
BRANCH  37  38
ATOM     38  O   UNL     1       0.238   0.652   3.095  1.00  0.00    -0.460 OA
BRANCH  38  39
ATOM     39  C   UNL     1       0.830   1.827   3.424  1.00  0.00     0.338 C 
ATOM     40  O   UNL     1       0.346   2.940   3.300  1.00  0.00    -0.246 OA
BRANCH  39  41
ATOM     41  C   UNL     1       2.234   1.599   3.839  1.00  0.00     0.060 A 
ATOM     42  C   UNL     1       3.093   2.700   3.765  1.00  0.00     0.016 A 
ATOM     43  C   UNL     1       2.743   0.330   4.144  1.00  0.00     0.016 A 
ATOM     44  C   UNL     1       4.467   2.506   3.826  1.00  0.00     0.010 A 
ATOM     45  C   UNL     1       4.125   0.140   4.225  1.00  0.00     0.010 A 
ATOM     46  C   UNL     1       4.988   1.212   3.969  1.00  0.00    -0.014 A 
BRANCH  46  47
ATOM     47  C   UNL     1       6.389   1.036   3.567  1.00  0.00     0.031 A 
ATOM     48  C   UNL     1       7.492   1.716   4.293  1.00  0.00     0.074 A 
ATOM     49  C   UNL     1       6.728   0.384   2.436  1.00  0.00     0.049 A 
ATOM     50  N   UNL     1       8.227   2.704   3.879  1.00  0.00    -0.248 NA
ATOM     51  C   UNL     1       7.878   1.177   5.601  1.00  0.00     0.031 C 
ATOM     52  C   UNL     1       5.937  -0.577   1.667  1.00  0.00     0.029 A 
ATOM     53  N   UNL     1       7.916   0.446   1.754  1.00  0.00    -0.354 N 
ATOM     54  C   UNL     1       9.233   2.856   4.823  1.00  0.00     0.074 A 
ATOM     55  C   UNL     1       8.964   1.903   5.877  1.00  0.00     0.031 C 
ATOM     56  C   UNL     1       6.719  -1.131   0.717  1.00  0.00     0.029 A 
ATOM     57  C   UNL     1       8.011  -0.462   0.720  1.00  0.00     0.049 A 
ATOM     58  H   UNL     1       8.634   1.079   1.981  1.00  0.00     0.167 HD
ATOM     59  C   UNL     1      10.305   3.676   4.668  1.00  0.00     0.037 A 
ATOM     60  C   UNL     1       9.070  -0.683  -0.087  1.00  0.00     0.037 A 
ATOM     61  C   UNL     1      10.230   4.560   3.546  1.00  0.00     0.049 A 
ATOM     62  C   UNL     1       9.952   0.506  -0.096  1.00  0.00     0.074 A 
ATOM     63  C   UNL     1       9.491   5.678   3.224  1.00  0.00     0.029 A 
ATOM     64  N   UNL     1      10.890   4.191   2.404  1.00  0.00    -0.354 N 
ATOM     65  N   UNL     1       9.681   1.633  -0.693  1.00  0.00    -0.248 NA
ATOM     66  C   UNL     1      11.137   0.518   0.753  1.00  0.00     0.031 C 
ATOM     67  C   UNL     1       9.474   5.745   1.800  1.00  0.00     0.029 A 
ATOM     68  C   UNL     1      10.163   4.630   1.324  1.00  0.00     0.049 A 
ATOM     69  H   UNL     1      11.741   3.696   2.363  1.00  0.00     0.167 HD
ATOM     70  C   UNL     1      10.440   2.576  -0.023  1.00  0.00     0.074 A 
ATOM     71  C   UNL     1      11.429   1.819   0.722  1.00  0.00     0.031 C 
ATOM     72  C   UNL     1      10.004   3.859   0.112  1.00  0.00     0.037 A 
BRANCH  59  73
ATOM     73  C   UNL     1      11.550   3.532   5.472  1.00  0.00     0.064 A 
ATOM     74  C   UNL     1      12.218   4.649   5.990  1.00  0.00     0.173 A 
ATOM     75  C   UNL     1      12.186   2.284   5.607  1.00  0.00     0.173 A 
ATOM     76  F   UNL     1      11.698   5.877   5.845  1.00  0.00    -0.203 F 
ATOM     77  C   UNL     1      13.442   4.518   6.648  1.00  0.00     0.198 A 
ATOM     78  C   UNL     1      13.396   2.151   6.285  1.00  0.00     0.198 A 
ATOM     79  F   UNL     1      11.658   1.187   5.040  1.00  0.00    -0.203 F 
ATOM     80  F   UNL     1      14.069   5.606   7.116  1.00  0.00    -0.200 F 
ATOM     81  C   UNL     1      14.024   3.269   6.806  1.00  0.00     0.200 A 
ATOM     82  F   UNL     1      13.960   0.942   6.408  1.00  0.00    -0.200 F 
ATOM     83  F   UNL     1      15.197   3.144   7.439  1.00  0.00    -0.200 F 
ENDBRANCH  59  73
BRANCH  60  84
ATOM     84  C   UNL     1       9.411  -1.927  -0.803  1.00  0.00     0.064 A 
ATOM     85  C   UNL     1      10.204  -1.915  -1.959  1.00  0.00     0.173 A 
ATOM     86  C   UNL     1       9.137  -3.186  -0.235  1.00  0.00     0.173 A 
ATOM     87  F   UNL     1      10.555  -0.754  -2.529  1.00  0.00    -0.203 F 
ATOM     88  C   UNL     1      10.694  -3.099  -2.516  1.00  0.00     0.198 A 
ATOM     89  C   UNL     1       9.611  -4.367  -0.801  1.00  0.00     0.198 A 
ATOM     90  F   UNL     1       8.470  -3.286   0.925  1.00  0.00    -0.203 F 
ATOM     91  F   UNL     1      11.492  -3.048  -3.592  1.00  0.00    -0.200 F 
ATOM     92  C   UNL     1      10.398  -4.322  -1.937  1.00  0.00     0.200 A 
ATOM     93  F   UNL     1       9.344  -5.541  -0.213  1.00  0.00    -0.200 F 
ATOM     94  F   UNL     1      10.899  -5.453  -2.451  1.00  0.00    -0.200 F 
ENDBRANCH  60  84
BRANCH  72  95
ATOM     95  C   UNL     1       9.020   4.343  -0.903  1.00  0.00     0.064 A 
ATOM     96  C   UNL     1       7.683   3.916  -0.935  1.00  0.00     0.173 A 
ATOM     97  C   UNL     1       9.419   5.327  -1.817  1.00  0.00     0.173 A 
ATOM     98  F   UNL     1       7.226   3.031  -0.037  1.00  0.00    -0.203 F 
ATOM     99  C   UNL     1       6.793   4.431  -1.875  1.00  0.00     0.198 A 
ATOM    100  C   UNL     1       8.520   5.856  -2.739  1.00  0.00     0.198 A 
ATOM    101  F   UNL     1      10.675   5.800  -1.792  1.00  0.00    -0.203 F 
ATOM    102  F   UNL     1       5.521   4.006  -1.898  1.00  0.00    -0.200 F 
ATOM    103  C   UNL     1       7.211   5.402  -2.773  1.00  0.00     0.200 A 
ATOM    104  F   UNL     1       8.916   6.821  -3.582  1.00  0.00    -0.200 F 
ATOM    105  F   UNL     1       6.346   5.916  -3.659  1.00  0.00    -0.200 F 
ENDBRANCH  72  95
ENDBRANCH  46  47
ENDBRANCH  39  41
ENDBRANCH  38  39
ENDBRANCH  37  38
ENDBRANCH  36  37
ENDBRANCH  35  36
ENDBRANCH  34  35
ENDBRANCH  33  34
ENDBRANCH  32  33
ENDBRANCH   1  32
TORSDOF 27
