REMARK SMILES O=C(OCCOCCOCCOCCOC(=O)[C@@H]1C[NH2+]C[C@H](c2ccc(F)cc2)C1)c1ccc(-c2c3nc(c(-c4c(F)c(F)c(F)c(F)c4F)c4ccc([nH]4)c(-c4c(F)c(F)c(F)c(F)c4F)c4nc(c(-c5c(F)c(F)c(F)c(F)c5F)c5ccc2[nH]5)C=C4)C=C3)cc1
REMARK SMILES IDX 8 1 7 2 6 3 5 4 4 5 3 6 2 7 1 8 31 9 32 10 93 11 33 12 92 13
REMARK SMILES IDX 34 14 35 15 36 16 86 17 37 18 91 19 85 20 87 21 38 22 90 23
REMARK SMILES IDX 84 24 83 25 39 27 71 28 51 29 70 30 52 31 55 32 69 33 88 34
REMARK SMILES IDX 53 35 54 36 68 38 89 39 56 40 40 41 41 42 49 43 42 44 43 45
REMARK SMILES IDX 47 46 50 47 44 48 45 49 48 50 46 51 72 52 73 53 81 54 74 55
REMARK SMILES IDX 75 56 79 57 82 58 76 59 77 60 80 61 78 62 57 63 58 64 66 65
REMARK SMILES IDX 59 66 60 67 64 68 67 69 61 70 62 71 65 72 63 73 9 74 10 75
REMARK SMILES IDX 11 76 12 77 13 78 14 79 15 80 16 81 17 82 18 83 19 84 30 85
REMARK SMILES IDX 20 86 22 87 21 88 23 91 24 92 29 93 25 94 28 95 26 96 27 97
REMARK H PARENT 87 26 55 37 20 89 20 90
REMARK Flexibility Score: inf
ROOT
ATOM      1  C   UNL     1       1.792   3.804   7.524  1.00  0.00     0.188 C 
ENDROOT
BRANCH   1   2
ATOM      2  C   UNL     1       0.416   3.164   7.372  1.00  0.00     0.188 C 
BRANCH   2   3
ATOM      3  O   UNL     1       0.462   1.803   7.789  1.00  0.00    -0.376 OA
BRANCH   3   4
ATOM      4  C   UNL     1      -0.318   0.856   7.061  1.00  0.00     0.202 C 
BRANCH   4   5
ATOM      5  C   UNL     1      -1.830   1.061   7.107  1.00  0.00     0.261 C 
BRANCH   5   6
ATOM      6  O   UNL     1      -2.262   2.337   7.608  1.00  0.00    -0.460 OA
BRANCH   6   7
ATOM      7  C   UNL     1      -2.422   2.780   8.876  1.00  0.00     0.338 C 
ATOM      8  O   UNL     1      -2.906   3.898   9.048  1.00  0.00    -0.246 OA
BRANCH   7   9
ATOM      9  C   UNL     1      -2.031   2.012  10.093  1.00  0.00     0.060 A 
ATOM     10  C   UNL     1      -1.014   1.068  10.146  1.00  0.00     0.016 A 
ATOM     11  C   UNL     1      -2.662   2.346  11.302  1.00  0.00     0.016 A 
ATOM     12  C   UNL     1      -0.661   0.415  11.304  1.00  0.00     0.010 A 
ATOM     13  C   UNL     1      -2.299   1.717  12.498  1.00  0.00     0.010 A 
ATOM     14  C   UNL     1      -1.307   0.731  12.485  1.00  0.00    -0.014 A 
BRANCH  14  15
ATOM     15  C   UNL     1      -1.030  -0.155  13.617  1.00  0.00     0.031 A 
ATOM     16  C   UNL     1      -2.058  -1.193  13.929  1.00  0.00     0.074 A 
ATOM     17  C   UNL     1       0.196  -0.162  14.170  1.00  0.00     0.049 A 
ATOM     18  N   UNL     1      -2.096  -2.047  14.910  1.00  0.00    -0.248 NA
ATOM     19  C   UNL     1      -3.194  -1.302  12.990  1.00  0.00     0.031 C 
ATOM     20  C   UNL     1       1.319   0.683  13.744  1.00  0.00     0.029 A 
ATOM     21  N   UNL     1       0.721  -0.931  15.170  1.00  0.00    -0.354 N 
ATOM     22  C   UNL     1      -3.275  -2.755  14.736  1.00  0.00     0.074 A 
ATOM     23  C   UNL     1      -3.924  -2.252  13.550  1.00  0.00     0.031 C 
ATOM     24  C   UNL     1       2.402   0.374  14.474  1.00  0.00     0.029 A 
ATOM     25  C   UNL     1       2.022  -0.613  15.476  1.00  0.00     0.049 A 
ATOM     26  H   UNL     1       0.216  -1.642  15.626  1.00  0.00     0.167 HD
ATOM     27  C   UNL     1      -3.761  -3.733  15.527  1.00  0.00     0.037 A 
ATOM     28  C   UNL     1       2.784  -1.040  16.499  1.00  0.00     0.037 A 
ATOM     29  C   UNL     1      -3.057  -4.209  16.683  1.00  0.00     0.049 A 
ATOM     30  C   UNL     1       2.160  -2.031  17.447  1.00  0.00     0.074 A 
ATOM     31  C   UNL     1      -3.463  -5.133  17.622  1.00  0.00     0.029 A 
ATOM     32  N   UNL     1      -1.782  -3.789  17.043  1.00  0.00    -0.354 N 
ATOM     33  N   UNL     1       0.990  -2.621  17.366  1.00  0.00    -0.248 NA
ATOM     34  C   UNL     1       2.938  -2.396  18.635  1.00  0.00     0.031 C 
ATOM     35  C   UNL     1      -2.454  -5.232  18.583  1.00  0.00     0.029 A 
ATOM     36  C   UNL     1      -1.393  -4.418  18.208  1.00  0.00     0.049 A 
ATOM     37  H   UNL     1      -1.238  -3.139  16.542  1.00  0.00     0.167 HD
ATOM     38  C   UNL     1       0.893  -3.437  18.482  1.00  0.00     0.074 A 
ATOM     39  C   UNL     1       2.136  -3.281  19.213  1.00  0.00     0.031 C 
ATOM     40  C   UNL     1      -0.129  -4.234  18.879  1.00  0.00     0.037 A 
BRANCH  27  41
ATOM     41  C   UNL     1      -5.122  -4.271  15.219  1.00  0.00     0.064 A 
ATOM     42  C   UNL     1      -6.207  -3.932  16.042  1.00  0.00     0.173 A 
ATOM     43  C   UNL     1      -5.361  -5.130  14.138  1.00  0.00     0.173 A 
ATOM     44  F   UNL     1      -6.034  -3.094  17.076  1.00  0.00    -0.203 F 
ATOM     45  C   UNL     1      -7.475  -4.455  15.811  1.00  0.00     0.198 A 
ATOM     46  C   UNL     1      -6.638  -5.634  13.895  1.00  0.00     0.198 A 
ATOM     47  F   UNL     1      -4.367  -5.452  13.297  1.00  0.00    -0.203 F 
ATOM     48  F   UNL     1      -8.489  -4.136  16.628  1.00  0.00    -0.200 F 
ATOM     49  C   UNL     1      -7.689  -5.306  14.738  1.00  0.00     0.200 A 
ATOM     50  F   UNL     1      -6.853  -6.428  12.837  1.00  0.00    -0.200 F 
ATOM     51  F   UNL     1      -8.913  -5.805  14.512  1.00  0.00    -0.200 F 
ENDBRANCH  27  41
BRANCH  28  52
ATOM     52  C   UNL     1       4.143  -0.475  16.720  1.00  0.00     0.064 A 
ATOM     53  C   UNL     1       4.329   0.895  16.980  1.00  0.00     0.173 A 
ATOM     54  C   UNL     1       5.287  -1.283  16.690  1.00  0.00     0.173 A 
ATOM     55  F   UNL     1       3.273   1.721  17.028  1.00  0.00    -0.203 F 
ATOM     56  C   UNL     1       5.599   1.432  17.179  1.00  0.00     0.198 A 
ATOM     57  C   UNL     1       6.555  -0.751  16.925  1.00  0.00     0.198 A 
ATOM     58  F   UNL     1       5.170  -2.600  16.467  1.00  0.00    -0.203 F 
ATOM     59  F   UNL     1       5.743   2.747  17.390  1.00  0.00    -0.200 F 
ATOM     60  C   UNL     1       6.711   0.607  17.162  1.00  0.00     0.200 A 
ATOM     61  F   UNL     1       7.625  -1.557  16.937  1.00  0.00    -0.200 F 
ATOM     62  F   UNL     1       7.930   1.117  17.383  1.00  0.00    -0.200 F 
ENDBRANCH  28  52
BRANCH  40  63
ATOM     63  C   UNL     1       0.066  -5.016  20.140  1.00  0.00     0.064 A 
ATOM     64  C   UNL     1       0.192  -6.412  20.088  1.00  0.00     0.173 A 
ATOM     65  C   UNL     1       0.008  -4.397  21.395  1.00  0.00     0.173 A 
ATOM     66  F   UNL     1       0.237  -7.044  18.905  1.00  0.00    -0.203 F 
ATOM     67  C   UNL     1       0.221  -7.165  21.255  1.00  0.00     0.198 A 
ATOM     68  C   UNL     1       0.073  -5.153  22.560  1.00  0.00     0.198 A 
ATOM     69  F   UNL     1      -0.100  -3.063  21.488  1.00  0.00    -0.203 F 
ATOM     70  F   UNL     1       0.283  -8.502  21.184  1.00  0.00    -0.200 F 
ATOM     71  C   UNL     1       0.164  -6.536  22.489  1.00  0.00     0.200 A 
ATOM     72  F   UNL     1       0.042  -4.543  23.753  1.00  0.00    -0.200 F 
ATOM     73  F   UNL     1       0.193  -7.264  23.613  1.00  0.00    -0.200 F 
ENDBRANCH  40  63
ENDBRANCH  14  15
ENDBRANCH   7   9
ENDBRANCH   6   7
ENDBRANCH   5   6
ENDBRANCH   4   5
ENDBRANCH   3   4
ENDBRANCH   2   3
ENDBRANCH   1   2
BRANCH   1  74
ATOM     74  O   UNL     1       2.825   3.265   6.710  1.00  0.00    -0.377 OA
BRANCH  74  75
ATOM     75  C   UNL     1       2.850   1.856   6.565  1.00  0.00     0.188 C 
BRANCH  75  76
ATOM     76  C   UNL     1       3.374   0.973   7.721  1.00  0.00     0.188 C 
BRANCH  76  77
ATOM     77  O   UNL     1       3.212   1.407   9.058  1.00  0.00    -0.376 OA
BRANCH  77  78
ATOM     78  C   UNL     1       4.119   2.327   9.657  1.00  0.00     0.202 C 
BRANCH  78  79
ATOM     79  C   UNL     1       5.498   2.706   9.079  1.00  0.00     0.261 C 
BRANCH  79  80
ATOM     80  O   UNL     1       5.537   2.759   7.656  1.00  0.00    -0.463 OA
BRANCH  80  81
ATOM     81  C   UNL     1       6.472   2.027   6.972  1.00  0.00     0.314 C 
ATOM     82  O   UNL     1       7.387   1.403   7.475  1.00  0.00    -0.252 OA
BRANCH  81  83
ATOM     83  C   UNL     1       6.049   1.964   5.510  1.00  0.00     0.155 C 
ATOM     84  C   UNL     1       7.032   1.370   4.522  1.00  0.00     0.275 C 
ATOM     85  C   UNL     1       5.597   3.342   5.032  1.00  0.00     0.035 C 
ATOM     86  N   UNL     1       6.377   1.273   3.204  1.00  0.00    -0.345 N 
ATOM     87  C   UNL     1       4.928   3.303   3.652  1.00  0.00     0.075 C 
ATOM     88  C   UNL     1       5.909   2.578   2.694  1.00  0.00     0.268 C 
ATOM     89  H   UNL     1       5.574   0.649   3.285  1.00  0.00     0.346 HD
ATOM     90  H   UNL     1       7.069   0.918   2.544  1.00  0.00     0.346 HD
BRANCH  87  91
ATOM     91  C   UNL     1       4.467   4.700   3.207  1.00  0.00    -0.039 A 
ATOM     92  C   UNL     1       4.155   4.969   1.865  1.00  0.00     0.007 A 
ATOM     93  C   UNL     1       4.267   5.747   4.137  1.00  0.00     0.007 A 
ATOM     94  C   UNL     1       3.746   6.248   1.463  1.00  0.00     0.039 A 
ATOM     95  C   UNL     1       3.864   7.022   3.739  1.00  0.00     0.039 A 
ATOM     96  C   UNL     1       3.620   7.265   2.400  1.00  0.00     0.123 A 
ATOM     97  F   UNL     1       3.248   8.491   2.010  1.00  0.00    -0.207 F 
ENDBRANCH  87  91
ENDBRANCH  81  83
ENDBRANCH  80  81
ENDBRANCH  79  80
ENDBRANCH  78  79
ENDBRANCH  77  78
ENDBRANCH  76  77
ENDBRANCH  75  76
ENDBRANCH  74  75
ENDBRANCH   1  74
TORSDOF 21
