REMARK SMILES COC(=O)c1ccc2c(c1)=N[C@H](c1cn(CCC(=O)OCCOCCOCCOCCOC(=O)c3ccc(-c4c5nc(c(-c6c(F)c(F)c(F)c(F)c6F)c6ccc([nH]6)c(-c6c(F)c(F)c(F)c(F)c6F)c6nc(c(-c7c(F)c(F)c(F)c(F)c7F)c7ccc4[nH]7)C=C6)C=C5)cc3)c3ccccc13)N=2
REMARK SMILES IDX 24 1 23 2 22 3 21 4 20 5 18 6 19 7 17 8 16 9 15 10 13 11
REMARK SMILES IDX 14 12 103 13 98 14 102 15 99 16 101 17 100 18 12 19 5 20
REMARK SMILES IDX 6 21 10 22 7 23 9 24 8 25 11 26 104 27 3 28 4 29 2 30 1 31
REMARK SMILES IDX 25 32 26 33 27 34 28 35 29 36 30 37 31 38 32 39 33 40 34 41
REMARK SMILES IDX 35 42 36 43 97 44 37 45 96 46 38 47 39 48 40 49 90 50 41 51
REMARK SMILES IDX 95 52 89 53 91 54 42 55 94 56 88 57 87 58 43 60 75 61 55 62
REMARK SMILES IDX 74 63 56 64 59 65 73 66 92 67 57 68 58 69 72 71 93 72 60 73
REMARK SMILES IDX 44 74 45 75 53 76 46 77 47 78 51 79 54 80 48 81 49 82 52 83
REMARK SMILES IDX 50 84 76 85 77 86 85 87 78 88 79 89 83 90 86 91 80 92 81 93
REMARK SMILES IDX 84 94 82 95 61 96 62 97 70 98 63 99 64 100 68 101 71 102
REMARK SMILES IDX 65 103 66 104 69 105 67 106
REMARK H PARENT 91 59 59 70
REMARK Flexibility Score: inf
ROOT
ATOM      1  C   UNL     1      -0.991  -7.083  12.338  1.00  0.00     0.188 C 
ENDROOT
BRANCH   1   2
ATOM      2  O   UNL     1      -2.379  -7.033  12.088  1.00  0.00    -0.376 OA
BRANCH   2   3
ATOM      3  C   UNL     1      -3.189  -5.874  12.165  1.00  0.00     0.202 C 
BRANCH   3   4
ATOM      4  C   UNL     1      -2.754  -4.545  12.790  1.00  0.00     0.261 C 
BRANCH   4   5
ATOM      5  O   UNL     1      -1.472  -4.016  12.399  1.00  0.00    -0.463 OA
BRANCH   5   6
ATOM      6  C   UNL     1      -0.638  -3.722  13.428  1.00  0.00     0.307 C 
ATOM      7  O   UNL     1      -0.894  -3.978  14.603  1.00  0.00    -0.252 OA
BRANCH   6   8
ATOM      8  C   UNL     1       0.672  -3.033  13.084  1.00  0.00     0.144 C 
BRANCH   8   9
ATOM      9  C   UNL     1       1.306  -3.019  11.691  1.00  0.00     0.134 C 
BRANCH   9  10
ATOM     10  N   UNL     1       0.699  -2.065  10.795  1.00  0.00    -0.346 N 
ATOM     11  C   UNL     1       0.137  -0.239   9.716  1.00  0.00     0.024 A 
ATOM     12  C   UNL     1       1.180  -0.826  10.442  1.00  0.00     0.094 A 
ATOM     13  C   UNL     1      -1.020  -1.045  10.048  1.00  0.00     0.007 A 
ATOM     14  C   UNL     1      -0.367  -2.275   9.962  1.00  0.00     0.048 A 
ATOM     15  C   UNL     1      -2.356  -1.005   9.622  1.00  0.00     0.011 A 
ATOM     16  C   UNL     1      -0.616  -3.123   8.888  1.00  0.00     0.027 A 
ATOM     17  C   UNL     1      -2.674  -1.845   8.563  1.00  0.00     0.001 A 
ATOM     18  C   UNL     1      -1.735  -2.780   8.123  1.00  0.00     0.002 A 
BRANCH  11  19
ATOM     19  C   UNL     1       0.281   0.766   8.596  1.00  0.00     0.255 C 
ATOM     20  C   UNL     1       0.400  -0.185   4.147  1.00  0.00     0.062 A 
ATOM     21  C   UNL     1      -0.986   0.257   4.274  1.00  0.00     0.018 A 
ATOM     22  C   UNL     1       1.217  -0.277   5.214  1.00  0.00     0.046 A 
ATOM     23  C   UNL     1      -1.544   0.616   5.441  1.00  0.00     0.031 A 
ATOM     24  C   UNL     1       0.703   0.158   6.525  1.00  0.00     0.087 A 
ATOM     25  C   UNL     1      -0.698   0.606   6.644  1.00  0.00     0.086 A 
ATOM     26  N   UNL     1       1.333   0.264   7.643  1.00  0.00    -0.252 NA
ATOM     27  N   UNL     1      -0.988   0.990   7.839  1.00  0.00    -0.252 NA
BRANCH  20  28
ATOM     28  C   UNL     1       0.989  -0.560   2.821  1.00  0.00     0.337 C 
ATOM     29  O   UNL     1       1.911  -1.349   2.679  1.00  0.00    -0.246 OA
BRANCH  28  30
ATOM     30  O   UNL     1       0.382   0.135   1.822  1.00  0.00    -0.465 OA
ATOM     31  C   UNL     1       0.925  -0.095   0.517  1.00  0.00     0.282 C 
ENDBRANCH  28  30
ENDBRANCH  20  28
ENDBRANCH  11  19
ENDBRANCH   9  10
ENDBRANCH   8   9
ENDBRANCH   6   8
ENDBRANCH   5   6
ENDBRANCH   4   5
ENDBRANCH   3   4
ENDBRANCH   2   3
ENDBRANCH   1   2
BRANCH   1  32
ATOM     32  C   UNL     1       0.016  -6.383  11.412  1.00  0.00     0.188 C 
BRANCH  32  33
ATOM     33  O   UNL     1      -0.079  -6.322  10.005  1.00  0.00    -0.377 OA
BRANCH  33  34
ATOM     34  C   UNL     1      -1.378  -6.271   9.450  1.00  0.00     0.188 C 
BRANCH  34  35
ATOM     35  C   UNL     1      -1.933  -7.675   9.247  1.00  0.00     0.188 C 
BRANCH  35  36
ATOM     36  O   UNL     1      -0.966  -8.701   9.377  1.00  0.00    -0.376 OA
BRANCH  36  37
ATOM     37  C   UNL     1       0.094  -8.827   8.432  1.00  0.00     0.202 C 
BRANCH  37  38
ATOM     38  C   UNL     1       0.455  -7.796   7.337  1.00  0.00     0.261 C 
BRANCH  38  39
ATOM     39  O   UNL     1      -0.631  -7.068   6.757  1.00  0.00    -0.460 OA
BRANCH  39  40
ATOM     40  C   UNL     1      -1.408  -7.639   5.796  1.00  0.00     0.338 C 
ATOM     41  O   UNL     1      -1.204  -8.636   5.181  1.00  0.00    -0.246 OA
BRANCH  40  42
ATOM     42  C   UNL     1      -2.710  -6.912   5.925  1.00  0.00     0.060 A 
ATOM     43  C   UNL     1      -2.738  -5.526   6.048  1.00  0.00     0.016 A 
ATOM     44  C   UNL     1      -3.840  -7.667   6.265  1.00  0.00     0.016 A 
ATOM     45  C   UNL     1      -3.841  -4.924   6.651  1.00  0.00     0.010 A 
ATOM     46  C   UNL     1      -4.932  -7.053   6.894  1.00  0.00     0.010 A 
ATOM     47  C   UNL     1      -4.910  -5.683   7.150  1.00  0.00    -0.014 A 
BRANCH  47  48
ATOM     48  C   UNL     1      -6.018  -4.935   7.781  1.00  0.00     0.031 A 
ATOM     49  C   UNL     1      -6.569  -3.829   6.932  1.00  0.00     0.074 A 
ATOM     50  C   UNL     1      -6.626  -5.218   8.955  1.00  0.00     0.049 A 
ATOM     51  N   UNL     1      -6.743  -2.578   7.223  1.00  0.00    -0.248 NA
ATOM     52  C   UNL     1      -6.876  -4.167   5.533  1.00  0.00     0.031 C 
ATOM     53  C   UNL     1      -6.430  -6.376   9.827  1.00  0.00     0.029 A 
ATOM     54  N   UNL     1      -7.655  -4.546   9.567  1.00  0.00    -0.354 N 
ATOM     55  C   UNL     1      -7.304  -1.994   6.087  1.00  0.00     0.074 A 
ATOM     56  C   UNL     1      -7.261  -2.989   5.048  1.00  0.00     0.031 C 
ATOM     57  C   UNL     1      -7.453  -6.445  10.711  1.00  0.00     0.029 A 
ATOM     58  C   UNL     1      -8.317  -5.287  10.540  1.00  0.00     0.049 A 
ATOM     59  H   UNL     1      -7.903  -3.621   9.338  1.00  0.00     0.167 HD
ATOM     60  C   UNL     1      -7.912  -0.776   6.099  1.00  0.00     0.037 A 
ATOM     61  C   UNL     1      -9.525  -5.015  11.101  1.00  0.00     0.037 A 
ATOM     62  C   UNL     1      -7.514   0.022   7.221  1.00  0.00     0.049 A 
ATOM     63  C   UNL     1      -9.827  -3.581  10.882  1.00  0.00     0.074 A 
ATOM     64  C   UNL     1      -6.316   0.553   7.659  1.00  0.00     0.029 A 
ATOM     65  N   UNL     1      -8.385   0.180   8.269  1.00  0.00    -0.354 N 
ATOM     66  N   UNL     1      -9.234  -2.599  11.497  1.00  0.00    -0.248 NA
ATOM     67  C   UNL     1     -10.549  -3.219   9.671  1.00  0.00     0.031 C 
ATOM     68  C   UNL     1      -6.397   0.531   9.081  1.00  0.00     0.029 A 
ATOM     69  C   UNL     1      -7.647   0.009   9.411  1.00  0.00     0.049 A 
ATOM     70  H   UNL     1      -9.348   0.377   8.213  1.00  0.00     0.167 HD
ATOM     71  C   UNL     1      -9.141  -1.598  10.544  1.00  0.00     0.074 A 
ATOM     72  C   UNL     1     -10.051  -1.997   9.475  1.00  0.00     0.031 C 
ATOM     73  C   UNL     1      -8.131  -0.682  10.578  1.00  0.00     0.037 A 
BRANCH  60  74
ATOM     74  C   UNL     1      -9.086  -0.414   5.225  1.00  0.00     0.064 A 
ATOM     75  C   UNL     1      -9.518   0.925   5.146  1.00  0.00     0.173 A 
ATOM     76  C   UNL     1      -9.973  -1.373   4.688  1.00  0.00     0.173 A 
ATOM     77  F   UNL     1      -8.767   1.916   5.650  1.00  0.00    -0.203 F 
ATOM     78  C   UNL     1     -10.768   1.268   4.625  1.00  0.00     0.198 A 
ATOM     79  C   UNL     1     -11.195  -1.021   4.117  1.00  0.00     0.198 A 
ATOM     80  F   UNL     1      -9.741  -2.687   4.790  1.00  0.00    -0.203 F 
ATOM     81  F   UNL     1     -11.185   2.540   4.678  1.00  0.00    -0.200 F 
ATOM     82  C   UNL     1     -11.607   0.294   4.113  1.00  0.00     0.200 A 
ATOM     83  F   UNL     1     -12.000  -1.982   3.642  1.00  0.00    -0.200 F 
ATOM     84  F   UNL     1     -12.827   0.614   3.663  1.00  0.00    -0.200 F 
ENDBRANCH  60  74
BRANCH  61  85
ATOM     85  C   UNL     1     -10.563  -5.960  11.590  1.00  0.00     0.064 A 
ATOM     86  C   UNL     1     -11.628  -5.529  12.403  1.00  0.00     0.173 A 
ATOM     87  C   UNL     1     -10.686  -7.254  11.047  1.00  0.00     0.173 A 
ATOM     88  F   UNL     1     -11.627  -4.291  12.919  1.00  0.00    -0.203 F 
ATOM     89  C   UNL     1     -12.747  -6.336  12.643  1.00  0.00     0.198 A 
ATOM     90  C   UNL     1     -11.795  -8.063  11.298  1.00  0.00     0.198 A 
ATOM     91  F   UNL     1      -9.778  -7.726  10.182  1.00  0.00    -0.203 F 
ATOM     92  F   UNL     1     -13.769  -5.864  13.371  1.00  0.00    -0.200 F 
ATOM     93  C   UNL     1     -12.832  -7.600  12.085  1.00  0.00     0.200 A 
ATOM     94  F   UNL     1     -11.880  -9.269  10.718  1.00  0.00    -0.200 F 
ATOM     95  F   UNL     1     -13.926  -8.352  12.267  1.00  0.00    -0.200 F 
ENDBRANCH  61  85
BRANCH  73  96
ATOM     96  C   UNL     1      -7.279  -0.601  11.810  1.00  0.00     0.064 A 
ATOM     97  C   UNL     1      -6.496  -1.665  12.288  1.00  0.00     0.173 A 
ATOM     98  C   UNL     1      -7.121   0.648  12.428  1.00  0.00     0.173 A 
ATOM     99  F   UNL     1      -6.511  -2.863  11.688  1.00  0.00    -0.203 F 
ATOM    100  C   UNL     1      -5.627  -1.490  13.363  1.00  0.00     0.198 A 
ATOM    101  C   UNL     1      -6.217   0.829  13.470  1.00  0.00     0.198 A 
ATOM    102  F   UNL     1      -7.809   1.712  11.981  1.00  0.00    -0.203 F 
ATOM    103  F   UNL     1      -4.911  -2.526  13.822  1.00  0.00    -0.200 F 
ATOM    104  C   UNL     1      -5.476  -0.241  13.942  1.00  0.00     0.200 A 
ATOM    105  F   UNL     1      -6.042   2.049  13.997  1.00  0.00    -0.200 F 
ATOM    106  F   UNL     1      -4.596  -0.064  14.938  1.00  0.00    -0.200 F 
ENDBRANCH  73  96
ENDBRANCH  47  48
ENDBRANCH  40  42
ENDBRANCH  39  40
ENDBRANCH  38  39
ENDBRANCH  37  38
ENDBRANCH  36  37
ENDBRANCH  35  36
ENDBRANCH  34  35
ENDBRANCH  33  34
ENDBRANCH  32  33
ENDBRANCH   1  32
TORSDOF 25
