REMARK SMILES O=C(CCn1c(N2CC[NH2+]CC2)nc2ccccc2c1=O)OCCOCCOCCOCCOC(=O)c1ccc(-c2c3nc(c(-c4c(F)c(F)c(F)c(F)c4F)c4ccc([nH]4)c(-c4c(F)c(F)c(F)c(F)c4F)c4nc(c(-c5c(F)c(F)c(F)c(F)c5F)c5ccc2[nH]5)C=C4)C=C3)cc1
REMARK SMILES IDX 27 1 26 2 25 3 24 4 23 5 22 6 2 7 1 8 3 9 4 10 5 11 6 12
REMARK SMILES IDX 20 13 13 14 19 15 21 16 14 17 18 18 15 19 17 20 16 21 7 22
REMARK SMILES IDX 8 23 12 24 9 25 11 26 10 27 28 30 29 31 30 32 31 33 32 34
REMARK SMILES IDX 33 35 34 36 35 37 36 38 37 39 38 40 99 41 39 42 98 43 40 44
REMARK SMILES IDX 41 45 42 46 92 47 43 48 97 49 91 50 93 51 44 52 96 53 90 54
REMARK SMILES IDX 89 55 45 57 77 58 57 59 76 60 58 61 61 62 75 63 94 64 59 65
REMARK SMILES IDX 60 66 74 68 95 69 62 70 46 71 47 72 55 73 48 74 49 75 53 76
REMARK SMILES IDX 56 77 50 78 51 79 54 80 52 81 78 82 79 83 87 84 80 85 81 86
REMARK SMILES IDX 85 87 88 88 82 89 83 90 86 91 84 92 63 93 64 94 72 95 65 96
REMARK SMILES IDX 66 97 70 98 73 99 67 100 68 101 71 102 69 103
REMARK H PARENT 10 28 10 29 93 56 61 67
REMARK Flexibility Score: inf
ROOT
ATOM      1  C   UNL     1       2.974  -3.117   0.496  1.00  0.00     0.188 C 
ENDROOT
BRANCH   1   2
ATOM      2  C   UNL     1       3.986  -2.194  -0.163  1.00  0.00     0.188 C 
BRANCH   2   3
ATOM      3  O   UNL     1       4.589  -1.159   0.597  1.00  0.00    -0.376 OA
BRANCH   3   4
ATOM      4  C   UNL     1       4.392  -0.963   1.986  1.00  0.00     0.202 C 
BRANCH   4   5
ATOM      5  C   UNL     1       3.353   0.120   2.357  1.00  0.00     0.261 C 
BRANCH   5   6
ATOM      6  O   UNL     1       3.458   1.340   1.581  1.00  0.00    -0.463 OA
BRANCH   6   7
ATOM      7  C   UNL     1       2.464   2.245   1.781  1.00  0.00     0.307 C 
ATOM      8  O   UNL     1       1.641   2.126   2.687  1.00  0.00    -0.252 OA
BRANCH   7   9
ATOM      9  C   UNL     1       2.374   3.423   0.801  1.00  0.00     0.145 C 
BRANCH   9  10
ATOM     10  C   UNL     1       3.184   3.530  -0.503  1.00  0.00     0.141 C 
BRANCH  10  11
ATOM     11  N   UNL     1       4.488   2.937  -0.389  1.00  0.00    -0.278 N 
ATOM     12  C   UNL     1       4.760   1.647  -0.856  1.00  0.00     0.209 A 
ATOM     13  C   UNL     1       5.429   3.719   0.271  1.00  0.00     0.262 A 
ATOM     14  N   UNL     1       5.890   1.073  -0.529  1.00  0.00    -0.214 NA
ATOM     15  C   UNL     1       6.544   2.989   0.859  1.00  0.00     0.066 A 
ATOM     16  O   UNL     1       5.318   4.927   0.466  1.00  0.00    -0.269 OA
ATOM     17  C   UNL     1       6.692   1.662   0.479  1.00  0.00     0.080 A 
ATOM     18  C   UNL     1       7.281   3.571   1.902  1.00  0.00     0.016 A 
ATOM     19  C   UNL     1       7.594   0.890   1.223  1.00  0.00     0.029 A 
ATOM     20  C   UNL     1       8.164   2.788   2.633  1.00  0.00     0.001 A 
ATOM     21  C   UNL     1       8.309   1.441   2.303  1.00  0.00     0.002 A 
BRANCH  12  22
ATOM     22  N   UNL     1       3.809   1.010  -1.679  1.00  0.00    -0.331 N 
ATOM     23  C   UNL     1       2.498   0.573  -1.125  1.00  0.00     0.181 C 
ATOM     24  C   UNL     1       4.311   0.202  -2.804  1.00  0.00     0.181 C 
ATOM     25  C   UNL     1       1.501  -0.058  -2.114  1.00  0.00     0.282 C 
ATOM     26  C   UNL     1       3.182  -0.163  -3.792  1.00  0.00     0.282 C 
ATOM     27  N   UNL     1       2.062  -0.894  -3.177  1.00  0.00    -0.343 N 
ATOM     28  H   UNL     1       1.348  -1.085  -3.879  1.00  0.00     0.346 HD
ATOM     29  H   UNL     1       2.388  -1.781  -2.793  1.00  0.00     0.346 HD
ENDBRANCH  12  22
ENDBRANCH  10  11
ENDBRANCH   9  10
ENDBRANCH   7   9
ENDBRANCH   6   7
ENDBRANCH   5   6
ENDBRANCH   4   5
ENDBRANCH   3   4
ENDBRANCH   2   3
ENDBRANCH   1   2
BRANCH   1  30
ATOM     30  O   UNL     1       3.488  -4.353   0.981  1.00  0.00    -0.377 OA
BRANCH  30  31
ATOM     31  C   UNL     1       4.900  -4.463   1.021  1.00  0.00     0.188 C 
BRANCH  31  32
ATOM     32  C   UNL     1       5.593  -5.108  -0.202  1.00  0.00     0.188 C 
BRANCH  32  33
ATOM     33  O   UNL     1       4.914  -5.218  -1.445  1.00  0.00    -0.376 OA
BRANCH  33  34
ATOM     34  C   UNL     1       3.673  -5.912  -1.533  1.00  0.00     0.202 C 
BRANCH  34  35
ATOM     35  C   UNL     1       3.528  -7.320  -0.940  1.00  0.00     0.261 C 
BRANCH  35  36
ATOM     36  O   UNL     1       3.678  -7.321   0.485  1.00  0.00    -0.460 OA
BRANCH  36  37
ATOM     37  C   UNL     1       4.738  -8.014   0.976  1.00  0.00     0.338 C 
ATOM     38  O   UNL     1       5.496  -8.736   0.372  1.00  0.00    -0.246 OA
BRANCH  37  39
ATOM     39  C   UNL     1       4.994  -7.503   2.343  1.00  0.00     0.060 A 
ATOM     40  C   UNL     1       3.949  -7.264   3.243  1.00  0.00     0.016 A 
ATOM     41  C   UNL     1       6.308  -7.115   2.655  1.00  0.00     0.016 A 
ATOM     42  C   UNL     1       4.226  -6.680   4.481  1.00  0.00     0.010 A 
ATOM     43  C   UNL     1       6.575  -6.479   3.866  1.00  0.00     0.010 A 
ATOM     44  C   UNL     1       5.545  -6.318   4.810  1.00  0.00    -0.014 A 
BRANCH  44  45
ATOM     45  C   UNL     1       5.918  -6.202   6.238  1.00  0.00     0.031 A 
ATOM     46  C   UNL     1       5.914  -4.925   7.011  1.00  0.00     0.074 A 
ATOM     47  C   UNL     1       6.275  -7.364   6.816  1.00  0.00     0.049 A 
ATOM     48  N   UNL     1       6.143  -4.754   8.289  1.00  0.00    -0.248 NA
ATOM     49  C   UNL     1       5.626  -3.684   6.279  1.00  0.00     0.031 C 
ATOM     50  C   UNL     1       6.312  -8.659   6.125  1.00  0.00     0.029 A 
ATOM     51  N   UNL     1       6.678  -7.657   8.088  1.00  0.00    -0.354 N 
ATOM     52  C   UNL     1       6.000  -3.396   8.529  1.00  0.00     0.074 A 
ATOM     53  C   UNL     1       5.703  -2.777   7.250  1.00  0.00     0.031 C 
ATOM     54  C   UNL     1       6.731  -9.602   6.974  1.00  0.00     0.029 A 
ATOM     55  C   UNL     1       6.981  -8.983   8.266  1.00  0.00     0.049 A 
ATOM     56  H   UNL     1       6.744  -6.985   8.804  1.00  0.00     0.167 HD
ATOM     57  C   UNL     1       6.097  -2.748   9.716  1.00  0.00     0.037 A 
ATOM     58  C   UNL     1       7.403  -9.643   9.355  1.00  0.00     0.037 A 
ATOM     59  C   UNL     1       6.412  -3.394  10.970  1.00  0.00     0.049 A 
ATOM     60  C   UNL     1       7.524  -8.892  10.640  1.00  0.00     0.074 A 
ATOM     61  C   UNL     1       6.467  -2.838  12.238  1.00  0.00     0.029 A 
ATOM     62  N   UNL     1       6.742  -4.736  11.114  1.00  0.00    -0.354 N 
ATOM     63  N   UNL     1       7.292  -7.624  10.873  1.00  0.00    -0.248 NA
ATOM     64  C   UNL     1       7.941  -9.662  11.815  1.00  0.00     0.031 C 
ATOM     65  C   UNL     1       6.884  -3.826  13.136  1.00  0.00     0.029 A 
ATOM     66  C   UNL     1       7.039  -5.014  12.441  1.00  0.00     0.049 A 
ATOM     67  H   UNL     1       6.762  -5.394  10.382  1.00  0.00     0.167 HD
ATOM     68  C   UNL     1       7.520  -7.442  12.226  1.00  0.00     0.074 A 
ATOM     69  C   UNL     1       7.889  -8.738  12.764  1.00  0.00     0.031 C 
ATOM     70  C   UNL     1       7.430  -6.304  12.954  1.00  0.00     0.037 A 
BRANCH  57  71
ATOM     71  C   UNL     1       5.848  -1.266   9.750  1.00  0.00     0.064 A 
ATOM     72  C   UNL     1       4.552  -0.744   9.630  1.00  0.00     0.173 A 
ATOM     73  C   UNL     1       6.889  -0.372  10.047  1.00  0.00     0.173 A 
ATOM     74  F   UNL     1       3.521  -1.554   9.350  1.00  0.00    -0.203 F 
ATOM     75  C   UNL     1       4.307   0.617   9.807  1.00  0.00     0.198 A 
ATOM     76  C   UNL     1       6.637   0.985  10.243  1.00  0.00     0.198 A 
ATOM     77  F   UNL     1       8.145  -0.820  10.187  1.00  0.00    -0.203 F 
ATOM     78  F   UNL     1       3.061   1.094   9.681  1.00  0.00    -0.200 F 
ATOM     79  C   UNL     1       5.347   1.478  10.124  1.00  0.00     0.200 A 
ATOM     80  F   UNL     1       7.641   1.812  10.567  1.00  0.00    -0.200 F 
ATOM     81  F   UNL     1       5.105   2.782  10.321  1.00  0.00    -0.200 F 
ENDBRANCH  57  71
BRANCH  58  82
ATOM     82  C   UNL     1       7.657 -11.097   9.252  1.00  0.00     0.064 A 
ATOM     83  C   UNL     1       6.752 -12.019   9.789  1.00  0.00     0.173 A 
ATOM     84  C   UNL     1       8.747 -11.591   8.519  1.00  0.00     0.173 A 
ATOM     85  F   UNL     1       5.693 -11.587  10.489  1.00  0.00    -0.203 F 
ATOM     86  C   UNL     1       6.931 -13.387   9.603  1.00  0.00     0.198 A 
ATOM     87  C   UNL     1       8.911 -12.958   8.314  1.00  0.00     0.198 A 
ATOM     88  F   UNL     1       9.622 -10.741   7.961  1.00  0.00    -0.203 F 
ATOM     89  F   UNL     1       6.058 -14.252  10.137  1.00  0.00    -0.200 F 
ATOM     90  C   UNL     1       8.004 -13.855   8.859  1.00  0.00     0.200 A 
ATOM     91  F   UNL     1       9.932 -13.404   7.571  1.00  0.00    -0.200 F 
ATOM     92  F   UNL     1       8.161 -15.170   8.661  1.00  0.00    -0.200 F 
ENDBRANCH  58  82
BRANCH  70  93
ATOM     93  C   UNL     1       7.756  -6.411  14.413  1.00  0.00     0.064 A 
ATOM     94  C   UNL     1       9.077  -6.584  14.852  1.00  0.00     0.173 A 
ATOM     95  C   UNL     1       6.746  -6.313  15.381  1.00  0.00     0.173 A 
ATOM     96  F   UNL     1      10.073  -6.705  13.961  1.00  0.00    -0.203 F 
ATOM     97  C   UNL     1       9.373  -6.673  16.208  1.00  0.00     0.198 A 
ATOM     98  C   UNL     1       7.049  -6.375  16.738  1.00  0.00     0.198 A 
ATOM     99  F   UNL     1       5.467  -6.147  15.011  1.00  0.00    -0.203 F 
ATOM    100  F   UNL     1      10.636  -6.883  16.604  1.00  0.00    -0.200 F 
ATOM    101  C   UNL     1       8.361  -6.561  17.150  1.00  0.00     0.200 A 
ATOM    102  F   UNL     1       6.072  -6.256  17.647  1.00  0.00    -0.200 F 
ATOM    103  F   UNL     1       8.649  -6.639  18.456  1.00  0.00    -0.200 F 
ENDBRANCH  70  93
ENDBRANCH  44  45
ENDBRANCH  37  39
ENDBRANCH  36  37
ENDBRANCH  35  36
ENDBRANCH  34  35
ENDBRANCH  33  34
ENDBRANCH  32  33
ENDBRANCH  31  32
ENDBRANCH  30  31
ENDBRANCH   1  30
TORSDOF 23
