REMARK SMILES CCc1ccsc1CNC(=O)N1[C@H]2CC[C@@H]1[C@H](C(=O)OCCOCCOCCOCCOC(=O)c1ccc(-c3c4nc(c(-c5c(F)c(F)c(F)c(F)c5F)c5ccc([nH]5)c(-c5c(F)c(F)c(F)c(F)c5F)c5nc(c(-c6c(F)c(F)c(F)c(F)c6F)c6ccc3[nH]6)C=C5)C=C4)cc1)C2
REMARK SMILES IDX 25 1 24 2 23 3 22 4 21 5 20 6 18 7 19 8 17 9 12 10 13 11
REMARK SMILES IDX 16 12 14 13 98 14 15 15 10 16 9 17 11 19 8 20 7 21 3 22 4 23
REMARK SMILES IDX 5 24 6 25 2 26 1 27 26 28 27 29 28 30 29 31 30 32 31 33
REMARK SMILES IDX 32 34 33 35 34 36 35 37 36 38 97 39 37 40 96 41 38 42 39 43
REMARK SMILES IDX 40 44 90 45 41 46 95 47 89 48 91 49 42 50 94 51 88 52 87 53
REMARK SMILES IDX 43 55 75 56 55 57 74 58 56 59 59 60 73 61 92 62 57 63 58 64
REMARK SMILES IDX 72 66 93 67 60 68 44 69 45 70 53 71 46 72 47 73 51 74 54 75
REMARK SMILES IDX 48 76 49 77 52 78 50 79 76 80 77 81 85 82 78 83 79 84 83 85
REMARK SMILES IDX 86 86 80 87 81 88 84 89 82 90 61 91 62 92 70 93 63 94 64 95
REMARK SMILES IDX 68 96 71 97 65 98 66 99 69 100 67 101
REMARK H PARENT 9 18 91 54 59 65
REMARK Flexibility Score: inf
ROOT
ATOM      1  C   UNL     1       3.795  -2.360 -10.079  1.00  0.00     0.188 C 
ENDROOT
BRANCH   1   2
ATOM      2  C   UNL     1       2.498  -3.074 -10.479  1.00  0.00     0.188 C 
BRANCH   2   3
ATOM      3  O   UNL     1       2.079  -2.803 -11.796  1.00  0.00    -0.376 OA
BRANCH   3   4
ATOM      4  C   UNL     1       1.111  -1.808 -12.063  1.00  0.00     0.202 C 
BRANCH   4   5
ATOM      5  C   UNL     1       0.898  -0.526 -11.235  1.00  0.00     0.261 C 
BRANCH   5   6
ATOM      6  O   UNL     1       1.682  -0.334 -10.055  1.00  0.00    -0.463 OA
BRANCH   6   7
ATOM      7  C   UNL     1       1.080  -0.642  -8.891  1.00  0.00     0.311 C 
ATOM      8  O   UNL     1      -0.050  -1.117  -8.810  1.00  0.00    -0.252 OA
BRANCH   7   9
ATOM      9  C   UNL     1       1.884  -0.326  -7.657  1.00  0.00     0.124 C 
ATOM     10  N   UNL     1       3.407   0.620  -6.286  1.00  0.00    -0.318 N 
ATOM     11  C   UNL     1       2.423   1.668  -6.428  1.00  0.00     0.088 C 
ATOM     12  C   UNL     1       3.379   0.070  -7.631  1.00  0.00     0.101 C 
ATOM     13  C   UNL     1       2.993   2.431  -7.643  1.00  0.00     0.027 C 
ATOM     14  C   UNL     1       1.212   0.857  -6.912  1.00  0.00     0.042 C 
ATOM     15  C   UNL     1       3.709   1.324  -8.439  1.00  0.00     0.028 C 
BRANCH  10  16
ATOM     16  C   UNL     1       4.155   0.128  -5.278  1.00  0.00     0.318 C 
ATOM     17  N   UNL     1       3.731   0.229  -4.001  1.00  0.00    -0.333 N 
ATOM     18  H   UNL     1       4.439   0.198  -3.318  1.00  0.00     0.165 HD
ATOM     19  O   UNL     1       5.213  -0.468  -5.485  1.00  0.00    -0.249 OA
BRANCH  17  20
ATOM     20  C   UNL     1       2.388   0.377  -3.492  1.00  0.00     0.165 C 
BRANCH  20  21
ATOM     21  C   UNL     1       1.823  -0.920  -2.965  1.00  0.00     0.027 A 
ATOM     22  C   UNL     1       0.920  -1.078  -1.917  1.00  0.00    -0.033 A 
ATOM     23  C   UNL     1       0.559  -2.455  -1.740  1.00  0.00     0.016 A 
ATOM     24  C   UNL     1       1.165  -3.285  -2.651  1.00  0.00     0.065 A 
ATOM     25  S   UNL     1       2.158  -2.422  -3.733  1.00  0.00    -0.147 S 
BRANCH  22  26
ATOM     26  C   UNL     1       0.360   0.034  -1.074  1.00  0.00     0.033 C 
ATOM     27  C   UNL     1       1.002   0.092   0.303  1.00  0.00     0.009 C 
ENDBRANCH  22  26
ENDBRANCH  20  21
ENDBRANCH  17  20
ENDBRANCH  10  16
ENDBRANCH   7   9
ENDBRANCH   6   7
ENDBRANCH   5   6
ENDBRANCH   4   5
ENDBRANCH   3   4
ENDBRANCH   2   3
ENDBRANCH   1   2
BRANCH   1  28
ATOM     28  O   UNL     1       4.127  -1.151 -10.742  1.00  0.00    -0.377 OA
BRANCH  28  29
ATOM     29  C   UNL     1       4.403  -1.165 -12.142  1.00  0.00     0.188 C 
BRANCH  29  30
ATOM     30  C   UNL     1       4.655  -2.482 -12.913  1.00  0.00     0.188 C 
BRANCH  30  31
ATOM     31  O   UNL     1       5.009  -3.593 -12.111  1.00  0.00    -0.376 OA
BRANCH  31  32
ATOM     32  C   UNL     1       6.383  -3.927 -11.994  1.00  0.00     0.202 C 
BRANCH  32  33
ATOM     33  C   UNL     1       7.329  -2.877 -11.393  1.00  0.00     0.261 C 
BRANCH  33  34
ATOM     34  O   UNL     1       7.378  -1.607 -12.062  1.00  0.00    -0.460 OA
BRANCH  34  35
ATOM     35  C   UNL     1       7.763  -1.585 -13.353  1.00  0.00     0.338 C 
ATOM     36  O   UNL     1       8.101  -2.530 -14.048  1.00  0.00    -0.246 OA
BRANCH  35  37
ATOM     37  C   UNL     1       7.547  -0.215 -13.853  1.00  0.00     0.060 A 
ATOM     38  C   UNL     1       6.616   0.010 -14.876  1.00  0.00     0.016 A 
ATOM     39  C   UNL     1       8.271   0.844 -13.304  1.00  0.00     0.016 A 
ATOM     40  C   UNL     1       6.433   1.298 -15.382  1.00  0.00     0.010 A 
ATOM     41  C   UNL     1       8.105   2.126 -13.827  1.00  0.00     0.010 A 
ATOM     42  C   UNL     1       7.214   2.352 -14.892  1.00  0.00    -0.014 A 
BRANCH  42  43
ATOM     43  C   UNL     1       7.285   3.639 -15.622  1.00  0.00     0.031 A 
ATOM     44  C   UNL     1       8.442   3.847 -16.559  1.00  0.00     0.074 A 
ATOM     45  C   UNL     1       6.374   4.610 -15.441  1.00  0.00     0.049 A 
ATOM     46  N   UNL     1       8.825   4.929 -17.186  1.00  0.00    -0.248 NA
ATOM     47  C   UNL     1       9.289   2.670 -16.815  1.00  0.00     0.031 C 
ATOM     48  C   UNL     1       5.178   4.504 -14.609  1.00  0.00     0.029 A 
ATOM     49  N   UNL     1       6.332   5.891 -15.934  1.00  0.00    -0.354 N 
ATOM     50  C   UNL     1       9.964   4.567 -17.894  1.00  0.00     0.074 A 
ATOM     51  C   UNL     1      10.226   3.175 -17.601  1.00  0.00     0.031 C 
ATOM     52  C   UNL     1       4.532   5.684 -14.627  1.00  0.00     0.029 A 
ATOM     53  C   UNL     1       5.295   6.638 -15.432  1.00  0.00     0.049 A 
ATOM     54  H   UNL     1       6.983   6.240 -16.584  1.00  0.00     0.167 HD
ATOM     55  C   UNL     1      10.722   5.329 -18.716  1.00  0.00     0.037 A 
ATOM     56  C   UNL     1       5.022   7.950 -15.577  1.00  0.00     0.037 A 
ATOM     57  C   UNL     1      10.459   6.715 -18.994  1.00  0.00     0.049 A 
ATOM     58  C   UNL     1       5.938   8.806 -16.420  1.00  0.00     0.074 A 
ATOM     59  C   UNL     1      11.165   7.580 -19.811  1.00  0.00     0.029 A 
ATOM     60  N   UNL     1       9.408   7.441 -18.453  1.00  0.00    -0.354 N 
ATOM     61  N   UNL     1       7.011   8.461 -17.091  1.00  0.00    -0.248 NA
ATOM     62  C   UNL     1       5.606  10.234 -16.525  1.00  0.00     0.031 C 
ATOM     63  C   UNL     1      10.578   8.844 -19.716  1.00  0.00     0.029 A 
ATOM     64  C   UNL     1       9.460   8.750 -18.901  1.00  0.00     0.049 A 
ATOM     65  H   UNL     1       8.727   7.080 -17.840  1.00  0.00     0.167 HD
ATOM     66  C   UNL     1       7.449   9.614 -17.734  1.00  0.00     0.074 A 
ATOM     67  C   UNL     1       6.529  10.669 -17.370  1.00  0.00     0.031 C 
ATOM     68  C   UNL     1       8.513   9.780 -18.558  1.00  0.00     0.037 A 
BRANCH  55  69
ATOM     69  C   UNL     1      11.927   4.691 -19.343  1.00  0.00     0.064 A 
ATOM     70  C   UNL     1      11.811   3.702 -20.331  1.00  0.00     0.173 A 
ATOM     71  C   UNL     1      13.218   5.101 -18.974  1.00  0.00     0.173 A 
ATOM     72  F   UNL     1      10.601   3.263 -20.709  1.00  0.00    -0.203 F 
ATOM     73  C   UNL     1      12.942   3.129 -20.908  1.00  0.00     0.198 A 
ATOM     74  C   UNL     1      14.345   4.551 -19.578  1.00  0.00     0.198 A 
ATOM     75  F   UNL     1      13.386   6.045 -18.036  1.00  0.00    -0.203 F 
ATOM     76  F   UNL     1      12.807   2.151 -21.813  1.00  0.00    -0.200 F 
ATOM     77  C   UNL     1      14.207   3.561 -20.538  1.00  0.00     0.200 A 
ATOM     78  F   UNL     1      15.566   4.981 -19.230  1.00  0.00    -0.200 F 
ATOM     79  F   UNL     1      15.294   3.017 -21.102  1.00  0.00    -0.200 F 
ENDBRANCH  55  69
BRANCH  56  80
ATOM     80  C   UNL     1       3.845   8.552 -14.895  1.00  0.00     0.064 A 
ATOM     81  C   UNL     1       2.768   9.067 -15.631  1.00  0.00     0.173 A 
ATOM     82  C   UNL     1       3.785   8.659 -13.497  1.00  0.00     0.173 A 
ATOM     83  F   UNL     1       2.788   9.014 -16.971  1.00  0.00    -0.203 F 
ATOM     84  C   UNL     1       1.693   9.689 -14.999  1.00  0.00     0.198 A 
ATOM     85  C   UNL     1       2.693   9.250 -12.864  1.00  0.00     0.198 A 
ATOM     86  F   UNL     1       4.787   8.185 -12.742  1.00  0.00    -0.203 F 
ATOM     87  F   UNL     1       0.707  10.225 -15.732  1.00  0.00    -0.200 F 
ATOM     88  C   UNL     1       1.653   9.775 -13.616  1.00  0.00     0.200 A 
ATOM     89  F   UNL     1       2.652   9.318 -11.526  1.00  0.00    -0.200 F 
ATOM     90  F   UNL     1       0.619  10.372 -13.009  1.00  0.00    -0.200 F 
ENDBRANCH  56  80
BRANCH  68  91
ATOM     91  C   UNL     1       8.703  11.125 -19.201  1.00  0.00     0.064 A 
ATOM     92  C   UNL     1       9.135  12.245 -18.477  1.00  0.00     0.173 A 
ATOM     93  C   UNL     1       8.527  11.267 -20.588  1.00  0.00     0.173 A 
ATOM     94  F   UNL     1       9.307  12.166 -17.149  1.00  0.00    -0.203 F 
ATOM     95  C   UNL     1       9.368  13.461 -19.115  1.00  0.00     0.198 A 
ATOM     96  C   UNL     1       8.794  12.474 -21.226  1.00  0.00     0.198 A 
ATOM     97  F   UNL     1       8.123  10.224 -21.328  1.00  0.00    -0.203 F 
ATOM     98  F   UNL     1       9.744  14.529 -18.398  1.00  0.00    -0.200 F 
ATOM     99  C   UNL     1       9.209  13.571 -20.489  1.00  0.00     0.200 A 
ATOM    100  F   UNL     1       8.659  12.571 -22.556  1.00  0.00    -0.200 F 
ATOM    101  F   UNL     1       9.455  14.737 -21.103  1.00  0.00    -0.200 F 
ENDBRANCH  68  91
ENDBRANCH  42  43
ENDBRANCH  35  37
ENDBRANCH  34  35
ENDBRANCH  33  34
ENDBRANCH  32  33
ENDBRANCH  31  32
ENDBRANCH  30  31
ENDBRANCH  29  30
ENDBRANCH  28  29
ENDBRANCH   1  28
TORSDOF 24
