REMARK SMILES O=C(OCCOCCOCCOCCOC(=O)[C@@H](Cc1ccccc1)NC(=O)c1ccccc1[N+](=O)[O-])c1ccc(-c2c3nc(c(-c4c(F)c(F)c(F)c(F)c4F)c4ccc([nH]4)c(-c4c(F)c(F)c(F)c(F)c4F)c4nc(c(-c5c(F)c(F)c(F)c(F)c5F)c5ccc2[nH]5)C=C4)C=C3)cc1
REMARK SMILES IDX 10 1 9 2 8 3 7 4 6 5 5 6 4 7 3 8 2 9 1 10 38 11 39 12 100 13
REMARK SMILES IDX 40 14 99 15 41 16 42 17 43 18 93 19 44 20 98 21 92 22 94 23
REMARK SMILES IDX 45 24 97 25 91 26 90 27 46 29 78 30 58 31 77 32 59 33 62 34
REMARK SMILES IDX 76 35 95 36 60 37 61 38 75 40 96 41 63 42 47 43 48 44 56 45
REMARK SMILES IDX 49 46 50 47 54 48 57 49 51 50 52 51 55 52 53 53 79 54 80 55
REMARK SMILES IDX 88 56 81 57 82 58 86 59 89 60 83 61 84 62 87 63 85 64 64 65
REMARK SMILES IDX 65 66 73 67 66 68 67 69 71 70 74 71 68 72 69 73 72 74 70 75
REMARK SMILES IDX 11 76 12 77 13 78 14 79 15 80 16 81 17 82 18 83 19 84 20 85
REMARK SMILES IDX 21 86 25 87 22 88 24 89 23 90 26 91 27 92 28 94 29 95 30 96
REMARK SMILES IDX 34 97 31 98 33 99 32 100 35 101 36 102 37 103
REMARK H PARENT 94 28 62 39 26 93
REMARK Flexibility Score: inf
ROOT
ATOM      1  C   UNL     1       4.663  -3.301   0.857  1.00  0.00     0.188 C 
ENDROOT
BRANCH   1   2
ATOM      2  O   UNL     1       3.290  -3.310   1.204  1.00  0.00    -0.377 OA
BRANCH   2   3
ATOM      3  C   UNL     1       2.356  -2.526   0.479  1.00  0.00     0.188 C 
BRANCH   3   4
ATOM      4  C   UNL     1       2.635  -1.041   0.488  1.00  0.00     0.188 C 
BRANCH   4   5
ATOM      5  O   UNL     1       3.972  -0.767   0.087  1.00  0.00    -0.376 OA
BRANCH   5   6
ATOM      6  C   UNL     1       4.723   0.002   1.025  1.00  0.00     0.202 C 
BRANCH   6   7
ATOM      7  C   UNL     1       4.332   1.479   1.093  1.00  0.00     0.261 C 
BRANCH   7   8
ATOM      8  O   UNL     1       2.969   1.762   0.723  1.00  0.00    -0.460 OA
BRANCH   8   9
ATOM      9  C   UNL     1       2.412   1.977  -0.493  1.00  0.00     0.338 C 
ATOM     10  O   UNL     1       1.238   2.346  -0.529  1.00  0.00    -0.246 OA
BRANCH   9  11
ATOM     11  C   UNL     1       3.089   1.728  -1.807  1.00  0.00     0.060 A 
ATOM     12  C   UNL     1       4.291   1.047  -1.974  1.00  0.00     0.016 A 
ATOM     13  C   UNL     1       2.420   2.147  -2.973  1.00  0.00     0.016 A 
ATOM     14  C   UNL     1       4.790   0.715  -3.217  1.00  0.00     0.010 A 
ATOM     15  C   UNL     1       2.950   1.893  -4.243  1.00  0.00     0.010 A 
ATOM     16  C   UNL     1       4.146   1.178  -4.353  1.00  0.00    -0.014 A 
BRANCH  16  17
ATOM     17  C   UNL     1       4.950   1.137  -5.578  1.00  0.00     0.031 A 
ATOM     18  C   UNL     1       5.750   2.362  -5.891  1.00  0.00     0.074 A 
ATOM     19  C   UNL     1       5.144  -0.031  -6.210  1.00  0.00     0.049 A 
ATOM     20  N   UNL     1       6.530   2.612  -6.904  1.00  0.00    -0.248 NA
ATOM     21  C   UNL     1       5.689   3.451  -4.896  1.00  0.00     0.031 C 
ATOM     22  C   UNL     1       4.572  -1.316  -5.800  1.00  0.00     0.029 A 
ATOM     23  N   UNL     1       5.906  -0.335  -7.302  1.00  0.00    -0.354 N 
ATOM     24  C   UNL     1       7.014   3.895  -6.690  1.00  0.00     0.074 A 
ATOM     25  C   UNL     1       6.462   4.371  -5.445  1.00  0.00     0.031 C 
ATOM     26  C   UNL     1       4.995  -2.271  -6.645  1.00  0.00     0.029 A 
ATOM     27  C   UNL     1       5.800  -1.647  -7.688  1.00  0.00     0.049 A 
ATOM     28  H   UNL     1       6.475   0.322  -7.765  1.00  0.00     0.167 HD
ATOM     29  C   UNL     1       7.834   4.610  -7.491  1.00  0.00     0.037 A 
ATOM     30  C   UNL     1       6.260  -2.240  -8.804  1.00  0.00     0.037 A 
ATOM     31  C   UNL     1       8.345   4.086  -8.726  1.00  0.00     0.049 A 
ATOM     32  C   UNL     1       7.046  -1.382  -9.761  1.00  0.00     0.074 A 
ATOM     33  C   UNL     1       9.101   4.715  -9.693  1.00  0.00     0.029 A 
ATOM     34  N   UNL     1       8.129   2.781  -9.160  1.00  0.00    -0.354 N 
ATOM     35  N   UNL     1       7.418  -0.128  -9.632  1.00  0.00    -0.248 NA
ATOM     36  C   UNL     1       7.461  -2.004 -11.021  1.00  0.00     0.031 C 
ATOM     37  C   UNL     1       9.290   3.807 -10.742  1.00  0.00     0.029 A 
ATOM     38  C   UNL     1       8.713   2.591 -10.397  1.00  0.00     0.049 A 
ATOM     39  H   UNL     1       7.632   2.095  -8.659  1.00  0.00     0.167 HD
ATOM     40  C   UNL     1       8.126   0.186 -10.781  1.00  0.00     0.074 A 
ATOM     41  C   UNL     1       8.146  -1.020 -11.588  1.00  0.00     0.031 C 
ATOM     42  C   UNL     1       8.706   1.358 -11.147  1.00  0.00     0.037 A 
BRANCH  29  43
ATOM     43  C   UNL     1       8.090   6.036  -7.102  1.00  0.00     0.064 A 
ATOM     44  C   UNL     1       8.859   6.387  -5.981  1.00  0.00     0.173 A 
ATOM     45  C   UNL     1       7.474   7.072  -7.821  1.00  0.00     0.173 A 
ATOM     46  F   UNL     1       9.435   5.434  -5.232  1.00  0.00    -0.203 F 
ATOM     47  C   UNL     1       8.970   7.716  -5.575  1.00  0.00     0.198 A 
ATOM     48  C   UNL     1       7.612   8.401  -7.430  1.00  0.00     0.198 A 
ATOM     49  F   UNL     1       6.712   6.793  -8.889  1.00  0.00    -0.203 F 
ATOM     50  F   UNL     1       9.643   8.019  -4.456  1.00  0.00    -0.200 F 
ATOM     51  C   UNL     1       8.349   8.721  -6.301  1.00  0.00     0.200 A 
ATOM     52  F   UNL     1       7.008   9.370  -8.133  1.00  0.00    -0.200 F 
ATOM     53  F   UNL     1       8.441   9.996  -5.898  1.00  0.00    -0.200 F 
ENDBRANCH  29  43
BRANCH  30  54
ATOM     54  C   UNL     1       5.914  -3.655  -9.105  1.00  0.00     0.064 A 
ATOM     55  C   UNL     1       6.897  -4.645  -9.222  1.00  0.00     0.173 A 
ATOM     56  C   UNL     1       4.577  -4.046  -9.301  1.00  0.00     0.173 A 
ATOM     57  F   UNL     1       8.190  -4.327  -9.064  1.00  0.00    -0.203 F 
ATOM     58  C   UNL     1       6.562  -5.962  -9.542  1.00  0.00     0.198 A 
ATOM     59  C   UNL     1       4.241  -5.367  -9.587  1.00  0.00     0.198 A 
ATOM     60  F   UNL     1       3.591  -3.142  -9.206  1.00  0.00    -0.203 F 
ATOM     61  F   UNL     1       7.529  -6.878  -9.696  1.00  0.00    -0.200 F 
ATOM     62  C   UNL     1       5.235  -6.323  -9.718  1.00  0.00     0.200 A 
ATOM     63  F   UNL     1       2.955  -5.712  -9.740  1.00  0.00    -0.200 F 
ATOM     64  F   UNL     1       4.915  -7.588 -10.023  1.00  0.00    -0.200 F 
ENDBRANCH  30  54
BRANCH  42  65
ATOM     65  C   UNL     1       9.441   1.365 -12.452  1.00  0.00     0.064 A 
ATOM     66  C   UNL     1       8.764   1.331 -13.678  1.00  0.00     0.173 A 
ATOM     67  C   UNL     1      10.839   1.477 -12.467  1.00  0.00     0.173 A 
ATOM     68  F   UNL     1       7.428   1.210 -13.711  1.00  0.00    -0.203 F 
ATOM     69  C   UNL     1       9.465   1.386 -14.878  1.00  0.00     0.198 A 
ATOM     70  C   UNL     1      11.533   1.570 -13.667  1.00  0.00     0.198 A 
ATOM     71  F   UNL     1      11.527   1.523 -11.316  1.00  0.00    -0.203 F 
ATOM     72  F   UNL     1       8.805   1.304 -16.041  1.00  0.00    -0.200 F 
ATOM     73  C   UNL     1      10.847   1.517 -14.871  1.00  0.00     0.200 A 
ATOM     74  F   UNL     1      12.864   1.718 -13.658  1.00  0.00    -0.200 F 
ATOM     75  F   UNL     1      11.519   1.588 -16.028  1.00  0.00    -0.200 F 
ENDBRANCH  42  65
ENDBRANCH  16  17
ENDBRANCH   9  11
ENDBRANCH   8   9
ENDBRANCH   7   8
ENDBRANCH   6   7
ENDBRANCH   5   6
ENDBRANCH   4   5
ENDBRANCH   3   4
ENDBRANCH   2   3
ENDBRANCH   1   2
BRANCH   1  76
ATOM     76  C   UNL     1       5.114  -3.787  -0.520  1.00  0.00     0.188 C 
BRANCH  76  77
ATOM     77  O   UNL     1       4.146  -3.690  -1.533  1.00  0.00    -0.376 OA
BRANCH  77  78
ATOM     78  C   UNL     1       3.293  -4.798  -1.787  1.00  0.00     0.202 C 
BRANCH  78  79
ATOM     79  C   UNL     1       3.026  -5.972  -0.809  1.00  0.00     0.261 C 
BRANCH  79  80
ATOM     80  O   UNL     1       3.182  -5.751   0.606  1.00  0.00    -0.462 OA
BRANCH  80  81
ATOM     81  C   UNL     1       4.134  -6.482   1.233  1.00  0.00     0.329 C 
ATOM     82  O   UNL     1       4.829  -7.315   0.645  1.00  0.00    -0.250 OA
BRANCH  81  83
ATOM     83  C   UNL     1       4.430  -6.139   2.718  1.00  0.00     0.197 C 
BRANCH  83  84
ATOM     84  C   UNL     1       3.730  -5.082   3.605  1.00  0.00     0.072 C 
BRANCH  84  85
ATOM     85  C   UNL     1       2.259  -4.775   3.578  1.00  0.00    -0.045 A 
ATOM     86  C   UNL     1       1.858  -3.435   3.781  1.00  0.00     0.004 A 
ATOM     87  C   UNL     1       1.277  -5.752   3.452  1.00  0.00     0.004 A 
ATOM     88  C   UNL     1       0.514  -3.071   3.775  1.00  0.00     0.000 A 
ATOM     89  C   UNL     1      -0.074  -5.389   3.466  1.00  0.00     0.000 A 
ATOM     90  C   UNL     1      -0.454  -4.053   3.612  1.00  0.00     0.000 A 
ENDBRANCH  84  85
ENDBRANCH  83  84
BRANCH  83  91
ATOM     91  N   UNL     1       4.604  -7.388   3.476  1.00  0.00    -0.338 N 
ATOM     92  C   UNL     1       5.740  -8.064   3.816  1.00  0.00     0.258 C 
ATOM     93  H   UNL     1       3.767  -7.802   3.788  1.00  0.00     0.164 HD
ATOM     94  O   UNL     1       5.632  -9.185   4.333  1.00  0.00    -0.269 OA
BRANCH  92  95
ATOM     95  C   UNL     1       7.104  -7.563   3.538  1.00  0.00     0.117 A 
ATOM     96  C   UNL     1       7.942  -8.429   2.817  1.00  0.00     0.021 A 
ATOM     97  C   UNL     1       7.661  -6.376   4.024  1.00  0.00     0.282 A 
ATOM     98  C   UNL     1       9.283  -8.104   2.579  1.00  0.00     0.001 A 
ATOM     99  C   UNL     1       9.001  -6.029   3.771  1.00  0.00     0.086 A 
ATOM    100  C   UNL     1       9.812  -6.904   3.053  1.00  0.00     0.007 A 
BRANCH  97 101
ATOM    101  N   UNL     1       6.896  -5.458   4.835  1.00  0.00     0.063 N 
ATOM    102  O   UNL     1       6.857  -4.279   4.447  1.00  0.00    -0.258 OA
ATOM    103  O   UNL     1       6.345  -5.898   5.847  1.00  0.00    -0.258 OA
ENDBRANCH  97 101
ENDBRANCH  92  95
ENDBRANCH  83  91
ENDBRANCH  81  83
ENDBRANCH  80  81
ENDBRANCH  79  80
ENDBRANCH  78  79
ENDBRANCH  77  78
ENDBRANCH  76  77
ENDBRANCH   1  76
TORSDOF 25
