REMARK SMILES CCC1(C(=O)NCCc2ccc(C(=O)OCCOCCOCCOCCOC(=O)c3ccc(-c4c5nc(c(-c6c(F)c(F)c(F)c(F)c6F)c6ccc([nH]6)c(-c6c(F)c(F)c(F)c(F)c6F)c6nc(c(-c7c(F)c(F)c(F)c(F)c7F)c7ccc4[nH]7)C=C6)C=C5)cc3)cc2)CCCC1
REMARK SMILES IDX 19 1 18 2 17 3 16 4 15 5 13 6 14 7 12 8 9 9 10 10 94 11
REMARK SMILES IDX 11 12 93 13 8 14 7 15 6 16 4 17 5 18 3 20 95 21 98 22 96 23
REMARK SMILES IDX 97 24 2 25 1 26 20 27 21 28 22 29 23 30 24 31 25 32 26 33
REMARK SMILES IDX 27 34 28 35 29 36 30 37 31 38 92 39 32 40 91 41 33 42 34 43
REMARK SMILES IDX 35 44 85 45 36 46 90 47 84 48 86 49 37 50 89 51 83 52 82 53
REMARK SMILES IDX 38 55 70 56 50 57 69 58 51 59 54 60 68 61 87 62 52 63 53 64
REMARK SMILES IDX 67 66 88 67 55 68 39 69 40 70 48 71 41 72 42 73 46 74 49 75
REMARK SMILES IDX 43 76 44 77 47 78 45 79 71 80 72 81 80 82 73 83 74 84 78 85
REMARK SMILES IDX 81 86 75 87 76 88 79 89 77 90 56 91 57 92 65 93 58 94 59 95
REMARK SMILES IDX 63 96 66 97 60 98 61 99 64 100 62 101
REMARK H PARENT 6 19 86 54 54 65
REMARK Flexibility Score: inf
ROOT
ATOM      1  C   UNL     1      10.066   3.774  -3.006  1.00  0.00     0.188 C 
ENDROOT
BRANCH   1   2
ATOM      2  O   UNL     1      11.335   4.069  -3.567  1.00  0.00    -0.376 OA
BRANCH   2   3
ATOM      3  C   UNL     1      11.403   4.425  -4.936  1.00  0.00     0.202 C 
BRANCH   3   4
ATOM      4  C   UNL     1      10.765   5.760  -5.356  1.00  0.00     0.261 C 
BRANCH   4   5
ATOM      5  O   UNL     1       9.449   5.988  -4.840  1.00  0.00    -0.460 OA
BRANCH   5   6
ATOM      6  C   UNL     1       8.463   5.295  -5.446  1.00  0.00     0.338 C 
ATOM      7  O   UNL     1       8.571   4.579  -6.427  1.00  0.00    -0.246 OA
BRANCH   6   8
ATOM      8  C   UNL     1       7.271   5.325  -4.577  1.00  0.00     0.060 A 
ATOM      9  C   UNL     1       4.987   5.205  -2.962  1.00  0.00    -0.046 A 
ATOM     10  C   UNL     1       5.554   4.035  -3.485  1.00  0.00     0.004 A 
ATOM     11  C   UNL     1       5.651   6.427  -3.167  1.00  0.00     0.004 A 
ATOM     12  C   UNL     1       6.664   4.097  -4.314  1.00  0.00     0.016 A 
ATOM     13  C   UNL     1       6.796   6.489  -3.967  1.00  0.00     0.016 A 
BRANCH   9  14
ATOM     14  C   UNL     1       3.661   5.196  -2.232  1.00  0.00     0.056 C 
BRANCH  14  15
ATOM     15  C   UNL     1       2.776   3.979  -2.550  1.00  0.00     0.120 C 
BRANCH  15  16
ATOM     16  N   UNL     1       3.033   2.892  -1.628  1.00  0.00    -0.355 N 
ATOM     17  C   UNL     1       2.293   2.295  -0.669  1.00  0.00     0.226 C 
ATOM     18  O   UNL     1       2.952   1.580   0.096  1.00  0.00    -0.274 OA
ATOM     19  H   UNL     1       3.935   2.509  -1.720  1.00  0.00     0.163 HD
BRANCH  17  20
ATOM     20  C   UNL     1       0.771   2.503  -0.474  1.00  0.00     0.049 C 
ATOM     21  C   UNL     1      -0.077   2.411  -1.756  1.00  0.00     0.017 C 
ATOM     22  C   UNL     1       0.479   3.901   0.111  1.00  0.00     0.017 C 
ATOM     23  C   UNL     1      -0.643   3.795  -2.065  1.00  0.00     0.001 C 
ATOM     24  C   UNL     1      -0.177   4.744  -0.973  1.00  0.00     0.001 C 
BRANCH  20  25
ATOM     25  C   UNL     1       0.281   1.427   0.552  1.00  0.00     0.013 C 
ATOM     26  C   UNL     1       0.448  -0.029   0.110  1.00  0.00     0.005 C 
ENDBRANCH  20  25
ENDBRANCH  17  20
ENDBRANCH  15  16
ENDBRANCH  14  15
ENDBRANCH   9  14
ENDBRANCH   6   8
ENDBRANCH   5   6
ENDBRANCH   4   5
ENDBRANCH   3   4
ENDBRANCH   2   3
ENDBRANCH   1   2
BRANCH   1  27
ATOM     27  C   UNL     1       9.595   4.787  -1.940  1.00  0.00     0.188 C 
BRANCH  27  28
ATOM     28  O   UNL     1      10.255   6.042  -1.855  1.00  0.00    -0.377 OA
BRANCH  28  29
ATOM     29  C   UNL     1      11.679   6.085  -1.792  1.00  0.00     0.188 C 
BRANCH  29  30
ATOM     30  C   UNL     1      12.513   4.891  -1.264  1.00  0.00     0.188 C 
BRANCH  30  31
ATOM     31  O   UNL     1      11.752   3.858  -0.663  1.00  0.00    -0.376 OA
BRANCH  31  32
ATOM     32  C   UNL     1      11.836   3.716   0.743  1.00  0.00     0.202 C 
BRANCH  32  33
ATOM     33  C   UNL     1      11.321   4.888   1.591  1.00  0.00     0.261 C 
BRANCH  33  34
ATOM     34  O   UNL     1      11.854   6.184   1.274  1.00  0.00    -0.460 OA
BRANCH  34  35
ATOM     35  C   UNL     1      13.165   6.396   1.512  1.00  0.00     0.338 C 
ATOM     36  O   UNL     1      13.971   5.606   1.978  1.00  0.00    -0.246 OA
BRANCH  35  37
ATOM     37  C   UNL     1      13.517   7.707   0.930  1.00  0.00     0.060 A 
ATOM     38  C   UNL     1      14.469   7.773  -0.098  1.00  0.00     0.016 A 
ATOM     39  C   UNL     1      12.891   8.867   1.391  1.00  0.00     0.016 A 
ATOM     40  C   UNL     1      14.822   9.008  -0.644  1.00  0.00     0.010 A 
ATOM     41  C   UNL     1      13.264  10.104   0.861  1.00  0.00     0.010 A 
ATOM     42  C   UNL     1      14.256  10.183  -0.133  1.00  0.00    -0.014 A 
BRANCH  42  43
ATOM     43  C   UNL     1      14.851  11.499  -0.470  1.00  0.00     0.031 A 
ATOM     44  C   UNL     1      15.823  12.104   0.505  1.00  0.00     0.074 A 
ATOM     45  C   UNL     1      14.546  12.143  -1.610  1.00  0.00     0.049 A 
ATOM     46  N   UNL     1      16.413  13.271   0.482  1.00  0.00    -0.248 NA
ATOM     47  C   UNL     1      16.171  11.276   1.672  1.00  0.00     0.031 C 
ATOM     48  C   UNL     1      13.657  11.640  -2.653  1.00  0.00     0.029 A 
ATOM     49  N   UNL     1      14.947  13.373  -2.069  1.00  0.00    -0.354 N 
ATOM     50  C   UNL     1      17.190  13.321   1.632  1.00  0.00     0.074 A 
ATOM     51  C   UNL     1      16.972  12.083   2.348  1.00  0.00     0.031 C 
ATOM     52  C   UNL     1      13.566  12.563  -3.628  1.00  0.00     0.029 A 
ATOM     53  C   UNL     1      14.360  13.734  -3.256  1.00  0.00     0.049 A 
ATOM     54  H   UNL     1      15.595  13.941  -1.593  1.00  0.00     0.167 HD
ATOM     55  C   UNL     1      18.017  14.308   2.050  1.00  0.00     0.037 A 
ATOM     56  C   UNL     1      14.435  14.891  -3.945  1.00  0.00     0.037 A 
ATOM     57  C   UNL     1      18.226  15.540   1.337  1.00  0.00     0.049 A 
ATOM     58  C   UNL     1      15.298  16.011  -3.415  1.00  0.00     0.074 A 
ATOM     59  C   UNL     1      19.054  16.598   1.667  1.00  0.00     0.029 A 
ATOM     60  N   UNL     1      17.590  15.883   0.152  1.00  0.00    -0.354 N 
ATOM     61  N   UNL     1      16.050  16.045  -2.341  1.00  0.00    -0.248 NA
ATOM     62  C   UNL     1      15.325  17.255  -4.200  1.00  0.00     0.031 C 
ATOM     63  C   UNL     1      18.871  17.607   0.717  1.00  0.00     0.029 A 
ATOM     64  C   UNL     1      17.985  17.150  -0.245  1.00  0.00     0.049 A 
ATOM     65  H   UNL     1      16.953  15.311  -0.334  1.00  0.00     0.167 HD
ATOM     66  C   UNL     1      16.663  17.293  -2.339  1.00  0.00     0.074 A 
ATOM     67  C   UNL     1      16.205  17.982  -3.527  1.00  0.00     0.031 C 
ATOM     68  C   UNL     1      17.529  17.820  -1.438  1.00  0.00     0.037 A 
BRANCH  55  69
ATOM     69  C   UNL     1      18.728  14.109   3.358  1.00  0.00     0.064 A 
ATOM     70  C   UNL     1      19.743  13.152   3.512  1.00  0.00     0.173 A 
ATOM     71  C   UNL     1      18.404  14.904   4.467  1.00  0.00     0.173 A 
ATOM     72  F   UNL     1      20.081  12.354   2.487  1.00  0.00    -0.203 F 
ATOM     73  C   UNL     1      20.384  12.978   4.736  1.00  0.00     0.198 A 
ATOM     74  C   UNL     1      19.072  14.752   5.679  1.00  0.00     0.198 A 
ATOM     75  F   UNL     1      17.443  15.836   4.375  1.00  0.00    -0.203 F 
ATOM     76  F   UNL     1      21.311  12.020   4.875  1.00  0.00    -0.200 F 
ATOM     77  C   UNL     1      20.054  13.783   5.816  1.00  0.00     0.200 A 
ATOM     78  F   UNL     1      18.761  15.541   6.717  1.00  0.00    -0.200 F 
ATOM     79  F   UNL     1      20.678  13.621   6.990  1.00  0.00    -0.200 F 
ENDBRANCH  55  69
BRANCH  56  80
ATOM     80  C   UNL     1      13.661  15.063  -5.203  1.00  0.00     0.064 A 
ATOM     81  C   UNL     1      14.308  15.204  -6.439  1.00  0.00     0.173 A 
ATOM     82  C   UNL     1      12.259  15.122  -5.194  1.00  0.00     0.173 A 
ATOM     83  F   UNL     1      15.648  15.184  -6.499  1.00  0.00    -0.203 F 
ATOM     84  C   UNL     1      13.585  15.419  -7.611  1.00  0.00     0.198 A 
ATOM     85  C   UNL     1      11.536  15.304  -6.371  1.00  0.00     0.198 A 
ATOM     86  F   UNL     1      11.589  14.999  -4.038  1.00  0.00    -0.203 F 
ATOM     87  F   UNL     1      14.233  15.606  -8.770  1.00  0.00    -0.200 F 
ATOM     88  C   UNL     1      12.200  15.462  -7.577  1.00  0.00     0.200 A 
ATOM     89  F   UNL     1      10.197  15.332  -6.335  1.00  0.00    -0.200 F 
ATOM     90  F   UNL     1      11.505  15.667  -8.705  1.00  0.00    -0.200 F 
ENDBRANCH  56  80
BRANCH  68  91
ATOM     91  C   UNL     1      18.083  19.188  -1.722  1.00  0.00     0.064 A 
ATOM     92  C   UNL     1      17.289  20.342  -1.647  1.00  0.00     0.173 A 
ATOM     93  C   UNL     1      19.444  19.350  -2.027  1.00  0.00     0.173 A 
ATOM     94  F   UNL     1      15.980  20.244  -1.371  1.00  0.00    -0.203 F 
ATOM     95  C   UNL     1      17.829  21.602  -1.897  1.00  0.00     0.198 A 
ATOM     96  C   UNL     1      19.989  20.613  -2.240  1.00  0.00     0.198 A 
ATOM     97  F   UNL     1      20.253  18.282  -2.102  1.00  0.00    -0.203 F 
ATOM     98  F   UNL     1      17.039  22.684  -1.872  1.00  0.00    -0.200 F 
ATOM     99  C   UNL     1      19.179  21.737  -2.183  1.00  0.00     0.200 A 
ATOM    100  F   UNL     1      21.298  20.743  -2.498  1.00  0.00    -0.200 F 
ATOM    101  F   UNL     1      19.699  22.951  -2.412  1.00  0.00    -0.200 F 
ENDBRANCH  68  91
ENDBRANCH  42  43
ENDBRANCH  35  37
ENDBRANCH  34  35
ENDBRANCH  33  34
ENDBRANCH  32  33
ENDBRANCH  31  32
ENDBRANCH  30  31
ENDBRANCH  29  30
ENDBRANCH  28  29
ENDBRANCH  27  28
ENDBRANCH   1  27
TORSDOF 25
