REMARK SMILES CC(C)(C)c1ccc(C(=O)Oc2ccc([C@H]3[NH2+][C@@H](C(=O)OCCOCCOCCOCCOC(=O)c4ccc(-c5c6nc(c(-c7c(F)c(F)c(F)c(F)c7F)c7ccc([nH]7)c(-c7c(F)c(F)c(F)c(F)c7F)c7nc(c(-c8c(F)c(F)c(F)c(F)c8F)c8ccc5[nH]8)C=C7)C=C6)cc4)CS3)cc2)cc1
REMARK SMILES IDX 25 1 24 2 23 3 22 4 21 5 19 6 20 7 18 8 16 9 17 10 100 11
REMARK SMILES IDX 99 14 15 15 12 16 13 17 102 18 14 19 101 20 11 21 9 22 10 23
REMARK SMILES IDX 8 24 5 25 6 26 104 27 7 28 103 29 2 30 1 31 3 32 4 33 26 34
REMARK SMILES IDX 27 35 28 36 29 37 30 38 31 39 32 40 33 41 34 42 35 43 36 44
REMARK SMILES IDX 37 45 98 46 38 47 97 48 39 49 40 50 41 51 91 52 42 53 96 54
REMARK SMILES IDX 90 55 92 56 43 57 95 58 89 59 88 60 44 62 76 63 56 64 75 65
REMARK SMILES IDX 57 66 60 67 74 68 93 69 58 70 59 71 73 73 94 74 61 75 45 76
REMARK SMILES IDX 46 77 54 78 47 79 48 80 52 81 55 82 49 83 50 84 53 85 51 86
REMARK SMILES IDX 77 87 78 88 86 89 79 90 80 91 84 92 87 93 81 94 82 95 85 96
REMARK SMILES IDX 83 97 62 98 63 99 71 100 64 101 65 102 69 103 72 104 66 105
REMARK SMILES IDX 67 106 70 107 68 108
REMARK H PARENT 17 12 17 13 92 61 60 72
REMARK Flexibility Score: inf
ROOT
ATOM      1  C   UNL     1       1.596   6.195 -15.177  1.00  0.00     0.188 C 
ENDROOT
BRANCH   1   2
ATOM      2  O   UNL     1       1.172   5.854 -16.491  1.00  0.00    -0.376 OA
BRANCH   2   3
ATOM      3  C   UNL     1       1.116   4.476 -16.823  1.00  0.00     0.202 C 
BRANCH   3   4
ATOM      4  C   UNL     1       0.458   3.468 -15.861  1.00  0.00     0.261 C 
BRANCH   4   5
ATOM      5  O   UNL     1       0.853   3.517 -14.475  1.00  0.00    -0.459 OA
BRANCH   5   6
ATOM      6  C   UNL     1       2.133   3.199 -14.139  1.00  0.00     0.365 C 
ATOM      7  O   UNL     1       2.971   2.801 -14.935  1.00  0.00    -0.245 OA
BRANCH   6   8
ATOM      8  C   UNL     1       2.385   3.501 -12.642  1.00  0.00     0.304 C 
ATOM      9  C   UNL     1       3.233   5.055 -11.055  1.00  0.00     0.274 C 
ATOM     10  N   UNL     1       2.682   4.954 -12.405  1.00  0.00    -0.319 N 
ATOM     11  S   UNL     1       4.505   3.776 -11.027  1.00  0.00    -0.087 SA
ATOM     12  H   UNL     1       3.361   5.290 -13.088  1.00  0.00     0.348 HD
ATOM     13  H   UNL     1       1.839   5.521 -12.501  1.00  0.00     0.348 HD
ATOM     14  C   UNL     1       3.546   2.662 -12.102  1.00  0.00     0.153 C 
BRANCH   9  15
ATOM     15  C   UNL     1       3.626   6.478 -10.667  1.00  0.00     0.020 A 
ATOM     16  C   UNL     1       4.203   9.070  -9.662  1.00  0.00     0.131 A 
ATOM     17  C   UNL     1       2.880   8.670  -9.829  1.00  0.00     0.048 A 
ATOM     18  C   UNL     1       5.238   8.211 -10.025  1.00  0.00     0.048 A 
ATOM     19  C   UNL     1       2.599   7.392 -10.341  1.00  0.00     0.015 A 
ATOM     20  C   UNL     1       4.950   6.933 -10.539  1.00  0.00     0.015 A 
BRANCH  16  21
ATOM     21  O   UNL     1       4.436  10.292  -8.985  1.00  0.00    -0.423 OA
BRANCH  21  22
ATOM     22  C   UNL     1       5.403  11.158  -9.478  1.00  0.00     0.343 C 
ATOM     23  O   UNL     1       5.986  11.052 -10.548  1.00  0.00    -0.246 OA
BRANCH  22  24
ATOM     24  C   UNL     1       5.684  12.274  -8.519  1.00  0.00     0.060 A 
ATOM     25  C   UNL     1       6.373  14.442  -6.782  1.00  0.00    -0.043 A 
ATOM     26  C   UNL     1       7.037  14.241  -8.002  1.00  0.00     0.005 A 
ATOM     27  C   UNL     1       5.353  13.524  -6.456  1.00  0.00     0.005 A 
ATOM     28  C   UNL     1       6.698  13.179  -8.854  1.00  0.00     0.016 A 
ATOM     29  C   UNL     1       5.010  12.455  -7.308  1.00  0.00     0.016 A 
BRANCH  25  30
ATOM     30  C   UNL     1       6.735  15.599  -5.826  1.00  0.00    -0.013 C 
ATOM     31  C   UNL     1       5.491  16.469  -5.543  1.00  0.00     0.016 C 
ATOM     32  C   UNL     1       7.828  16.549  -6.374  1.00  0.00     0.016 C 
ATOM     33  C   UNL     1       7.261  15.028  -4.491  1.00  0.00     0.016 C 
ENDBRANCH  25  30
ENDBRANCH  22  24
ENDBRANCH  21  22
ENDBRANCH  16  21
ENDBRANCH   9  15
ENDBRANCH   6   8
ENDBRANCH   5   6
ENDBRANCH   4   5
ENDBRANCH   3   4
ENDBRANCH   2   3
ENDBRANCH   1   2
BRANCH   1  34
ATOM     34  C   UNL     1       0.412   6.359 -14.199  1.00  0.00     0.188 C 
BRANCH  34  35
ATOM     35  O   UNL     1      -0.846   6.027 -14.768  1.00  0.00    -0.377 OA
BRANCH  35  36
ATOM     36  C   UNL     1      -1.409   6.906 -15.736  1.00  0.00     0.188 C 
BRANCH  36  37
ATOM     37  C   UNL     1      -0.615   8.065 -16.392  1.00  0.00     0.188 C 
BRANCH  37  38
ATOM     38  O   UNL     1       0.421   8.607 -15.594  1.00  0.00    -0.376 OA
BRANCH  38  39
ATOM     39  C   UNL     1       0.285   9.891 -15.025  1.00  0.00     0.202 C 
BRANCH  39  40
ATOM     40  C   UNL     1      -0.751  10.039 -13.906  1.00  0.00     0.261 C 
BRANCH  40  41
ATOM     41  O   UNL     1      -2.053   9.512 -14.192  1.00  0.00    -0.460 OA
BRANCH  41  42
ATOM     42  C   UNL     1      -2.773  10.148 -15.139  1.00  0.00     0.338 C 
ATOM     43  O   UNL     1      -2.448  11.136 -15.777  1.00  0.00    -0.246 OA
BRANCH  42  44
ATOM     44  C   UNL     1      -3.969   9.328 -15.414  1.00  0.00     0.060 A 
ATOM     45  C   UNL     1      -4.170   8.836 -16.710  1.00  0.00     0.016 A 
ATOM     46  C   UNL     1      -4.862   9.012 -14.387  1.00  0.00     0.016 A 
ATOM     47  C   UNL     1      -5.286   8.050 -16.991  1.00  0.00     0.010 A 
ATOM     48  C   UNL     1      -5.996   8.250 -14.675  1.00  0.00     0.010 A 
ATOM     49  C   UNL     1      -6.229   7.798 -15.986  1.00  0.00    -0.014 A 
BRANCH  49  50
ATOM     50  C   UNL     1      -7.561   7.271 -16.360  1.00  0.00     0.031 A 
ATOM     51  C   UNL     1      -8.672   8.260 -16.574  1.00  0.00     0.074 A 
ATOM     52  C   UNL     1      -7.775   5.957 -16.539  1.00  0.00     0.049 A 
ATOM     53  N   UNL     1      -9.929   8.055 -16.872  1.00  0.00    -0.248 NA
ATOM     54  C   UNL     1      -8.313   9.681 -16.428  1.00  0.00     0.031 C 
ATOM     55  C   UNL     1      -6.766   4.909 -16.410  1.00  0.00     0.029 A 
ATOM     56  N   UNL     1      -8.925   5.282 -16.867  1.00  0.00    -0.354 N 
ATOM     57  C   UNL     1     -10.507   9.315 -16.947  1.00  0.00     0.074 A 
ATOM     58  C   UNL     1      -9.477  10.278 -16.625  1.00  0.00     0.031 C 
ATOM     59  C   UNL     1      -7.345   3.718 -16.648  1.00  0.00     0.029 A 
ATOM     60  C   UNL     1      -8.769   3.920 -16.912  1.00  0.00     0.049 A 
ATOM     61  H   UNL     1      -9.780   5.734 -17.052  1.00  0.00     0.167 HD
ATOM     62  C   UNL     1     -11.781   9.642 -17.267  1.00  0.00     0.037 A 
ATOM     63  C   UNL     1      -9.682   2.951 -17.121  1.00  0.00     0.037 A 
ATOM     64  C   UNL     1     -12.804   8.679 -17.575  1.00  0.00     0.049 A 
ATOM     65  C   UNL     1     -11.118   3.336 -17.383  1.00  0.00     0.074 A 
ATOM     66  C   UNL     1     -14.126   8.903 -17.915  1.00  0.00     0.029 A 
ATOM     67  N   UNL     1     -12.620   7.303 -17.567  1.00  0.00    -0.354 N 
ATOM     68  N   UNL     1     -11.656   4.529 -17.475  1.00  0.00    -0.248 NA
ATOM     69  C   UNL     1     -12.073   2.235 -17.576  1.00  0.00     0.031 C 
ATOM     70  C   UNL     1     -14.758   7.663 -18.051  1.00  0.00     0.029 A 
ATOM     71  C   UNL     1     -13.813   6.665 -17.868  1.00  0.00     0.049 A 
ATOM     72  H   UNL     1     -11.768   6.848 -17.376  1.00  0.00     0.167 HD
ATOM     73  C   UNL     1     -12.998   4.324 -17.773  1.00  0.00     0.074 A 
ATOM     74  C   UNL     1     -13.189   2.891 -17.859  1.00  0.00     0.031 C 
ATOM     75  C   UNL     1     -13.984   5.237 -17.961  1.00  0.00     0.037 A 
BRANCH  62  76
ATOM     76  C   UNL     1     -12.141  11.099 -17.264  1.00  0.00     0.064 A 
ATOM     77  C   UNL     1     -11.632  11.991 -18.221  1.00  0.00     0.173 A 
ATOM     78  C   UNL     1     -13.021  11.609 -16.297  1.00  0.00     0.173 A 
ATOM     79  F   UNL     1     -10.772  11.560 -19.156  1.00  0.00    -0.203 F 
ATOM     80  C   UNL     1     -11.965  13.343 -18.189  1.00  0.00     0.198 A 
ATOM     81  C   UNL     1     -13.380  12.954 -16.290  1.00  0.00     0.198 A 
ATOM     82  F   UNL     1     -13.537  10.801 -15.359  1.00  0.00    -0.203 F 
ATOM     83  F   UNL     1     -11.420  14.186 -19.078  1.00  0.00    -0.200 F 
ATOM     84  C   UNL     1     -12.844  13.822 -17.230  1.00  0.00     0.200 A 
ATOM     85  F   UNL     1     -14.240  13.412 -15.370  1.00  0.00    -0.200 F 
ATOM     86  F   UNL     1     -13.169  15.121 -17.205  1.00  0.00    -0.200 F 
ENDBRANCH  62  76
BRANCH  63  87
ATOM     87  C   UNL     1      -9.277   1.520 -17.084  1.00  0.00     0.064 A 
ATOM     88  C   UNL     1      -9.335   0.721 -18.235  1.00  0.00     0.173 A 
ATOM     89  C   UNL     1      -8.857   0.912 -15.892  1.00  0.00     0.173 A 
ATOM     90  F   UNL     1      -9.757   1.247 -19.395  1.00  0.00    -0.203 F 
ATOM     91  C   UNL     1      -9.012  -0.634 -18.189  1.00  0.00     0.198 A 
ATOM     92  C   UNL     1      -8.502  -0.435 -15.854  1.00  0.00     0.198 A 
ATOM     93  F   UNL     1      -8.788   1.628 -14.760  1.00  0.00    -0.203 F 
ATOM     94  F   UNL     1      -9.132  -1.386 -19.292  1.00  0.00    -0.200 F 
ATOM     95  C   UNL     1      -8.590  -1.210 -17.001  1.00  0.00     0.200 A 
ATOM     96  F   UNL     1      -8.084  -0.984 -14.706  1.00  0.00    -0.200 F 
ATOM     97  F   UNL     1      -8.279  -2.512 -16.957  1.00  0.00    -0.200 F 
ENDBRANCH  63  87
BRANCH  75  98
ATOM     98  C   UNL     1     -15.347   4.720 -18.331  1.00  0.00     0.064 A 
ATOM     99  C   UNL     1     -16.145   4.009 -17.422  1.00  0.00     0.173 A 
ATOM    100  C   UNL     1     -15.876   4.972 -19.607  1.00  0.00     0.173 A 
ATOM    101  F   UNL     1     -15.685   3.731 -16.192  1.00  0.00    -0.203 F 
ATOM    102  C   UNL     1     -17.404   3.539 -17.788  1.00  0.00     0.198 A 
ATOM    103  C   UNL     1     -17.150   4.534 -19.957  1.00  0.00     0.198 A 
ATOM    104  F   UNL     1     -15.161   5.656 -20.513  1.00  0.00    -0.203 F 
ATOM    105  F   UNL     1     -18.122   2.810 -16.923  1.00  0.00    -0.200 F 
ATOM    106  C   UNL     1     -17.908   3.808 -19.052  1.00  0.00     0.200 A 
ATOM    107  F   UNL     1     -17.642   4.812 -21.172  1.00  0.00    -0.200 F 
ATOM    108  F   UNL     1     -19.122   3.360 -19.400  1.00  0.00    -0.200 F 
ENDBRANCH  75  98
ENDBRANCH  49  50
ENDBRANCH  42  44
ENDBRANCH  41  42
ENDBRANCH  40  41
ENDBRANCH  39  40
ENDBRANCH  38  39
ENDBRANCH  37  38
ENDBRANCH  36  37
ENDBRANCH  35  36
ENDBRANCH  34  35
ENDBRANCH   1  34
TORSDOF 25
