REMARK SMILES CN(CC(=O)OCCOCCOCCOCCOC(=O)c1ccc(-c2c3nc(c(-c4c(F)c(F)c(F)c(F)c4F)c4ccc([nH]4)c(-c4c(F)c(F)c(F)c(F)c4F)c4nc(c(-c5c(F)c(F)c(F)c(F)c5F)c5ccc2[nH]5)C=C4)C=C3)cc1)c1ncc(-c2nnnn2-c2ccccc2)c(-c2ccc(Cl)cc2)n1
REMARK SMILES IDX 11 1 10 2 9 3 8 4 7 5 6 6 4 7 5 8 3 9 2 10 1 11 84 12 85 13
REMARK SMILES IDX 107 14 86 15 99 16 87 17 100 18 101 19 106 20 102 21 105 22
REMARK SMILES IDX 103 23 104 24 88 25 89 26 92 27 90 28 91 29 93 30 94 31
REMARK SMILES IDX 98 32 95 33 97 34 96 35 12 36 13 37 14 38 15 39 16 40 17 41
REMARK SMILES IDX 18 42 19 43 20 44 21 45 22 46 83 47 23 48 82 49 24 50 25 51
REMARK SMILES IDX 26 52 76 53 27 54 81 55 75 56 77 57 28 58 80 59 74 60 73 61
REMARK SMILES IDX 29 63 61 64 41 65 60 66 42 67 45 68 59 69 78 70 43 71 44 72
REMARK SMILES IDX 58 74 79 75 46 76 30 77 31 78 39 79 32 80 33 81 37 82 40 83
REMARK SMILES IDX 34 84 35 85 38 86 36 87 62 88 63 89 71 90 64 91 65 92 69 93
REMARK SMILES IDX 72 94 66 95 67 96 70 97 68 98 47 99 48 100 56 101 49 102
REMARK SMILES IDX 50 103 54 104 57 105 51 106 52 107 55 108 53 109
REMARK H PARENT 77 62 45 73
REMARK Flexibility Score: inf
ROOT
ATOM      1  C   UNL     1      -1.849  -2.668  -2.029  1.00  0.00     0.188 C 
ENDROOT
BRANCH   1   2
ATOM      2  C   UNL     1      -2.469  -3.870  -1.322  1.00  0.00     0.188 C 
BRANCH   2   3
ATOM      3  O   UNL     1      -3.810  -3.800  -0.885  1.00  0.00    -0.376 OA
BRANCH   3   4
ATOM      4  C   UNL     1      -4.287  -2.561  -0.392  1.00  0.00     0.202 C 
BRANCH   4   5
ATOM      5  C   UNL     1      -3.458  -1.745   0.638  1.00  0.00     0.261 C 
BRANCH   5   6
ATOM      6  O   UNL     1      -2.031  -1.563   0.389  1.00  0.00    -0.462 OA
BRANCH   6   7
ATOM      7  C   UNL     1      -1.150  -2.200   1.205  1.00  0.00     0.325 C 
ATOM      8  O   UNL     1      -1.514  -2.768   2.236  1.00  0.00    -0.250 OA
BRANCH   7   9
ATOM      9  C   UNL     1       0.344  -2.287   0.757  1.00  0.00     0.241 C 
BRANCH   9  10
ATOM     10  N   UNL     1       0.885  -1.482  -0.372  1.00  0.00    -0.333 N 
ATOM     11  C   UNL     1       1.155  -0.077  -0.147  1.00  0.00     0.147 C 
BRANCH  10  12
ATOM     12  C   UNL     1       1.534  -2.072  -1.461  1.00  0.00     0.226 A 
ATOM     13  N   UNL     1       1.133  -3.275  -1.891  1.00  0.00    -0.221 NA
ATOM     14  N   UNL     1       2.506  -1.417  -2.132  1.00  0.00    -0.212 NA
ATOM     15  C   UNL     1       1.553  -3.693  -3.123  1.00  0.00     0.129 A 
ATOM     16  C   UNL     1       2.990  -1.938  -3.313  1.00  0.00     0.087 A 
ATOM     17  C   UNL     1       2.394  -2.998  -3.977  1.00  0.00     0.066 A 
BRANCH  16  18
ATOM     18  C   UNL     1       4.398  -1.601  -3.615  1.00  0.00     0.001 A 
ATOM     19  C   UNL     1       5.404  -2.168  -2.807  1.00  0.00     0.012 A 
ATOM     20  C   UNL     1       4.800  -0.909  -4.764  1.00  0.00     0.012 A 
ATOM     21  C   UNL     1       6.750  -2.111  -3.175  1.00  0.00     0.021 A 
ATOM     22  C   UNL     1       6.144  -0.870  -5.150  1.00  0.00     0.021 A 
ATOM     23  C   UNL     1       7.112  -1.482  -4.360  1.00  0.00     0.041 A 
ATOM     24  Cl  UNL     1       8.757  -1.469  -4.860  1.00  0.00    -0.084 Cl
ENDBRANCH  16  18
BRANCH  17  25
ATOM     25  C   UNL     1       2.858  -3.624  -5.232  1.00  0.00     0.190 A 
ATOM     26  N   UNL     1       3.643  -4.691  -5.195  1.00  0.00    -0.108 NA
ATOM     27  N   UNL     1       2.402  -3.502  -6.570  1.00  0.00    -0.193 N 
ATOM     28  N   UNL     1       3.586  -5.287  -6.415  1.00  0.00    -0.023 NA
ATOM     29  N   UNL     1       2.770  -4.638  -7.219  1.00  0.00    -0.040 NA
BRANCH  27  30
ATOM     30  C   UNL     1       1.685  -2.527  -7.333  1.00  0.00     0.069 A 
ATOM     31  C   UNL     1       0.803  -2.981  -8.340  1.00  0.00     0.028 A 
ATOM     32  C   UNL     1       1.787  -1.151  -7.117  1.00  0.00     0.028 A 
ATOM     33  C   UNL     1       0.032  -2.080  -9.085  1.00  0.00     0.002 A 
ATOM     34  C   UNL     1       1.065  -0.250  -7.918  1.00  0.00     0.002 A 
ATOM     35  C   UNL     1       0.177  -0.712  -8.888  1.00  0.00     0.000 A 
ENDBRANCH  27  30
ENDBRANCH  17  25
ENDBRANCH  10  12
ENDBRANCH   9  10
ENDBRANCH   7   9
ENDBRANCH   6   7
ENDBRANCH   5   6
ENDBRANCH   4   5
ENDBRANCH   3   4
ENDBRANCH   2   3
ENDBRANCH   1   2
BRANCH   1  36
ATOM     36  O   UNL     1      -2.610  -1.501  -2.240  1.00  0.00    -0.377 OA
BRANCH  36  37
ATOM     37  C   UNL     1      -3.356  -1.327  -3.424  1.00  0.00     0.188 C 
BRANCH  37  38
ATOM     38  C   UNL     1      -3.745  -2.548  -4.259  1.00  0.00     0.188 C 
BRANCH  38  39
ATOM     39  O   UNL     1      -2.789  -3.590  -4.322  1.00  0.00    -0.376 OA
BRANCH  39  40
ATOM     40  C   UNL     1      -1.698  -3.484  -5.219  1.00  0.00     0.202 C 
BRANCH  40  41
ATOM     41  C   UNL     1      -0.781  -2.257  -5.134  1.00  0.00     0.261 C 
BRANCH  41  42
ATOM     42  O   UNL     1      -1.248  -0.978  -5.525  1.00  0.00    -0.460 OA
BRANCH  42  43
ATOM     43  C   UNL     1      -2.060  -0.891  -6.579  1.00  0.00     0.338 C 
ATOM     44  O   UNL     1      -2.463  -1.775  -7.320  1.00  0.00    -0.246 OA
BRANCH  43  45
ATOM     45  C   UNL     1      -2.595   0.460  -6.571  1.00  0.00     0.060 A 
ATOM     46  C   UNL     1      -3.982   0.564  -6.671  1.00  0.00     0.016 A 
ATOM     47  C   UNL     1      -1.766   1.580  -6.429  1.00  0.00     0.016 A 
ATOM     48  C   UNL     1      -4.552   1.815  -6.701  1.00  0.00     0.010 A 
ATOM     49  C   UNL     1      -2.338   2.839  -6.477  1.00  0.00     0.010 A 
ATOM     50  C   UNL     1      -3.724   2.943  -6.641  1.00  0.00    -0.014 A 
BRANCH  50  51
ATOM     51  C   UNL     1      -4.349   4.251  -6.818  1.00  0.00     0.031 A 
ATOM     52  C   UNL     1      -4.375   4.845  -8.185  1.00  0.00     0.074 A 
ATOM     53  C   UNL     1      -4.928   4.810  -5.748  1.00  0.00     0.049 A 
ATOM     54  N   UNL     1      -4.931   5.953  -8.588  1.00  0.00    -0.248 NA
ATOM     55  C   UNL     1      -3.686   4.090  -9.247  1.00  0.00     0.031 C 
ATOM     56  C   UNL     1      -4.936   4.231  -4.402  1.00  0.00     0.029 A 
ATOM     57  N   UNL     1      -5.622   5.975  -5.622  1.00  0.00    -0.354 N 
ATOM     58  C   UNL     1      -4.667   6.028  -9.947  1.00  0.00     0.074 A 
ATOM     59  C   UNL     1      -3.871   4.873 -10.299  1.00  0.00     0.031 C 
ATOM     60  C   UNL     1      -5.608   5.051  -3.581  1.00  0.00     0.029 A 
ATOM     61  C   UNL     1      -6.043   6.217  -4.341  1.00  0.00     0.049 A 
ATOM     62  H   UNL     1      -5.804   6.582  -6.376  1.00  0.00     0.167 HD
ATOM     63  C   UNL     1      -5.072   6.987 -10.810  1.00  0.00     0.037 A 
ATOM     64  C   UNL     1      -6.696   7.284  -3.853  1.00  0.00     0.037 A 
ATOM     65  C   UNL     1      -5.844   8.128 -10.393  1.00  0.00     0.049 A 
ATOM     66  C   UNL     1      -7.083   8.361  -4.828  1.00  0.00     0.074 A 
ATOM     67  C   UNL     1      -6.324   9.175 -11.154  1.00  0.00     0.029 A 
ATOM     68  N   UNL     1      -6.234   8.371  -9.079  1.00  0.00    -0.354 N 
ATOM     69  N   UNL     1      -6.867   8.419  -6.122  1.00  0.00    -0.248 NA
ATOM     70  C   UNL     1      -7.809   9.510  -4.284  1.00  0.00     0.031 C 
ATOM     71  C   UNL     1      -6.950  10.082 -10.291  1.00  0.00     0.029 A 
ATOM     72  C   UNL     1      -6.923   9.569  -9.002  1.00  0.00     0.049 A 
ATOM     73  H   UNL     1      -6.047   7.778  -8.316  1.00  0.00     0.167 HD
ATOM     74  C   UNL     1      -7.451   9.599  -6.556  1.00  0.00     0.074 A 
ATOM     75  C   UNL     1      -8.048  10.212  -5.383  1.00  0.00     0.031 C 
ATOM     76  C   UNL     1      -7.493  10.135  -7.802  1.00  0.00     0.037 A 
BRANCH  63  77
ATOM     77  C   UNL     1      -4.653   6.858 -12.246  1.00  0.00     0.064 A 
ATOM     78  C   UNL     1      -5.145   5.839 -13.077  1.00  0.00     0.173 A 
ATOM     79  C   UNL     1      -3.747   7.772 -12.804  1.00  0.00     0.173 A 
ATOM     80  F   UNL     1      -5.996   4.923 -12.591  1.00  0.00    -0.203 F 
ATOM     81  C   UNL     1      -4.727   5.726 -14.402  1.00  0.00     0.198 A 
ATOM     82  C   UNL     1      -3.355   7.676 -14.137  1.00  0.00     0.198 A 
ATOM     83  F   UNL     1      -3.236   8.762 -12.056  1.00  0.00    -0.203 F 
ATOM     84  F   UNL     1      -5.170   4.712 -15.159  1.00  0.00    -0.200 F 
ATOM     85  C   UNL     1      -3.839   6.649 -14.933  1.00  0.00     0.200 A 
ATOM     86  F   UNL     1      -2.501   8.573 -14.650  1.00  0.00    -0.200 F 
ATOM     87  F   UNL     1      -3.440   6.541 -16.208  1.00  0.00    -0.200 F 
ENDBRANCH  63  77
BRANCH  64  88
ATOM     88  C   UNL     1      -7.009   7.361  -2.405  1.00  0.00     0.064 A 
ATOM     89  C   UNL     1      -8.329   7.307  -1.943  1.00  0.00     0.173 A 
ATOM     90  C   UNL     1      -5.987   7.455  -1.447  1.00  0.00     0.173 A 
ATOM     91  F   UNL     1      -9.342   7.220  -2.818  1.00  0.00    -0.203 F 
ATOM     92  C   UNL     1      -8.618   7.366  -0.581  1.00  0.00     0.198 A 
ATOM     93  C   UNL     1      -6.275   7.482  -0.084  1.00  0.00     0.198 A 
ATOM     94  F   UNL     1      -4.703   7.494  -1.834  1.00  0.00    -0.203 F 
ATOM     95  F   UNL     1      -9.893   7.351  -0.169  1.00  0.00    -0.200 F 
ATOM     96  C   UNL     1      -7.591   7.447   0.347  1.00  0.00     0.200 A 
ATOM     97  F   UNL     1      -5.277   7.535   0.808  1.00  0.00    -0.200 F 
ATOM     98  F   UNL     1      -7.870   7.493   1.657  1.00  0.00    -0.200 F 
ENDBRANCH  64  88
BRANCH  76  99
ATOM     99  C   UNL     1      -8.232  11.432  -7.945  1.00  0.00     0.064 A 
ATOM    100  C   UNL     1      -7.727  12.629  -7.418  1.00  0.00     0.173 A 
ATOM    101  C   UNL     1      -9.447  11.477  -8.645  1.00  0.00     0.173 A 
ATOM    102  F   UNL     1      -6.577  12.631  -6.727  1.00  0.00    -0.203 F 
ATOM    103  C   UNL     1      -8.430  13.820  -7.557  1.00  0.00     0.198 A 
ATOM    104  C   UNL     1     -10.127  12.677  -8.816  1.00  0.00     0.198 A 
ATOM    105  F   UNL     1      -9.966  10.359  -9.175  1.00  0.00    -0.203 F 
ATOM    106  F   UNL     1      -7.962  14.941  -6.992  1.00  0.00    -0.200 F 
ATOM    107  C   UNL     1      -9.624  13.845  -8.263  1.00  0.00     0.200 A 
ATOM    108  F   UNL     1     -11.270  12.703  -9.515  1.00  0.00    -0.200 F 
ATOM    109  F   UNL     1     -10.296  14.996  -8.403  1.00  0.00    -0.200 F 
ENDBRANCH  76  99
ENDBRANCH  50  51
ENDBRANCH  43  45
ENDBRANCH  42  43
ENDBRANCH  41  42
ENDBRANCH  40  41
ENDBRANCH  39  40
ENDBRANCH  38  39
ENDBRANCH  37  38
ENDBRANCH  36  37
ENDBRANCH   1  36
TORSDOF 25
