REMARK SMILES COCCC(=O)NC[C@@H]1CC[C@@H](C(=O)OCCOCCOCCOCCOC(=O)c2ccc(-c3c4nc(c(-c5c(F)c(F)c(F)c(F)c5F)c5ccc([nH]5)c(-c5c(F)c(F)c(F)c(F)c5F)c5nc(c(-c6c(F)c(F)c(F)c(F)c6F)c6ccc3[nH]6)C=C5)C=C4)cc2)O1
REMARK SMILES IDX 19 1 18 2 17 3 16 4 15 5 13 6 14 7 12 8 9 9 10 10 93 11
REMARK SMILES IDX 11 12 8 13 7 14 5 15 6 16 4 18 3 19 2 20 1 21 20 22 21 23
REMARK SMILES IDX 22 24 23 25 24 26 25 27 26 28 27 29 28 30 29 31 30 32 31 33
REMARK SMILES IDX 92 34 32 35 91 36 33 37 34 38 35 39 85 40 36 41 90 42 84 43
REMARK SMILES IDX 86 44 37 45 89 46 83 47 82 48 38 50 70 51 50 52 69 53 51 54
REMARK SMILES IDX 54 55 68 56 87 57 52 58 53 59 67 61 88 62 55 63 39 64 40 65
REMARK SMILES IDX 48 66 41 67 42 68 46 69 49 70 43 71 44 72 47 73 45 74 71 75
REMARK SMILES IDX 72 76 80 77 73 78 74 79 78 80 81 81 75 82 76 83 79 84 77 85
REMARK SMILES IDX 56 86 57 87 65 88 58 89 59 90 63 91 66 92 60 93 61 94 64 95
REMARK SMILES IDX 62 96
REMARK H PARENT 7 17 86 49 54 60
REMARK Flexibility Score: inf
ROOT
ATOM      1  C   UNL     1       0.892  -4.098  -4.855  1.00  0.00     0.188 C 
ENDROOT
BRANCH   1   2
ATOM      2  O   UNL     1       1.925  -5.039  -5.118  1.00  0.00    -0.376 OA
BRANCH   2   3
ATOM      3  C   UNL     1       2.319  -5.999  -4.141  1.00  0.00     0.202 C 
BRANCH   3   4
ATOM      4  C   UNL     1       2.450  -5.644  -2.652  1.00  0.00     0.261 C 
BRANCH   4   5
ATOM      5  O   UNL     1       1.304  -4.970  -2.130  1.00  0.00    -0.461 OA
BRANCH   5   6
ATOM      6  C   UNL     1       1.498  -3.722  -1.629  1.00  0.00     0.335 C 
ATOM      7  O   UNL     1       2.587  -3.203  -1.423  1.00  0.00    -0.249 OA
BRANCH   6   8
ATOM      8  C   UNL     1       0.154  -3.002  -1.490  1.00  0.00     0.228 C 
ATOM      9  C   UNL     1       0.005  -1.105  -0.197  1.00  0.00     0.138 C 
ATOM     10  C   UNL     1      -0.522  -0.714  -1.556  1.00  0.00     0.037 C 
ATOM     11  O   UNL     1      -0.054  -2.535  -0.154  1.00  0.00    -0.361 OA
ATOM     12  C   UNL     1       0.110  -1.772  -2.413  1.00  0.00     0.047 C 
BRANCH   9  13
ATOM     13  C   UNL     1      -0.795  -0.522   0.955  1.00  0.00     0.147 C 
BRANCH  13  14
ATOM     14  N   UNL     1       0.040  -0.470   2.144  1.00  0.00    -0.353 N 
ATOM     15  C   UNL     1       0.675   0.612   2.674  1.00  0.00     0.222 C 
ATOM     16  O   UNL     1       1.560   0.441   3.512  1.00  0.00    -0.275 OA
ATOM     17  H   UNL     1       0.160  -1.321   2.625  1.00  0.00     0.163 HD
BRANCH  15  18
ATOM     18  C   UNL     1       0.274   2.000   2.230  1.00  0.00     0.128 C 
BRANCH  18  19
ATOM     19  C   UNL     1       1.249   2.571   1.214  1.00  0.00     0.169 C 
BRANCH  19  20
ATOM     20  O   UNL     1       1.216   1.842  -0.015  1.00  0.00    -0.384 OA
ATOM     21  C   UNL     1       2.490   1.282  -0.331  1.00  0.00     0.194 C 
ENDBRANCH  19  20
ENDBRANCH  18  19
ENDBRANCH  15  18
ENDBRANCH  13  14
ENDBRANCH   9  13
ENDBRANCH   6   8
ENDBRANCH   5   6
ENDBRANCH   4   5
ENDBRANCH   3   4
ENDBRANCH   2   3
ENDBRANCH   1   2
BRANCH   1  22
ATOM     22  C   UNL     1      -0.517  -4.572  -4.442  1.00  0.00     0.188 C 
BRANCH  22  23
ATOM     23  O   UNL     1      -0.536  -5.844  -3.835  1.00  0.00    -0.377 OA
BRANCH  23  24
ATOM     24  C   UNL     1      -0.872  -6.939  -4.678  1.00  0.00     0.188 C 
BRANCH  24  25
ATOM     25  C   UNL     1      -0.449  -6.898  -6.166  1.00  0.00     0.188 C 
BRANCH  25  26
ATOM     26  O   UNL     1      -0.727  -5.677  -6.837  1.00  0.00    -0.376 OA
BRANCH  26  27
ATOM     27  C   UNL     1      -1.893  -5.587  -7.644  1.00  0.00     0.202 C 
BRANCH  27  28
ATOM     28  C   UNL     1      -3.256  -5.654  -6.935  1.00  0.00     0.261 C 
BRANCH  28  29
ATOM     29  O   UNL     1      -3.501  -6.829  -6.148  1.00  0.00    -0.460 OA
BRANCH  29  30
ATOM     30  C   UNL     1      -3.490  -8.018  -6.794  1.00  0.00     0.338 C 
ATOM     31  O   UNL     1      -3.360  -8.204  -7.983  1.00  0.00    -0.246 OA
BRANCH  30  32
ATOM     32  C   UNL     1      -3.452  -9.087  -5.770  1.00  0.00     0.060 A 
ATOM     33  C   UNL     1      -2.366  -9.972  -5.769  1.00  0.00     0.016 A 
ATOM     34  C   UNL     1      -4.468  -9.215  -4.820  1.00  0.00     0.016 A 
ATOM     35  C   UNL     1      -2.311 -11.010  -4.840  1.00  0.00     0.010 A 
ATOM     36  C   UNL     1      -4.425 -10.274  -3.906  1.00  0.00     0.010 A 
ATOM     37  C   UNL     1      -3.363 -11.195  -3.935  1.00  0.00    -0.014 A 
BRANCH  37  38
ATOM     38  C   UNL     1      -3.437 -12.459  -3.160  1.00  0.00     0.031 A 
ATOM     39  C   UNL     1      -4.313 -13.566  -3.679  1.00  0.00     0.074 A 
ATOM     40  C   UNL     1      -2.699 -12.643  -2.051  1.00  0.00     0.049 A 
ATOM     41  N   UNL     1      -4.548 -14.751  -3.174  1.00  0.00    -0.248 NA
ATOM     42  C   UNL     1      -5.020 -13.302  -4.944  1.00  0.00     0.031 C 
ATOM     43  C   UNL     1      -1.778 -11.667  -1.475  1.00  0.00     0.029 A 
ATOM     44  N   UNL     1      -2.614 -13.725  -1.208  1.00  0.00    -0.354 N 
ATOM     45  C   UNL     1      -5.423 -15.370  -4.057  1.00  0.00     0.074 A 
ATOM     46  C   UNL     1      -5.709 -14.421  -5.110  1.00  0.00     0.031 C 
ATOM     47  C   UNL     1      -1.226 -12.190  -0.366  1.00  0.00     0.029 A 
ATOM     48  C   UNL     1      -1.780 -13.523  -0.136  1.00  0.00     0.049 A 
ATOM     49  H   UNL     1      -3.105 -14.565  -1.359  1.00  0.00     0.167 HD
ATOM     50  C   UNL     1      -5.932 -16.624  -4.002  1.00  0.00     0.037 A 
ATOM     51  C   UNL     1      -1.517 -14.318   0.920  1.00  0.00     0.037 A 
ATOM     52  C   UNL     1      -5.650 -17.567  -2.951  1.00  0.00     0.049 A 
ATOM     53  C   UNL     1      -2.171 -15.677   1.002  1.00  0.00     0.074 A 
ATOM     54  C   UNL     1      -6.115 -18.862  -2.807  1.00  0.00     0.029 A 
ATOM     55  N   UNL     1      -4.835 -17.311  -1.859  1.00  0.00    -0.354 N 
ATOM     56  N   UNL     1      -2.977 -16.265   0.151  1.00  0.00    -0.248 NA
ATOM     57  C   UNL     1      -1.871 -16.485   2.193  1.00  0.00     0.031 C 
ATOM     58  C   UNL     1      -5.628 -19.370  -1.599  1.00  0.00     0.029 A 
ATOM     59  C   UNL     1      -4.806 -18.416  -1.022  1.00  0.00     0.049 A 
ATOM     60  H   UNL     1      -4.349 -16.470  -1.701  1.00  0.00     0.167 HD
ATOM     61  C   UNL     1      -3.251 -17.519   0.686  1.00  0.00     0.074 A 
ATOM     62  C   UNL     1      -2.506 -17.615   1.922  1.00  0.00     0.031 C 
ATOM     63  C   UNL     1      -4.051 -18.502   0.201  1.00  0.00     0.037 A 
BRANCH  50  64
ATOM     64  C   UNL     1      -6.865 -17.047  -5.099  1.00  0.00     0.064 A 
ATOM     65  C   UNL     1      -6.407 -17.291  -6.403  1.00  0.00     0.173 A 
ATOM     66  C   UNL     1      -8.224 -17.266  -4.829  1.00  0.00     0.173 A 
ATOM     67  F   UNL     1      -5.120 -17.081  -6.718  1.00  0.00    -0.203 F 
ATOM     68  C   UNL     1      -7.279 -17.723  -7.399  1.00  0.00     0.198 A 
ATOM     69  C   UNL     1      -9.087 -17.728  -5.820  1.00  0.00     0.198 A 
ATOM     70  F   UNL     1      -8.713 -17.049  -3.599  1.00  0.00    -0.203 F 
ATOM     71  F   UNL     1      -6.828 -17.912  -8.647  1.00  0.00    -0.200 F 
ATOM     72  C   UNL     1      -8.615 -17.951  -7.104  1.00  0.00     0.200 A 
ATOM     73  F   UNL     1     -10.374 -17.961  -5.529  1.00  0.00    -0.200 F 
ATOM     74  F   UNL     1      -9.450 -18.383  -8.060  1.00  0.00    -0.200 F 
ENDBRANCH  50  64
BRANCH  51  75
ATOM     75  C   UNL     1      -0.613 -13.854   2.009  1.00  0.00     0.064 A 
ATOM     76  C   UNL     1       0.599 -14.507   2.276  1.00  0.00     0.173 A 
ATOM     77  C   UNL     1      -0.974 -12.788   2.846  1.00  0.00     0.173 A 
ATOM     78  F   UNL     1       0.978 -15.550   1.524  1.00  0.00    -0.203 F 
ATOM     79  C   UNL     1       1.395 -14.136   3.360  1.00  0.00     0.198 A 
ATOM     80  C   UNL     1      -0.160 -12.394   3.906  1.00  0.00     0.198 A 
ATOM     81  F   UNL     1      -2.125 -12.131   2.639  1.00  0.00    -0.203 F 
ATOM     82  F   UNL     1       2.510 -14.825   3.635  1.00  0.00    -0.200 F 
ATOM     83  C   UNL     1       1.016 -13.077   4.171  1.00  0.00     0.200 A 
ATOM     84  F   UNL     1      -0.525 -11.363   4.680  1.00  0.00    -0.200 F 
ATOM     85  F   UNL     1       1.777 -12.727   5.217  1.00  0.00    -0.200 F 
ENDBRANCH  51  75
BRANCH  63  86
ATOM     86  C   UNL     1      -4.126 -19.782   0.987  1.00  0.00     0.064 A 
ATOM     87  C   UNL     1      -4.747 -19.845   2.243  1.00  0.00     0.173 A 
ATOM     88  C   UNL     1      -3.587 -20.968   0.464  1.00  0.00     0.173 A 
ATOM     89  F   UNL     1      -5.269 -18.739   2.795  1.00  0.00    -0.203 F 
ATOM     90  C   UNL     1      -4.788 -21.036   2.964  1.00  0.00     0.198 A 
ATOM     91  C   UNL     1      -3.665 -22.166   1.169  1.00  0.00     0.198 A 
ATOM     92  F   UNL     1      -2.993 -20.970  -0.739  1.00  0.00    -0.203 F 
ATOM     93  F   UNL     1      -5.328 -21.056   4.191  1.00  0.00    -0.200 F 
ATOM     94  C   UNL     1      -4.253 -22.196   2.424  1.00  0.00     0.200 A 
ATOM     95  F   UNL     1      -3.165 -23.290   0.637  1.00  0.00    -0.200 F 
ATOM     96  F   UNL     1      -4.297 -23.342   3.118  1.00  0.00    -0.200 F 
ENDBRANCH  63  86
ENDBRANCH  37  38
ENDBRANCH  30  32
ENDBRANCH  29  30
ENDBRANCH  28  29
ENDBRANCH  27  28
ENDBRANCH  26  27
ENDBRANCH  25  26
ENDBRANCH  24  25
ENDBRANCH  23  24
ENDBRANCH  22  23
ENDBRANCH   1  22
TORSDOF 25
