REMARK SMILES C[NH+](C)[C@H](CC(=O)Nc1cccc(Cl)c1)C(=O)OCCOCCOCCOCCOC(=O)c1ccc(-c2c3nc(c(-c4c(F)c(F)c(F)c(F)c4F)c4ccc([nH]4)c(-c4c(F)c(F)c(F)c(F)c4F)c4nc(c(-c5c(F)c(F)c(F)c(F)c5F)c5ccc2[nH]5)C=C4)C=C3)cc1
REMARK SMILES IDX 23 1 22 2 21 3 20 4 19 5 18 6 16 7 17 8 4 9 2 10 1 11 3 12
REMARK SMILES IDX 5 14 6 15 7 16 8 17 9 19 10 20 15 21 11 22 13 23 12 24 14 25
REMARK SMILES IDX 24 26 25 27 26 28 27 29 28 30 29 31 30 32 31 33 32 34 33 35
REMARK SMILES IDX 34 36 95 37 35 38 94 39 36 40 37 41 38 42 88 43 39 44 93 45
REMARK SMILES IDX 87 46 89 47 40 48 92 49 86 50 85 51 41 53 73 54 53 55 72 56
REMARK SMILES IDX 54 57 57 58 71 59 90 60 55 61 56 62 70 64 91 65 58 66 42 67
REMARK SMILES IDX 43 68 51 69 44 70 45 71 49 72 52 73 46 74 47 75 50 76 48 77
REMARK SMILES IDX 74 78 75 79 83 80 76 81 77 82 81 83 84 84 78 85 79 86 82 87
REMARK SMILES IDX 80 88 59 89 60 90 68 91 61 92 62 93 66 94 69 95 63 96 64 97
REMARK SMILES IDX 67 98 65 99
REMARK H PARENT 2 13 8 18 89 52 57 63
REMARK Flexibility Score: inf
ROOT
ATOM      1  C   UNL     1       2.916   2.900  -1.064  1.00  0.00     0.188 C 
ENDROOT
BRANCH   1   2
ATOM      2  C   UNL     1       3.876   3.700  -0.175  1.00  0.00     0.188 C 
BRANCH   2   3
ATOM      3  O   UNL     1       4.990   3.074   0.486  1.00  0.00    -0.376 OA
BRANCH   3   4
ATOM      4  C   UNL     1       5.013   1.540   0.819  1.00  0.00     0.202 C 
BRANCH   4   5
ATOM      5  C   UNL     1       4.417   0.423   2.597  1.00  0.00     0.261 C 
BRANCH   5   6
ATOM      6  O   UNL     1       2.865  -0.095   2.947  1.00  0.00    -0.459 OA
BRANCH   6   7
ATOM      7  C   UNL     1       1.925   0.716   3.517  1.00  0.00     0.365 C 
ATOM      8  O   UNL     1       2.187   1.527   4.402  1.00  0.00    -0.245 OA
BRANCH   7   9
ATOM      9  C   UNL     1       0.534   0.686   2.763  1.00  0.00     0.304 C 
BRANCH   9  10
ATOM     10  N   UNL     1      -0.362  -0.240   3.478  1.00  0.00    -0.328 N 
ATOM     11  C   UNL     1      -0.069  -1.635   3.175  1.00  0.00     0.333 C 
ATOM     12  C   UNL     1      -1.773   0.077   3.262  1.00  0.00     0.333 C 
ATOM     13  H   UNL     1      -0.177  -0.107   4.473  1.00  0.00     0.348 HD
ENDBRANCH   9  10
BRANCH   9  14
ATOM     14  C   UNL     1       0.397   0.704   1.213  1.00  0.00     0.177 C 
BRANCH  14  15
ATOM     15  C   UNL     1       1.004  -0.381   0.363  1.00  0.00     0.231 C 
ATOM     16  O   UNL     1       0.286  -1.178  -0.249  1.00  0.00    -0.274 OA
ATOM     17  N   UNL     1       2.342  -0.493   0.202  1.00  0.00    -0.326 N 
ATOM     18  H   UNL     1       2.629  -1.185  -0.436  1.00  0.00     0.169 HD
BRANCH  17  19
ATOM     19  C   UNL     1       3.375   0.222   0.801  1.00  0.00     0.042 A 
ATOM     20  C   UNL     1       3.210   1.811   1.694  1.00  0.00     0.026 A 
ATOM     21  C   UNL     1       4.972  -0.596   0.780  1.00  0.00     0.046 A 
ATOM     22  C   UNL     1       4.610   2.488   2.629  1.00  0.00     0.004 A 
ATOM     23  C   UNL     1       6.353   0.087   1.688  1.00  0.00     0.043 A 
ATOM     24  C   UNL     1       6.185   1.622   2.583  1.00  0.00     0.020 A 
ATOM     25  Cl  UNL     1       7.909  -0.617   1.483  1.00  0.00    -0.084 Cl
ENDBRANCH  17  19
ENDBRANCH  14  15
ENDBRANCH   9  14
ENDBRANCH   7   9
ENDBRANCH   6   7
ENDBRANCH   5   6
ENDBRANCH   4   5
ENDBRANCH   3   4
ENDBRANCH   2   3
ENDBRANCH   1   2
BRANCH   1  26
ATOM     26  O   UNL     1       3.376   2.101  -2.130  1.00  0.00    -0.377 OA
BRANCH  26  27
ATOM     27  C   UNL     1       4.738   1.848  -2.389  1.00  0.00     0.188 C 
BRANCH  27  28
ATOM     28  C   UNL     1       5.673   3.005  -2.722  1.00  0.00     0.188 C 
BRANCH  28  29
ATOM     29  O   UNL     1       5.308   3.965  -3.703  1.00  0.00    -0.376 OA
BRANCH  29  30
ATOM     30  C   UNL     1       3.938   4.188  -3.963  1.00  0.00     0.202 C 
BRANCH  30  31
ATOM     31  C   UNL     1       3.303   3.262  -5.024  1.00  0.00     0.261 C 
BRANCH  31  32
ATOM     32  O   UNL     1       3.673   1.864  -5.028  1.00  0.00    -0.460 OA
BRANCH  32  33
ATOM     33  C   UNL     1       4.870   1.530  -5.582  1.00  0.00     0.338 C 
ATOM     34  O   UNL     1       5.650   2.282  -6.139  1.00  0.00    -0.246 OA
BRANCH  33  35
ATOM     35  C   UNL     1       5.211   0.104  -5.277  1.00  0.00     0.060 A 
ATOM     36  C   UNL     1       6.390  -0.181  -4.562  1.00  0.00     0.016 A 
ATOM     37  C   UNL     1       4.396  -0.949  -5.691  1.00  0.00     0.016 A 
ATOM     38  C   UNL     1       6.778  -1.502  -4.303  1.00  0.00     0.010 A 
ATOM     39  C   UNL     1       4.809  -2.275  -5.474  1.00  0.00     0.010 A 
ATOM     40  C   UNL     1       6.023  -2.562  -4.816  1.00  0.00    -0.014 A 
BRANCH  40  41
ATOM     41  C   UNL     1       6.609  -3.933  -4.878  1.00  0.00     0.031 A 
ATOM     42  C   UNL     1       7.222  -4.384  -6.181  1.00  0.00     0.074 A 
ATOM     43  C   UNL     1       6.631  -4.761  -3.816  1.00  0.00     0.049 A 
ATOM     44  N   UNL     1       7.705  -5.553  -6.521  1.00  0.00    -0.248 NA
ATOM     45  C   UNL     1       7.298  -3.372  -7.247  1.00  0.00     0.031 C 
ATOM     46  C   UNL     1       6.143  -4.436  -2.479  1.00  0.00     0.029 A 
ATOM     47  N   UNL     1       7.073  -6.060  -3.705  1.00  0.00    -0.354 N 
ATOM     48  C   UNL     1       8.120  -5.422  -7.841  1.00  0.00     0.074 A 
ATOM     49  C   UNL     1       7.814  -4.069  -8.249  1.00  0.00     0.031 C 
ATOM     50  C   UNL     1       6.288  -5.515  -1.687  1.00  0.00     0.029 A 
ATOM     51  C   UNL     1       6.839  -6.621  -2.471  1.00  0.00     0.049 A 
ATOM     52  H   UNL     1       7.516  -6.543  -4.440  1.00  0.00     0.167 HD
ATOM     53  C   UNL     1       8.706  -6.344  -8.642  1.00  0.00     0.037 A 
ATOM     54  C   UNL     1       7.014  -7.887  -2.038  1.00  0.00     0.037 A 
ATOM     55  C   UNL     1       9.015  -7.691  -8.236  1.00  0.00     0.049 A 
ATOM     56  C   UNL     1       7.580  -8.925  -2.982  1.00  0.00     0.074 A 
ATOM     57  C   UNL     1       9.625  -8.692  -8.971  1.00  0.00     0.029 A 
ATOM     58  N   UNL     1       8.727  -8.228  -6.991  1.00  0.00    -0.354 N 
ATOM     59  N   UNL     1       7.986  -8.788  -4.221  1.00  0.00    -0.248 NA
ATOM     60  C   UNL     1       7.715 -10.295  -2.462  1.00  0.00     0.031 C 
ATOM     61  C   UNL     1       9.635  -9.857  -8.199  1.00  0.00     0.029 A 
ATOM     62  C   UNL     1       9.111  -9.559  -6.952  1.00  0.00     0.049 A 
ATOM     63  H   UNL     1       8.310  -7.737  -6.246  1.00  0.00     0.167 HD
ATOM     64  C   UNL     1       8.457 -10.038  -4.613  1.00  0.00     0.074 A 
ATOM     65  C   UNL     1       8.305 -10.916  -3.474  1.00  0.00     0.031 C 
ATOM     66  C   UNL     1       8.969 -10.423  -5.808  1.00  0.00     0.037 A 
BRANCH  53  67
ATOM     67  C   UNL     1       9.022  -5.949 -10.057  1.00  0.00     0.064 A 
ATOM     68  C   UNL     1      10.034  -5.028 -10.365  1.00  0.00     0.173 A 
ATOM     69  C   UNL     1       8.339  -6.552 -11.126  1.00  0.00     0.173 A 
ATOM     70  F   UNL     1      10.710  -4.414  -9.383  1.00  0.00    -0.203 F 
ATOM     71  C   UNL     1      10.336  -4.710 -11.688  1.00  0.00     0.198 A 
ATOM     72  C   UNL     1       8.668  -6.260 -12.446  1.00  0.00     0.198 A 
ATOM     73  F   UNL     1       7.366  -7.445 -10.889  1.00  0.00    -0.203 F 
ATOM     74  F   UNL     1      11.277  -3.795 -11.957  1.00  0.00    -0.200 F 
ATOM     75  C   UNL     1       9.661  -5.334 -12.726  1.00  0.00     0.200 A 
ATOM     76  F   UNL     1       8.028  -6.880 -13.447  1.00  0.00    -0.200 F 
ATOM     77  F   UNL     1       9.966  -5.042 -13.998  1.00  0.00    -0.200 F 
ENDBRANCH  53  67
BRANCH  54  78
ATOM     78  C   UNL     1       6.614  -8.277  -0.655  1.00  0.00     0.064 A 
ATOM     79  C   UNL     1       7.559  -8.737   0.275  1.00  0.00     0.173 A 
ATOM     80  C   UNL     1       5.269  -8.260  -0.254  1.00  0.00     0.173 A 
ATOM     81  F   UNL     1       8.855  -8.803  -0.064  1.00  0.00    -0.203 F 
ATOM     82  C   UNL     1       7.171  -9.195   1.534  1.00  0.00     0.198 A 
ATOM     83  C   UNL     1       4.888  -8.680   1.020  1.00  0.00     0.198 A 
ATOM     84  F   UNL     1       4.320  -7.836  -1.101  1.00  0.00    -0.203 F 
ATOM     85  F   UNL     1       8.088  -9.697   2.373  1.00  0.00    -0.200 F 
ATOM     86  C   UNL     1       5.837  -9.161   1.908  1.00  0.00     0.200 A 
ATOM     87  F   UNL     1       3.598  -8.629   1.381  1.00  0.00    -0.200 F 
ATOM     88  F   UNL     1       5.465  -9.603   3.116  1.00  0.00    -0.200 F 
ENDBRANCH  54  78
BRANCH  66  89
ATOM     89  C   UNL     1       9.458 -11.841  -5.936  1.00  0.00     0.064 A 
ATOM     90  C   UNL     1       8.582 -12.937  -5.920  1.00  0.00     0.173 A 
ATOM     91  C   UNL     1      10.826 -12.103  -6.118  1.00  0.00     0.173 A 
ATOM     92  F   UNL     1       7.266 -12.746  -5.740  1.00  0.00    -0.203 F 
ATOM     93  C   UNL     1       9.059 -14.240  -6.044  1.00  0.00     0.198 A 
ATOM     94  C   UNL     1      11.295 -13.404  -6.284  1.00  0.00     0.198 A 
ATOM     95  F   UNL     1      11.710 -11.095  -6.154  1.00  0.00    -0.203 F 
ATOM     96  F   UNL     1       8.209 -15.273  -5.963  1.00  0.00    -0.200 F 
ATOM     97  C   UNL     1      10.413 -14.472  -6.235  1.00  0.00     0.200 A 
ATOM     98  F   UNL     1      12.601 -13.623  -6.491  1.00  0.00    -0.200 F 
ATOM     99  F   UNL     1      10.869 -15.725  -6.364  1.00  0.00    -0.200 F 
ENDBRANCH  66  89
ENDBRANCH  40  41
ENDBRANCH  33  35
ENDBRANCH  32  33
ENDBRANCH  31  32
ENDBRANCH  30  31
ENDBRANCH  29  30
ENDBRANCH  28  29
ENDBRANCH  27  28
ENDBRANCH  26  27
ENDBRANCH   1  26
TORSDOF 24
