REMARK SMILES O=C(OCCOCCOCCOCCOC(=O)c1ccc(-c2c3nc(c(-c4c(F)c(F)c(F)c(F)c4F)c4ccc([nH]4)c(-c4c(F)c(F)c(F)c(F)c4F)c4nc(c(-c5c(F)c(F)c(F)c(F)c5F)c5ccc2[nH]5)C=C4)C=C3)cc1)C1=Cc2cc(OC(F)(F)F)ccc2O[C@@H]1C(F)(F)F
REMARK SMILES IDX 9 1 8 2 7 3 6 4 5 5 4 6 3 7 2 8 1 9 81 10 82 11 95 12 83 13
REMARK SMILES IDX 94 14 84 15 93 16 85 17 92 18 91 19 96 20 97 21 98 22 99 23
REMARK SMILES IDX 86 24 87 25 88 26 89 27 90 28 10 29 11 30 12 31 13 32 14 33
REMARK SMILES IDX 15 34 16 35 17 36 18 37 19 38 80 39 20 40 79 41 21 42 22 43
REMARK SMILES IDX 23 44 73 45 24 46 78 47 72 48 74 49 25 50 77 51 71 52 70 53
REMARK SMILES IDX 26 55 58 56 38 57 57 58 39 59 42 60 56 61 75 62 40 63 41 64
REMARK SMILES IDX 55 66 76 67 43 68 27 69 28 70 36 71 29 72 30 73 34 74 37 75
REMARK SMILES IDX 31 76 32 77 35 78 33 79 59 80 60 81 68 82 61 83 62 84 66 85
REMARK SMILES IDX 69 86 63 87 64 88 67 89 65 90 44 91 45 92 53 93 46 94 47 95
REMARK SMILES IDX 51 96 54 97 48 98 49 99 52 100 50 101
REMARK H PARENT 74 54 42 65
REMARK Flexibility Score: inf
ROOT
ATOM      1  O   UNL     1       2.818  -2.639   3.080  1.00  0.00    -0.377 OA
ENDROOT
BRANCH   1   2
ATOM      2  C   UNL     1       1.970  -2.029   2.134  1.00  0.00     0.188 C 
BRANCH   2   3
ATOM      3  C   UNL     1       2.299  -2.311   0.657  1.00  0.00     0.188 C 
BRANCH   3   4
ATOM      4  O   UNL     1       3.622  -2.119   0.042  1.00  0.00    -0.376 OA
BRANCH   4   5
ATOM      5  C   UNL     1       4.361  -0.814  -0.690  1.00  0.00     0.202 C 
BRANCH   5   6
ATOM      6  C   UNL     1       3.636   1.246  -0.723  1.00  0.00     0.261 C 
BRANCH   6   7
ATOM      7  O   UNL     1       2.696   1.851  -1.743  1.00  0.00    -0.460 OA
BRANCH   7   8
ATOM      8  C   UNL     1       2.872   1.331  -2.963  1.00  0.00     0.338 C 
ATOM      9  O   UNL     1       2.188   1.487  -3.944  1.00  0.00    -0.246 OA
BRANCH   8  10
ATOM     10  C   UNL     1       3.747   0.236  -2.573  1.00  0.00     0.087 C 
ATOM     11  C   UNL     1       5.132   0.641  -2.302  1.00  0.00     0.027 C 
ATOM     12  C   UNL     1       2.517  -0.403  -1.243  1.00  0.00     0.316 C 
ATOM     13  C   UNL     1       5.835   0.820  -0.658  1.00  0.00     0.021 A 
ATOM     14  O   UNL     1       3.197  -0.078   0.559  1.00  0.00    -0.475 OA
ATOM     15  C   UNL     1       7.145   1.186  -0.522  1.00  0.00     0.058 A 
ATOM     16  C   UNL     1       4.904   0.579   0.773  1.00  0.00     0.128 A 
ATOM     17  C   UNL     1       7.638   1.298   0.797  1.00  0.00     0.130 A 
ATOM     18  C   UNL     1       5.441   0.742   2.025  1.00  0.00     0.051 A 
ATOM     19  C   UNL     1       6.830   1.089   1.995  1.00  0.00     0.050 A 
BRANCH  12  20
ATOM     20  C   UNL     1       2.205  -1.817  -2.087  1.00  0.00     0.430 C 
ATOM     21  F   UNL     1       1.316  -2.683  -1.568  1.00  0.00    -0.167 F 
ATOM     22  F   UNL     1       1.641  -1.441  -3.276  1.00  0.00    -0.167 F 
ATOM     23  F   UNL     1       3.301  -2.528  -2.451  1.00  0.00    -0.167 F 
ENDBRANCH  12  20
BRANCH  17  24
ATOM     24  O   UNL     1       8.974   1.629   0.772  1.00  0.00    -0.406 OA
BRANCH  24  25
ATOM     25  C   UNL     1       9.715   1.709   1.972  1.00  0.00     0.573 C 
ATOM     26  F   UNL     1       9.244   2.696   2.760  1.00  0.00    -0.132 F 
ATOM     27  F   UNL     1       9.685   0.539   2.640  1.00  0.00    -0.132 F 
ATOM     28  F   UNL     1      11.001   1.990   1.662  1.00  0.00    -0.132 F 
ENDBRANCH  24  25
ENDBRANCH  17  24
ENDBRANCH   8  10
ENDBRANCH   7   8
ENDBRANCH   6   7
ENDBRANCH   5   6
ENDBRANCH   4   5
ENDBRANCH   3   4
ENDBRANCH   2   3
ENDBRANCH   1   2
BRANCH   1  29
ATOM     29  C   UNL     1       4.156  -2.235   2.922  1.00  0.00     0.188 C 
BRANCH  29  30
ATOM     30  C   UNL     1       5.134  -3.283   2.379  1.00  0.00     0.188 C 
BRANCH  30  31
ATOM     31  O   UNL     1       4.730  -4.519   1.816  1.00  0.00    -0.376 OA
BRANCH  31  32
ATOM     32  C   UNL     1       3.518  -5.153   2.176  1.00  0.00     0.202 C 
BRANCH  32  33
ATOM     33  C   UNL     1       3.237  -5.600   3.616  1.00  0.00     0.261 C 
BRANCH  33  34
ATOM     34  O   UNL     1       3.523  -4.641   4.640  1.00  0.00    -0.460 OA
BRANCH  34  35
ATOM     35  C   UNL     1       4.777  -4.702   5.129  1.00  0.00     0.338 C 
ATOM     36  O   UNL     1       5.630  -5.533   4.867  1.00  0.00    -0.246 OA
BRANCH  35  37
ATOM     37  C   UNL     1       5.069  -3.496   5.931  1.00  0.00     0.060 A 
ATOM     38  C   UNL     1       6.303  -2.864   5.712  1.00  0.00     0.016 A 
ATOM     39  C   UNL     1       4.202  -3.031   6.922  1.00  0.00     0.016 A 
ATOM     40  C   UNL     1       6.721  -1.835   6.541  1.00  0.00     0.010 A 
ATOM     41  C   UNL     1       4.640  -2.024   7.786  1.00  0.00     0.010 A 
ATOM     42  C   UNL     1       5.932  -1.485   7.639  1.00  0.00    -0.014 A 
BRANCH  42  43
ATOM     43  C   UNL     1       6.609  -0.816   8.772  1.00  0.00     0.031 A 
ATOM     44  C   UNL     1       7.077  -1.677   9.917  1.00  0.00     0.074 A 
ATOM     45  C   UNL     1       6.907   0.491   8.730  1.00  0.00     0.049 A 
ATOM     46  N   UNL     1       7.715  -1.339  11.008  1.00  0.00    -0.248 NA
ATOM     47  C   UNL     1       6.785  -3.117   9.816  1.00  0.00     0.031 C 
ATOM     48  C   UNL     1       6.577   1.398   7.633  1.00  0.00     0.029 A 
ATOM     49  N   UNL     1       7.569   1.278   9.636  1.00  0.00    -0.354 N 
ATOM     50  C   UNL     1       7.877  -2.518  11.727  1.00  0.00     0.074 A 
ATOM     51  C   UNL     1       7.243  -3.572  10.970  1.00  0.00     0.031 C 
ATOM     52  C   UNL     1       7.037   2.624   7.932  1.00  0.00     0.029 A 
ATOM     53  C   UNL     1       7.659   2.592   9.256  1.00  0.00     0.049 A 
ATOM     54  H   UNL     1       7.943   0.933  10.479  1.00  0.00     0.167 HD
ATOM     55  C   UNL     1       8.505  -2.702  12.912  1.00  0.00     0.037 A 
ATOM     56  C   UNL     1       8.167   3.648   9.918  1.00  0.00     0.037 A 
ATOM     57  C   UNL     1       9.138  -1.644  13.653  1.00  0.00     0.049 A 
ATOM     58  C   UNL     1       8.783   3.429  11.277  1.00  0.00     0.074 A 
ATOM     59  C   UNL     1       9.819  -1.720  14.854  1.00  0.00     0.029 A 
ATOM     60  N   UNL     1       9.154  -0.311  13.267  1.00  0.00    -0.354 N 
ATOM     61  N   UNL     1       8.947   2.315  11.949  1.00  0.00    -0.248 NA
ATOM     62  C   UNL     1       9.296   4.622  11.966  1.00  0.00     0.031 C 
ATOM     63  C   UNL     1      10.169  -0.422  15.238  1.00  0.00     0.029 A 
ATOM     64  C   UNL     1       9.798   0.452  14.228  1.00  0.00     0.049 A 
ATOM     65  H   UNL     1       8.766   0.041  12.433  1.00  0.00     0.167 HD
ATOM     66  C   UNL     1       9.619   2.663  13.115  1.00  0.00     0.074 A 
ATOM     67  C   UNL     1       9.845   4.092  13.048  1.00  0.00     0.031 C 
ATOM     68  C   UNL     1      10.021   1.874  14.143  1.00  0.00     0.037 A 
BRANCH  55  69
ATOM     69  C   UNL     1       8.485  -4.083  13.506  1.00  0.00     0.064 A 
ATOM     70  C   UNL     1       9.165  -5.164  12.922  1.00  0.00     0.173 A 
ATOM     71  C   UNL     1       7.781  -4.324  14.697  1.00  0.00     0.173 A 
ATOM     72  F   UNL     1       9.843  -4.997  11.777  1.00  0.00    -0.203 F 
ATOM     73  C   UNL     1       9.110  -6.436  13.488  1.00  0.00     0.198 A 
ATOM     74  C   UNL     1       7.763  -5.587  15.281  1.00  0.00     0.198 A 
ATOM     75  F   UNL     1       7.113  -3.329  15.301  1.00  0.00    -0.203 F 
ATOM     76  F   UNL     1       9.714  -7.466  12.877  1.00  0.00    -0.200 F 
ATOM     77  C   UNL     1       8.417  -6.645  14.670  1.00  0.00     0.200 A 
ATOM     78  F   UNL     1       7.108  -5.779  16.434  1.00  0.00    -0.200 F 
ATOM     79  F   UNL     1       8.372  -7.867  15.218  1.00  0.00    -0.200 F 
ENDBRANCH  55  69
BRANCH  56  80
ATOM     80  C   UNL     1       8.114   5.005   9.314  1.00  0.00     0.064 A 
ATOM     81  C   UNL     1       9.287   5.692   8.970  1.00  0.00     0.173 A 
ATOM     82  C   UNL     1       6.891   5.658   9.096  1.00  0.00     0.173 A 
ATOM     83  F   UNL     1      10.482   5.120   9.177  1.00  0.00    -0.203 F 
ATOM     84  C   UNL     1       9.241   6.988   8.461  1.00  0.00     0.198 A 
ATOM     85  C   UNL     1       6.844   6.939   8.551  1.00  0.00     0.198 A 
ATOM     86  F   UNL     1       5.738   5.046   9.404  1.00  0.00    -0.203 F 
ATOM     87  F   UNL     1      10.380   7.643   8.200  1.00  0.00    -0.200 F 
ATOM     88  C   UNL     1       8.019   7.608   8.247  1.00  0.00     0.200 A 
ATOM     89  F   UNL     1       5.661   7.526   8.327  1.00  0.00    -0.200 F 
ATOM     90  F   UNL     1       7.975   8.854   7.755  1.00  0.00    -0.200 F 
ENDBRANCH  56  80
BRANCH  68  91
ATOM     91  C   UNL     1      10.808   2.526  15.248  1.00  0.00     0.064 A 
ATOM     92  C   UNL     1      10.243   3.475  16.112  1.00  0.00     0.173 A 
ATOM     93  C   UNL     1      12.154   2.177  15.453  1.00  0.00     0.173 A 
ATOM     94  F   UNL     1       8.964   3.851  15.961  1.00  0.00    -0.203 F 
ATOM     95  C   UNL     1      11.008   4.090  17.101  1.00  0.00     0.198 A 
ATOM     96  C   UNL     1      12.901   2.758  16.473  1.00  0.00     0.198 A 
ATOM     97  F   UNL     1      12.745   1.264  14.667  1.00  0.00    -0.203 F 
ATOM     98  F   UNL     1      10.468   5.054  17.860  1.00  0.00    -0.200 F 
ATOM     99  C   UNL     1      12.334   3.727  17.284  1.00  0.00     0.200 A 
ATOM    100  F   UNL     1      14.174   2.385  16.663  1.00  0.00    -0.200 F 
ATOM    101  F   UNL     1      13.067   4.318  18.237  1.00  0.00    -0.200 F 
ENDBRANCH  68  91
ENDBRANCH  42  43
ENDBRANCH  35  37
ENDBRANCH  34  35
ENDBRANCH  33  34
ENDBRANCH  32  33
ENDBRANCH  31  32
ENDBRANCH  30  31
ENDBRANCH  29  30
ENDBRANCH   1  29
TORSDOF 23
