REMARK SMILES Cc1cc(C)c2c(OCCCC(=O)OCCOCCOCCOCCOC(=O)c3ccc(-c4c5nc(c(-c6c(F)c(F)c(F)c(F)c6F)c6ccc([nH]6)c(-c6c(F)c(F)c(F)c(F)c6F)c6nc(c(-c7c(F)c(F)c(F)c(F)c7F)c7ccc4[nH]7)C=C6)C=C5)cc3)nsc2n1
REMARK SMILES IDX 19 1 18 2 17 3 16 4 15 5 14 6 12 7 13 8 11 9 10 10 9 11 8 12
REMARK SMILES IDX 7 13 1 14 2 15 3 16 95 17 4 18 94 19 5 20 6 21 93 22 92 23
REMARK SMILES IDX 20 24 21 25 22 26 23 27 24 28 25 29 26 30 27 31 28 32 29 33
REMARK SMILES IDX 30 34 91 35 31 36 90 37 32 38 33 39 34 40 84 41 35 42 89 43
REMARK SMILES IDX 83 44 85 45 36 46 88 47 82 48 81 49 37 51 69 52 49 53 68 54
REMARK SMILES IDX 50 55 53 56 67 57 86 58 51 59 52 60 66 62 87 63 54 64 38 65
REMARK SMILES IDX 39 66 47 67 40 68 41 69 45 70 48 71 42 72 43 73 46 74 44 75
REMARK SMILES IDX 70 76 71 77 79 78 72 79 73 80 77 81 80 82 74 83 75 84 78 85
REMARK SMILES IDX 76 86 55 87 56 88 64 89 57 90 58 91 62 92 65 93 59 94 60 95
REMARK SMILES IDX 63 96 61 97
REMARK H PARENT 85 50 53 61
REMARK Flexibility Score: inf
ROOT
ATOM      1  C   UNL     1      -2.897   0.869  -5.760  1.00  0.00     0.188 C 
ENDROOT
BRANCH   1   2
ATOM      2  C   UNL     1      -2.229   0.236  -4.561  1.00  0.00     0.188 C 
BRANCH   2   3
ATOM      3  O   UNL     1      -2.854  -0.826  -3.860  1.00  0.00    -0.376 OA
BRANCH   3   4
ATOM      4  C   UNL     1      -2.811  -0.692  -2.432  1.00  0.00     0.202 C 
BRANCH   4   5
ATOM      5  C   UNL     1      -1.490  -0.251  -1.762  1.00  0.00     0.261 C 
BRANCH   5   6
ATOM      6  O   UNL     1      -0.837   0.922  -2.331  1.00  0.00    -0.463 OA
BRANCH   6   7
ATOM      7  C   UNL     1       0.237   0.725  -3.145  1.00  0.00     0.305 C 
ATOM      8  O   UNL     1       0.679  -0.390  -3.397  1.00  0.00    -0.252 OA
BRANCH   7   9
ATOM      9  C   UNL     1       0.878   2.002  -3.707  1.00  0.00     0.126 C 
BRANCH   9  10
ATOM     10  C   UNL     1       0.266   2.919  -4.790  1.00  0.00     0.053 C 
BRANCH  10  11
ATOM     11  C   UNL     1      -0.733   4.075  -4.532  1.00  0.00     0.232 C 
BRANCH  11  12
ATOM     12  O   UNL     1      -0.350   5.299  -3.899  1.00  0.00    -0.477 OA
BRANCH  12  13
ATOM     13  C   UNL     1       0.410   5.206  -2.791  1.00  0.00     0.235 A 
ATOM     14  C   UNL     1       1.319   1.143   0.718  1.00  0.00     0.067 C 
ATOM     15  C   UNL     1       0.871   2.479   0.190  1.00  0.00     0.039 A 
ATOM     16  C   UNL     1      -0.470   2.658  -0.137  1.00  0.00     0.027 A 
ATOM     17  N   UNL     1       1.835   3.365  -0.117  1.00  0.00    -0.240 NA
ATOM     18  C   UNL     1      -0.852   3.619  -1.091  1.00  0.00    -0.034 A 
ATOM     19  C   UNL     1       1.441   4.310  -0.989  1.00  0.00     0.147 A 
ATOM     20  C   UNL     1      -2.265   3.602  -1.606  1.00  0.00     0.045 C 
ATOM     21  C   UNL     1       0.199   4.411  -1.615  1.00  0.00     0.078 A 
ATOM     22  S   UNL     1       2.495   5.504  -1.597  1.00  0.00    -0.012 S 
ATOM     23  N   UNL     1       1.510   5.952  -2.856  1.00  0.00    -0.153 NA
ENDBRANCH  12  13
ENDBRANCH  11  12
ENDBRANCH  10  11
ENDBRANCH   9  10
ENDBRANCH   7   9
ENDBRANCH   6   7
ENDBRANCH   5   6
ENDBRANCH   4   5
ENDBRANCH   3   4
ENDBRANCH   2   3
ENDBRANCH   1   2
BRANCH   1  24
ATOM     24  O   UNL     1      -4.166   1.453  -5.546  1.00  0.00    -0.377 OA
BRANCH  24  25
ATOM     25  C   UNL     1      -4.992   0.892  -4.550  1.00  0.00     0.188 C 
BRANCH  25  26
ATOM     26  C   UNL     1      -5.704  -0.468  -4.751  1.00  0.00     0.188 C 
BRANCH  26  27
ATOM     27  O   UNL     1      -5.309  -1.605  -5.500  1.00  0.00    -0.376 OA
BRANCH  27  28
ATOM     28  C   UNL     1      -4.454  -1.690  -6.623  1.00  0.00     0.202 C 
BRANCH  28  29
ATOM     29  C   UNL     1      -4.688  -0.905  -7.928  1.00  0.00     0.261 C 
BRANCH  29  30
ATOM     30  O   UNL     1      -5.194   0.393  -7.713  1.00  0.00    -0.460 OA
BRANCH  30  31
ATOM     31  C   UNL     1      -6.509   0.358  -7.425  1.00  0.00     0.338 C 
ATOM     32  O   UNL     1      -7.256  -0.594  -7.549  1.00  0.00    -0.246 OA
BRANCH  31  33
ATOM     33  C   UNL     1      -6.950   1.679  -6.930  1.00  0.00     0.060 A 
ATOM     34  C   UNL     1      -8.309   1.686  -6.633  1.00  0.00     0.016 A 
ATOM     35  C   UNL     1      -6.270   2.804  -7.412  1.00  0.00     0.016 A 
ATOM     36  C   UNL     1      -9.054   2.547  -7.379  1.00  0.00     0.010 A 
ATOM     37  C   UNL     1      -7.013   3.699  -8.124  1.00  0.00     0.010 A 
ATOM     38  C   UNL     1      -8.368   3.422  -8.230  1.00  0.00    -0.014 A 
BRANCH  38  39
ATOM     39  C   UNL     1      -9.125   3.967  -9.319  1.00  0.00     0.031 A 
ATOM     40  C   UNL     1     -10.021   5.037  -8.879  1.00  0.00     0.074 A 
ATOM     41  C   UNL     1      -9.024   3.487 -10.568  1.00  0.00     0.049 A 
ATOM     42  N   UNL     1     -11.301   4.974  -8.738  1.00  0.00    -0.248 NA
ATOM     43  C   UNL     1      -9.387   6.231  -8.310  1.00  0.00     0.031 C 
ATOM     44  C   UNL     1      -8.034   2.589 -11.166  1.00  0.00     0.029 A 
ATOM     45  N   UNL     1      -9.833   3.792 -11.610  1.00  0.00    -0.354 N 
ATOM     46  C   UNL     1     -11.662   6.197  -8.197  1.00  0.00     0.074 A 
ATOM     47  C   UNL     1     -10.444   6.843  -7.782  1.00  0.00     0.031 C 
ATOM     48  C   UNL     1      -8.178   2.609 -12.514  1.00  0.00     0.029 A 
ATOM     49  C   UNL     1      -9.351   3.398 -12.846  1.00  0.00     0.049 A 
ATOM     50  H   UNL     1     -10.694   4.256 -11.498  1.00  0.00     0.167 HD
ATOM     51  C   UNL     1     -12.924   6.678  -8.332  1.00  0.00     0.037 A 
ATOM     52  C   UNL     1      -9.868   3.819 -14.026  1.00  0.00     0.037 A 
ATOM     53  C   UNL     1     -13.855   5.630  -8.662  1.00  0.00     0.049 A 
ATOM     54  C   UNL     1     -11.263   4.280 -13.750  1.00  0.00     0.074 A 
ATOM     55  C   UNL     1     -14.304   4.506  -7.993  1.00  0.00     0.029 A 
ATOM     56  N   UNL     1     -14.168   5.423  -9.986  1.00  0.00    -0.354 N 
ATOM     57  N   UNL     1     -12.229   3.470 -13.405  1.00  0.00    -0.248 NA
ATOM     58  C   UNL     1     -11.455   5.674 -13.364  1.00  0.00     0.031 C 
ATOM     59  C   UNL     1     -14.425   3.498  -8.993  1.00  0.00     0.029 A 
ATOM     60  C   UNL     1     -14.091   4.071 -10.220  1.00  0.00     0.049 A 
ATOM     61  H   UNL     1     -14.403   6.117 -10.644  1.00  0.00     0.167 HD
ATOM     62  C   UNL     1     -12.950   4.155 -12.434  1.00  0.00     0.074 A 
ATOM     63  C   UNL     1     -12.461   5.531 -12.495  1.00  0.00     0.031 C 
ATOM     64  C   UNL     1     -13.660   3.493 -11.473  1.00  0.00     0.037 A 
BRANCH  51  65
ATOM     65  C   UNL     1     -13.230   8.141  -8.466  1.00  0.00     0.064 A 
ATOM     66  C   UNL     1     -14.566   8.572  -8.414  1.00  0.00     0.173 A 
ATOM     67  C   UNL     1     -12.291   9.107  -8.896  1.00  0.00     0.173 A 
ATOM     68  F   UNL     1     -15.542   7.729  -8.045  1.00  0.00    -0.203 F 
ATOM     69  C   UNL     1     -14.938   9.856  -8.815  1.00  0.00     0.198 A 
ATOM     70  C   UNL     1     -12.657  10.405  -9.234  1.00  0.00     0.198 A 
ATOM     71  F   UNL     1     -11.004   8.811  -9.114  1.00  0.00    -0.203 F 
ATOM     72  F   UNL     1     -16.235  10.188  -8.858  1.00  0.00    -0.200 F 
ATOM     73  C   UNL     1     -13.984  10.771  -9.224  1.00  0.00     0.200 A 
ATOM     74  F   UNL     1     -11.716  11.268  -9.643  1.00  0.00    -0.200 F 
ATOM     75  F   UNL     1     -14.344  11.986  -9.656  1.00  0.00    -0.200 F 
ENDBRANCH  51  65
BRANCH  52  76
ATOM     76  C   UNL     1      -9.114   4.199 -15.242  1.00  0.00     0.064 A 
ATOM     77  C   UNL     1      -9.756   4.334 -16.482  1.00  0.00     0.173 A 
ATOM     78  C   UNL     1      -7.796   4.695 -15.161  1.00  0.00     0.173 A 
ATOM     79  F   UNL     1     -11.027   3.935 -16.628  1.00  0.00    -0.203 F 
ATOM     80  C   UNL     1      -9.122   4.940 -17.572  1.00  0.00     0.198 A 
ATOM     81  C   UNL     1      -7.163   5.294 -16.250  1.00  0.00     0.198 A 
ATOM     82  F   UNL     1      -7.128   4.692 -13.998  1.00  0.00    -0.203 F 
ATOM     83  F   UNL     1      -9.784   5.100 -18.727  1.00  0.00    -0.200 F 
ATOM     84  C   UNL     1      -7.830   5.427 -17.453  1.00  0.00     0.200 A 
ATOM     85  F   UNL     1      -5.928   5.795 -16.108  1.00  0.00    -0.200 F 
ATOM     86  F   UNL     1      -7.243   6.057 -18.480  1.00  0.00    -0.200 F 
ENDBRANCH  52  76
BRANCH  64  87
ATOM     87  C   UNL     1     -13.780   1.998 -11.601  1.00  0.00     0.064 A 
ATOM     88  C   UNL     1     -12.681   1.125 -11.504  1.00  0.00     0.173 A 
ATOM     89  C   UNL     1     -15.056   1.421 -11.642  1.00  0.00     0.173 A 
ATOM     90  F   UNL     1     -11.440   1.600 -11.354  1.00  0.00    -0.203 F 
ATOM     91  C   UNL     1     -12.851  -0.259 -11.487  1.00  0.00     0.198 A 
ATOM     92  C   UNL     1     -15.226   0.039 -11.588  1.00  0.00     0.198 A 
ATOM     93  F   UNL     1     -16.145   2.203 -11.672  1.00  0.00    -0.203 F 
ATOM     94  F   UNL     1     -11.785  -1.068 -11.396  1.00  0.00    -0.200 F 
ATOM     95  C   UNL     1     -14.125  -0.801 -11.519  1.00  0.00     0.200 A 
ATOM     96  F   UNL     1     -16.462  -0.479 -11.566  1.00  0.00    -0.200 F 
ATOM     97  F   UNL     1     -14.294  -2.129 -11.451  1.00  0.00    -0.200 F 
ENDBRANCH  64  87
ENDBRANCH  38  39
ENDBRANCH  31  33
ENDBRANCH  30  31
ENDBRANCH  29  30
ENDBRANCH  28  29
ENDBRANCH  27  28
ENDBRANCH  26  27
ENDBRANCH  25  26
ENDBRANCH  24  25
ENDBRANCH   1  24
TORSDOF 24
