REMARK SMILES Cc1cc(C)c2c(c1)C=C(C(=O)OCCOCCOCCOCCOC(=O)c1ccc(-c3c4nc(c(-c5c(F)c(F)c(F)c(F)c5F)c5ccc([nH]5)c(-c5c(F)c(F)c(F)c(F)c5F)c5nc(c(-c6c(F)c(F)c(F)c(F)c6F)c6ccc3[nH]6)C=C5)C=C4)cc1)[C@@H](C(F)(F)F)O2
REMARK SMILES IDX 20 1 19 2 18 3 17 4 16 5 15 6 14 7 13 8 11 9 12 10 10 11
REMARK SMILES IDX 1 12 2 13 3 14 8 15 4 16 7 17 5 18 6 19 9 20 96 21 91 22
REMARK SMILES IDX 92 23 93 24 94 25 95 26 21 27 22 28 23 29 24 30 25 31 26 32
REMARK SMILES IDX 27 33 28 34 29 35 90 36 30 37 89 38 31 39 32 40 33 41 83 42
REMARK SMILES IDX 34 43 88 44 82 45 84 46 35 47 87 48 81 49 80 50 36 52 68 53
REMARK SMILES IDX 48 54 67 55 49 56 52 57 66 58 85 59 50 60 51 61 65 63 86 64
REMARK SMILES IDX 53 65 37 66 38 67 46 68 39 69 40 70 44 71 47 72 41 73 42 74
REMARK SMILES IDX 45 75 43 76 69 77 70 78 78 79 71 80 72 81 76 82 79 83 73 84
REMARK SMILES IDX 74 85 77 86 75 87 54 88 55 89 63 90 56 91 57 92 61 93 64 94
REMARK SMILES IDX 58 95 59 96 62 97 60 98
REMARK H PARENT 84 51 52 62
REMARK Flexibility Score: inf
ROOT
ATOM      1  C   UNL     1      -1.267  -4.609   8.610  1.00  0.00     0.188 C 
ENDROOT
BRANCH   1   2
ATOM      2  O   UNL     1      -1.314  -4.479   7.188  1.00  0.00    -0.377 OA
BRANCH   2   3
ATOM      3  C   UNL     1      -1.114  -3.194   6.622  1.00  0.00     0.188 C 
BRANCH   3   4
ATOM      4  C   UNL     1      -2.303  -2.234   6.805  1.00  0.00     0.188 C 
BRANCH   4   5
ATOM      5  O   UNL     1      -3.253  -2.701   7.758  1.00  0.00    -0.376 OA
BRANCH   5   6
ATOM      6  C   UNL     1      -4.475  -3.231   7.265  1.00  0.00     0.202 C 
BRANCH   6   7
ATOM      7  C   UNL     1      -4.407  -4.540   6.464  1.00  0.00     0.261 C 
BRANCH   7   8
ATOM      8  O   UNL     1      -3.491  -4.540   5.361  1.00  0.00    -0.460 OA
BRANCH   8   9
ATOM      9  C   UNL     1      -3.783  -3.752   4.307  1.00  0.00     0.338 C 
ATOM     10  O   UNL     1      -4.777  -3.063   4.167  1.00  0.00    -0.246 OA
BRANCH   9  11
ATOM     11  C   UNL     1      -2.605  -3.740   3.411  1.00  0.00     0.087 C 
ATOM     12  C   UNL     1       0.914   0.029   0.025  1.00  0.00     0.044 C 
ATOM     13  C   UNL     1       0.471  -1.267   0.638  1.00  0.00    -0.050 A 
ATOM     14  C   UNL     1       1.057  -2.471   0.232  1.00  0.00     0.010 A 
ATOM     15  C   UNL     1      -0.583  -1.300   1.558  1.00  0.00     0.015 A 
ATOM     16  C   UNL     1       0.625  -3.698   0.758  1.00  0.00    -0.008 A 
ATOM     17  C   UNL     1      -1.040  -2.518   2.077  1.00  0.00     0.018 A 
ATOM     18  C   UNL     1       1.254  -4.979   0.288  1.00  0.00     0.048 C 
ATOM     19  C   UNL     1      -0.411  -3.709   1.705  1.00  0.00     0.130 A 
ATOM     20  C   UNL     1      -2.205  -2.551   2.945  1.00  0.00     0.027 C 
ATOM     21  O   UNL     1      -0.768  -4.929   2.206  1.00  0.00    -0.475 OA
ATOM     22  C   UNL     1      -1.877  -5.031   3.138  1.00  0.00     0.316 C 
BRANCH  22  23
ATOM     23  C   UNL     1      -2.813  -6.134   2.625  1.00  0.00     0.430 C 
ATOM     24  F   UNL     1      -2.127  -7.264   2.329  1.00  0.00    -0.167 F 
ATOM     25  F   UNL     1      -3.747  -6.482   3.541  1.00  0.00    -0.167 F 
ATOM     26  F   UNL     1      -3.472  -5.755   1.506  1.00  0.00    -0.167 F 
ENDBRANCH  22  23
ENDBRANCH   9  11
ENDBRANCH   8   9
ENDBRANCH   7   8
ENDBRANCH   6   7
ENDBRANCH   5   6
ENDBRANCH   4   5
ENDBRANCH   3   4
ENDBRANCH   2   3
ENDBRANCH   1   2
BRANCH   1  27
ATOM     27  C   UNL     1      -1.204  -3.390   9.564  1.00  0.00     0.188 C 
BRANCH  27  28
ATOM     28  O   UNL     1      -0.419  -2.305   9.086  1.00  0.00    -0.376 OA
BRANCH  28  29
ATOM     29  C   UNL     1       0.818  -2.069   9.740  1.00  0.00     0.202 C 
BRANCH  29  30
ATOM     30  C   UNL     1       1.921  -3.070   9.376  1.00  0.00     0.261 C 
BRANCH  30  31
ATOM     31  O   UNL     1       1.640  -4.437   9.714  1.00  0.00    -0.460 OA
BRANCH  31  32
ATOM     32  C   UNL     1       1.452  -4.729  11.020  1.00  0.00     0.338 C 
ATOM     33  O   UNL     1       1.542  -3.973  11.970  1.00  0.00    -0.246 OA
BRANCH  32  34
ATOM     34  C   UNL     1       0.915  -6.102  11.090  1.00  0.00     0.060 A 
ATOM     35  C   UNL     1      -0.336  -6.313  11.684  1.00  0.00     0.016 A 
ATOM     36  C   UNL     1       1.633  -7.170  10.546  1.00  0.00     0.016 A 
ATOM     37  C   UNL     1      -0.859  -7.603  11.762  1.00  0.00     0.010 A 
ATOM     38  C   UNL     1       1.120  -8.465  10.647  1.00  0.00     0.010 A 
ATOM     39  C   UNL     1      -0.112  -8.689  11.285  1.00  0.00    -0.014 A 
BRANCH  39  40
ATOM     40  C   UNL     1      -0.510 -10.065  11.666  1.00  0.00     0.031 A 
ATOM     41  C   UNL     1       0.090 -10.645  12.917  1.00  0.00     0.074 A 
ATOM     42  C   UNL     1      -1.406 -10.768  10.953  1.00  0.00     0.049 A 
ATOM     43  N   UNL     1      -0.107 -11.814  13.469  1.00  0.00    -0.248 NA
ATOM     44  C   UNL     1       1.039  -9.786  13.646  1.00  0.00     0.031 C 
ATOM     45  C   UNL     1      -2.086 -10.297   9.749  1.00  0.00     0.029 A 
ATOM     46  N   UNL     1      -1.901 -12.034  11.149  1.00  0.00    -0.354 N 
ATOM     47  C   UNL     1       0.677 -11.822  14.614  1.00  0.00     0.074 A 
ATOM     48  C   UNL     1       1.389 -10.565  14.658  1.00  0.00     0.031 C 
ATOM     49  C   UNL     1      -2.915 -11.263   9.313  1.00  0.00     0.029 A 
ATOM     50  C   UNL     1      -2.804 -12.428  10.192  1.00  0.00     0.049 A 
ATOM     51  H   UNL     1      -1.634 -12.605  11.904  1.00  0.00     0.167 HD
ATOM     52  C   UNL     1       0.779 -12.784  15.559  1.00  0.00     0.037 A 
ATOM     53  C   UNL     1      -3.456 -13.599  10.045  1.00  0.00     0.037 A 
ATOM     54  C   UNL     1       0.080 -14.038  15.512  1.00  0.00     0.049 A 
ATOM     55  C   UNL     1      -3.238 -14.701  11.052  1.00  0.00     0.074 A 
ATOM     56  C   UNL     1       0.110 -15.074  16.428  1.00  0.00     0.029 A 
ATOM     57  N   UNL     1      -0.768 -14.429  14.488  1.00  0.00    -0.354 N 
ATOM     58  N   UNL     1      -2.525 -14.689  12.152  1.00  0.00    -0.248 NA
ATOM     59  C   UNL     1      -3.912 -15.984  10.794  1.00  0.00     0.031 C 
ATOM     60  C   UNL     1      -0.679 -16.114  15.932  1.00  0.00     0.029 A 
ATOM     61  C   UNL     1      -1.240 -15.707  14.731  1.00  0.00     0.049 A 
ATOM     62  H   UNL     1      -1.001 -13.879  13.704  1.00  0.00     0.167 HD
ATOM     63  C   UNL     1      -2.677 -15.946  12.724  1.00  0.00     0.074 A 
ATOM     64  C   UNL     1      -3.565 -16.694  11.860  1.00  0.00     0.031 C 
ATOM     65  C   UNL     1      -2.127 -16.437  13.861  1.00  0.00     0.037 A 
BRANCH  52  66
ATOM     66  C   UNL     1       1.685 -12.521  16.723  1.00  0.00     0.064 A 
ATOM     67  C   UNL     1       1.338 -11.601  17.724  1.00  0.00     0.173 A 
ATOM     68  C   UNL     1       2.885 -13.232  16.867  1.00  0.00     0.173 A 
ATOM     69  F   UNL     1       0.208 -10.885  17.620  1.00  0.00    -0.203 F 
ATOM     70  C   UNL     1       2.168 -11.392  18.821  1.00  0.00     0.198 A 
ATOM     71  C   UNL     1       3.699 -13.040  17.980  1.00  0.00     0.198 A 
ATOM     72  F   UNL     1       3.260 -14.122  15.937  1.00  0.00    -0.203 F 
ATOM     73  F   UNL     1       1.835 -10.483  19.747  1.00  0.00    -0.200 F 
ATOM     74  C   UNL     1       3.342 -12.118  18.953  1.00  0.00     0.200 A 
ATOM     75  F   UNL     1       4.828 -13.750  18.112  1.00  0.00    -0.200 F 
ATOM     76  F   UNL     1       4.133 -11.927  20.018  1.00  0.00    -0.200 F 
ENDBRANCH  52  66
BRANCH  53  77
ATOM     77  C   UNL     1      -4.382 -13.795   8.897  1.00  0.00     0.064 A 
ATOM     78  C   UNL     1      -5.763 -13.921   9.099  1.00  0.00     0.173 A 
ATOM     79  C   UNL     1      -3.906 -13.876   7.580  1.00  0.00     0.173 A 
ATOM     80  F   UNL     1      -6.265 -13.882  10.342  1.00  0.00    -0.203 F 
ATOM     81  C   UNL     1      -6.632 -14.127   8.028  1.00  0.00     0.198 A 
ATOM     82  C   UNL     1      -4.778 -14.056   6.508  1.00  0.00     0.198 A 
ATOM     83  F   UNL     1      -2.592 -13.773   7.333  1.00  0.00    -0.203 F 
ATOM     84  F   UNL     1      -7.944 -14.284   8.253  1.00  0.00    -0.200 F 
ATOM     85  C   UNL     1      -6.140 -14.187   6.733  1.00  0.00     0.200 A 
ATOM     86  F   UNL     1      -4.298 -14.107   5.258  1.00  0.00    -0.200 F 
ATOM     87  F   UNL     1      -6.976 -14.381   5.704  1.00  0.00    -0.200 F 
ENDBRANCH  53  77
BRANCH  65  88
ATOM     88  C   UNL     1      -2.456 -17.848  14.253  1.00  0.00     0.064 A 
ATOM     89  C   UNL     1      -1.895 -18.940  13.576  1.00  0.00     0.173 A 
ATOM     90  C   UNL     1      -3.243 -18.110  15.386  1.00  0.00     0.173 A 
ATOM     91  F   UNL     1      -1.144 -18.742  12.482  1.00  0.00    -0.203 F 
ATOM     92  C   UNL     1      -2.110 -20.243  14.018  1.00  0.00     0.198 A 
ATOM     93  C   UNL     1      -3.433 -19.411  15.841  1.00  0.00     0.198 A 
ATOM     94  F   UNL     1      -3.793 -17.099  16.075  1.00  0.00    -0.203 F 
ATOM     95  F   UNL     1      -1.579 -21.273  13.345  1.00  0.00    -0.200 F 
ATOM     96  C   UNL     1      -2.867 -20.476  15.157  1.00  0.00     0.200 A 
ATOM     97  F   UNL     1      -4.147 -19.634  16.953  1.00  0.00    -0.200 F 
ATOM     98  F   UNL     1      -3.048 -21.729  15.598  1.00  0.00    -0.200 F 
ENDBRANCH  65  88
ENDBRANCH  39  40
ENDBRANCH  32  34
ENDBRANCH  31  32
ENDBRANCH  30  31
ENDBRANCH  29  30
ENDBRANCH  28  29
ENDBRANCH  27  28
ENDBRANCH   1  27
TORSDOF 21
