REMARK SMILES Cc1ccc(Cn2c(C)c(C[NH2+]C[C@@H]3CCCO3)c(C(=O)OCCOCCOCCOCCOC(=O)c3ccc(-c4c5nc(c(-c6c(F)c(F)c(F)c(F)c6F)c6ccc([nH]6)c(-c6c(F)c(F)c(F)c(F)c6F)c6nc(c(-c7c(F)c(F)c(F)c(F)c7F)c7ccc4[nH]7)C=C6)C=C5)cc3)c2C)cc1
REMARK SMILES IDX 27 1 26 2 25 3 24 4 23 5 22 6 20 7 21 8 19 9 7 10 8 11
REMARK SMILES IDX 100 12 9 13 10 14 101 15 6 16 5 17 1 18 2 19 3 20 103 21
REMARK SMILES IDX 4 22 102 23 11 24 12 25 13 28 14 29 15 30 18 31 16 32 17 33
REMARK SMILES IDX 28 34 29 35 30 36 31 37 32 38 33 39 34 40 35 41 36 42 37 43
REMARK SMILES IDX 38 44 99 45 39 46 98 47 40 48 41 49 42 50 92 51 43 52 97 53
REMARK SMILES IDX 91 54 93 55 44 56 96 57 90 58 89 59 45 61 77 62 57 63 76 64
REMARK SMILES IDX 58 65 61 66 75 67 94 68 59 69 60 70 74 72 95 73 62 74 46 75
REMARK SMILES IDX 47 76 55 77 48 78 49 79 53 80 56 81 50 82 51 83 54 84 52 85
REMARK SMILES IDX 78 86 79 87 87 88 80 89 81 90 85 91 88 92 82 93 83 94 86 95
REMARK SMILES IDX 84 96 63 97 64 98 72 99 65 100 66 101 70 102 73 103 67 104
REMARK SMILES IDX 68 105 71 106 69 107
REMARK H PARENT 12 26 12 27 93 60 61 71
REMARK Flexibility Score: inf
ROOT
ATOM      1  C   UNL     1      -7.058  -4.342  -2.017  1.00  0.00     0.188 C 
ENDROOT
BRANCH   1   2
ATOM      2  C   UNL     1      -6.583  -4.974  -3.446  1.00  0.00     0.188 C 
BRANCH   2   3
ATOM      3  O   UNL     1      -6.119  -6.555  -4.222  1.00  0.00    -0.376 OA
BRANCH   3   4
ATOM      4  C   UNL     1      -4.390  -7.245  -4.618  1.00  0.00     0.202 C 
BRANCH   4   5
ATOM      5  C   UNL     1      -2.845  -6.097  -4.390  1.00  0.00     0.261 C 
BRANCH   5   6
ATOM      6  O   UNL     1      -2.958  -4.285  -4.152  1.00  0.00    -0.460 OA
BRANCH   6   7
ATOM      7  C   UNL     1      -3.717  -3.040  -4.587  1.00  0.00     0.340 C 
ATOM      8  O   UNL     1      -4.571  -3.015  -5.467  1.00  0.00    -0.246 OA
BRANCH   7   9
ATOM      9  C   UNL     1      -3.794  -1.725  -3.812  1.00  0.00     0.089 A 
ATOM     10  N   UNL     1      -3.551  -0.110  -2.236  1.00  0.00    -0.343 N 
ATOM     11  C   UNL     1      -4.801   0.114  -2.842  1.00  0.00     0.025 A 
ATOM     12  C   UNL     1      -2.865  -1.030  -3.030  1.00  0.00     0.030 A 
ATOM     13  C   UNL     1      -5.715   1.249  -2.497  1.00  0.00     0.065 C 
ATOM     14  C   UNL     1      -5.019  -0.863  -3.826  1.00  0.00     0.042 A 
ATOM     15  C   UNL     1      -1.398  -1.210  -3.021  1.00  0.00     0.065 C 
BRANCH  10  16
ATOM     16  C   UNL     1      -3.197   0.397  -0.863  1.00  0.00     0.157 C 
BRANCH  16  17
ATOM     17  C   UNL     1      -1.746   0.520  -0.409  1.00  0.00    -0.028 A 
ATOM     18  C   UNL     1       2.550   0.604   0.131  1.00  0.00     0.044 C 
ATOM     19  C   UNL     1       1.050   0.629   0.097  1.00  0.00    -0.051 A 
ATOM     20  C   UNL     1       0.331  -0.539   0.333  1.00  0.00     0.004 A 
ATOM     21  C   UNL     1       0.337   1.786  -0.229  1.00  0.00     0.004 A 
ATOM     22  C   UNL     1      -1.060  -0.557   0.173  1.00  0.00     0.006 A 
ATOM     23  C   UNL     1      -1.042   1.728  -0.501  1.00  0.00     0.006 A 
ENDBRANCH  16  17
ENDBRANCH  10  16
BRANCH  14  24
ATOM     24  C   UNL     1      -6.227  -0.918  -4.840  1.00  0.00     0.300 C 
BRANCH  24  25
ATOM     25  N   UNL     1      -7.509  -1.443  -4.308  1.00  0.00    -0.340 N 
ATOM     26  H   UNL     1      -7.836  -0.814  -3.574  1.00  0.00     0.346 HD
ATOM     27  H   UNL     1      -7.328  -2.383  -3.957  1.00  0.00     0.346 HD
BRANCH  25  28
ATOM     28  C   UNL     1      -8.588  -1.557  -5.354  1.00  0.00     0.293 C 
BRANCH  28  29
ATOM     29  C   UNL     1      -8.752  -2.870  -6.215  1.00  0.00     0.173 C 
ATOM     30  C   UNL     1     -10.180  -3.443  -6.358  1.00  0.00     0.040 C 
ATOM     31  O   UNL     1      -8.026  -3.953  -5.649  1.00  0.00    -0.372 OA
ATOM     32  C   UNL     1      -9.985  -4.947  -6.382  1.00  0.00     0.031 C 
ATOM     33  C   UNL     1      -8.935  -5.034  -5.352  1.00  0.00     0.161 C 
ENDBRANCH  28  29
ENDBRANCH  25  28
ENDBRANCH  24  25
ENDBRANCH  14  24
ENDBRANCH   7   9
ENDBRANCH   6   7
ENDBRANCH   5   6
ENDBRANCH   4   5
ENDBRANCH   3   4
ENDBRANCH   2   3
ENDBRANCH   1   2
BRANCH   1  34
ATOM     34  O   UNL     1      -6.454  -4.316  -0.721  1.00  0.00    -0.377 OA
BRANCH  34  35
ATOM     35  C   UNL     1      -6.309  -5.521  -0.021  1.00  0.00     0.188 C 
BRANCH  35  36
ATOM     36  C   UNL     1      -7.520  -6.300   0.271  1.00  0.00     0.188 C 
BRANCH  36  37
ATOM     37  O   UNL     1      -8.198  -6.414  -0.962  1.00  0.00    -0.376 OA
BRANCH  37  38
ATOM     38  C   UNL     1      -9.589  -6.306  -0.835  1.00  0.00     0.202 C 
BRANCH  38  39
ATOM     39  C   UNL     1     -10.054  -7.436   0.081  1.00  0.00     0.261 C 
BRANCH  39  40
ATOM     40  O   UNL     1      -9.652  -8.728  -0.493  1.00  0.00    -0.460 OA
BRANCH  40  41
ATOM     41  C   UNL     1      -8.506  -9.373  -0.054  1.00  0.00     0.338 C 
ATOM     42  O   UNL     1      -8.364  -9.825   1.069  1.00  0.00    -0.246 OA
BRANCH  41  43
ATOM     43  C   UNL     1      -7.393  -9.326  -1.084  1.00  0.00     0.060 A 
ATOM     44  C   UNL     1      -6.000  -9.288  -0.808  1.00  0.00     0.016 A 
ATOM     45  C   UNL     1      -7.757  -8.897  -2.306  1.00  0.00     0.016 A 
ATOM     46  C   UNL     1      -5.066  -8.385  -1.497  1.00  0.00     0.010 A 
ATOM     47  C   UNL     1      -6.893  -7.973  -2.866  1.00  0.00     0.010 A 
ATOM     48  C   UNL     1      -5.538  -7.448  -2.413  1.00  0.00    -0.014 A 
BRANCH  48  49
ATOM     49  C   UNL     1      -4.688  -5.874  -3.083  1.00  0.00     0.031 A 
ATOM     50  C   UNL     1      -4.902  -5.323  -5.051  1.00  0.00     0.074 A 
ATOM     51  C   UNL     1      -4.140  -5.164  -2.042  1.00  0.00     0.049 A 
ATOM     52  N   UNL     1      -3.950  -5.148  -6.020  1.00  0.00    -0.248 NA
ATOM     53  C   UNL     1      -6.070  -5.845  -6.177  1.00  0.00     0.031 C 
ATOM     54  C   UNL     1      -3.919  -3.748  -1.881  1.00  0.00     0.029 A 
ATOM     55  N   UNL     1      -3.554  -5.619  -0.875  1.00  0.00    -0.354 N 
ATOM     56  C   UNL     1      -4.393  -4.992  -7.322  1.00  0.00     0.074 A 
ATOM     57  C   UNL     1      -5.587  -5.716  -7.398  1.00  0.00     0.031 C 
ATOM     58  C   UNL     1      -2.808  -3.535  -1.177  1.00  0.00     0.029 A 
ATOM     59  C   UNL     1      -2.442  -4.800  -0.663  1.00  0.00     0.049 A 
ATOM     60  H   UNL     1      -3.857  -6.366  -0.310  1.00  0.00     0.167 HD
ATOM     61  C   UNL     1      -3.775  -4.162  -8.207  1.00  0.00     0.037 A 
ATOM     62  C   UNL     1      -1.249  -5.265  -0.291  1.00  0.00     0.037 A 
ATOM     63  C   UNL     1      -2.627  -3.492  -7.551  1.00  0.00     0.049 A 
ATOM     64  C   UNL     1      -0.405  -5.015  -1.595  1.00  0.00     0.074 A 
ATOM     65  C   UNL     1      -2.394  -2.187  -7.156  1.00  0.00     0.029 A 
ATOM     66  N   UNL     1      -1.677  -4.256  -6.841  1.00  0.00    -0.354 N 
ATOM     67  N   UNL     1      -0.845  -4.797  -2.835  1.00  0.00    -0.248 NA
ATOM     68  C   UNL     1       1.012  -4.685  -1.505  1.00  0.00     0.031 C 
ATOM     69  C   UNL     1      -1.367  -2.199  -6.156  1.00  0.00     0.029 A 
ATOM     70  C   UNL     1      -0.992  -3.518  -5.859  1.00  0.00     0.049 A 
ATOM     71  H   UNL     1      -1.510  -5.211  -7.016  1.00  0.00     0.167 HD
ATOM     72  C   UNL     1       0.171  -4.378  -3.704  1.00  0.00     0.074 A 
ATOM     73  C   UNL     1       1.285  -4.264  -2.755  1.00  0.00     0.031 C 
ATOM     74  C   UNL     1       0.161  -4.083  -5.084  1.00  0.00     0.037 A 
BRANCH  61  75
ATOM     75  C   UNL     1      -4.479  -3.745  -9.522  1.00  0.00     0.064 A 
ATOM     76  C   UNL     1      -4.222  -2.494 -10.116  1.00  0.00     0.173 A 
ATOM     77  C   UNL     1      -5.443  -4.509 -10.242  1.00  0.00     0.173 A 
ATOM     78  F   UNL     1      -3.273  -1.681  -9.641  1.00  0.00    -0.203 F 
ATOM     79  C   UNL     1      -4.912  -2.020 -11.247  1.00  0.00     0.198 A 
ATOM     80  C   UNL     1      -6.165  -4.020 -11.344  1.00  0.00     0.198 A 
ATOM     81  F   UNL     1      -5.677  -5.798  -9.979  1.00  0.00    -0.203 F 
ATOM     82  F   UNL     1      -4.604  -0.818 -11.755  1.00  0.00    -0.200 F 
ATOM     83  C   UNL     1      -5.898  -2.772 -11.848  1.00  0.00     0.200 A 
ATOM     84  F   UNL     1      -7.099  -4.789 -11.927  1.00  0.00    -0.200 F 
ATOM     85  F   UNL     1      -6.552  -2.318 -12.927  1.00  0.00    -0.200 F 
ENDBRANCH  61  75
BRANCH  62  86
ATOM     86  C   UNL     1      -1.662  -6.319   0.773  1.00  0.00     0.064 A 
ATOM     87  C   UNL     1      -2.393  -5.748   1.894  1.00  0.00     0.173 A 
ATOM     88  C   UNL     1      -2.019  -7.649   0.494  1.00  0.00     0.173 A 
ATOM     89  F   UNL     1      -2.176  -4.464   2.234  1.00  0.00    -0.203 F 
ATOM     90  C   UNL     1      -3.537  -6.349   2.461  1.00  0.00     0.198 A 
ATOM     91  C   UNL     1      -3.109  -8.285   1.155  1.00  0.00     0.198 A 
ATOM     92  F   UNL     1      -1.483  -8.278  -0.559  1.00  0.00    -0.203 F 
ATOM     93  F   UNL     1      -4.356  -5.638   3.256  1.00  0.00    -0.200 F 
ATOM     94  C   UNL     1      -3.919  -7.607   2.057  1.00  0.00     0.200 A 
ATOM     95  F   UNL     1      -3.470  -9.526   0.793  1.00  0.00    -0.200 F 
ATOM     96  F   UNL     1      -5.102  -8.115   2.446  1.00  0.00    -0.200 F 
ENDBRANCH  62  86
BRANCH  74  97
ATOM     97  C   UNL     1       1.413  -4.231  -5.978  1.00  0.00     0.064 A 
ATOM     98  C   UNL     1       2.599  -4.853  -5.574  1.00  0.00     0.173 A 
ATOM     99  C   UNL     1       1.385  -3.896  -7.370  1.00  0.00     0.173 A 
ATOM    100  F   UNL     1       2.739  -5.411  -4.367  1.00  0.00    -0.203 F 
ATOM    101  C   UNL     1       3.690  -5.007  -6.431  1.00  0.00     0.198 A 
ATOM    102  C   UNL     1       2.427  -4.164  -8.246  1.00  0.00     0.198 A 
ATOM    103  F   UNL     1       0.338  -3.327  -7.979  1.00  0.00    -0.203 F 
ATOM    104  F   UNL     1       4.830  -5.517  -5.946  1.00  0.00    -0.200 F 
ATOM    105  C   UNL     1       3.600  -4.683  -7.768  1.00  0.00     0.200 A 
ATOM    106  F   UNL     1       2.267  -3.929  -9.556  1.00  0.00    -0.200 F 
ATOM    107  F   UNL     1       4.627  -4.899  -8.596  1.00  0.00    -0.200 F 
ENDBRANCH  74  97
ENDBRANCH  48  49
ENDBRANCH  41  43
ENDBRANCH  40  41
ENDBRANCH  39  40
ENDBRANCH  38  39
ENDBRANCH  37  38
ENDBRANCH  36  37
ENDBRANCH  35  36
ENDBRANCH  34  35
ENDBRANCH   1  34
TORSDOF 26
