REMARK SMILES O=C(OCCOCCOCCOCCOC(=O)[C@H]1CC[C@H]2CCCC[C@@H]2[N@H+]1[C@@H]1CCCSC1)c1ccc(-c2c3nc(c(-c4c(F)c(F)c(F)c(F)c4F)c4ccc([nH]4)c(-c4c(F)c(F)c(F)c(F)c4F)c4nc(c(-c5c(F)c(F)c(F)c(F)c5F)c5ccc2[nH]5)C=C4)C=C3)cc1
REMARK SMILES IDX 8 1 7 2 6 3 5 4 4 5 3 6 2 7 1 8 34 9 35 10 96 11 36 12 95 13
REMARK SMILES IDX 37 14 38 15 39 16 89 17 40 18 94 19 88 20 90 21 41 22 93 23
REMARK SMILES IDX 87 24 86 25 42 27 74 28 54 29 73 30 55 31 58 32 72 33 91 34
REMARK SMILES IDX 56 35 57 36 71 38 92 39 59 40 43 41 44 42 52 43 45 44 46 45
REMARK SMILES IDX 50 46 53 47 47 48 48 49 51 50 49 51 75 52 76 53 84 54 77 55
REMARK SMILES IDX 78 56 82 57 85 58 79 59 80 60 83 61 81 62 60 63 61 64 69 65
REMARK SMILES IDX 62 66 63 67 67 68 70 69 64 70 65 71 68 72 66 73 9 74 10 75
REMARK SMILES IDX 11 76 12 77 13 78 14 79 15 80 16 81 17 82 18 83 19 84 27 85
REMARK SMILES IDX 20 86 26 87 21 89 25 90 22 91 24 92 23 93 28 94 29 95 33 96
REMARK SMILES IDX 30 97 32 98 31 99
REMARK H PARENT 90 26 58 37 27 88
REMARK Flexibility Score: inf
ROOT
ATOM      1  C   UNL     1       2.411  -2.298  -0.991  1.00  0.00     0.188 C 
ENDROOT
BRANCH   1   2
ATOM      2  C   UNL     1       2.654  -1.381   0.192  1.00  0.00     0.188 C 
BRANCH   2   3
ATOM      3  O   UNL     1       3.881  -0.728  -0.077  1.00  0.00    -0.376 OA
BRANCH   3   4
ATOM      4  C   UNL     1       4.693  -0.342   1.012  1.00  0.00     0.202 C 
BRANCH   4   5
ATOM      5  C   UNL     1       4.119   0.777   1.865  1.00  0.00     0.261 C 
BRANCH   5   6
ATOM      6  O   UNL     1       2.755   1.149   1.591  1.00  0.00    -0.460 OA
BRANCH   6   7
ATOM      7  C   UNL     1       2.155   1.885   0.632  1.00  0.00     0.338 C 
ATOM      8  O   UNL     1       0.960   2.146   0.785  1.00  0.00    -0.246 OA
BRANCH   7   9
ATOM      9  C   UNL     1       2.785   2.389  -0.625  1.00  0.00     0.060 A 
ATOM     10  C   UNL     1       3.865   1.812  -1.288  1.00  0.00     0.016 A 
ATOM     11  C   UNL     1       2.147   3.471  -1.259  1.00  0.00     0.016 A 
ATOM     12  C   UNL     1       4.303   2.250  -2.525  1.00  0.00     0.010 A 
ATOM     13  C   UNL     1       2.600   3.958  -2.487  1.00  0.00     0.010 A 
ATOM     14  C   UNL     1       3.697   3.350  -3.105  1.00  0.00    -0.014 A 
BRANCH  14  15
ATOM     15  C   UNL     1       4.432   4.007  -4.189  1.00  0.00     0.031 A 
ATOM     16  C   UNL     1       5.253   5.193  -3.805  1.00  0.00     0.074 A 
ATOM     17  C   UNL     1       4.484   3.458  -5.410  1.00  0.00     0.049 A 
ATOM     18  N   UNL     1       5.835   6.082  -4.556  1.00  0.00    -0.248 NA
ATOM     19  C   UNL     1       5.449   5.401  -2.358  1.00  0.00     0.031 C 
ATOM     20  C   UNL     1       3.890   2.174  -5.785  1.00  0.00     0.029 A 
ATOM     21  N   UNL     1       5.073   3.909  -6.557  1.00  0.00    -0.354 N 
ATOM     22  C   UNL     1       6.398   6.994  -3.674  1.00  0.00     0.074 A 
ATOM     23  C   UNL     1       6.122   6.537  -2.334  1.00  0.00     0.031 C 
ATOM     24  C   UNL     1       4.124   1.952  -7.089  1.00  0.00     0.029 A 
ATOM     25  C   UNL     1       4.793   3.122  -7.646  1.00  0.00     0.049 A 
ATOM     26  H   UNL     1       5.638   4.714  -6.599  1.00  0.00     0.167 HD
ATOM     27  C   UNL     1       7.052   8.134  -3.986  1.00  0.00     0.037 A 
ATOM     28  C   UNL     1       4.989   3.383  -8.950  1.00  0.00     0.037 A 
ATOM     29  C   UNL     1       7.289   8.522  -5.348  1.00  0.00     0.049 A 
ATOM     30  C   UNL     1       5.623   4.705  -9.296  1.00  0.00     0.074 A 
ATOM     31  C   UNL     1       7.856   9.677  -5.843  1.00  0.00     0.029 A 
ATOM     32  N   UNL     1       6.951   7.730  -6.443  1.00  0.00    -0.354 N 
ATOM     33  N   UNL     1       6.047   5.650  -8.487  1.00  0.00    -0.248 NA
ATOM     34  C   UNL     1       5.787   5.014 -10.719  1.00  0.00     0.031 C 
ATOM     35  C   UNL     1       7.813   9.604  -7.240  1.00  0.00     0.029 A 
ATOM     36  C   UNL     1       7.279   8.377  -7.617  1.00  0.00     0.049 A 
ATOM     37  H   UNL     1       6.538   6.838  -6.388  1.00  0.00     0.167 HD
ATOM     38  C   UNL     1       6.545   6.659  -9.295  1.00  0.00     0.074 A 
ATOM     39  C   UNL     1       6.371   6.204 -10.664  1.00  0.00     0.031 C 
ATOM     40  C   UNL     1       7.095   7.851  -8.950  1.00  0.00     0.037 A 
BRANCH  27  41
ATOM     41  C   UNL     1       7.396   9.048  -2.846  1.00  0.00     0.064 A 
ATOM     42  C   UNL     1       8.352   8.716  -1.873  1.00  0.00     0.173 A 
ATOM     43  C   UNL     1       6.663  10.230  -2.661  1.00  0.00     0.173 A 
ATOM     44  F   UNL     1       9.053   7.576  -1.977  1.00  0.00    -0.203 F 
ATOM     45  C   UNL     1       8.520   9.502  -0.734  1.00  0.00     0.198 A 
ATOM     46  C   UNL     1       6.857  11.032  -1.539  1.00  0.00     0.198 A 
ATOM     47  F   UNL     1       5.726  10.591  -3.551  1.00  0.00    -0.203 F 
ATOM     48  F   UNL     1       9.369   9.113   0.228  1.00  0.00    -0.200 F 
ATOM     49  C   UNL     1       7.772  10.658  -0.568  1.00  0.00     0.200 A 
ATOM     50  F   UNL     1       6.131  12.147  -1.381  1.00  0.00    -0.200 F 
ATOM     51  F   UNL     1       7.915  11.398   0.541  1.00  0.00    -0.200 F 
ENDBRANCH  27  41
BRANCH  28  52
ATOM     52  C   UNL     1       4.497   2.426  -9.976  1.00  0.00     0.064 A 
ATOM     53  C   UNL     1       5.380   1.706 -10.789  1.00  0.00     0.173 A 
ATOM     54  C   UNL     1       3.123   2.167 -10.122  1.00  0.00     0.173 A 
ATOM     55  F   UNL     1       6.699   1.927 -10.704  1.00  0.00    -0.203 F 
ATOM     56  C   UNL     1       4.910   0.763 -11.705  1.00  0.00     0.198 A 
ATOM     57  C   UNL     1       2.656   1.205 -11.015  1.00  0.00     0.198 A 
ATOM     58  F   UNL     1       2.230   2.827  -9.369  1.00  0.00    -0.203 F 
ATOM     59  F   UNL     1       5.775   0.103 -12.487  1.00  0.00    -0.200 F 
ATOM     60  C   UNL     1       3.550   0.505 -11.809  1.00  0.00     0.200 A 
ATOM     61  F   UNL     1       1.344   0.948 -11.097  1.00  0.00    -0.200 F 
ATOM     62  F   UNL     1       3.103  -0.415 -12.674  1.00  0.00    -0.200 F 
ENDBRANCH  28  52
BRANCH  40  63
ATOM     63  C   UNL     1       7.598   8.712 -10.064  1.00  0.00     0.064 A 
ATOM     64  C   UNL     1       6.725   9.459 -10.865  1.00  0.00     0.173 A 
ATOM     65  C   UNL     1       8.979   8.877 -10.245  1.00  0.00     0.173 A 
ATOM     66  F   UNL     1       5.397   9.320 -10.730  1.00  0.00    -0.203 F 
ATOM     67  C   UNL     1       7.221  10.346 -11.814  1.00  0.00     0.198 A 
ATOM     68  C   UNL     1       9.470   9.785 -11.173  1.00  0.00     0.198 A 
ATOM     69  F   UNL     1       9.847   8.186  -9.490  1.00  0.00    -0.203 F 
ATOM     70  F   UNL     1       6.374  11.040 -12.586  1.00  0.00    -0.200 F 
ATOM     71  C   UNL     1       8.591  10.519 -11.957  1.00  0.00     0.200 A 
ATOM     72  F   UNL     1      10.792   9.965 -11.297  1.00  0.00    -0.200 F 
ATOM     73  F   UNL     1       9.066  11.397 -12.850  1.00  0.00    -0.200 F 
ENDBRANCH  40  63
ENDBRANCH  14  15
ENDBRANCH   7   9
ENDBRANCH   6   7
ENDBRANCH   5   6
ENDBRANCH   4   5
ENDBRANCH   3   4
ENDBRANCH   2   3
ENDBRANCH   1   2
BRANCH   1  74
ATOM     74  O   UNL     1       3.361  -3.360  -1.047  1.00  0.00    -0.377 OA
BRANCH  74  75
ATOM     75  C   UNL     1       4.708  -3.012  -1.346  1.00  0.00     0.188 C 
BRANCH  75  76
ATOM     76  C   UNL     1       5.077  -2.568  -2.755  1.00  0.00     0.188 C 
BRANCH  76  77
ATOM     77  O   UNL     1       4.034  -2.269  -3.651  1.00  0.00    -0.376 OA
BRANCH  77  78
ATOM     78  C   UNL     1       3.159  -3.308  -4.091  1.00  0.00     0.202 C 
BRANCH  78  79
ATOM     79  C   UNL     1       3.519  -4.805  -3.996  1.00  0.00     0.261 C 
BRANCH  79  80
ATOM     80  O   UNL     1       3.454  -5.384  -2.668  1.00  0.00    -0.459 OA
BRANCH  80  81
ATOM     81  C   UNL     1       4.571  -6.000  -2.203  1.00  0.00     0.365 C 
ATOM     82  O   UNL     1       5.621  -6.044  -2.855  1.00  0.00    -0.245 OA
BRANCH  81  83
ATOM     83  C   UNL     1       4.528  -6.578  -0.763  1.00  0.00     0.295 C 
ATOM     84  C   UNL     1       5.170  -5.732   0.361  1.00  0.00     0.078 C 
ATOM     85  N   UNL     1       3.300  -7.279  -0.318  1.00  0.00    -0.317 N 
ATOM     86  C   UNL     1       5.210  -6.436   1.725  1.00  0.00     0.016 C 
ATOM     87  C   UNL     1       3.630  -8.203   0.799  1.00  0.00     0.188 C 
ATOM     88  H   UNL     1       2.986  -7.830  -1.117  1.00  0.00     0.349 HD
ATOM     89  C   UNL     1       4.979  -7.919   1.524  1.00  0.00     0.048 C 
ATOM     90  C   UNL     1       3.731  -9.650   0.286  1.00  0.00     0.065 C 
ATOM     91  C   UNL     1       5.039  -8.744   2.805  1.00  0.00     0.010 C 
ATOM     92  C   UNL     1       3.940 -10.625   1.455  1.00  0.00     0.006 C 
ATOM     93  C   UNL     1       5.061 -10.226   2.425  1.00  0.00     0.001 C 
BRANCH  85  94
ATOM     94  C   UNL     1       2.076  -6.443  -0.103  1.00  0.00     0.195 C 
ATOM     95  C   UNL     1       1.945  -5.689   1.247  1.00  0.00     0.067 C 
ATOM     96  C   UNL     1       0.843  -7.345  -0.357  1.00  0.00     0.134 C 
ATOM     97  C   UNL     1       0.660  -4.871   1.407  1.00  0.00     0.017 C 
ATOM     98  S   UNL     1      -0.745  -6.451  -0.341  1.00  0.00    -0.156 SA
ATOM     99  C   UNL     1      -0.610  -5.694   1.297  1.00  0.00     0.070 C 
ENDBRANCH  85  94
ENDBRANCH  81  83
ENDBRANCH  80  81
ENDBRANCH  79  80
ENDBRANCH  78  79
ENDBRANCH  77  78
ENDBRANCH  76  77
ENDBRANCH  75  76
ENDBRANCH  74  75
ENDBRANCH   1  74
TORSDOF 21
