REMARK SMILES COc1ccc2c(c1)c(CC(=O)OCCOCCOCCOCCOC(=O)c1ccc(-c3c4nc(c(-c5c(F)c(F)c(F)c(F)c5F)c5ccc([nH]5)c(-c5c(F)c(F)c(F)c(F)c5F)c5nc(c(-c6c(F)c(F)c(F)c(F)c6F)c6ccc3[nH]6)C=C5)C=C4)cc1)c(C)n2Cc1ccc(Br)cc1
REMARK SMILES IDX 18 1 17 2 16 3 15 4 14 5 13 6 11 7 12 8 10 9 9 10 3 11 4 12
REMARK SMILES IDX 8 13 5 14 7 15 6 16 93 17 91 18 92 19 2 20 1 21 94 22 95 23
REMARK SMILES IDX 96 24 101 25 97 26 100 27 98 28 99 29 19 30 20 31 21 32
REMARK SMILES IDX 22 33 23 34 24 35 25 36 26 37 27 38 28 39 29 40 90 41 30 42
REMARK SMILES IDX 89 43 31 44 32 45 33 46 83 47 34 48 88 49 82 50 84 51 35 52
REMARK SMILES IDX 87 53 81 54 80 55 36 57 68 58 48 59 67 60 49 61 52 62 66 63
REMARK SMILES IDX 85 64 50 65 51 66 65 68 86 69 53 70 37 71 38 72 46 73 39 74
REMARK SMILES IDX 40 75 44 76 47 77 41 78 42 79 45 80 43 81 69 82 70 83 78 84
REMARK SMILES IDX 71 85 72 86 76 87 79 88 73 89 74 90 77 91 75 92 54 93 55 94
REMARK SMILES IDX 63 95 56 96 57 97 61 98 64 99 58 100 59 101 62 102 60 103
REMARK H PARENT 84 56 52 67
REMARK Flexibility Score: inf
ROOT
ATOM      1  C   UNL     1      -1.054   2.193  -3.606  1.00  0.00     0.188 C 
ENDROOT
BRANCH   1   2
ATOM      2  C   UNL     1      -2.475   1.741  -3.920  1.00  0.00     0.188 C 
BRANCH   2   3
ATOM      3  O   UNL     1      -2.713   1.550  -5.301  1.00  0.00    -0.376 OA
BRANCH   3   4
ATOM      4  C   UNL     1      -3.290   2.607  -6.049  1.00  0.00     0.202 C 
BRANCH   4   5
ATOM      5  C   UNL     1      -2.596   3.984  -6.148  1.00  0.00     0.261 C 
BRANCH   5   6
ATOM      6  O   UNL     1      -2.020   4.549  -4.952  1.00  0.00    -0.463 OA
BRANCH   6   7
ATOM      7  C   UNL     1      -2.822   5.162  -4.052  1.00  0.00     0.310 C 
ATOM      8  O   UNL     1      -4.031   5.293  -4.226  1.00  0.00    -0.252 OA
BRANCH   7   9
ATOM      9  C   UNL     1      -2.146   5.588  -2.740  1.00  0.00     0.160 C 
BRANCH   9  10
ATOM     10  C   UNL     1      -0.632   5.554  -2.607  1.00  0.00    -0.008 A 
ATOM     11  C   UNL     1       0.789   2.718  -0.431  1.00  0.00     0.119 A 
ATOM     12  C   UNL     1       2.118   2.921  -0.771  1.00  0.00     0.048 A 
ATOM     13  C   UNL     1      -0.184   3.615  -0.896  1.00  0.00     0.057 A 
ATOM     14  C   UNL     1       2.495   4.001  -1.589  1.00  0.00     0.031 A 
ATOM     15  C   UNL     1       0.146   4.645  -1.808  1.00  0.00     0.007 A 
ATOM     16  C   UNL     1       1.496   4.860  -2.096  1.00  0.00     0.049 A 
ATOM     17  N   UNL     1       1.564   6.014  -2.870  1.00  0.00    -0.340 N 
ATOM     18  C   UNL     1       0.275   6.507  -3.056  1.00  0.00     0.020 A 
ATOM     19  C   UNL     1      -0.047   7.853  -3.600  1.00  0.00     0.065 C 
BRANCH  11  20
ATOM     20  O   UNL     1       0.282   1.679   0.300  1.00  0.00    -0.497 OA
ATOM     21  C   UNL     1       1.119   0.561   0.569  1.00  0.00     0.278 C 
ENDBRANCH  11  20
BRANCH  17  22
ATOM     22  C   UNL     1       2.824   6.715  -3.173  1.00  0.00     0.157 C 
BRANCH  22  23
ATOM     23  C   UNL     1       3.214   6.747  -4.637  1.00  0.00    -0.028 A 
ATOM     24  C   UNL     1       2.630   7.666  -5.522  1.00  0.00     0.007 A 
ATOM     25  C   UNL     1       4.225   5.911  -5.139  1.00  0.00     0.007 A 
ATOM     26  C   UNL     1       2.975   7.704  -6.875  1.00  0.00     0.016 A 
ATOM     27  C   UNL     1       4.604   5.971  -6.488  1.00  0.00     0.016 A 
ATOM     28  C   UNL     1       3.960   6.852  -7.354  1.00  0.00     0.017 A 
ATOM     29  Br  UNL     1       4.429   6.907  -9.183  1.00  0.00    -0.051 Br
ENDBRANCH  22  23
ENDBRANCH  17  22
ENDBRANCH   9  10
ENDBRANCH   7   9
ENDBRANCH   6   7
ENDBRANCH   5   6
ENDBRANCH   4   5
ENDBRANCH   3   4
ENDBRANCH   2   3
ENDBRANCH   1   2
BRANCH   1  30
ATOM     30  O   UNL     1       0.074   1.585  -4.172  1.00  0.00    -0.377 OA
BRANCH  30  31
ATOM     31  C   UNL     1      -0.091   0.887  -5.370  1.00  0.00     0.188 C 
BRANCH  31  32
ATOM     32  C   UNL     1      -0.452  -0.586  -5.165  1.00  0.00     0.188 C 
BRANCH  32  33
ATOM     33  O   UNL     1      -0.086  -1.297  -3.981  1.00  0.00    -0.376 OA
BRANCH  33  34
ATOM     34  C   UNL     1       0.883  -0.775  -3.082  1.00  0.00     0.202 C 
BRANCH  34  35
ATOM     35  C   UNL     1       2.352  -0.695  -3.545  1.00  0.00     0.261 C 
BRANCH  35  36
ATOM     36  O   UNL     1       2.522  -0.173  -4.867  1.00  0.00    -0.460 OA
BRANCH  36  37
ATOM     37  C   UNL     1       3.144  -0.961  -5.788  1.00  0.00     0.338 C 
ATOM     38  O   UNL     1       3.820  -1.938  -5.597  1.00  0.00    -0.246 OA
BRANCH  37  39
ATOM     39  C   UNL     1       2.546  -0.578  -7.094  1.00  0.00     0.060 A 
ATOM     40  C   UNL     1       2.520   0.754  -7.516  1.00  0.00     0.016 A 
ATOM     41  C   UNL     1       1.710  -1.535  -7.687  1.00  0.00     0.016 A 
ATOM     42  C   UNL     1       1.528   1.149  -8.414  1.00  0.00     0.010 A 
ATOM     43  C   UNL     1       0.712  -1.132  -8.575  1.00  0.00     0.010 A 
ATOM     44  C   UNL     1       0.583   0.220  -8.899  1.00  0.00    -0.014 A 
BRANCH  44  45
ATOM     45  C   UNL     1      -0.315   0.669  -9.973  1.00  0.00     0.031 A 
ATOM     46  C   UNL     1       0.459   1.084 -11.175  1.00  0.00     0.074 A 
ATOM     47  C   UNL     1      -1.661   0.589 -10.055  1.00  0.00     0.049 A 
ATOM     48  N   UNL     1       0.471   2.229 -11.775  1.00  0.00    -0.248 NA
ATOM     49  C   UNL     1       1.453   0.119 -11.677  1.00  0.00     0.031 C 
ATOM     50  C   UNL     1      -2.595  -0.069  -9.144  1.00  0.00     0.029 A 
ATOM     51  N   UNL     1      -2.478   1.023 -11.072  1.00  0.00    -0.354 N 
ATOM     52  C   UNL     1       1.378   2.084 -12.820  1.00  0.00     0.074 A 
ATOM     53  C   UNL     1       2.059   0.833 -12.620  1.00  0.00     0.031 C 
ATOM     54  C   UNL     1      -3.808  -0.165  -9.741  1.00  0.00     0.029 A 
ATOM     55  C   UNL     1      -3.769   0.509 -11.031  1.00  0.00     0.049 A 
ATOM     56  H   UNL     1      -2.174   1.645 -11.771  1.00  0.00     0.167 HD
ATOM     57  C   UNL     1       1.357   2.892 -13.910  1.00  0.00     0.037 A 
ATOM     58  C   UNL     1      -4.710   0.573 -12.011  1.00  0.00     0.037 A 
ATOM     59  C   UNL     1       0.696   4.139 -13.648  1.00  0.00     0.049 A 
ATOM     60  C   UNL     1      -4.314   1.639 -12.964  1.00  0.00     0.074 A 
ATOM     61  C   UNL     1       0.896   5.174 -12.755  1.00  0.00     0.029 A 
ATOM     62  N   UNL     1      -0.556   4.336 -14.170  1.00  0.00    -0.354 N 
ATOM     63  N   UNL     1      -4.387   2.916 -12.725  1.00  0.00    -0.248 NA
ATOM     64  C   UNL     1      -3.497   1.261 -14.108  1.00  0.00     0.031 C 
ATOM     65  C   UNL     1      -0.406   5.660 -12.446  1.00  0.00     0.029 A 
ATOM     66  C   UNL     1      -1.316   4.904 -13.184  1.00  0.00     0.049 A 
ATOM     67  H   UNL     1      -0.852   4.112 -15.082  1.00  0.00     0.167 HD
ATOM     68  C   UNL     1      -3.313   3.460 -13.410  1.00  0.00     0.074 A 
ATOM     69  C   UNL     1      -2.874   2.419 -14.329  1.00  0.00     0.031 C 
ATOM     70  C   UNL     1      -2.708   4.598 -12.970  1.00  0.00     0.037 A 
BRANCH  57  71
ATOM     71  C   UNL     1       1.622   2.382 -15.301  1.00  0.00     0.064 A 
ATOM     72  C   UNL     1       1.770   3.300 -16.355  1.00  0.00     0.173 A 
ATOM     73  C   UNL     1       1.439   1.033 -15.683  1.00  0.00     0.173 A 
ATOM     74  F   UNL     1       1.912   4.610 -16.105  1.00  0.00    -0.203 F 
ATOM     75  C   UNL     1       1.672   2.904 -17.691  1.00  0.00     0.198 A 
ATOM     76  C   UNL     1       1.407   0.634 -17.015  1.00  0.00     0.198 A 
ATOM     77  F   UNL     1       1.168   0.069 -14.795  1.00  0.00    -0.203 F 
ATOM     78  F   UNL     1       1.684   3.830 -18.659  1.00  0.00    -0.200 F 
ATOM     79  C   UNL     1       1.489   1.573 -18.020  1.00  0.00     0.200 A 
ATOM     80  F   UNL     1       1.206  -0.658 -17.310  1.00  0.00    -0.200 F 
ATOM     81  F   UNL     1       1.335   1.201 -19.297  1.00  0.00    -0.200 F 
ENDBRANCH  57  71
BRANCH  58  82
ATOM     82  C   UNL     1      -5.834  -0.349 -12.329  1.00  0.00     0.064 A 
ATOM     83  C   UNL     1      -6.885   0.042 -13.183  1.00  0.00     0.173 A 
ATOM     84  C   UNL     1      -5.764  -1.721 -12.026  1.00  0.00     0.173 A 
ATOM     85  F   UNL     1      -7.006   1.321 -13.567  1.00  0.00    -0.203 F 
ATOM     86  C   UNL     1      -7.789  -0.885 -13.716  1.00  0.00     0.198 A 
ATOM     87  C   UNL     1      -6.674  -2.643 -12.548  1.00  0.00     0.198 A 
ATOM     88  F   UNL     1      -4.754  -2.211 -11.295  1.00  0.00    -0.203 F 
ATOM     89  F   UNL     1      -8.733  -0.482 -14.578  1.00  0.00    -0.200 F 
ATOM     90  C   UNL     1      -7.677  -2.229 -13.404  1.00  0.00     0.200 A 
ATOM     91  F   UNL     1      -6.533  -3.946 -12.265  1.00  0.00    -0.200 F 
ATOM     92  F   UNL     1      -8.504  -3.126 -13.958  1.00  0.00    -0.200 F 
ENDBRANCH  58  82
BRANCH  70  93
ATOM     93  C   UNL     1      -3.431   5.442 -11.967  1.00  0.00     0.064 A 
ATOM     94  C   UNL     1      -3.739   5.018 -10.664  1.00  0.00     0.173 A 
ATOM     95  C   UNL     1      -3.658   6.788 -12.287  1.00  0.00     0.173 A 
ATOM     96  F   UNL     1      -3.460   3.771 -10.256  1.00  0.00    -0.203 F 
ATOM     97  C   UNL     1      -4.277   5.904  -9.735  1.00  0.00     0.198 A 
ATOM     98  C   UNL     1      -4.157   7.678 -11.343  1.00  0.00     0.198 A 
ATOM     99  F   UNL     1      -3.335   7.253 -13.505  1.00  0.00    -0.203 F 
ATOM    100  F   UNL     1      -4.569   5.479  -8.497  1.00  0.00    -0.200 F 
ATOM    101  C   UNL     1      -4.471   7.235 -10.069  1.00  0.00     0.200 A 
ATOM    102  F   UNL     1      -4.297   8.974 -11.657  1.00  0.00    -0.200 F 
ATOM    103  F   UNL     1      -4.929   8.099  -9.152  1.00  0.00    -0.200 F 
ENDBRANCH  70  93
ENDBRANCH  44  45
ENDBRANCH  37  39
ENDBRANCH  36  37
ENDBRANCH  35  36
ENDBRANCH  34  35
ENDBRANCH  33  34
ENDBRANCH  32  33
ENDBRANCH  31  32
ENDBRANCH  30  31
ENDBRANCH   1  30
TORSDOF 24
