REMARK SMILES O=C(Nc1c(F)cc(F)cc1F)N[C@H]1C=C[C@@H](C(=O)OCCOCCOCCOCCOC(=O)c2ccc(-c3c4nc(c(-c5c(F)c(F)c(F)c(F)c5F)c5ccc([nH]5)c(-c5c(F)c(F)c(F)c(F)c5F)c5nc(c(-c6c(F)c(F)c(F)c(F)c6F)c6ccc3[nH]6)C=C5)C=C4)cc2)C1
REMARK SMILES IDX 26 1 25 2 24 3 23 4 22 5 21 6 20 7 18 8 19 9 17 10 14 11
REMARK SMILES IDX 15 12 98 13 16 14 13 15 1 16 2 17 3 18 4 21 5 22 11 23 6 24
REMARK SMILES IDX 7 25 10 26 12 27 8 28 9 29 27 30 28 31 29 32 30 33 31 34
REMARK SMILES IDX 32 35 33 36 34 37 35 38 36 39 97 40 37 41 96 42 38 43 39 44
REMARK SMILES IDX 40 45 90 46 41 47 95 48 89 49 91 50 42 51 94 52 88 53 87 54
REMARK SMILES IDX 43 56 75 57 55 58 74 59 56 60 59 61 73 62 92 63 57 64 58 65
REMARK SMILES IDX 72 67 93 68 60 69 44 70 45 71 53 72 46 73 47 74 51 75 54 76
REMARK SMILES IDX 48 77 49 78 52 79 50 80 76 81 77 82 85 83 78 84 79 85 83 86
REMARK SMILES IDX 86 87 80 88 81 89 84 90 82 91 61 92 62 93 70 94 63 95 64 96
REMARK SMILES IDX 68 97 71 98 65 99 66 100 69 101 67 102
REMARK H PARENT 3 19 13 20 91 55 59 66
REMARK Flexibility Score: inf
ROOT
ATOM      1  O   UNL     1      -1.810   0.289  -0.600  1.00  0.00    -0.377 OA
ENDROOT
BRANCH   1   2
ATOM      2  C   UNL     1      -2.095   0.453  -1.971  1.00  0.00     0.188 C 
BRANCH   2   3
ATOM      3  C   UNL     1      -3.146  -0.514  -2.528  1.00  0.00     0.188 C 
BRANCH   3   4
ATOM      4  O   UNL     1      -4.142  -1.047  -1.673  1.00  0.00    -0.376 OA
BRANCH   4   5
ATOM      5  C   UNL     1      -3.801  -1.829  -0.536  1.00  0.00     0.202 C 
BRANCH   5   6
ATOM      6  C   UNL     1      -2.547  -2.717  -0.427  1.00  0.00     0.261 C 
BRANCH   6   7
ATOM      7  O   UNL     1      -1.382  -2.271  -1.125  1.00  0.00    -0.463 OA
BRANCH   7   8
ATOM      8  C   UNL     1      -0.944  -3.046  -2.140  1.00  0.00     0.312 C 
ATOM      9  O   UNL     1      -1.494  -4.083  -2.505  1.00  0.00    -0.252 OA
BRANCH   8  10
ATOM     10  C   UNL     1       0.302  -2.508  -2.841  1.00  0.00     0.124 C 
ATOM     11  C   UNL     1       2.381  -1.349  -2.232  1.00  0.00     0.107 C 
ATOM     12  C   UNL     1       2.555  -2.826  -2.215  1.00  0.00    -0.006 C 
ATOM     13  C   UNL     1       0.883  -1.147  -2.428  1.00  0.00     0.048 C 
ATOM     14  C   UNL     1       1.436  -3.457  -2.585  1.00  0.00    -0.014 C 
BRANCH  11  15
ATOM     15  N   UNL     1       2.993  -0.737  -1.079  1.00  0.00    -0.332 N 
ATOM     16  O   UNL     1       1.361  -0.965   0.509  1.00  0.00    -0.248 OA
ATOM     17  C   UNL     1       2.486  -0.609   0.172  1.00  0.00     0.319 C 
ATOM     18  N   UNL     1       3.311  -0.149   1.154  1.00  0.00    -0.303 N 
ATOM     19  H   UNL     1       2.863  -0.025   2.022  1.00  0.00     0.172 HD
ATOM     20  H   UNL     1       3.893  -0.364  -1.217  1.00  0.00     0.165 HD
BRANCH  18  21
ATOM     21  C   UNL     1       4.679   0.185   1.169  1.00  0.00     0.115 A 
ATOM     22  C   UNL     1       5.409   0.713   0.102  1.00  0.00     0.152 A 
ATOM     23  C   UNL     1       5.368  -0.088   2.356  1.00  0.00     0.152 A 
ATOM     24  F   UNL     1       4.800   1.093  -1.030  1.00  0.00    -0.204 F 
ATOM     25  C   UNL     1       6.789   0.871   0.175  1.00  0.00     0.081 A 
ATOM     26  C   UNL     1       6.749   0.040   2.443  1.00  0.00     0.081 A 
ATOM     27  F   UNL     1       4.696  -0.561   3.417  1.00  0.00    -0.204 F 
ATOM     28  C   UNL     1       7.449   0.504   1.339  1.00  0.00     0.129 A 
ATOM     29  F   UNL     1       8.783   0.597   1.395  1.00  0.00    -0.207 F 
ENDBRANCH  18  21
ENDBRANCH  11  15
ENDBRANCH   8  10
ENDBRANCH   7   8
ENDBRANCH   6   7
ENDBRANCH   5   6
ENDBRANCH   4   5
ENDBRANCH   3   4
ENDBRANCH   2   3
ENDBRANCH   1   2
BRANCH   1  30
ATOM     30  C   UNL     1      -2.502   1.087   0.347  1.00  0.00     0.188 C 
BRANCH  30  31
ATOM     31  C   UNL     1      -3.859   1.721  -0.022  1.00  0.00     0.188 C 
BRANCH  31  32
ATOM     32  O   UNL     1      -3.921   2.306  -1.313  1.00  0.00    -0.376 OA
BRANCH  32  33
ATOM     33  C   UNL     1      -3.649   3.693  -1.455  1.00  0.00     0.202 C 
BRANCH  33  34
ATOM     34  C   UNL     1      -2.244   4.198  -1.086  1.00  0.00     0.261 C 
BRANCH  34  35
ATOM     35  O   UNL     1      -1.832   4.010   0.278  1.00  0.00    -0.460 OA
BRANCH  35  36
ATOM     36  C   UNL     1      -2.607   4.522   1.252  1.00  0.00     0.338 C 
ATOM     37  O   UNL     1      -3.608   5.211   1.119  1.00  0.00    -0.246 OA
BRANCH  36  38
ATOM     38  C   UNL     1      -2.153   3.962   2.539  1.00  0.00     0.060 A 
ATOM     39  C   UNL     1      -3.050   3.207   3.304  1.00  0.00     0.016 A 
ATOM     40  C   UNL     1      -0.854   4.197   2.998  1.00  0.00     0.016 A 
ATOM     41  C   UNL     1      -2.667   2.726   4.556  1.00  0.00     0.010 A 
ATOM     42  C   UNL     1      -0.478   3.732   4.261  1.00  0.00     0.010 A 
ATOM     43  C   UNL     1      -1.397   3.029   5.062  1.00  0.00    -0.014 A 
BRANCH  43  44
ATOM     44  C   UNL     1      -1.102   2.794   6.496  1.00  0.00     0.031 A 
ATOM     45  C   UNL     1      -1.225   3.951   7.449  1.00  0.00     0.074 A 
ATOM     46  C   UNL     1      -0.768   1.575   6.954  1.00  0.00     0.049 A 
ATOM     47  N   UNL     1      -0.976   4.005   8.733  1.00  0.00    -0.248 NA
ATOM     48  C   UNL     1      -1.696   5.222   6.874  1.00  0.00     0.031 C 
ATOM     49  C   UNL     1      -0.676   0.365   6.141  1.00  0.00     0.029 A 
ATOM     50  N   UNL     1      -0.446   1.157   8.222  1.00  0.00    -0.354 N 
ATOM     51  C   UNL     1      -1.259   5.310   9.116  1.00  0.00     0.074 A 
ATOM     52  C   UNL     1      -1.658   6.027   7.925  1.00  0.00     0.031 C 
ATOM     53  C   UNL     1      -0.321  -0.663   6.932  1.00  0.00     0.029 A 
ATOM     54  C   UNL     1      -0.125  -0.175   8.297  1.00  0.00     0.049 A 
ATOM     55  H   UNL     1      -0.445   1.757   9.003  1.00  0.00     0.167 HD
ATOM     56  C   UNL     1      -1.208   5.856  10.353  1.00  0.00     0.037 A 
ATOM     57  C   UNL     1       0.296  -0.910   9.347  1.00  0.00     0.037 A 
ATOM     58  C   UNL     1      -0.806   5.139  11.535  1.00  0.00     0.049 A 
ATOM     59  C   UNL     1       0.447  -0.254  10.697  1.00  0.00     0.074 A 
ATOM     60  C   UNL     1      -0.712   5.606  12.834  1.00  0.00     0.029 A 
ATOM     61  N   UNL     1      -0.429   3.804  11.560  1.00  0.00    -0.354 N 
ATOM     62  N   UNL     1       0.181   0.979  11.054  1.00  0.00    -0.248 NA
ATOM     63  C   UNL     1       0.960  -1.093  11.790  1.00  0.00     0.031 C 
ATOM     64  C   UNL     1      -0.223   4.571  13.635  1.00  0.00     0.029 A 
ATOM     65  C   UNL     1      -0.075   3.439  12.849  1.00  0.00     0.049 A 
ATOM     66  H   UNL     1      -0.415   3.206  10.778  1.00  0.00     0.167 HD
ATOM     67  C   UNL     1       0.464   1.057  12.412  1.00  0.00     0.074 A 
ATOM     68  C   UNL     1       0.911  -0.258  12.820  1.00  0.00     0.031 C 
ATOM     69  C   UNL     1       0.361   2.122  13.245  1.00  0.00     0.037 A 
BRANCH  56  70
ATOM     70  C   UNL     1      -1.580   7.304  10.494  1.00  0.00     0.064 A 
ATOM     71  C   UNL     1      -0.611   8.258  10.841  1.00  0.00     0.173 A 
ATOM     72  C   UNL     1      -2.904   7.742  10.338  1.00  0.00     0.173 A 
ATOM     73  F   UNL     1       0.670   7.893  11.005  1.00  0.00    -0.203 F 
ATOM     74  C   UNL     1      -0.956   9.592  11.042  1.00  0.00     0.198 A 
ATOM     75  C   UNL     1      -3.240   9.083  10.507  1.00  0.00     0.198 A 
ATOM     76  F   UNL     1      -3.866   6.874   9.991  1.00  0.00    -0.203 F 
ATOM     77  F   UNL     1      -0.019  10.477  11.407  1.00  0.00    -0.200 F 
ATOM     78  C   UNL     1      -2.269  10.004  10.869  1.00  0.00     0.200 A 
ATOM     79  F   UNL     1      -4.503   9.485  10.311  1.00  0.00    -0.200 F 
ATOM     80  F   UNL     1      -2.597  11.291  11.047  1.00  0.00    -0.200 F 
ENDBRANCH  56  70
BRANCH  57  81
ATOM     81  C   UNL     1       0.593  -2.356   9.162  1.00  0.00     0.064 A 
ATOM     82  C   UNL     1       1.675  -2.787   8.380  1.00  0.00     0.173 A 
ATOM     83  C   UNL     1      -0.211  -3.337   9.757  1.00  0.00     0.173 A 
ATOM     84  F   UNL     1       2.483  -1.889   7.797  1.00  0.00    -0.203 F 
ATOM     85  C   UNL     1       1.924  -4.143   8.178  1.00  0.00     0.198 A 
ATOM     86  C   UNL     1       0.056  -4.694   9.578  1.00  0.00     0.198 A 
ATOM     87  F   UNL     1      -1.239  -2.977  10.539  1.00  0.00    -0.203 F 
ATOM     88  F   UNL     1       2.944  -4.527   7.399  1.00  0.00    -0.200 F 
ATOM     89  C   UNL     1       1.116  -5.096   8.780  1.00  0.00     0.200 A 
ATOM     90  F   UNL     1      -0.709  -5.610  10.187  1.00  0.00    -0.200 F 
ATOM     91  F   UNL     1       1.364  -6.400   8.598  1.00  0.00    -0.200 F 
ENDBRANCH  57  81
BRANCH  69  92
ATOM     92  C   UNL     1       0.709   1.920  14.694  1.00  0.00     0.064 A 
ATOM     93  C   UNL     1      -0.286   2.004  15.682  1.00  0.00     0.173 A 
ATOM     94  C   UNL     1       2.034   1.734  15.114  1.00  0.00     0.173 A 
ATOM     95  F   UNL     1      -1.569   2.193  15.336  1.00  0.00    -0.203 F 
ATOM     96  C   UNL     1       0.035   1.928  17.034  1.00  0.00     0.198 A 
ATOM     97  C   UNL     1       2.347   1.624  16.467  1.00  0.00     0.198 A 
ATOM     98  F   UNL     1       3.021   1.638  14.212  1.00  0.00    -0.203 F 
ATOM     99  F   UNL     1      -0.926   2.056  17.959  1.00  0.00    -0.200 F 
ATOM    100  C   UNL     1       1.351   1.733  17.425  1.00  0.00     0.200 A 
ATOM    101  F   UNL     1       3.616   1.411  16.843  1.00  0.00    -0.200 F 
ATOM    102  F   UNL     1       1.659   1.650  18.727  1.00  0.00    -0.200 F 
ENDBRANCH  69  92
ENDBRANCH  43  44
ENDBRANCH  36  38
ENDBRANCH  35  36
ENDBRANCH  34  35
ENDBRANCH  33  34
ENDBRANCH  32  33
ENDBRANCH  31  32
ENDBRANCH  30  31
ENDBRANCH   1  30
TORSDOF 22
