REMARK SMILES CC[C@@](O)(C(=O)OCCOCCOCCOCCOC(=O)c1ccc(-c2c3nc(c(-c4c(F)c(F)c(F)c(F)c4F)c4ccc([nH]4)c(-c4c(F)c(F)c(F)c(F)c4F)c4nc(c(-c5c(F)c(F)c(F)c(F)c5F)c5ccc2[nH]5)C=C4)C=C3)cc1)[C@@H]1CCc2ccc(OC)cc21
REMARK SMILES IDX 13 1 12 2 11 3 10 4 9 5 8 6 7 7 5 8 6 9 3 10 2 11 1 12 4 13
REMARK SMILES IDX 85 15 86 16 95 17 87 18 88 19 94 20 89 21 91 22 90 23 92 24
REMARK SMILES IDX 93 25 14 26 15 27 16 28 17 29 18 30 19 31 20 32 21 33 22 34
REMARK SMILES IDX 23 35 84 36 24 37 83 38 25 39 26 40 27 41 77 42 28 43 82 44
REMARK SMILES IDX 76 45 78 46 29 47 81 48 75 49 74 50 30 52 62 53 42 54 61 55
REMARK SMILES IDX 43 56 46 57 60 58 79 59 44 60 45 61 59 63 80 64 47 65 31 66
REMARK SMILES IDX 32 67 40 68 33 69 34 70 38 71 41 72 35 73 36 74 39 75 37 76
REMARK SMILES IDX 63 77 64 78 72 79 65 80 66 81 70 82 73 83 67 84 68 85 71 86
REMARK SMILES IDX 69 87 48 88 49 89 57 90 50 91 51 92 55 93 58 94 52 95 53 96
REMARK SMILES IDX 56 97 54 98
REMARK H PARENT 4 14 78 51 46 62
REMARK Flexibility Score: inf
ROOT
ATOM      1  O   UNL     1       6.719  -5.251  -0.492  1.00  0.00    -0.377 OA
ENDROOT
BRANCH   1   2
ATOM      2  C   UNL     1       5.904  -4.174  -0.059  1.00  0.00     0.188 C 
BRANCH   2   3
ATOM      3  C   UNL     1       6.625  -3.010   0.614  1.00  0.00     0.188 C 
BRANCH   3   4
ATOM      4  O   UNL     1       7.300  -3.366   1.815  1.00  0.00    -0.376 OA
BRANCH   4   5
ATOM      5  C   UNL     1       6.796  -3.459   3.141  1.00  0.00     0.202 C 
BRANCH   5   6
ATOM      6  C   UNL     1       5.705  -4.498   3.527  1.00  0.00     0.261 C 
BRANCH   6   7
ATOM      7  O   UNL     1       4.368  -4.003   3.288  1.00  0.00    -0.461 OA
BRANCH   7   8
ATOM      8  C   UNL     1       3.601  -4.638   2.369  1.00  0.00     0.338 C 
ATOM      9  O   UNL     1       3.751  -5.835   2.139  1.00  0.00    -0.249 OA
BRANCH   8  10
ATOM     10  C   UNL     1       2.563  -3.672   1.598  1.00  0.00     0.168 C 
BRANCH  10  11
ATOM     11  C   UNL     1       2.302  -4.453   0.240  1.00  0.00     0.044 C 
ATOM     12  C   UNL     1       0.931  -4.424  -0.410  1.00  0.00     0.007 C 
ENDBRANCH  10  11
BRANCH  10  13
ATOM     13  O   UNL     1       1.398  -3.614   2.420  1.00  0.00    -0.378 OA
ATOM     14  H   UNL     1       1.094  -4.514   2.615  1.00  0.00     0.212 HD
ENDBRANCH  10  13
BRANCH  10  15
ATOM     15  C   UNL     1       3.077  -2.180   1.268  1.00  0.00     0.063 C 
ATOM     16  C   UNL     1       4.185  -1.671   2.204  1.00  0.00     0.017 C 
ATOM     17  C   UNL     1       2.259  -0.869   1.485  1.00  0.00    -0.035 A 
ATOM     18  C   UNL     1       3.507  -1.245   3.492  1.00  0.00     0.036 C 
ATOM     19  C   UNL     1       2.588  -0.316   2.762  1.00  0.00    -0.044 A 
ATOM     20  C   UNL     1       1.961   0.015   0.444  1.00  0.00     0.050 A 
ATOM     21  C   UNL     1       2.654   1.052   3.011  1.00  0.00     0.008 A 
ATOM     22  C   UNL     1       2.114   1.398   0.678  1.00  0.00     0.119 A 
ATOM     23  C   UNL     1       2.467   1.904   1.938  1.00  0.00     0.047 A 
BRANCH  22  24
ATOM     24  O   UNL     1       2.148   2.342  -0.316  1.00  0.00    -0.497 OA
ATOM     25  C   UNL     1       1.100   2.228  -1.263  1.00  0.00     0.278 C 
ENDBRANCH  22  24
ENDBRANCH  10  15
ENDBRANCH   8  10
ENDBRANCH   7   8
ENDBRANCH   6   7
ENDBRANCH   5   6
ENDBRANCH   4   5
ENDBRANCH   3   4
ENDBRANCH   2   3
ENDBRANCH   1   2
BRANCH   1  26
ATOM     26  C   UNL     1       7.779  -5.614   0.376  1.00  0.00     0.188 C 
BRANCH  26  27
ATOM     27  C   UNL     1       9.092  -4.809   0.188  1.00  0.00     0.188 C 
BRANCH  27  28
ATOM     28  O   UNL     1       9.507  -4.272  -1.066  1.00  0.00    -0.376 OA
BRANCH  28  29
ATOM     29  C   UNL     1       8.716  -4.430  -2.227  1.00  0.00     0.202 C 
BRANCH  29  30
ATOM     30  C   UNL     1       8.786  -5.804  -2.904  1.00  0.00     0.261 C 
BRANCH  30  31
ATOM     31  O   UNL     1       8.808  -6.928  -2.013  1.00  0.00    -0.460 OA
BRANCH  31  32
ATOM     32  C   UNL     1      10.026  -7.272  -1.532  1.00  0.00     0.338 C 
ATOM     33  O   UNL     1      11.109  -6.792  -1.835  1.00  0.00    -0.246 OA
BRANCH  32  34
ATOM     34  C   UNL     1       9.855  -8.240  -0.426  1.00  0.00     0.060 A 
ATOM     35  C   UNL     1      10.517  -7.993   0.786  1.00  0.00     0.016 A 
ATOM     36  C   UNL     1       9.042  -9.367  -0.569  1.00  0.00     0.016 A 
ATOM     37  C   UNL     1      10.398  -8.885   1.847  1.00  0.00     0.010 A 
ATOM     38  C   UNL     1       8.963 -10.291   0.476  1.00  0.00     0.010 A 
ATOM     39  C   UNL     1       9.678 -10.071   1.667  1.00  0.00    -0.014 A 
BRANCH  39  40
ATOM     40  C   UNL     1       9.941 -11.193   2.594  1.00  0.00     0.031 A 
ATOM     41  C   UNL     1      11.029 -12.159   2.212  1.00  0.00     0.074 A 
ATOM     42  C   UNL     1       9.286 -11.316   3.759  1.00  0.00     0.049 A 
ATOM     43  N   UNL     1      11.436 -13.242   2.820  1.00  0.00    -0.248 NA
ATOM     44  C   UNL     1      11.762 -11.856   0.970  1.00  0.00     0.031 C 
ATOM     45  C   UNL     1       8.265 -10.399   4.257  1.00  0.00     0.029 A 
ATOM     46  N   UNL     1       9.388 -12.275   4.734  1.00  0.00    -0.354 N 
ATOM     47  C   UNL     1      12.462 -13.748   2.033  1.00  0.00     0.074 A 
ATOM     48  C   UNL     1      12.600 -12.876   0.890  1.00  0.00     0.031 C 
ATOM     49  C   UNL     1       7.817 -10.852   5.442  1.00  0.00     0.029 A 
ATOM     50  C   UNL     1       8.496 -12.107   5.763  1.00  0.00     0.049 A 
ATOM     51  H   UNL     1      10.038 -13.014   4.699  1.00  0.00     0.167 HD
ATOM     52  C   UNL     1      13.228 -14.841   2.251  1.00  0.00     0.037 A 
ATOM     53  C   UNL     1       8.243 -12.900   6.822  1.00  0.00     0.037 A 
ATOM     54  C   UNL     1      13.076 -15.707   3.388  1.00  0.00     0.049 A 
ATOM     55  C   UNL     1       9.047 -14.165   6.996  1.00  0.00     0.074 A 
ATOM     56  C   UNL     1      13.791 -16.846   3.708  1.00  0.00     0.029 A 
ATOM     57  N   UNL     1      12.133 -15.528   4.390  1.00  0.00    -0.354 N 
ATOM     58  N   UNL     1      10.020 -14.639   6.254  1.00  0.00    -0.248 NA
ATOM     59  C   UNL     1       8.720 -15.004   8.157  1.00  0.00     0.031 C 
ATOM     60  C   UNL     1      13.242 -17.390   4.873  1.00  0.00     0.029 A 
ATOM     61  C   UNL     1      12.230 -16.552   5.316  1.00  0.00     0.049 A 
ATOM     62  H   UNL     1      11.490 -14.784   4.435  1.00  0.00     0.167 HD
ATOM     63  C   UNL     1      10.441 -15.810   6.873  1.00  0.00     0.074 A 
ATOM     64  C   UNL     1       9.625 -15.967   8.060  1.00  0.00     0.031 C 
ATOM     65  C   UNL     1      11.412 -16.679   6.497  1.00  0.00     0.037 A 
BRANCH  52  66
ATOM     66  C   UNL     1      14.264 -15.178   1.219  1.00  0.00     0.064 A 
ATOM     67  C   UNL     1      15.411 -14.390   1.035  1.00  0.00     0.173 A 
ATOM     68  C   UNL     1      14.114 -16.316   0.412  1.00  0.00     0.173 A 
ATOM     69  F   UNL     1      15.592 -13.280   1.765  1.00  0.00    -0.203 F 
ATOM     70  C   UNL     1      16.356 -14.716   0.065  1.00  0.00     0.198 A 
ATOM     71  C   UNL     1      15.077 -16.656  -0.535  1.00  0.00     0.198 A 
ATOM     72  F   UNL     1      13.035 -17.101   0.544  1.00  0.00    -0.203 F 
ATOM     73  F   UNL     1      17.417 -13.920  -0.129  1.00  0.00    -0.200 F 
ATOM     74  C   UNL     1      16.192 -15.852  -0.713  1.00  0.00     0.200 A 
ATOM     75  F   UNL     1      14.922 -17.761  -1.277  1.00  0.00    -0.200 F 
ATOM     76  F   UNL     1      17.106 -16.169  -1.640  1.00  0.00    -0.200 F 
ENDBRANCH  52  66
BRANCH  53  77
ATOM     77  C   UNL     1       7.166 -12.541   7.783  1.00  0.00     0.064 A 
ATOM     78  C   UNL     1       7.457 -12.210   9.114  1.00  0.00     0.173 A 
ATOM     79  C   UNL     1       5.817 -12.549   7.396  1.00  0.00     0.173 A 
ATOM     80  F   UNL     1       8.728 -12.213   9.542  1.00  0.00    -0.203 F 
ATOM     81  C   UNL     1       6.441 -11.921  10.024  1.00  0.00     0.198 A 
ATOM     82  C   UNL     1       4.804 -12.229   8.298  1.00  0.00     0.198 A 
ATOM     83  F   UNL     1       5.481 -12.864   6.136  1.00  0.00    -0.203 F 
ATOM     84  F   UNL     1       6.745 -11.661  11.303  1.00  0.00    -0.200 F 
ATOM     85  C   UNL     1       5.116 -11.925   9.614  1.00  0.00     0.200 A 
ATOM     86  F   UNL     1       3.527 -12.222   7.894  1.00  0.00    -0.200 F 
ATOM     87  F   UNL     1       4.141 -11.646  10.489  1.00  0.00    -0.200 F 
ENDBRANCH  53  77
BRANCH  65  88
ATOM     88  C   UNL     1      11.680 -17.850   7.399  1.00  0.00     0.064 A 
ATOM     89  C   UNL     1      10.773 -18.913   7.520  1.00  0.00     0.173 A 
ATOM     90  C   UNL     1      12.886 -17.930   8.113  1.00  0.00     0.173 A 
ATOM     91  F   UNL     1       9.602 -18.880   6.868  1.00  0.00    -0.203 F 
ATOM     92  C   UNL     1      11.051 -19.999   8.347  1.00  0.00     0.198 A 
ATOM     93  C   UNL     1      13.176 -19.034   8.910  1.00  0.00     0.198 A 
ATOM     94  F   UNL     1      13.793 -16.946   8.023  1.00  0.00    -0.203 F 
ATOM     95  F   UNL     1      10.147 -20.978   8.489  1.00  0.00    -0.200 F 
ATOM     96  C   UNL     1      12.255 -20.062   9.034  1.00  0.00     0.200 A 
ATOM     97  F   UNL     1      14.348 -19.102   9.557  1.00  0.00    -0.200 F 
ATOM     98  F   UNL     1      12.524 -21.113   9.821  1.00  0.00    -0.200 F 
ENDBRANCH  65  88
ENDBRANCH  39  40
ENDBRANCH  32  34
ENDBRANCH  31  32
ENDBRANCH  30  31
ENDBRANCH  29  30
ENDBRANCH  28  29
ENDBRANCH  27  28
ENDBRANCH  26  27
ENDBRANCH   1  26
TORSDOF 24
