REMARK SMILES CC1(C)CCC[C@@H]1NC(=O)NC1(CC(=O)OCCOCCOCCOCCOC(=O)c2ccc(-c3c4nc(c(-c5c(F)c(F)c(F)c(F)c5F)c5ccc([nH]5)c(-c5c(F)c(F)c(F)c(F)c5F)c5nc(c(-c6c(F)c(F)c(F)c(F)c6F)c6ccc3[nH]6)C=C5)C=C4)cc2)CCCCC1
REMARK SMILES IDX 21 1 20 2 19 3 18 4 17 5 16 6 14 7 15 8 13 9 12 10 94 11
REMARK SMILES IDX 98 12 95 13 97 14 96 15 11 16 8 17 9 18 10 20 7 22 1 23 2 24
REMARK SMILES IDX 3 25 4 26 5 27 6 28 22 29 23 30 24 31 25 32 26 33 27 34
REMARK SMILES IDX 28 35 29 36 30 37 31 38 32 39 93 40 33 41 92 42 34 43 35 44
REMARK SMILES IDX 36 45 86 46 37 47 91 48 85 49 87 50 38 51 90 52 84 53 83 54
REMARK SMILES IDX 39 56 71 57 51 58 70 59 52 60 55 61 69 62 88 63 53 64 54 65
REMARK SMILES IDX 68 67 89 68 56 69 40 70 41 71 49 72 42 73 43 74 47 75 50 76
REMARK SMILES IDX 44 77 45 78 48 79 46 80 72 81 73 82 81 83 74 84 75 85 79 86
REMARK SMILES IDX 82 87 76 88 77 89 80 90 78 91 57 92 58 93 66 94 59 95 60 96
REMARK SMILES IDX 64 97 67 98 61 99 62 100 65 101 63 102
REMARK H PARENT 8 19 11 21 87 55 55 66
REMARK Flexibility Score: inf
ROOT
ATOM      1  C   UNL     1      -0.188   5.611   2.840  1.00  0.00     0.188 C 
ENDROOT
BRANCH   1   2
ATOM      2  C   UNL     1      -1.299   6.672   2.992  1.00  0.00     0.188 C 
BRANCH   2   3
ATOM      3  O   UNL     1      -1.832   7.032   4.268  1.00  0.00    -0.376 OA
BRANCH   3   4
ATOM      4  C   UNL     1      -1.159   6.619   5.445  1.00  0.00     0.202 C 
BRANCH   4   5
ATOM      5  C   UNL     1      -1.483   5.176   5.873  1.00  0.00     0.261 C 
BRANCH   5   6
ATOM      6  O   UNL     1      -1.744   4.271   4.778  1.00  0.00    -0.463 OA
BRANCH   6   7
ATOM      7  C   UNL     1      -3.006   4.260   4.307  1.00  0.00     0.308 C 
ATOM      8  O   UNL     1      -3.944   4.826   4.865  1.00  0.00    -0.252 OA
BRANCH   7   9
ATOM      9  C   UNL     1      -3.244   3.503   3.004  1.00  0.00     0.151 C 
BRANCH   9  10
ATOM     10  C   UNL     1      -2.254   2.621   2.133  1.00  0.00     0.052 C 
ATOM     11  C   UNL     1      -3.206   1.583   1.481  1.00  0.00     0.029 C 
ATOM     12  C   UNL     1      -1.117   1.983   2.963  1.00  0.00     0.029 C 
ATOM     13  C   UNL     1      -3.523   0.354   2.323  1.00  0.00     0.002 C 
ATOM     14  C   UNL     1      -1.557   0.812   3.824  1.00  0.00     0.002 C 
ATOM     15  C   UNL     1      -2.304  -0.235   3.015  1.00  0.00     0.000 C 
BRANCH  10  16
ATOM     16  N   UNL     1      -1.665   3.423   0.995  1.00  0.00    -0.332 N 
ATOM     17  N   UNL     1      -0.293   2.140  -0.517  1.00  0.00    -0.335 N 
ATOM     18  C   UNL     1      -0.839   3.273  -0.054  1.00  0.00     0.315 C 
ATOM     19  H   UNL     1       0.384   2.315  -1.210  1.00  0.00     0.165 HD
ATOM     20  O   UNL     1      -0.546   4.311  -0.662  1.00  0.00    -0.249 OA
ATOM     21  H   UNL     1      -1.990   4.351   1.036  1.00  0.00     0.165 HD
BRANCH  17  22
ATOM     22  C   UNL     1      -0.448   0.724  -0.256  1.00  0.00     0.089 C 
ATOM     23  C   UNL     1       1.875   0.131   0.688  1.00  0.00     0.013 C 
ATOM     24  C   UNL     1       0.823  -0.165  -0.384  1.00  0.00    -0.015 C 
ATOM     25  C   UNL     1       1.515  -0.121  -1.762  1.00  0.00     0.013 C 
ATOM     26  C   UNL     1       0.186  -1.560  -0.184  1.00  0.00     0.008 C 
ATOM     27  C   UNL     1      -1.212  -1.474  -0.820  1.00  0.00     0.003 C 
ATOM     28  C   UNL     1      -1.423  -0.004  -1.188  1.00  0.00     0.025 C 
ENDBRANCH  17  22
ENDBRANCH  10  16
ENDBRANCH   9  10
ENDBRANCH   7   9
ENDBRANCH   6   7
ENDBRANCH   5   6
ENDBRANCH   4   5
ENDBRANCH   3   4
ENDBRANCH   2   3
ENDBRANCH   1   2
BRANCH   1  29
ATOM     29  O   UNL     1       0.786   5.602   3.874  1.00  0.00    -0.377 OA
BRANCH  29  30
ATOM     30  C   UNL     1       2.064   6.072   3.481  1.00  0.00     0.188 C 
BRANCH  30  31
ATOM     31  C   UNL     1       2.061   7.526   2.988  1.00  0.00     0.188 C 
BRANCH  31  32
ATOM     32  O   UNL     1       1.161   7.717   1.913  1.00  0.00    -0.376 OA
BRANCH  32  33
ATOM     33  C   UNL     1       1.570   7.707   0.561  1.00  0.00     0.202 C 
BRANCH  33  34
ATOM     34  C   UNL     1       2.455   6.607  -0.054  1.00  0.00     0.261 C 
BRANCH  34  35
ATOM     35  O   UNL     1       3.351   5.901   0.806  1.00  0.00    -0.460 OA
BRANCH  35  36
ATOM     36  C   UNL     1       4.502   6.513   1.147  1.00  0.00     0.338 C 
ATOM     37  O   UNL     1       4.872   7.629   0.823  1.00  0.00    -0.246 OA
BRANCH  36  38
ATOM     38  C   UNL     1       5.161   5.670   2.168  1.00  0.00     0.060 A 
ATOM     39  C   UNL     1       5.387   6.213   3.439  1.00  0.00     0.016 A 
ATOM     40  C   UNL     1       5.521   4.349   1.888  1.00  0.00     0.016 A 
ATOM     41  C   UNL     1       5.996   5.445   4.429  1.00  0.00     0.010 A 
ATOM     42  C   UNL     1       6.168   3.591   2.869  1.00  0.00     0.010 A 
ATOM     43  C   UNL     1       6.436   4.150   4.131  1.00  0.00    -0.014 A 
BRANCH  43  44
ATOM     44  C   UNL     1       7.388   3.489   5.053  1.00  0.00     0.031 A 
ATOM     45  C   UNL     1       8.857   3.658   4.777  1.00  0.00     0.074 A 
ATOM     46  C   UNL     1       6.969   2.801   6.127  1.00  0.00     0.049 A 
ATOM     47  N   UNL     1       9.888   3.166   5.413  1.00  0.00    -0.248 NA
ATOM     48  C   UNL     1       9.208   4.502   3.623  1.00  0.00     0.031 C 
ATOM     49  C   UNL     1       5.575   2.620   6.524  1.00  0.00     0.029 A 
ATOM     50  N   UNL     1       7.685   2.121   7.080  1.00  0.00    -0.354 N 
ATOM     51  C   UNL     1      11.005   3.637   4.735  1.00  0.00     0.074 A 
ATOM     52  C   UNL     1      10.529   4.426   3.622  1.00  0.00     0.031 C 
ATOM     53  C   UNL     1       5.536   1.863   7.636  1.00  0.00     0.029 A 
ATOM     54  C   UNL     1       6.898   1.482   8.006  1.00  0.00     0.049 A 
ATOM     55  H   UNL     1       8.669   2.094   7.099  1.00  0.00     0.167 HD
ATOM     56  C   UNL     1      12.312   3.435   5.023  1.00  0.00     0.037 A 
ATOM     57  C   UNL     1       7.246   0.664   9.020  1.00  0.00     0.037 A 
ATOM     58  C   UNL     1      12.777   2.641   6.127  1.00  0.00     0.049 A 
ATOM     59  C   UNL     1       8.708   0.382   9.266  1.00  0.00     0.074 A 
ATOM     60  C   UNL     1      14.078   2.375   6.512  1.00  0.00     0.029 A 
ATOM     61  N   UNL     1      11.950   1.972   7.019  1.00  0.00    -0.354 N 
ATOM     62  N   UNL     1       9.762   0.845   8.636  1.00  0.00    -0.248 NA
ATOM     63  C   UNL     1       9.029  -0.536  10.368  1.00  0.00     0.031 C 
ATOM     64  C   UNL     1      14.040   1.496   7.598  1.00  0.00     0.029 A 
ATOM     65  C   UNL     1      12.714   1.269   7.935  1.00  0.00     0.049 A 
ATOM     66  H   UNL     1      10.966   1.995   7.003  1.00  0.00     0.167 HD
ATOM     67  C   UNL     1      10.866   0.304   9.283  1.00  0.00     0.074 A 
ATOM     68  C   UNL     1      10.355  -0.512  10.364  1.00  0.00     0.031 C 
ATOM     69  C   UNL     1      12.185   0.469   9.011  1.00  0.00     0.037 A 
BRANCH  56  70
ATOM     70  C   UNL     1      13.325   4.051   4.103  1.00  0.00     0.064 A 
ATOM     71  C   UNL     1      13.529   5.439   4.047  1.00  0.00     0.173 A 
ATOM     72  C   UNL     1      14.117   3.239   3.277  1.00  0.00     0.173 A 
ATOM     73  F   UNL     1      12.785   6.262   4.801  1.00  0.00    -0.203 F 
ATOM     74  C   UNL     1      14.467   5.990   3.178  1.00  0.00     0.198 A 
ATOM     75  C   UNL     1      15.077   3.791   2.434  1.00  0.00     0.198 A 
ATOM     76  F   UNL     1      13.962   1.906   3.290  1.00  0.00    -0.203 F 
ATOM     77  F   UNL     1      14.606   7.321   3.101  1.00  0.00    -0.200 F 
ATOM     78  C   UNL     1      15.246   5.166   2.379  1.00  0.00     0.200 A 
ATOM     79  F   UNL     1      15.836   2.992   1.672  1.00  0.00    -0.200 F 
ATOM     80  F   UNL     1      16.153   5.698   1.548  1.00  0.00    -0.200 F 
ENDBRANCH  56  70
BRANCH  57  81
ATOM     81  C   UNL     1       6.197   0.038   9.868  1.00  0.00     0.064 A 
ATOM     82  C   UNL     1       6.071   0.362  11.227  1.00  0.00     0.173 A 
ATOM     83  C   UNL     1       5.317  -0.921   9.345  1.00  0.00     0.173 A 
ATOM     84  F   UNL     1       6.906   1.252  11.783  1.00  0.00    -0.203 F 
ATOM     85  C   UNL     1       5.121  -0.264  12.032  1.00  0.00     0.198 A 
ATOM     86  C   UNL     1       4.346  -1.523  10.144  1.00  0.00     0.198 A 
ATOM     87  F   UNL     1       5.396  -1.273   8.053  1.00  0.00    -0.203 F 
ATOM     88  F   UNL     1       5.059   0.026  13.339  1.00  0.00    -0.200 F 
ATOM     89  C   UNL     1       4.255  -1.201  11.489  1.00  0.00     0.200 A 
ATOM     90  F   UNL     1       3.504  -2.419   9.611  1.00  0.00    -0.200 F 
ATOM     91  F   UNL     1       3.341  -1.801  12.264  1.00  0.00    -0.200 F 
ENDBRANCH  57  81
BRANCH  69  92
ATOM     92  C   UNL     1      13.171  -0.208   9.921  1.00  0.00     0.064 A 
ATOM     93  C   UNL     1      13.341  -1.600   9.926  1.00  0.00     0.173 A 
ATOM     94  C   UNL     1      13.994   0.555  10.764  1.00  0.00     0.173 A 
ATOM     95  F   UNL     1      12.572  -2.377   9.147  1.00  0.00    -0.203 F 
ATOM     96  C   UNL     1      14.276  -2.205  10.762  1.00  0.00     0.198 A 
ATOM     97  C   UNL     1      14.953  -0.049  11.572  1.00  0.00     0.198 A 
ATOM     98  F   UNL     1      13.882   1.892  10.791  1.00  0.00    -0.203 F 
ATOM     99  F   UNL     1      14.383  -3.540  10.788  1.00  0.00    -0.200 F 
ATOM    100  C   UNL     1      15.087  -1.429  11.577  1.00  0.00     0.200 A 
ATOM    101  F   UNL     1      15.748   0.704  12.344  1.00  0.00    -0.200 F 
ATOM    102  F   UNL     1      15.993  -2.012  12.373  1.00  0.00    -0.200 F 
ENDBRANCH  69  92
ENDBRANCH  43  44
ENDBRANCH  36  38
ENDBRANCH  35  36
ENDBRANCH  34  35
ENDBRANCH  33  34
ENDBRANCH  32  33
ENDBRANCH  31  32
ENDBRANCH  30  31
ENDBRANCH  29  30
ENDBRANCH   1  29
TORSDOF 23
