REMARK SMILES O=C(OCCOCCOCCOCCOC(=O)c1cc(-c2cncnc2)cc(S(=O)(=O)N2CCCC2)c1)c1ccc(-c2c3nc(c(-c4c(F)c(F)c(F)c(F)c4F)c4ccc([nH]4)c(-c4c(F)c(F)c(F)c(F)c4F)c4nc(c(-c5c(F)c(F)c(F)c(F)c5F)c5ccc2[nH]5)C=C4)C=C3)cc1
REMARK SMILES IDX 9 1 8 2 7 3 6 4 5 5 4 6 3 7 2 8 1 9 38 10 39 11 100 12 40 13
REMARK SMILES IDX 99 14 41 15 42 16 43 17 93 18 44 19 98 20 92 21 94 22 45 23
REMARK SMILES IDX 97 24 91 25 90 26 46 28 78 29 58 30 77 31 59 32 62 33 76 34
REMARK SMILES IDX 95 35 60 36 61 37 75 39 96 40 63 41 47 42 48 43 56 44 49 45
REMARK SMILES IDX 50 46 54 47 57 48 51 49 52 50 55 51 53 52 79 53 80 54 88 55
REMARK SMILES IDX 81 56 82 57 86 58 89 59 83 60 84 61 87 62 85 63 64 64 65 65
REMARK SMILES IDX 73 66 66 67 67 68 71 69 74 70 68 71 69 72 72 73 70 74 10 75
REMARK SMILES IDX 11 76 12 77 13 78 14 79 15 80 16 81 17 82 18 83 19 84 37 85
REMARK SMILES IDX 20 86 28 87 27 88 21 89 22 90 26 91 23 92 25 93 24 94 29 95
REMARK SMILES IDX 30 96 31 97 32 98 33 99 36 100 34 101 35 102
REMARK H PARENT 94 27 62 38
REMARK Flexibility Score: inf
ROOT
ATOM      1  O   UNL     1       2.649  -0.235   3.726  1.00  0.00    -0.377 OA
ENDROOT
BRANCH   1   2
ATOM      2  C   UNL     1       1.878  -0.314   2.522  1.00  0.00     0.188 C 
BRANCH   2   3
ATOM      3  C   UNL     1       2.228   0.751   1.480  1.00  0.00     0.188 C 
BRANCH   3   4
ATOM      4  O   UNL     1       3.520   0.468   0.931  1.00  0.00    -0.376 OA
BRANCH   4   5
ATOM      5  C   UNL     1       4.216   1.601   0.419  1.00  0.00     0.202 C 
BRANCH   5   6
ATOM      6  C   UNL     1       4.117   1.711  -1.102  1.00  0.00     0.261 C 
BRANCH   6   7
ATOM      7  O   UNL     1       2.772   1.474  -1.543  1.00  0.00    -0.460 OA
BRANCH   7   8
ATOM      8  C   UNL     1       2.231   0.306  -1.969  1.00  0.00     0.338 C 
ATOM      9  O   UNL     1       1.033   0.283  -2.247  1.00  0.00    -0.246 OA
BRANCH   8  10
ATOM     10  C   UNL     1       3.017  -0.947  -2.199  1.00  0.00     0.060 A 
ATOM     11  C   UNL     1       4.123  -1.368  -1.455  1.00  0.00     0.016 A 
ATOM     12  C   UNL     1       2.538  -1.807  -3.204  1.00  0.00     0.016 A 
ATOM     13  C   UNL     1       4.782  -2.562  -1.744  1.00  0.00     0.010 A 
ATOM     14  C   UNL     1       3.171  -3.024  -3.477  1.00  0.00     0.010 A 
ATOM     15  C   UNL     1       4.314  -3.394  -2.761  1.00  0.00    -0.014 A 
BRANCH  15  16
ATOM     16  C   UNL     1       5.082  -4.601  -3.123  1.00  0.00     0.031 A 
ATOM     17  C   UNL     1       5.953  -4.557  -4.342  1.00  0.00     0.074 A 
ATOM     18  C   UNL     1       5.042  -5.691  -2.337  1.00  0.00     0.049 A 
ATOM     19  N   UNL     1       6.649  -5.511  -4.900  1.00  0.00    -0.248 NA
ATOM     20  C   UNL     1       6.065  -3.253  -5.018  1.00  0.00     0.031 C 
ATOM     21  C   UNL     1       4.295  -5.798  -1.083  1.00  0.00     0.029 A 
ATOM     22  N   UNL     1       5.647  -6.913  -2.473  1.00  0.00    -0.354 N 
ATOM     23  C   UNL     1       7.260  -4.932  -6.003  1.00  0.00     0.074 A 
ATOM     24  C   UNL     1       6.860  -3.542  -6.037  1.00  0.00     0.031 C 
ATOM     25  C   UNL     1       4.487  -7.022  -0.564  1.00  0.00     0.029 A 
ATOM     26  C   UNL     1       5.322  -7.800  -1.475  1.00  0.00     0.049 A 
ATOM     27  H   UNL     1       6.256  -7.135  -3.214  1.00  0.00     0.167 HD
ATOM     28  C   UNL     1       8.075  -5.517  -6.910  1.00  0.00     0.037 A 
ATOM     29  C   UNL     1       5.638  -9.102  -1.343  1.00  0.00     0.037 A 
ATOM     30  C   UNL     1       8.462  -6.899  -6.861  1.00  0.00     0.049 A 
ATOM     31  C   UNL     1       6.479  -9.749  -2.413  1.00  0.00     0.074 A 
ATOM     32  C   UNL     1       9.257  -7.609  -7.742  1.00  0.00     0.029 A 
ATOM     33  N   UNL     1       8.072  -7.784  -5.865  1.00  0.00    -0.354 N 
ATOM     34  N   UNL     1       7.028  -9.207  -3.474  1.00  0.00    -0.248 NA
ATOM     35  C   UNL     1       6.725 -11.192  -2.283  1.00  0.00     0.031 C 
ATOM     36  C   UNL     1       9.318  -8.935  -7.297  1.00  0.00     0.029 A 
ATOM     37  C   UNL     1       8.588  -9.041  -6.122  1.00  0.00     0.049 A 
ATOM     38  H   UNL     1       7.512  -7.550  -5.090  1.00  0.00     0.167 HD
ATOM     39  C   UNL     1       7.682 -10.236  -4.136  1.00  0.00     0.074 A 
ATOM     40  C   UNL     1       7.488 -11.432  -3.340  1.00  0.00     0.031 C 
ATOM     41  C   UNL     1       8.370 -10.205  -5.304  1.00  0.00     0.037 A 
BRANCH  28  42
ATOM     42  C   UNL     1       8.544  -4.673  -8.054  1.00  0.00     0.064 A 
ATOM     43  C   UNL     1       9.555  -3.715  -7.900  1.00  0.00     0.173 A 
ATOM     44  C   UNL     1       7.964  -4.824  -9.323  1.00  0.00     0.173 A 
ATOM     45  F   UNL     1      10.120  -3.517  -6.699  1.00  0.00    -0.203 F 
ATOM     46  C   UNL     1       9.957  -2.923  -8.973  1.00  0.00     0.198 A 
ATOM     47  C   UNL     1       8.382  -4.043 -10.397  1.00  0.00     0.198 A 
ATOM     48  F   UNL     1       6.987  -5.722  -9.517  1.00  0.00    -0.203 F 
ATOM     49  F   UNL     1      10.896  -1.983  -8.795  1.00  0.00    -0.200 F 
ATOM     50  C   UNL     1       9.373  -3.090 -10.220  1.00  0.00     0.200 A 
ATOM     51  F   UNL     1       7.816  -4.205 -11.601  1.00  0.00    -0.200 F 
ATOM     52  F   UNL     1       9.758  -2.324 -11.250  1.00  0.00    -0.200 F 
ENDBRANCH  28  42
BRANCH  29  53
ATOM     53  C   UNL     1       5.112  -9.894  -0.199  1.00  0.00     0.064 A 
ATOM     54  C   UNL     1       5.970 -10.430   0.771  1.00  0.00     0.173 A 
ATOM     55  C   UNL     1       3.740 -10.160  -0.069  1.00  0.00     0.173 A 
ATOM     56  F   UNL     1       7.293 -10.230   0.679  1.00  0.00    -0.203 F 
ATOM     57  C   UNL     1       5.479 -11.215   1.815  1.00  0.00     0.198 A 
ATOM     58  C   UNL     1       3.247 -10.919   0.991  1.00  0.00     0.198 A 
ATOM     59  F   UNL     1       2.874  -9.678  -0.973  1.00  0.00    -0.203 F 
ATOM     60  F   UNL     1       6.327 -11.756   2.700  1.00  0.00    -0.200 F 
ATOM     61  C   UNL     1       4.118 -11.453   1.927  1.00  0.00     0.200 A 
ATOM     62  F   UNL     1       1.929 -11.137   1.100  1.00  0.00    -0.200 F 
ATOM     63  F   UNL     1       3.647 -12.207   2.929  1.00  0.00    -0.200 F 
ENDBRANCH  29  53
BRANCH  41  64
ATOM     64  C   UNL     1       8.951 -11.499  -5.783  1.00  0.00     0.064 A 
ATOM     65  C   UNL     1       8.142 -12.482  -6.370  1.00  0.00     0.173 A 
ATOM     66  C   UNL     1      10.331 -11.733  -5.708  1.00  0.00     0.173 A 
ATOM     67  F   UNL     1       6.814 -12.306  -6.447  1.00  0.00    -0.203 F 
ATOM     68  C   UNL     1       8.694 -13.664  -6.854  1.00  0.00     0.198 A 
ATOM     69  C   UNL     1      10.883 -12.906  -6.213  1.00  0.00     0.198 A 
ATOM     70  F   UNL     1      11.143 -10.818  -5.159  1.00  0.00    -0.203 F 
ATOM     71  F   UNL     1       7.900 -14.605  -7.382  1.00  0.00    -0.200 F 
ATOM     72  C   UNL     1      10.064 -13.871  -6.782  1.00  0.00     0.200 A 
ATOM     73  F   UNL     1      12.207 -13.102  -6.153  1.00  0.00    -0.200 F 
ATOM     74  F   UNL     1      10.596 -15.005  -7.258  1.00  0.00    -0.200 F 
ENDBRANCH  41  64
ENDBRANCH  15  16
ENDBRANCH   8  10
ENDBRANCH   7   8
ENDBRANCH   6   7
ENDBRANCH   5   6
ENDBRANCH   4   5
ENDBRANCH   3   4
ENDBRANCH   2   3
ENDBRANCH   1   2
BRANCH   1  75
ATOM     75  C   UNL     1       4.065  -0.236   3.573  1.00  0.00     0.188 C 
BRANCH  75  76
ATOM     76  C   UNL     1       4.725  -1.465   2.912  1.00  0.00     0.188 C 
BRANCH  76  77
ATOM     77  O   UNL     1       3.847  -2.554   2.646  1.00  0.00    -0.376 OA
BRANCH  77  78
ATOM     78  C   UNL     1       3.988  -3.682   3.506  1.00  0.00     0.202 C 
BRANCH  78  79
ATOM     79  C   UNL     1       3.273  -3.514   4.848  1.00  0.00     0.261 C 
BRANCH  79  80
ATOM     80  O   UNL     1       3.798  -2.460   5.669  1.00  0.00    -0.460 OA
BRANCH  80  81
ATOM     81  C   UNL     1       5.092  -2.532   6.050  1.00  0.00     0.338 C 
ATOM     82  O   UNL     1       5.881  -3.430   5.828  1.00  0.00    -0.246 OA
BRANCH  81  83
ATOM     83  C   UNL     1       5.444  -1.248   6.694  1.00  0.00     0.062 A 
ATOM     84  C   UNL     1       6.689  -0.663   6.466  1.00  0.00     0.024 A 
ATOM     85  C   UNL     1       4.508  -0.596   7.489  1.00  0.00     0.037 A 
ATOM     86  C   UNL     1       7.003   0.581   7.041  1.00  0.00    -0.013 A 
ATOM     87  C   UNL     1       4.858   0.549   8.187  1.00  0.00     0.084 A 
ATOM     88  C   UNL     1       6.096   1.158   7.950  1.00  0.00     0.030 A 
BRANCH  86  89
ATOM     89  C   UNL     1       8.239   1.255   6.664  1.00  0.00     0.018 A 
ATOM     90  C   UNL     1       9.438   1.074   7.326  1.00  0.00     0.123 A 
ATOM     91  C   UNL     1       8.318   2.089   5.560  1.00  0.00     0.123 A 
ATOM     92  N   UNL     1      10.604   1.640   6.947  1.00  0.00    -0.244 NA
ATOM     93  N   UNL     1       9.452   2.680   5.130  1.00  0.00    -0.244 NA
ATOM     94  C   UNL     1      10.549   2.420   5.856  1.00  0.00     0.221 A 
ENDBRANCH  86  89
BRANCH  87  95
ATOM     95  S   UNL     1       3.818   1.155   9.502  1.00  0.00     0.243 S 
ATOM     96  O   UNL     1       4.654   1.155  10.682  1.00  0.00    -0.207 OA
ATOM     97  O   UNL     1       3.191   2.362   9.007  1.00  0.00    -0.207 OA
BRANCH  95  98
ATOM     98  N   UNL     1       2.621  -0.008   9.738  1.00  0.00    -0.198 NA
ATOM     99  C   UNL     1       2.935  -1.354  10.241  1.00  0.00     0.102 C 
ATOM    100  C   UNL     1       1.415  -0.021   8.898  1.00  0.00     0.102 C 
ATOM    101  C   UNL     1       2.141  -2.307   9.354  1.00  0.00     0.018 C 
ATOM    102  C   UNL     1       0.996  -1.483   8.787  1.00  0.00     0.018 C 
ENDBRANCH  95  98
ENDBRANCH  87  95
ENDBRANCH  81  83
ENDBRANCH  80  81
ENDBRANCH  79  80
ENDBRANCH  78  79
ENDBRANCH  77  78
ENDBRANCH  76  77
ENDBRANCH  75  76
ENDBRANCH   1  75
TORSDOF 23
