REMARK SMILES Cc1csc(NC(=O)[C@@H]2CC=CC[C@H]2C(=O)OCCOCCOCCOCCOC(=O)c2ccc(-c3c4nc(c(-c5c(F)c(F)c(F)c(F)c5F)c5ccc([nH]5)c(-c5c(F)c(F)c(F)c(F)c5F)c5nc(c(-c6c(F)c(F)c(F)c(F)c6F)c6ccc3[nH]6)C=C5)C=C4)cc2)n1
REMARK SMILES IDX 23 1 22 2 21 3 20 4 19 5 18 6 17 7 15 8 16 9 14 10 9 11
REMARK SMILES IDX 10 12 11 13 13 14 12 15 7 16 6 17 8 19 5 20 1 21 2 22 3 23
REMARK SMILES IDX 95 24 4 25 24 26 25 27 26 28 27 29 28 30 29 31 30 32 31 33
REMARK SMILES IDX 32 34 33 35 94 36 34 37 93 38 35 39 36 40 37 41 87 42 38 43
REMARK SMILES IDX 92 44 86 45 88 46 39 47 91 48 85 49 84 50 40 52 72 53 52 54
REMARK SMILES IDX 71 55 53 56 56 57 70 58 89 59 54 60 55 61 69 63 90 64 57 65
REMARK SMILES IDX 41 66 42 67 50 68 43 69 44 70 48 71 51 72 45 73 46 74 49 75
REMARK SMILES IDX 47 76 73 77 74 78 82 79 75 80 76 81 80 82 83 83 77 84 78 85
REMARK SMILES IDX 81 86 79 87 58 88 59 89 67 90 60 91 61 92 65 93 68 94 62 95
REMARK SMILES IDX 63 96 66 97 64 98
REMARK H PARENT 6 18 88 51 56 62
REMARK Flexibility Score: inf
ROOT
ATOM      1  O   UNL     1       0.240   0.770   0.620  1.00  0.00    -0.377 OA
ENDROOT
BRANCH   1   2
ATOM      2  C   UNL     1      -1.128   0.542   0.347  1.00  0.00     0.188 C 
BRANCH   2   3
ATOM      3  C   UNL     1      -1.534  -0.558  -0.625  1.00  0.00     0.188 C 
BRANCH   3   4
ATOM      4  O   UNL     1      -0.537  -1.390  -1.170  1.00  0.00    -0.376 OA
BRANCH   4   5
ATOM      5  C   UNL     1       0.595  -0.847  -1.824  1.00  0.00     0.202 C 
BRANCH   5   6
ATOM      6  C   UNL     1       0.622   0.492  -2.589  1.00  0.00     0.261 C 
BRANCH   6   7
ATOM      7  O   UNL     1       0.141   1.694  -1.949  1.00  0.00    -0.463 OA
BRANCH   7   8
ATOM      8  C   UNL     1      -1.055   2.160  -2.407  1.00  0.00     0.310 C 
ATOM      9  O   UNL     1      -1.766   1.535  -3.190  1.00  0.00    -0.252 OA
BRANCH   8  10
ATOM     10  C   UNL     1      -1.352   3.618  -2.061  1.00  0.00     0.116 C 
ATOM     11  C   UNL     1      -1.096   4.178  -0.619  1.00  0.00     0.097 C 
ATOM     12  C   UNL     1      -1.068   5.714  -0.658  1.00  0.00     0.041 C 
ATOM     13  C   UNL     1      -0.731   6.444  -1.907  1.00  0.00    -0.030 C 
ATOM     14  C   UNL     1      -0.609   4.357  -3.196  1.00  0.00     0.043 C 
ATOM     15  C   UNL     1      -0.534   5.833  -3.071  1.00  0.00    -0.030 C 
BRANCH  11  16
ATOM     16  C   UNL     1      -2.205   3.718   0.392  1.00  0.00     0.230 C 
ATOM     17  N   UNL     1      -2.214   3.997   1.739  1.00  0.00    -0.302 N 
ATOM     18  H   UNL     1      -2.215   3.236   2.365  1.00  0.00     0.172 HD
ATOM     19  O   UNL     1      -3.092   2.934   0.022  1.00  0.00    -0.274 OA
BRANCH  17  20
ATOM     20  C   UNL     1      -2.222   5.262   2.272  1.00  0.00     0.189 A 
ATOM     21  C   UNL     1      -2.417   8.723   1.525  1.00  0.00     0.068 C 
ATOM     22  C   UNL     1      -2.475   7.450   2.287  1.00  0.00     0.051 A 
ATOM     23  C   UNL     1      -3.170   7.151   3.442  1.00  0.00     0.092 A 
ATOM     24  N   UNL     1      -1.823   6.374   1.734  1.00  0.00    -0.225 NA
ATOM     25  S   UNL     1      -3.080   5.449   3.741  1.00  0.00    -0.105 S 
ENDBRANCH  17  20
ENDBRANCH  11  16
ENDBRANCH   8  10
ENDBRANCH   7   8
ENDBRANCH   6   7
ENDBRANCH   5   6
ENDBRANCH   4   5
ENDBRANCH   3   4
ENDBRANCH   2   3
ENDBRANCH   1   2
BRANCH   1  26
ATOM     26  C   UNL     1       0.937  -0.104   1.488  1.00  0.00     0.188 C 
BRANCH  26  27
ATOM     27  C   UNL     1       0.186  -1.271   2.130  1.00  0.00     0.188 C 
BRANCH  27  28
ATOM     28  O   UNL     1      -0.996  -0.984   2.875  1.00  0.00    -0.376 OA
BRANCH  28  29
ATOM     29  C   UNL     1      -1.095   0.241   3.598  1.00  0.00     0.202 C 
BRANCH  29  30
ATOM     30  C   UNL     1      -0.434   0.246   4.967  1.00  0.00     0.261 C 
BRANCH  30  31
ATOM     31  O   UNL     1       0.978   0.446   4.819  1.00  0.00    -0.460 OA
BRANCH  31  32
ATOM     32  C   UNL     1       1.731  -0.668   4.961  1.00  0.00     0.338 C 
ATOM     33  O   UNL     1       1.368  -1.772   5.310  1.00  0.00    -0.246 OA
BRANCH  32  34
ATOM     34  C   UNL     1       3.083  -0.388   4.445  1.00  0.00     0.060 A 
ATOM     35  C   UNL     1       3.682  -1.360   3.634  1.00  0.00     0.016 A 
ATOM     36  C   UNL     1       3.766   0.782   4.787  1.00  0.00     0.016 A 
ATOM     37  C   UNL     1       5.000  -1.202   3.225  1.00  0.00     0.010 A 
ATOM     38  C   UNL     1       5.092   0.934   4.388  1.00  0.00     0.010 A 
ATOM     39  C   UNL     1       5.724  -0.084   3.653  1.00  0.00    -0.014 A 
BRANCH  39  40
ATOM     40  C   UNL     1       7.196  -0.096   3.536  1.00  0.00     0.031 A 
ATOM     41  C   UNL     1       7.995  -0.519   4.736  1.00  0.00     0.074 A 
ATOM     42  C   UNL     1       7.798   0.231   2.382  1.00  0.00     0.049 A 
ATOM     43  N   UNL     1       9.290  -0.566   4.900  1.00  0.00    -0.248 NA
ATOM     44  C   UNL     1       7.223  -0.944   5.917  1.00  0.00     0.031 C 
ATOM     45  C   UNL     1       7.111   0.601   1.147  1.00  0.00     0.029 A 
ATOM     46  N   UNL     1       9.130   0.307   2.069  1.00  0.00    -0.354 N 
ATOM     47  C   UNL     1       9.487  -1.012   6.201  1.00  0.00     0.074 A 
ATOM     48  C   UNL     1       8.182  -1.193   6.794  1.00  0.00     0.031 C 
ATOM     49  C   UNL     1       8.031   0.878   0.207  1.00  0.00     0.029 A 
ATOM     50  C   UNL     1       9.365   0.740   0.789  1.00  0.00     0.049 A 
ATOM     51  H   UNL     1       9.848   0.073   2.701  1.00  0.00     0.167 HD
ATOM     52  C   UNL     1      10.656  -1.255   6.837  1.00  0.00     0.037 A 
ATOM     53  C   UNL     1      10.531   1.017   0.175  1.00  0.00     0.037 A 
ATOM     54  C   UNL     1      11.948  -1.068   6.231  1.00  0.00     0.049 A 
ATOM     55  C   UNL     1      11.819   0.818   0.934  1.00  0.00     0.074 A 
ATOM     56  C   UNL     1      13.198  -1.299   6.775  1.00  0.00     0.029 A 
ATOM     57  N   UNL     1      12.151  -0.590   4.944  1.00  0.00    -0.354 N 
ATOM     58  N   UNL     1      12.004   0.373   2.155  1.00  0.00    -0.248 NA
ATOM     59  C   UNL     1      13.060   1.158   0.227  1.00  0.00     0.031 C 
ATOM     60  C   UNL     1      14.158  -0.896   5.841  1.00  0.00     0.029 A 
ATOM     61  C   UNL     1      13.508  -0.485   4.688  1.00  0.00     0.049 A 
ATOM     62  H   UNL     1      11.436  -0.359   4.307  1.00  0.00     0.167 HD
ATOM     63  C   UNL     1      13.379   0.345   2.349  1.00  0.00     0.074 A 
ATOM     64  C   UNL     1      13.980   0.807   1.115  1.00  0.00     0.031 C 
ATOM     65  C   UNL     1      14.083  -0.030   3.446  1.00  0.00     0.037 A 
BRANCH  52  66
ATOM     66  C   UNL     1      10.590  -1.703   8.269  1.00  0.00     0.064 A 
ATOM     67  C   UNL     1      10.098  -2.966   8.632  1.00  0.00     0.173 A 
ATOM     68  C   UNL     1      11.046  -0.859   9.294  1.00  0.00     0.173 A 
ATOM     69  F   UNL     1       9.632  -3.805   7.695  1.00  0.00    -0.203 F 
ATOM     70  C   UNL     1      10.037  -3.354   9.969  1.00  0.00     0.198 A 
ATOM     71  C   UNL     1      11.016  -1.264  10.625  1.00  0.00     0.198 A 
ATOM     72  F   UNL     1      11.526   0.359   9.004  1.00  0.00    -0.203 F 
ATOM     73  F   UNL     1       9.511  -4.543  10.296  1.00  0.00    -0.200 F 
ATOM     74  C   UNL     1      10.504  -2.507  10.963  1.00  0.00     0.200 A 
ATOM     75  F   UNL     1      11.480  -0.449  11.582  1.00  0.00    -0.200 F 
ATOM     76  F   UNL     1      10.451  -2.886  12.247  1.00  0.00    -0.200 F 
ENDBRANCH  52  66
BRANCH  53  77
ATOM     77  C   UNL     1      10.536   1.520  -1.223  1.00  0.00     0.064 A 
ATOM     78  C   UNL     1      11.073   0.752  -2.265  1.00  0.00     0.173 A 
ATOM     79  C   UNL     1      10.018   2.783  -1.546  1.00  0.00     0.173 A 
ATOM     80  F   UNL     1      11.600  -0.454  -2.006  1.00  0.00    -0.203 F 
ATOM     81  C   UNL     1      11.114   1.238  -3.571  1.00  0.00     0.198 A 
ATOM     82  C   UNL     1      10.030   3.255  -2.857  1.00  0.00     0.198 A 
ATOM     83  F   UNL     1       9.492   3.559  -0.587  1.00  0.00    -0.203 F 
ATOM     84  F   UNL     1      11.682   0.504  -4.538  1.00  0.00    -0.200 F 
ATOM     85  C   UNL     1      10.587   2.486  -3.867  1.00  0.00     0.200 A 
ATOM     86  F   UNL     1       9.506   4.455  -3.140  1.00  0.00    -0.200 F 
ATOM     87  F   UNL     1      10.624   2.951  -5.123  1.00  0.00    -0.200 F 
ENDBRANCH  53  77
BRANCH  65  88
ATOM     88  C   UNL     1      15.582  -0.004   3.347  1.00  0.00     0.064 A 
ATOM     89  C   UNL     1      16.300   1.198   3.280  1.00  0.00     0.173 A 
ATOM     90  C   UNL     1      16.312  -1.204   3.365  1.00  0.00     0.173 A 
ATOM     91  F   UNL     1      15.651   2.372   3.247  1.00  0.00    -0.203 F 
ATOM     92  C   UNL     1      17.691   1.198   3.202  1.00  0.00     0.198 A 
ATOM     93  C   UNL     1      17.703  -1.199   3.327  1.00  0.00     0.198 A 
ATOM     94  F   UNL     1      15.675  -2.382   3.440  1.00  0.00    -0.203 F 
ATOM     95  F   UNL     1      18.353   2.357   3.082  1.00  0.00    -0.200 F 
ATOM     96  C   UNL     1      18.391   0.001   3.235  1.00  0.00     0.200 A 
ATOM     97  F   UNL     1      18.377  -2.356   3.379  1.00  0.00    -0.200 F 
ATOM     98  F   UNL     1      19.729   0.004   3.171  1.00  0.00    -0.200 F 
ENDBRANCH  65  88
ENDBRANCH  39  40
ENDBRANCH  32  34
ENDBRANCH  31  32
ENDBRANCH  30  31
ENDBRANCH  29  30
ENDBRANCH  28  29
ENDBRANCH  27  28
ENDBRANCH  26  27
ENDBRANCH   1  26
TORSDOF 22
