REMARK SMILES Cc1cccc(-c2ncc(C[NH+]3CCC4(CC3)NC(=O)C[C@H]4C(=O)OCCOCCOCCOCCOC(=O)c3ccc(-c4c5nc(c(-c6c(F)c(F)c(F)c(F)c6F)c6ccc([nH]6)c(-c6c(F)c(F)c(F)c(F)c6F)c6nc(c(-c7c(F)c(F)c(F)c(F)c7F)c7ccc4[nH]7)C=C6)C=C5)cc3)cn2)c1
REMARK SMILES IDX 30 1 29 2 28 3 27 4 26 5 25 6 23 7 24 8 22 9 12 10 13 11
REMARK SMILES IDX 17 12 14 14 16 15 15 16 18 17 19 18 21 20 20 21 11 22 10 23
REMARK SMILES IDX 7 24 8 25 104 26 9 27 103 28 6 29 1 30 2 31 3 32 105 33 4 34
REMARK SMILES IDX 5 35 31 36 32 37 33 38 34 39 35 40 36 41 37 42 38 43 39 44
REMARK SMILES IDX 40 45 41 46 102 47 42 48 101 49 43 50 44 51 45 52 95 53
REMARK SMILES IDX 46 54 100 55 94 56 96 57 47 58 99 59 93 60 92 61 48 63 80 64
REMARK SMILES IDX 60 65 79 66 61 67 64 68 78 69 97 70 62 71 63 72 77 74 98 75
REMARK SMILES IDX 65 76 49 77 50 78 58 79 51 80 52 81 56 82 59 83 53 84 54 85
REMARK SMILES IDX 57 86 55 87 81 88 82 89 90 90 83 91 84 92 88 93 91 94 85 95
REMARK SMILES IDX 86 96 89 97 87 98 66 99 67 100 75 101 68 102 69 103 73 104
REMARK SMILES IDX 76 105 70 106 71 107 74 108 72 109
REMARK H PARENT 12 13 18 19 96 62 64 73
REMARK Flexibility Score: inf
ROOT
ATOM      1  C   UNL     1      -2.399   7.714  -2.230  1.00  0.00     0.188 C 
ENDROOT
BRANCH   1   2
ATOM      2  C   UNL     1      -2.148   9.202  -2.464  1.00  0.00     0.188 C 
BRANCH   2   3
ATOM      3  O   UNL     1      -0.780   9.564  -2.270  1.00  0.00    -0.376 OA
BRANCH   3   4
ATOM      4  C   UNL     1       0.088   8.890  -3.153  1.00  0.00     0.202 C 
BRANCH   4   5
ATOM      5  C   UNL     1       1.271   8.254  -2.417  1.00  0.00     0.261 C 
BRANCH   5   6
ATOM      6  O   UNL     1       0.955   7.359  -1.337  1.00  0.00    -0.463 OA
BRANCH   6   7
ATOM      7  C   UNL     1       1.003   7.924  -0.103  1.00  0.00     0.311 C 
ATOM      8  O   UNL     1       0.954   9.111   0.119  1.00  0.00    -0.252 OA
BRANCH   7   9
ATOM      9  C   UNL     1       1.250   6.901   0.993  1.00  0.00     0.134 C 
ATOM     10  N   UNL     1      -2.746   6.717   1.721  1.00  0.00    -0.331 N 
ATOM     11  C   UNL     1      -1.762   7.049   2.731  1.00  0.00     0.264 C 
ATOM     12  C   UNL     1      -2.116   6.622   0.430  1.00  0.00     0.264 C 
ATOM     13  H   UNL     1      -3.369   7.523   1.761  1.00  0.00     0.348 HD
ATOM     14  C   UNL     1      -0.522   6.150   2.735  1.00  0.00     0.091 C 
ATOM     15  C   UNL     1      -0.937   5.667   0.295  1.00  0.00     0.091 C 
ATOM     16  C   UNL     1       0.135   5.886   1.354  1.00  0.00     0.064 C 
ATOM     17  N   UNL     1       0.870   4.635   1.453  1.00  0.00    -0.349 N 
ATOM     18  C   UNL     1       2.149   4.663   0.978  1.00  0.00     0.221 C 
ATOM     19  H   UNL     1       0.471   3.821   1.838  1.00  0.00     0.164 HD
ATOM     20  C   UNL     1       2.527   6.082   0.699  1.00  0.00     0.117 C 
ATOM     21  O   UNL     1       2.860   3.683   0.849  1.00  0.00    -0.275 OA
BRANCH  10  22
ATOM     22  C   UNL     1      -3.834   5.768   1.978  1.00  0.00     0.302 C 
BRANCH  22  23
ATOM     23  C   UNL     1      -3.520   4.328   1.701  1.00  0.00     0.043 A 
ATOM     24  C   UNL     1      -2.384   1.970   0.996  1.00  0.00     0.159 A 
ATOM     25  N   UNL     1      -2.314   2.349   2.289  1.00  0.00    -0.236 NA
ATOM     26  N   UNL     1      -3.077   2.617   0.046  1.00  0.00    -0.236 NA
ATOM     27  C   UNL     1      -2.915   3.509   2.617  1.00  0.00     0.124 A 
ATOM     28  C   UNL     1      -3.640   3.774   0.441  1.00  0.00     0.124 A 
BRANCH  24  29
ATOM     29  C   UNL     1      -1.556   0.837   0.594  1.00  0.00     0.019 A 
ATOM     30  C   UNL     1       2.152  -0.010   0.137  1.00  0.00     0.044 C 
ATOM     31  C   UNL     1       0.658  -0.145   0.202  1.00  0.00    -0.050 A 
ATOM     32  C   UNL     1       0.057  -1.392   0.009  1.00  0.00     0.003 A 
ATOM     33  C   UNL     1      -0.155   0.959   0.494  1.00  0.00     0.015 A 
ATOM     34  C   UNL     1      -1.331  -1.522   0.065  1.00  0.00     0.001 A 
ATOM     35  C   UNL     1      -2.131  -0.414   0.346  1.00  0.00     0.012 A 
ENDBRANCH  24  29
ENDBRANCH  22  23
ENDBRANCH  10  22
ENDBRANCH   7   9
ENDBRANCH   6   7
ENDBRANCH   5   6
ENDBRANCH   4   5
ENDBRANCH   3   4
ENDBRANCH   2   3
ENDBRANCH   1   2
BRANCH   1  36
ATOM     36  O   UNL     1      -2.577   6.865  -3.350  1.00  0.00    -0.377 OA
BRANCH  36  37
ATOM     37  C   UNL     1      -3.074   5.556  -3.008  1.00  0.00     0.188 C 
BRANCH  37  38
ATOM     38  C   UNL     1      -4.585   5.507  -2.816  1.00  0.00     0.188 C 
BRANCH  38  39
ATOM     39  O   UNL     1      -5.040   6.826  -2.604  1.00  0.00    -0.376 OA
BRANCH  39  40
ATOM     40  C   UNL     1      -6.370   6.984  -2.170  1.00  0.00     0.202 C 
BRANCH  40  41
ATOM     41  C   UNL     1      -7.382   6.486  -3.201  1.00  0.00     0.261 C 
BRANCH  41  42
ATOM     42  O   UNL     1      -6.982   6.963  -4.507  1.00  0.00    -0.460 OA
BRANCH  42  43
ATOM     43  C   UNL     1      -6.688   5.996  -5.423  1.00  0.00     0.338 C 
ATOM     44  O   UNL     1      -7.276   4.932  -5.529  1.00  0.00    -0.246 OA
BRANCH  43  45
ATOM     45  C   UNL     1      -5.351   6.255  -6.056  1.00  0.00     0.060 A 
ATOM     46  C   UNL     1      -4.685   5.203  -6.720  1.00  0.00     0.016 A 
ATOM     47  C   UNL     1      -4.632   7.395  -5.726  1.00  0.00     0.016 A 
ATOM     48  C   UNL     1      -3.282   5.215  -6.886  1.00  0.00     0.010 A 
ATOM     49  C   UNL     1      -3.249   7.391  -5.887  1.00  0.00     0.010 A 
ATOM     50  C   UNL     1      -2.535   6.275  -6.380  1.00  0.00    -0.014 A 
BRANCH  50  51
ATOM     51  C   UNL     1      -1.066   6.256  -6.079  1.00  0.00     0.031 A 
ATOM     52  C   UNL     1      -0.249   7.508  -6.345  1.00  0.00     0.074 A 
ATOM     53  C   UNL     1      -0.586   5.321  -5.212  1.00  0.00     0.049 A 
ATOM     54  N   UNL     1       0.969   7.751  -5.964  1.00  0.00    -0.248 NA
ATOM     55  C   UNL     1      -0.782   8.606  -7.157  1.00  0.00     0.031 C 
ATOM     56  C   UNL     1       0.199   5.605  -4.021  1.00  0.00     0.029 A 
ATOM     57  N   UNL     1      -0.858   3.975  -5.016  1.00  0.00    -0.354 N 
ATOM     58  C   UNL     1       1.266   9.093  -6.231  1.00  0.00     0.074 A 
ATOM     59  C   UNL     1       0.176   9.533  -7.062  1.00  0.00     0.031 C 
ATOM     60  C   UNL     1       0.537   4.513  -3.337  1.00  0.00     0.029 A 
ATOM     61  C   UNL     1       0.095   3.415  -4.125  1.00  0.00     0.049 A 
ATOM     62  H   UNL     1      -1.600   3.481  -5.434  1.00  0.00     0.167 HD
ATOM     63  C   UNL     1       2.317   9.724  -5.598  1.00  0.00     0.037 A 
ATOM     64  C   UNL     1       0.924   2.422  -4.537  1.00  0.00     0.037 A 
ATOM     65  C   UNL     1       3.223   8.764  -4.912  1.00  0.00     0.049 A 
ATOM     66  C   UNL     1       2.315   2.944  -4.919  1.00  0.00     0.074 A 
ATOM     67  C   UNL     1       3.980   8.730  -3.745  1.00  0.00     0.029 A 
ATOM     68  N   UNL     1       3.377   7.484  -5.447  1.00  0.00    -0.354 N 
ATOM     69  N   UNL     1       2.799   4.142  -4.651  1.00  0.00    -0.248 NA
ATOM     70  C   UNL     1       3.249   2.147  -5.706  1.00  0.00     0.031 C 
ATOM     71  C   UNL     1       4.543   7.423  -3.584  1.00  0.00     0.029 A 
ATOM     72  C   UNL     1       4.206   6.681  -4.698  1.00  0.00     0.049 A 
ATOM     73  H   UNL     1       2.938   7.186  -6.276  1.00  0.00     0.167 HD
ATOM     74  C   UNL     1       4.009   4.317  -5.296  1.00  0.00     0.074 A 
ATOM     75  C   UNL     1       4.235   3.030  -5.938  1.00  0.00     0.031 C 
ATOM     76  C   UNL     1       4.732   5.489  -5.335  1.00  0.00     0.037 A 
BRANCH  63  77
ATOM     77  C   UNL     1       2.453  11.271  -5.401  1.00  0.00     0.064 A 
ATOM     78  C   UNL     1       3.593  11.830  -4.765  1.00  0.00     0.173 A 
ATOM     79  C   UNL     1       1.457  12.243  -5.674  1.00  0.00     0.173 A 
ATOM     80  F   UNL     1       4.688  11.099  -4.528  1.00  0.00    -0.203 F 
ATOM     81  C   UNL     1       3.682  13.174  -4.357  1.00  0.00     0.198 A 
ATOM     82  C   UNL     1       1.586  13.608  -5.349  1.00  0.00     0.198 A 
ATOM     83  F   UNL     1       0.284  11.930  -6.228  1.00  0.00    -0.203 F 
ATOM     84  F   UNL     1       4.753  13.592  -3.665  1.00  0.00    -0.200 F 
ATOM     85  C   UNL     1       2.683  14.069  -4.660  1.00  0.00     0.200 A 
ATOM     86  F   UNL     1       0.616  14.468  -5.696  1.00  0.00    -0.200 F 
ATOM     87  F   UNL     1       2.777  15.357  -4.301  1.00  0.00    -0.200 F 
ENDBRANCH  63  77
BRANCH  64  88
ATOM     88  C   UNL     1       0.047   1.304  -5.054  1.00  0.00     0.064 A 
ATOM     89  C   UNL     1      -0.736   0.724  -4.018  1.00  0.00     0.173 A 
ATOM     90  C   UNL     1      -0.592   1.485  -6.294  1.00  0.00     0.173 A 
ATOM     91  F   UNL     1      -0.167   0.468  -2.831  1.00  0.00    -0.203 F 
ATOM     92  C   UNL     1      -2.131   0.696  -4.098  1.00  0.00     0.198 A 
ATOM     93  C   UNL     1      -1.994   1.435  -6.374  1.00  0.00     0.198 A 
ATOM     94  F   UNL     1       0.089   2.010  -7.323  1.00  0.00    -0.203 F 
ATOM     95  F   UNL     1      -2.865   0.421  -3.009  1.00  0.00    -0.200 F 
ATOM     96  C   UNL     1      -2.758   1.117  -5.257  1.00  0.00     0.200 A 
ATOM     97  F   UNL     1      -2.612   1.888  -7.476  1.00  0.00    -0.200 F 
ATOM     98  F   UNL     1      -4.084   1.324  -5.266  1.00  0.00    -0.200 F 
ENDBRANCH  64  88
BRANCH  76  99
ATOM     99  C   UNL     1       6.002   5.710  -6.149  1.00  0.00     0.064 A 
ATOM    100  C   UNL     1       6.963   4.720  -6.365  1.00  0.00     0.173 A 
ATOM    101  C   UNL     1       6.309   6.977  -6.723  1.00  0.00     0.173 A 
ATOM    102  F   UNL     1       6.924   3.564  -5.689  1.00  0.00    -0.203 F 
ATOM    103  C   UNL     1       8.019   4.908  -7.263  1.00  0.00     0.198 A 
ATOM    104  C   UNL     1       7.393   7.180  -7.570  1.00  0.00     0.198 A 
ATOM    105  F   UNL     1       5.576   8.073  -6.498  1.00  0.00    -0.203 F 
ATOM    106  F   UNL     1       8.845   3.888  -7.530  1.00  0.00    -0.200 F 
ATOM    107  C   UNL     1       8.219   6.128  -7.883  1.00  0.00     0.200 A 
ATOM    108  F   UNL     1       7.611   8.396  -8.091  1.00  0.00    -0.200 F 
ATOM    109  F   UNL     1       9.213   6.295  -8.765  1.00  0.00    -0.200 F 
ENDBRANCH  76  99
ENDBRANCH  50  51
ENDBRANCH  43  45
ENDBRANCH  42  43
ENDBRANCH  41  42
ENDBRANCH  40  41
ENDBRANCH  39  40
ENDBRANCH  38  39
ENDBRANCH  37  38
ENDBRANCH  36  37
ENDBRANCH   1  36
TORSDOF 23
