REMARK SMILES O=C(OCCOCCOCCOCCOC(=O)c1ccc(N[C@@H]2CCCS(=O)(=O)C2)c(F)c1F)c1ccc(-c2c3nc(c(-c4c(F)c(F)c(F)c(F)c4F)c4ccc([nH]4)c(-c4c(F)c(F)c(F)c(F)c4F)c4nc(c(-c5c(F)c(F)c(F)c(F)c5F)c5ccc2[nH]5)C=C4)C=C3)cc1
REMARK SMILES IDX 9 1 8 2 7 3 6 4 5 5 4 6 3 7 2 8 1 9 35 10 36 11 97 12 37 13
REMARK SMILES IDX 96 14 38 15 39 16 40 17 90 18 41 19 95 20 89 21 91 22 42 23
REMARK SMILES IDX 94 24 88 25 87 26 43 28 75 29 55 30 74 31 56 32 59 33 73 34
REMARK SMILES IDX 92 35 57 36 58 37 72 39 93 40 60 41 44 42 45 43 53 44 46 45
REMARK SMILES IDX 47 46 51 47 54 48 48 49 49 50 52 51 50 52 76 53 77 54 85 55
REMARK SMILES IDX 78 56 79 57 83 58 86 59 80 60 81 61 84 62 82 63 61 64 62 65
REMARK SMILES IDX 70 66 63 67 64 68 68 69 71 70 65 71 66 72 69 73 67 74 10 75
REMARK SMILES IDX 11 76 12 77 13 78 14 79 15 80 16 81 17 82 18 83 19 84 33 85
REMARK SMILES IDX 20 86 31 87 34 88 21 89 32 90 22 91 23 93 24 94 30 95 25 96
REMARK SMILES IDX 27 97 26 98 28 99 29 100
REMARK H PARENT 91 27 59 38 22 92
REMARK Flexibility Score: inf
ROOT
ATOM      1  O   UNL     1       2.642  -0.273  -3.879  1.00  0.00    -0.377 OA
ENDROOT
BRANCH   1   2
ATOM      2  C   UNL     1       1.901   0.114  -2.722  1.00  0.00     0.188 C 
BRANCH   2   3
ATOM      3  C   UNL     1       2.320  -0.552  -1.411  1.00  0.00     0.188 C 
BRANCH   3   4
ATOM      4  O   UNL     1       3.647  -0.184  -1.022  1.00  0.00    -0.376 OA
BRANCH   4   5
ATOM      5  C   UNL     1       4.460  -1.260  -0.548  1.00  0.00     0.202 C 
BRANCH   5   6
ATOM      6  C   UNL     1       4.244  -1.607   0.926  1.00  0.00     0.261 C 
BRANCH   6   7
ATOM      7  O   UNL     1       2.880  -1.434   1.335  1.00  0.00    -0.460 OA
BRANCH   7   8
ATOM      8  C   UNL     1       2.284  -0.312   1.810  1.00  0.00     0.338 C 
ATOM      9  O   UNL     1       1.093  -0.376   2.113  1.00  0.00    -0.246 OA
BRANCH   8  10
ATOM     10  C   UNL     1       2.982   0.999   2.018  1.00  0.00     0.060 A 
ATOM     11  C   UNL     1       4.166   1.406   1.402  1.00  0.00     0.016 A 
ATOM     12  C   UNL     1       2.362   1.909   2.895  1.00  0.00     0.016 A 
ATOM     13  C   UNL     1       4.777   2.611   1.713  1.00  0.00     0.010 A 
ATOM     14  C   UNL     1       2.957   3.135   3.208  1.00  0.00     0.010 A 
ATOM     15  C   UNL     1       4.199   3.456   2.653  1.00  0.00    -0.014 A 
BRANCH  15  16
ATOM     16  C   UNL     1       5.064   4.504   3.219  1.00  0.00     0.031 A 
ATOM     17  C   UNL     1       5.728   4.202   4.531  1.00  0.00     0.074 A 
ATOM     18  C   UNL     1       5.402   5.576   2.482  1.00  0.00     0.049 A 
ATOM     19  N   UNL     1       6.531   4.940   5.247  1.00  0.00    -0.248 NA
ATOM     20  C   UNL     1       5.471   2.867   5.107  1.00  0.00     0.031 C 
ATOM     21  C   UNL     1       4.928   5.843   1.122  1.00  0.00     0.029 A 
ATOM     22  N   UNL     1       6.256   6.611   2.748  1.00  0.00    -0.354 N 
ATOM     23  C   UNL     1       6.849   4.172   6.359  1.00  0.00     0.074 A 
ATOM     24  C   UNL     1       6.154   2.915   6.238  1.00  0.00     0.031 C 
ATOM     25  C   UNL     1       5.518   6.960   0.666  1.00  0.00     0.029 A 
ATOM     26  C   UNL     1       6.355   7.519   1.723  1.00  0.00     0.049 A 
ATOM     27  H   UNL     1       6.753   6.696   3.594  1.00  0.00     0.167 HD
ATOM     28  C   UNL     1       7.661   4.500   7.386  1.00  0.00     0.037 A 
ATOM     29  C   UNL     1       7.025   8.686   1.674  1.00  0.00     0.037 A 
ATOM     30  C   UNL     1       8.358   5.751   7.459  1.00  0.00     0.049 A 
ATOM     31  C   UNL     1       7.821   9.087   2.890  1.00  0.00     0.074 A 
ATOM     32  C   UNL     1       9.154   6.239   8.475  1.00  0.00     0.029 A 
ATOM     33  N   UNL     1       8.341   6.709   6.454  1.00  0.00    -0.354 N 
ATOM     34  N   UNL     1       8.050   8.402   3.987  1.00  0.00    -0.248 NA
ATOM     35  C   UNL     1       8.427  10.424   2.881  1.00  0.00     0.031 C 
ATOM     36  C   UNL     1       9.586   7.514   8.102  1.00  0.00     0.029 A 
ATOM     37  C   UNL     1       9.096   7.801   6.835  1.00  0.00     0.049 A 
ATOM     38  H   UNL     1       7.863   6.623   5.598  1.00  0.00     0.167 HD
ATOM     39  C   UNL     1       8.825   9.219   4.796  1.00  0.00     0.074 A 
ATOM     40  C   UNL     1       9.052  10.442   4.051  1.00  0.00     0.031 C 
ATOM     41  C   UNL     1       9.297   8.992   6.047  1.00  0.00     0.037 A 
BRANCH  28  42
ATOM     42  C   UNL     1       7.787   3.524   8.516  1.00  0.00     0.064 A 
ATOM     43  C   UNL     1       7.170   3.790   9.747  1.00  0.00     0.173 A 
ATOM     44  C   UNL     1       8.521   2.335   8.393  1.00  0.00     0.173 A 
ATOM     45  F   UNL     1       6.445   4.907   9.912  1.00  0.00    -0.203 F 
ATOM     46  C   UNL     1       7.296   2.911  10.819  1.00  0.00     0.198 A 
ATOM     47  C   UNL     1       8.625   1.446   9.460  1.00  0.00     0.198 A 
ATOM     48  F   UNL     1       9.102   2.018   7.226  1.00  0.00    -0.203 F 
ATOM     49  F   UNL     1       6.712   3.196  11.991  1.00  0.00    -0.200 F 
ATOM     50  C   UNL     1       8.021   1.738  10.673  1.00  0.00     0.200 A 
ATOM     51  F   UNL     1       9.299   0.297   9.309  1.00  0.00    -0.200 F 
ATOM     52  F   UNL     1       8.129   0.884  11.701  1.00  0.00    -0.200 F 
ENDBRANCH  28  42
BRANCH  29  53
ATOM     53  C   UNL     1       6.921   9.565   0.477  1.00  0.00     0.064 A 
ATOM     54  C   UNL     1       5.690  10.123   0.090  1.00  0.00     0.173 A 
ATOM     55  C   UNL     1       8.041   9.872  -0.308  1.00  0.00     0.173 A 
ATOM     56  F   UNL     1       4.585   9.875   0.808  1.00  0.00    -0.203 F 
ATOM     57  C   UNL     1       5.580  10.925  -1.044  1.00  0.00     0.198 A 
ATOM     58  C   UNL     1       7.935  10.702  -1.425  1.00  0.00     0.198 A 
ATOM     59  F   UNL     1       9.246   9.390   0.027  1.00  0.00    -0.203 F 
ATOM     60  F   UNL     1       4.384  11.411  -1.405  1.00  0.00    -0.200 F 
ATOM     61  C   UNL     1       6.704  11.220  -1.797  1.00  0.00     0.200 A 
ATOM     62  F   UNL     1       9.030  11.011  -2.134  1.00  0.00    -0.200 F 
ATOM     63  F   UNL     1       6.603  12.010  -2.875  1.00  0.00    -0.200 F 
ENDBRANCH  29  53
BRANCH  41  64
ATOM     64  C   UNL     1      10.097  10.082   6.690  1.00  0.00     0.064 A 
ATOM     65  C   UNL     1      11.473   9.920   6.904  1.00  0.00     0.173 A 
ATOM     66  C   UNL     1       9.471  11.222   7.212  1.00  0.00     0.173 A 
ATOM     67  F   UNL     1      12.108   8.835   6.434  1.00  0.00    -0.203 F 
ATOM     68  C   UNL     1      12.191  10.849   7.648  1.00  0.00     0.198 A 
ATOM     69  C   UNL     1      10.199  12.164   7.931  1.00  0.00     0.198 A 
ATOM     70  F   UNL     1       8.158  11.419   7.021  1.00  0.00    -0.203 F 
ATOM     71  F   UNL     1      13.493  10.649   7.890  1.00  0.00    -0.200 F 
ATOM     72  C   UNL     1      11.553  11.969   8.161  1.00  0.00     0.200 A 
ATOM     73  F   UNL     1       9.587  13.255   8.410  1.00  0.00    -0.200 F 
ATOM     74  F   UNL     1      12.244  12.861   8.884  1.00  0.00    -0.200 F 
ENDBRANCH  41  64
ENDBRANCH  15  16
ENDBRANCH   8  10
ENDBRANCH   7   8
ENDBRANCH   6   7
ENDBRANCH   5   6
ENDBRANCH   4   5
ENDBRANCH   3   4
ENDBRANCH   2   3
ENDBRANCH   1   2
BRANCH   1  75
ATOM     75  C   UNL     1       4.061  -0.260  -3.761  1.00  0.00     0.188 C 
BRANCH  75  76
ATOM     76  C   UNL     1       4.768   1.065  -3.394  1.00  0.00     0.188 C 
BRANCH  76  77
ATOM     77  O   UNL     1       3.884   2.120  -3.045  1.00  0.00    -0.376 OA
BRANCH  77  78
ATOM     78  C   UNL     1       3.771   3.179  -3.987  1.00  0.00     0.202 C 
BRANCH  78  79
ATOM     79  C   UNL     1       3.123   2.846  -5.339  1.00  0.00     0.261 C 
BRANCH  79  80
ATOM     80  O   UNL     1       3.635   1.683  -6.005  1.00  0.00    -0.460 OA
BRANCH  80  81
ATOM     81  C   UNL     1       4.856   1.732  -6.582  1.00  0.00     0.341 C 
ATOM     82  O   UNL     1       5.604   2.689  -6.647  1.00  0.00    -0.246 OA
BRANCH  81  83
ATOM     83  C   UNL     1       5.164   0.347  -6.991  1.00  0.00     0.099 A 
ATOM     84  C   UNL     1       4.200  -0.402  -7.668  1.00  0.00     0.021 A 
ATOM     85  C   UNL     1       6.329  -0.275  -6.549  1.00  0.00     0.175 A 
ATOM     86  C   UNL     1       4.420  -1.758  -7.919  1.00  0.00     0.030 A 
ATOM     87  C   UNL     1       6.530  -1.635  -6.796  1.00  0.00     0.182 A 
ATOM     88  F   UNL     1       7.218   0.389  -5.796  1.00  0.00    -0.203 F 
ATOM     89  C   UNL     1       5.599  -2.403  -7.518  1.00  0.00     0.074 A 
ATOM     90  F   UNL     1       7.642  -2.229  -6.331  1.00  0.00    -0.201 F 
BRANCH  89  91
ATOM     91  N   UNL     1       5.904  -3.716  -7.869  1.00  0.00    -0.379 N 
ATOM     92  H   UNL     1       6.479  -4.230  -7.256  1.00  0.00     0.160 HD
BRANCH  91  93
ATOM     93  C   UNL     1       5.430  -4.396  -9.091  1.00  0.00     0.094 C 
ATOM     94  C   UNL     1       5.708  -3.484 -10.313  1.00  0.00     0.027 C 
ATOM     95  C   UNL     1       4.034  -4.970  -8.855  1.00  0.00     0.161 C 
ATOM     96  C   UNL     1       4.967  -3.810 -11.598  1.00  0.00     0.018 C 
ATOM     97  S   UNL     1       3.144  -5.343 -10.334  1.00  0.00     0.152 S 
ATOM     98  C   UNL     1       3.478  -3.932 -11.359  1.00  0.00     0.137 C 
ATOM     99  O   UNL     1       1.730  -5.324 -10.016  1.00  0.00    -0.229 OA
ATOM    100  O   UNL     1       3.754  -6.505 -10.949  1.00  0.00    -0.229 OA
ENDBRANCH  91  93
ENDBRANCH  89  91
ENDBRANCH  81  83
ENDBRANCH  80  81
ENDBRANCH  79  80
ENDBRANCH  78  79
ENDBRANCH  77  78
ENDBRANCH  76  77
ENDBRANCH  75  76
ENDBRANCH   1  75
TORSDOF 22
