REMARK SMILES Nc1oc2ccc(F)cc2c(=O)c1[C@@H]1[NH2+][C@H](C(=O)OCCOCCOCCOCCOC(=O)c2ccc(-c3c4nc(c(-c5c(F)c(F)c(F)c(F)c5F)c5ccc([nH]5)c(-c5c(F)c(F)c(F)c(F)c5F)c5nc(c(-c6c(F)c(F)c(F)c(F)c6F)c6ccc3[nH]6)C=C5)C=C4)cc2)CS1
REMARK SMILES IDX 25 1 24 2 23 3 22 4 21 5 20 6 19 7 17 8 18 9 16 10 14 11
REMARK SMILES IDX 15 12 98 13 97 16 13 17 2 18 3 19 4 20 11 21 5 22 10 23
REMARK SMILES IDX 12 24 6 25 9 26 7 27 8 28 1 29 26 32 27 33 28 34 29 35 30 36
REMARK SMILES IDX 31 37 32 38 33 39 34 40 35 41 96 42 36 43 95 44 37 45 38 46
REMARK SMILES IDX 39 47 89 48 40 49 94 50 88 51 90 52 41 53 93 54 87 55 86 56
REMARK SMILES IDX 42 58 74 59 54 60 73 61 55 62 58 63 72 64 91 65 56 66 57 67
REMARK SMILES IDX 71 69 92 70 59 71 43 72 44 73 52 74 45 75 46 76 50 77 53 78
REMARK SMILES IDX 47 79 48 80 51 81 49 82 75 83 76 84 84 85 77 86 78 87 82 88
REMARK SMILES IDX 85 89 79 90 80 91 83 92 81 93 60 94 61 95 69 96 62 97 63 98
REMARK SMILES IDX 67 99 70 100 64 101 65 102 68 103 66 104
REMARK H PARENT 15 14 15 15 1 30 1 31 90 57 58 68
REMARK Flexibility Score: inf
ROOT
ATOM      1  O   UNL     1      -1.700  -0.408   2.315  1.00  0.00    -0.377 OA
ENDROOT
BRANCH   1   2
ATOM      2  C   UNL     1      -0.840  -0.032   3.380  1.00  0.00     0.188 C 
BRANCH   2   3
ATOM      3  C   UNL     1      -0.683   1.492   3.573  1.00  0.00     0.188 C 
BRANCH   3   4
ATOM      4  O   UNL     1      -1.533   2.409   2.883  1.00  0.00    -0.376 OA
BRANCH   4   5
ATOM      5  C   UNL     1      -1.846   2.184   1.514  1.00  0.00     0.202 C 
BRANCH   5   6
ATOM      6  C   UNL     1      -0.716   1.891   0.517  1.00  0.00     0.261 C 
BRANCH   6   7
ATOM      7  O   UNL     1       0.351   1.105   1.065  1.00  0.00    -0.459 OA
BRANCH   7   8
ATOM      8  C   UNL     1       1.614   1.555   0.889  1.00  0.00     0.365 C 
ATOM      9  O   UNL     1       1.902   2.575   0.266  1.00  0.00    -0.245 OA
BRANCH   8  10
ATOM     10  C   UNL     1       2.684   0.730   1.626  1.00  0.00     0.304 C 
ATOM     11  C   UNL     1       2.410  -1.638   1.221  1.00  0.00     0.283 C 
ATOM     12  N   UNL     1       2.259  -0.566   2.208  1.00  0.00    -0.319 N 
ATOM     13  S   UNL     1       3.860  -1.226   0.216  1.00  0.00    -0.087 SA
ATOM     14  H   UNL     1       2.836  -0.775   3.023  1.00  0.00     0.348 HD
ATOM     15  H   UNL     1       1.279  -0.502   2.483  1.00  0.00     0.348 HD
ATOM     16  C   UNL     1       3.904   0.507   0.742  1.00  0.00     0.153 C 
BRANCH  11  17
ATOM     17  C   UNL     1       1.161  -1.941   0.440  1.00  0.00     0.128 A 
ATOM     18  C   UNL     1       0.709  -1.376  -0.703  1.00  0.00     0.205 A 
ATOM     19  O   UNL     1      -0.497  -1.724  -1.284  1.00  0.00    -0.440 OA
ATOM     20  C   UNL     1      -0.937  -2.994  -1.067  1.00  0.00     0.140 A 
ATOM     21  C   UNL     1       0.362  -3.081   0.993  1.00  0.00     0.205 A 
ATOM     22  C   UNL     1      -1.712  -3.577  -2.055  1.00  0.00     0.051 A 
ATOM     23  C   UNL     1      -0.583  -3.712   0.066  1.00  0.00     0.068 A 
ATOM     24  O   UNL     1       0.549  -3.569   2.101  1.00  0.00    -0.288 OA
ATOM     25  C   UNL     1      -2.106  -4.904  -1.902  1.00  0.00     0.043 A 
ATOM     26  C   UNL     1      -1.020  -5.025   0.246  1.00  0.00     0.055 A 
ATOM     27  C   UNL     1      -1.775  -5.611  -0.755  1.00  0.00     0.124 A 
ATOM     28  F   UNL     1      -2.178  -6.881  -0.635  1.00  0.00    -0.207 F 
BRANCH  18  29
ATOM     29  N   UNL     1       1.347  -0.411  -1.423  1.00  0.00    -0.369 N 
ATOM     30  H   UNL     1       0.937  -0.060  -2.246  1.00  0.00     0.159 HD
ATOM     31  H   UNL     1       2.217  -0.065  -1.119  1.00  0.00     0.159 HD
ENDBRANCH  18  29
ENDBRANCH  11  17
ENDBRANCH   8  10
ENDBRANCH   7   8
ENDBRANCH   6   7
ENDBRANCH   5   6
ENDBRANCH   4   5
ENDBRANCH   3   4
ENDBRANCH   2   3
ENDBRANCH   1   2
BRANCH   1  32
ATOM     32  C   UNL     1      -2.964  -0.910   2.724  1.00  0.00     0.188 C 
BRANCH  32  33
ATOM     33  C   UNL     1      -3.750  -0.043   3.726  1.00  0.00     0.188 C 
BRANCH  33  34
ATOM     34  O   UNL     1      -3.046   0.198   4.941  1.00  0.00    -0.376 OA
BRANCH  34  35
ATOM     35  C   UNL     1      -3.391  -0.588   6.074  1.00  0.00     0.202 C 
BRANCH  35  36
ATOM     36  C   UNL     1      -2.949  -2.061   6.054  1.00  0.00     0.261 C 
BRANCH  36  37
ATOM     37  O   UNL     1      -3.459  -2.872   4.981  1.00  0.00    -0.460 OA
BRANCH  37  38
ATOM     38  C   UNL     1      -4.795  -2.974   4.822  1.00  0.00     0.338 C 
ATOM     39  O   UNL     1      -5.657  -2.509   5.547  1.00  0.00    -0.246 OA
BRANCH  38  40
ATOM     40  C   UNL     1      -5.049  -3.560   3.481  1.00  0.00     0.060 A 
ATOM     41  C   UNL     1      -4.420  -4.738   3.071  1.00  0.00     0.016 A 
ATOM     42  C   UNL     1      -5.913  -2.892   2.604  1.00  0.00     0.016 A 
ATOM     43  C   UNL     1      -4.686  -5.260   1.797  1.00  0.00     0.010 A 
ATOM     44  C   UNL     1      -6.171  -3.411   1.329  1.00  0.00     0.010 A 
ATOM     45  C   UNL     1      -5.579  -4.613   0.917  1.00  0.00    -0.014 A 
BRANCH  45  46
ATOM     46  C   UNL     1      -6.053  -5.312  -0.308  1.00  0.00     0.031 A 
ATOM     47  C   UNL     1      -5.669  -4.920  -1.706  1.00  0.00     0.074 A 
ATOM     48  C   UNL     1      -6.921  -6.331  -0.157  1.00  0.00     0.049 A 
ATOM     49  N   UNL     1      -5.728  -5.645  -2.799  1.00  0.00    -0.248 NA
ATOM     50  C   UNL     1      -5.156  -3.561  -1.927  1.00  0.00     0.031 C 
ATOM     51  C   UNL     1      -7.511  -6.761   1.110  1.00  0.00     0.029 A 
ATOM     52  N   UNL     1      -7.481  -7.165  -1.090  1.00  0.00    -0.354 N 
ATOM     53  C   UNL     1      -5.088  -4.905  -3.784  1.00  0.00     0.074 A 
ATOM     54  C   UNL     1      -4.831  -3.600  -3.218  1.00  0.00     0.031 C 
ATOM     55  C   UNL     1      -8.375  -7.760   0.871  1.00  0.00     0.029 A 
ATOM     56  C   UNL     1      -8.386  -8.047  -0.561  1.00  0.00     0.049 A 
ATOM     57  H   UNL     1      -7.255  -7.133  -2.048  1.00  0.00     0.167 HD
ATOM     58  C   UNL     1      -4.644  -5.353  -4.984  1.00  0.00     0.037 A 
ATOM     59  C   UNL     1      -9.140  -8.982  -1.167  1.00  0.00     0.037 A 
ATOM     60  C   UNL     1      -5.125  -6.551  -5.615  1.00  0.00     0.049 A 
ATOM     61  C   UNL     1      -8.960  -9.239  -2.637  1.00  0.00     0.074 A 
ATOM     62  C   UNL     1      -4.802  -7.068  -6.857  1.00  0.00     0.029 A 
ATOM     63  N   UNL     1      -6.123  -7.354  -5.092  1.00  0.00    -0.354 N 
ATOM     64  N   UNL     1      -8.073  -8.739  -3.462  1.00  0.00    -0.248 NA
ATOM     65  C   UNL     1      -9.874 -10.208  -3.255  1.00  0.00     0.031 C 
ATOM     66  C   UNL     1      -5.692  -8.113  -7.132  1.00  0.00     0.029 A 
ATOM     67  C   UNL     1      -6.525  -8.282  -6.037  1.00  0.00     0.049 A 
ATOM     68  H   UNL     1      -6.493  -7.277  -4.183  1.00  0.00     0.167 HD
ATOM     69  C   UNL     1      -8.295  -9.358  -4.686  1.00  0.00     0.074 A 
ATOM     70  C   UNL     1      -9.400 -10.275  -4.492  1.00  0.00     0.031 C 
ATOM     71  C   UNL     1      -7.634  -9.185  -5.857  1.00  0.00     0.037 A 
BRANCH  58  72
ATOM     72  C   UNL     1      -3.540  -4.608  -5.671  1.00  0.00     0.064 A 
ATOM     73  C   UNL     1      -2.208  -5.027  -5.493  1.00  0.00     0.173 A 
ATOM     74  C   UNL     1      -3.778  -3.580  -6.586  1.00  0.00     0.173 A 
ATOM     75  F   UNL     1      -1.927  -6.072  -4.700  1.00  0.00    -0.203 F 
ATOM     76  C   UNL     1      -1.153  -4.399  -6.148  1.00  0.00     0.198 A 
ATOM     77  C   UNL     1      -2.721  -2.972  -7.266  1.00  0.00     0.198 A 
ATOM     78  F   UNL     1      -5.032  -3.178  -6.834  1.00  0.00    -0.203 F 
ATOM     79  F   UNL     1       0.108  -4.795  -5.923  1.00  0.00    -0.200 F 
ATOM     80  C   UNL     1      -1.411  -3.370  -7.036  1.00  0.00     0.200 A 
ATOM     81  F   UNL     1      -2.972  -1.999  -8.153  1.00  0.00    -0.200 F 
ATOM     82  F   UNL     1      -0.400  -2.769  -7.678  1.00  0.00    -0.200 F 
ENDBRANCH  58  72
BRANCH  59  83
ATOM     83  C   UNL     1     -10.123  -9.750  -0.365  1.00  0.00     0.064 A 
ATOM     84  C   UNL     1      -9.938 -11.113  -0.106  1.00  0.00     0.173 A 
ATOM     85  C   UNL     1     -11.258  -9.126   0.174  1.00  0.00     0.173 A 
ATOM     86  F   UNL     1      -8.878 -11.754  -0.619  1.00  0.00    -0.203 F 
ATOM     87  C   UNL     1     -10.856 -11.827   0.661  1.00  0.00     0.198 A 
ATOM     88  C   UNL     1     -12.162  -9.835   0.961  1.00  0.00     0.198 A 
ATOM     89  F   UNL     1     -11.479  -7.822  -0.049  1.00  0.00    -0.203 F 
ATOM     90  F   UNL     1     -10.674 -13.137   0.871  1.00  0.00    -0.200 F 
ATOM     91  C   UNL     1     -11.963 -11.186   1.200  1.00  0.00     0.200 A 
ATOM     92  F   UNL     1     -13.223  -9.209   1.488  1.00  0.00    -0.200 F 
ATOM     93  F   UNL     1     -12.839 -11.872   1.945  1.00  0.00    -0.200 F 
ENDBRANCH  59  83
BRANCH  71  94
ATOM     94  C   UNL     1      -8.086  -9.989  -7.041  1.00  0.00     0.064 A 
ATOM     95  C   UNL     1      -9.324  -9.749  -7.655  1.00  0.00     0.173 A 
ATOM     96  C   UNL     1      -7.256 -10.972  -7.602  1.00  0.00     0.173 A 
ATOM     97  F   UNL     1     -10.160  -8.827  -7.154  1.00  0.00    -0.203 F 
ATOM     98  C   UNL     1      -9.726 -10.483  -8.768  1.00  0.00     0.198 A 
ATOM     99  C   UNL     1      -7.645 -11.676  -8.738  1.00  0.00     0.198 A 
ATOM    100  F   UNL     1      -6.057 -11.234  -7.062  1.00  0.00    -0.203 F 
ATOM    101  F   UNL     1     -10.936 -10.271  -9.306  1.00  0.00    -0.200 F 
ATOM    102  C   UNL     1      -8.883 -11.438  -9.314  1.00  0.00     0.200 A 
ATOM    103  F   UNL     1      -6.818 -12.582  -9.277  1.00  0.00    -0.200 F 
ATOM    104  F   UNL     1      -9.265 -12.133 -10.394  1.00  0.00    -0.200 F 
ENDBRANCH  71  94
ENDBRANCH  45  46
ENDBRANCH  38  40
ENDBRANCH  37  38
ENDBRANCH  36  37
ENDBRANCH  35  36
ENDBRANCH  34  35
ENDBRANCH  33  34
ENDBRANCH  32  33
ENDBRANCH   1  32
TORSDOF 22
