REMARK SMILES COc1ccc(/C=N/NC(=O)c2cc(C)nc3ccccc23)c(C(=O)OCCOCCOCCOCCOC(=O)c2ccc(-c3c4nc(c(-c5c(F)c(F)c(F)c(F)c5F)c5ccc([nH]5)c(-c5c(F)c(F)c(F)c(F)c5F)c5nc(c(-c6c(F)c(F)c(F)c(F)c6F)c6ccc3[nH]6)C=C5)C=C4)cc2)c1OC
REMARK SMILES IDX 31 1 30 2 29 3 28 4 27 5 26 6 24 7 25 8 23 9 3 10 4 11
REMARK SMILES IDX 104 12 5 13 6 14 2 15 1 16 105 17 106 18 7 19 8 20 9 21
REMARK SMILES IDX 10 22 11 24 12 25 13 26 22 27 14 28 17 29 21 30 15 31 16 32
REMARK SMILES IDX 18 33 20 34 19 35 32 36 33 37 34 38 35 39 36 40 37 41 38 42
REMARK SMILES IDX 39 43 40 44 41 45 42 46 103 47 43 48 102 49 44 50 45 51
REMARK SMILES IDX 46 52 96 53 47 54 101 55 95 56 97 57 48 58 100 59 94 60
REMARK SMILES IDX 93 61 49 63 81 64 61 65 80 66 62 67 65 68 79 69 98 70 63 71
REMARK SMILES IDX 64 72 78 74 99 75 66 76 50 77 51 78 59 79 52 80 53 81 57 82
REMARK SMILES IDX 60 83 54 84 55 85 58 86 56 87 82 88 83 89 91 90 84 91 85 92
REMARK SMILES IDX 89 93 92 94 86 95 87 96 90 97 88 98 67 99 68 100 76 101
REMARK SMILES IDX 69 102 70 103 74 104 77 105 71 106 72 107 75 108 73 109
REMARK H PARENT 9 23 97 62 65 73
REMARK Flexibility Score: inf
ROOT
ATOM      1  C   UNL     1       4.353   2.987   3.870  1.00  0.00     0.188 C 
ENDROOT
BRANCH   1   2
ATOM      2  C   UNL     1       4.776   2.334   5.215  1.00  0.00     0.188 C 
BRANCH   2   3
ATOM      3  O   UNL     1       6.073   1.885   5.548  1.00  0.00    -0.376 OA
BRANCH   3   4
ATOM      4  C   UNL     1       6.715   0.735   5.035  1.00  0.00     0.202 C 
BRANCH   4   5
ATOM      5  C   UNL     1       6.041  -0.338   4.187  1.00  0.00     0.261 C 
BRANCH   5   6
ATOM      6  O   UNL     1       4.737   0.006   3.758  1.00  0.00    -0.460 OA
BRANCH   6   7
ATOM      7  C   UNL     1       3.708  -0.528   4.466  1.00  0.00     0.342 C 
ATOM      8  O   UNL     1       3.793  -1.287   5.399  1.00  0.00    -0.246 OA
BRANCH   7   9
ATOM      9  C   UNL     1       2.450   0.162   4.071  1.00  0.00     0.114 A 
ATOM     10  C   UNL     1       0.948   0.917   2.294  1.00  0.00     0.161 A 
ATOM     11  C   UNL     1       0.096   1.385   3.309  1.00  0.00     0.051 A 
ATOM     12  C   UNL     1       2.160   0.329   2.664  1.00  0.00     0.175 A 
ATOM     13  C   UNL     1       0.441   1.312   4.685  1.00  0.00     0.015 A 
ATOM     14  C   UNL     1       1.637   0.710   5.106  1.00  0.00     0.013 A 
BRANCH  10  15
ATOM     15  O   UNL     1       0.584   1.257   1.016  1.00  0.00    -0.493 OA
ATOM     16  C   UNL     1       0.194   0.172   0.170  1.00  0.00     0.278 C 
ENDBRANCH  10  15
BRANCH  12  17
ATOM     17  O   UNL     1       3.180  -0.052   1.836  1.00  0.00    -0.492 OA
ATOM     18  C   UNL     1       3.220   0.174   0.441  1.00  0.00     0.278 C 
ENDBRANCH  12  17
BRANCH  14  19
ATOM     19  C   UNL     1       2.095   0.795   6.602  1.00  0.00     0.142 C 
ATOM     20  N   UNL     1       1.398   1.414   7.499  1.00  0.00    -0.180 NA
BRANCH  20  21
ATOM     21  N   UNL     1       1.629   1.609   8.849  1.00  0.00    -0.243 N 
ATOM     22  C   UNL     1       2.447   1.512   9.987  1.00  0.00     0.272 C 
ATOM     23  H   UNL     1       0.801   2.027   9.180  1.00  0.00     0.194 HD
ATOM     24  O   UNL     1       1.839   1.933  10.990  1.00  0.00    -0.267 OA
BRANCH  22  25
ATOM     25  C   UNL     1       3.869   1.057  10.283  1.00  0.00     0.052 A 
ATOM     26  C   UNL     1       4.806   0.819   9.260  1.00  0.00     0.038 A 
ATOM     27  C   UNL     1       4.344   0.962  11.723  1.00  0.00     0.013 A 
ATOM     28  C   UNL     1       6.086   0.401   9.630  1.00  0.00     0.039 A 
ATOM     29  C   UNL     1       5.682   0.564  11.873  1.00  0.00     0.071 A 
ATOM     30  C   UNL     1       3.756   1.201  13.032  1.00  0.00     0.011 A 
ATOM     31  C   UNL     1       7.309   0.188   8.820  1.00  0.00     0.067 C 
ATOM     32  N   UNL     1       6.464   0.239  10.894  1.00  0.00    -0.253 NA
ATOM     33  C   UNL     1       6.399   0.480  13.046  1.00  0.00     0.029 A 
ATOM     34  C   UNL     1       4.476   1.072  14.259  1.00  0.00     0.001 A 
ATOM     35  C   UNL     1       5.816   0.730  14.261  1.00  0.00     0.002 A 
ENDBRANCH  22  25
ENDBRANCH  20  21
ENDBRANCH  14  19
ENDBRANCH   7   9
ENDBRANCH   6   7
ENDBRANCH   5   6
ENDBRANCH   4   5
ENDBRANCH   3   4
ENDBRANCH   2   3
ENDBRANCH   1   2
BRANCH   1  36
ATOM     36  O   UNL     1       5.174   3.088   2.734  1.00  0.00    -0.377 OA
BRANCH  36  37
ATOM     37  C   UNL     1       6.566   3.051   2.900  1.00  0.00     0.188 C 
BRANCH  37  38
ATOM     38  C   UNL     1       7.253   3.886   4.009  1.00  0.00     0.188 C 
BRANCH  38  39
ATOM     39  O   UNL     1       6.481   4.448   5.042  1.00  0.00    -0.376 OA
BRANCH  39  40
ATOM     40  C   UNL     1       5.737   5.639   4.890  1.00  0.00     0.202 C 
BRANCH  40  41
ATOM     41  C   UNL     1       5.529   6.395   3.564  1.00  0.00     0.261 C 
BRANCH  41  42
ATOM     42  O   UNL     1       6.207   5.929   2.391  1.00  0.00    -0.460 OA
BRANCH  42  43
ATOM     43  C   UNL     1       7.478   6.369   2.221  1.00  0.00     0.338 C 
ATOM     44  O   UNL     1       8.101   7.108   2.960  1.00  0.00    -0.246 OA
BRANCH  43  45
ATOM     45  C   UNL     1       8.090   5.637   1.086  1.00  0.00     0.060 A 
ATOM     46  C   UNL     1       9.116   4.700   1.312  1.00  0.00     0.016 A 
ATOM     47  C   UNL     1       7.660   5.902  -0.210  1.00  0.00     0.016 A 
ATOM     48  C   UNL     1       9.716   4.032   0.245  1.00  0.00     0.010 A 
ATOM     49  C   UNL     1       8.296   5.271  -1.280  1.00  0.00     0.010 A 
ATOM     50  C   UNL     1       9.342   4.354  -1.061  1.00  0.00    -0.014 A 
BRANCH  50  51
ATOM     51  C   UNL     1      10.127   3.848  -2.211  1.00  0.00     0.031 A 
ATOM     52  C   UNL     1      11.036   4.794  -2.940  1.00  0.00     0.074 A 
ATOM     53  C   UNL     1      10.017   2.570  -2.613  1.00  0.00     0.049 A 
ATOM     54  N   UNL     1      11.719   4.607  -4.040  1.00  0.00    -0.248 NA
ATOM     55  C   UNL     1      11.184   6.138  -2.358  1.00  0.00     0.031 C 
ATOM     56  C   UNL     1       9.206   1.548  -1.957  1.00  0.00     0.029 A 
ATOM     57  N   UNL     1      10.575   1.922  -3.687  1.00  0.00    -0.354 N 
ATOM     58  C   UNL     1      12.361   5.811  -4.292  1.00  0.00     0.074 A 
ATOM     59  C   UNL     1      11.956   6.734  -3.254  1.00  0.00     0.031 C 
ATOM     60  C   UNL     1       9.308   0.402  -2.650  1.00  0.00     0.029 A 
ATOM     61  C   UNL     1      10.148   0.625  -3.825  1.00  0.00     0.049 A 
ATOM     62  H   UNL     1      11.220   2.346  -4.298  1.00  0.00     0.167 HD
ATOM     63  C   UNL     1      13.215   6.113  -5.299  1.00  0.00     0.037 A 
ATOM     64  C   UNL     1      10.375  -0.267  -4.809  1.00  0.00     0.037 A 
ATOM     65  C   UNL     1      13.597   5.190  -6.335  1.00  0.00     0.049 A 
ATOM     66  C   UNL     1      11.247   0.128  -5.974  1.00  0.00     0.074 A 
ATOM     67  C   UNL     1      14.470   5.396  -7.388  1.00  0.00     0.029 A 
ATOM     68  N   UNL     1      13.114   3.896  -6.462  1.00  0.00    -0.354 N 
ATOM     69  N   UNL     1      11.877   1.256  -6.193  1.00  0.00    -0.248 NA
ATOM     70  C   UNL     1      11.441  -0.876  -7.031  1.00  0.00     0.031 C 
ATOM     71  C   UNL     1      14.442   4.263  -8.204  1.00  0.00     0.029 A 
ATOM     72  C   UNL     1      13.636   3.310  -7.605  1.00  0.00     0.049 A 
ATOM     73  H   UNL     1      12.494   3.459  -5.835  1.00  0.00     0.167 HD
ATOM     74  C   UNL     1      12.570   1.085  -7.385  1.00  0.00     0.074 A 
ATOM     75  C   UNL     1      12.296  -0.262  -7.836  1.00  0.00     0.031 C 
ATOM     76  C   UNL     1      13.364   1.965  -8.044  1.00  0.00     0.037 A 
BRANCH  63  77
ATOM     77  C   UNL     1      13.761   7.512  -5.356  1.00  0.00     0.064 A 
ATOM     78  C   UNL     1      14.625   8.014  -4.372  1.00  0.00     0.173 A 
ATOM     79  C   UNL     1      13.443   8.351  -6.436  1.00  0.00     0.173 A 
ATOM     80  F   UNL     1      14.965   7.255  -3.319  1.00  0.00    -0.203 F 
ATOM     81  C   UNL     1      15.111   9.317  -4.442  1.00  0.00     0.198 A 
ATOM     82  C   UNL     1      13.971   9.635  -6.529  1.00  0.00     0.198 A 
ATOM     83  F   UNL     1      12.631   7.920  -7.414  1.00  0.00    -0.203 F 
ATOM     84  F   UNL     1      15.878   9.797  -3.453  1.00  0.00    -0.200 F 
ATOM     85  C   UNL     1      14.791  10.123  -5.524  1.00  0.00     0.200 A 
ATOM     86  F   UNL     1      13.683  10.401  -7.590  1.00  0.00    -0.200 F 
ATOM     87  F   UNL     1      15.269  11.372  -5.595  1.00  0.00    -0.200 F 
ENDBRANCH  63  77
BRANCH  64  88
ATOM     88  C   UNL     1       9.753  -1.617  -4.753  1.00  0.00     0.064 A 
ATOM     89  C   UNL     1      10.541  -2.773  -4.665  1.00  0.00     0.173 A 
ATOM     90  C   UNL     1       8.361  -1.784  -4.820  1.00  0.00     0.173 A 
ATOM     91  F   UNL     1      11.877  -2.671  -4.616  1.00  0.00    -0.203 F 
ATOM     92  C   UNL     1       9.965  -4.042  -4.684  1.00  0.00     0.198 A 
ATOM     93  C   UNL     1       7.784  -3.051  -4.790  1.00  0.00     0.198 A 
ATOM     94  F   UNL     1       7.557  -0.713  -4.904  1.00  0.00    -0.203 F 
ATOM     95  F   UNL     1      10.747  -5.130  -4.674  1.00  0.00    -0.200 F 
ATOM     96  C   UNL     1       8.586  -4.179  -4.739  1.00  0.00     0.200 A 
ATOM     97  F   UNL     1       6.450  -3.177  -4.819  1.00  0.00    -0.200 F 
ATOM     98  F   UNL     1       8.032  -5.399  -4.752  1.00  0.00    -0.200 F 
ENDBRANCH  64  88
BRANCH  76  99
ATOM     99  C   UNL     1      14.043   1.492  -9.300  1.00  0.00     0.064 A 
ATOM    100  C   UNL     1      13.325   1.193 -10.468  1.00  0.00     0.173 A 
ATOM    101  C   UNL     1      15.443   1.394  -9.351  1.00  0.00     0.173 A 
ATOM    102  F   UNL     1      11.986   1.266 -10.476  1.00  0.00    -0.203 F 
ATOM    103  C   UNL     1      13.981   0.778 -11.624  1.00  0.00     0.198 A 
ATOM    104  C   UNL     1      16.097   1.028 -10.522  1.00  0.00     0.198 A 
ATOM    105  F   UNL     1      16.182   1.680  -8.268  1.00  0.00    -0.203 F 
ATOM    106  F   UNL     1      13.270   0.434 -12.707  1.00  0.00    -0.200 F 
ATOM    107  C   UNL     1      15.365   0.707 -11.654  1.00  0.00     0.200 A 
ATOM    108  F   UNL     1      17.436   0.990 -10.556  1.00  0.00    -0.200 F 
ATOM    109  F   UNL     1      15.994   0.324 -12.774  1.00  0.00    -0.200 F 
ENDBRANCH  76  99
ENDBRANCH  50  51
ENDBRANCH  43  45
ENDBRANCH  42  43
ENDBRANCH  41  42
ENDBRANCH  40  41
ENDBRANCH  39  40
ENDBRANCH  38  39
ENDBRANCH  37  38
ENDBRANCH  36  37
ENDBRANCH   1  36
TORSDOF 25
