REMARK SMILES CC(C)(Nc1cccc(F)c1C#N)C(C)(C)C(=O)OCCOCCOCCOCCOC(=O)c1ccc(-c2c3nc(c(-c4c(F)c(F)c(F)c(F)c4F)c4ccc([nH]4)c(-c4c(F)c(F)c(F)c(F)c4F)c4nc(c(-c5c(F)c(F)c(F)c(F)c5F)c5ccc2[nH]5)C=C4)C=C3)cc1
REMARK SMILES IDX 24 1 23 2 22 3 21 4 20 5 19 6 17 7 18 8 14 9 15 10 16 11
REMARK SMILES IDX 2 12 1 13 3 14 4 15 5 17 6 18 11 19 7 20 9 21 8 22 10 23
REMARK SMILES IDX 12 24 13 25 25 26 26 27 27 28 28 29 29 30 30 31 31 32 32 33
REMARK SMILES IDX 33 34 34 35 35 36 96 37 36 38 95 39 37 40 38 41 39 42 89 43
REMARK SMILES IDX 40 44 94 45 88 46 90 47 41 48 93 49 87 50 86 51 42 53 74 54
REMARK SMILES IDX 54 55 73 56 55 57 58 58 72 59 91 60 56 61 57 62 71 64 92 65
REMARK SMILES IDX 59 66 43 67 44 68 52 69 45 70 46 71 50 72 53 73 47 74 48 75
REMARK SMILES IDX 51 76 49 77 75 78 76 79 84 80 77 81 78 82 82 83 85 84 79 85
REMARK SMILES IDX 80 86 83 87 81 88 60 89 61 90 69 91 62 92 63 93 67 94 70 95
REMARK SMILES IDX 64 96 65 97 68 98 66 99
REMARK H PARENT 4 16 90 52 58 63
REMARK Flexibility Score: inf
ROOT
ATOM      1  C   UNL     1       2.098   1.086  -4.549  1.00  0.00     0.188 C 
ENDROOT
BRANCH   1   2
ATOM      2  C   UNL     1       0.877   1.166  -5.472  1.00  0.00     0.188 C 
BRANCH   2   3
ATOM      3  O   UNL     1       0.673   2.488  -5.982  1.00  0.00    -0.376 OA
BRANCH   3   4
ATOM      4  C   UNL     1      -0.208   3.362  -5.287  1.00  0.00     0.202 C 
BRANCH   4   5
ATOM      5  C   UNL     1       0.430   4.242  -4.177  1.00  0.00     0.261 C 
BRANCH   5   6
ATOM      6  O   UNL     1       0.826   3.713  -2.880  1.00  0.00    -0.463 OA
BRANCH   6   7
ATOM      7  C   UNL     1       0.256   2.572  -2.438  1.00  0.00     0.313 C 
ATOM      8  O   UNL     1      -0.492   1.925  -3.143  1.00  0.00    -0.252 OA
BRANCH   7   9
ATOM      9  C   UNL     1       0.665   2.102  -1.052  1.00  0.00     0.085 C 
ATOM     10  C   UNL     1       0.306   3.219  -0.056  1.00  0.00     0.026 C 
ATOM     11  C   UNL     1       2.220   2.010  -0.996  1.00  0.00     0.026 C 
BRANCH   9  12
ATOM     12  C   UNL     1      -0.035   0.669  -0.756  1.00  0.00     0.047 C 
ATOM     13  C   UNL     1       0.308   0.180   0.669  1.00  0.00     0.035 C 
ATOM     14  C   UNL     1       0.515  -0.447  -1.709  1.00  0.00     0.035 C 
BRANCH  12  15
ATOM     15  N   UNL     1      -1.534   0.560  -0.882  1.00  0.00    -0.378 N 
ATOM     16  H   UNL     1      -1.898  -0.355  -0.868  1.00  0.00     0.161 HD
BRANCH  15  17
ATOM     17  C   UNL     1      -2.466   1.576  -1.013  1.00  0.00     0.056 A 
ATOM     18  C   UNL     1      -2.875   2.262   0.136  1.00  0.00     0.027 A 
ATOM     19  C   UNL     1      -3.050   1.962  -2.242  1.00  0.00     0.111 A 
ATOM     20  C   UNL     1      -3.671   3.409   0.056  1.00  0.00     0.005 A 
ATOM     21  C   UNL     1      -3.740   3.174  -2.326  1.00  0.00     0.143 A 
ATOM     22  C   UNL     1      -4.040   3.909  -1.188  1.00  0.00     0.041 A 
ATOM     23  F   UNL     1      -4.115   3.664  -3.519  1.00  0.00    -0.205 F 
BRANCH  19  24
ATOM     24  C   UNL     1      -2.981   1.156  -3.429  1.00  0.00     0.104 C 
ATOM     25  N   UNL     1      -2.972   0.504  -4.393  1.00  0.00    -0.192 NA
ENDBRANCH  19  24
ENDBRANCH  15  17
ENDBRANCH  12  15
ENDBRANCH   9  12
ENDBRANCH   7   9
ENDBRANCH   6   7
ENDBRANCH   5   6
ENDBRANCH   4   5
ENDBRANCH   3   4
ENDBRANCH   2   3
ENDBRANCH   1   2
BRANCH   1  26
ATOM     26  O   UNL     1       3.378   1.422  -5.064  1.00  0.00    -0.377 OA
BRANCH  26  27
ATOM     27  C   UNL     1       3.419   2.383  -6.102  1.00  0.00     0.188 C 
BRANCH  27  28
ATOM     28  C   UNL     1       3.112   1.808  -7.502  1.00  0.00     0.188 C 
BRANCH  28  29
ATOM     29  O   UNL     1       3.600   0.534  -7.925  1.00  0.00    -0.376 OA
BRANCH  29  30
ATOM     30  C   UNL     1       4.254  -0.330  -7.014  1.00  0.00     0.202 C 
BRANCH  30  31
ATOM     31  C   UNL     1       5.743  -0.031  -6.782  1.00  0.00     0.261 C 
BRANCH  31  32
ATOM     32  O   UNL     1       6.090   1.362  -6.763  1.00  0.00    -0.460 OA
BRANCH  32  33
ATOM     33  C   UNL     1       6.255   1.941  -7.978  1.00  0.00     0.338 C 
ATOM     34  O   UNL     1       6.261   1.398  -9.068  1.00  0.00    -0.246 OA
BRANCH  33  35
ATOM     35  C   UNL     1       6.292   3.412  -7.806  1.00  0.00     0.060 A 
ATOM     36  C   UNL     1       5.472   4.205  -8.623  1.00  0.00     0.016 A 
ATOM     37  C   UNL     1       7.127   4.008  -6.857  1.00  0.00     0.016 A 
ATOM     38  C   UNL     1       5.507   5.593  -8.521  1.00  0.00     0.010 A 
ATOM     39  C   UNL     1       7.205   5.402  -6.791  1.00  0.00     0.010 A 
ATOM     40  C   UNL     1       6.429   6.194  -7.656  1.00  0.00    -0.014 A 
BRANCH  40  41
ATOM     41  C   UNL     1       6.816   7.601  -7.905  1.00  0.00     0.031 A 
ATOM     42  C   UNL     1       7.951   7.837  -8.866  1.00  0.00     0.074 A 
ATOM     43  C   UNL     1       6.165   8.633  -7.342  1.00  0.00     0.049 A 
ATOM     44  N   UNL     1       8.534   8.954  -9.214  1.00  0.00    -0.248 NA
ATOM     45  C   UNL     1       8.503   6.640  -9.527  1.00  0.00     0.031 C 
ATOM     46  C   UNL     1       5.007   8.525  -6.459  1.00  0.00     0.029 A 
ATOM     47  N   UNL     1       6.399   9.981  -7.433  1.00  0.00    -0.354 N 
ATOM     48  C   UNL     1       9.516   8.591 -10.127  1.00  0.00     0.074 A 
ATOM     49  C   UNL     1       9.474   7.154 -10.262  1.00  0.00     0.031 C 
ATOM     50  C   UNL     1       4.641   9.761  -6.072  1.00  0.00     0.029 A 
ATOM     51  C   UNL     1       5.562  10.739  -6.653  1.00  0.00     0.049 A 
ATOM     52  H   UNL     1       7.102  10.369  -8.004  1.00  0.00     0.167 HD
ATOM     53  C   UNL     1      10.376   9.390 -10.799  1.00  0.00     0.037 A 
ATOM     54  C   UNL     1       5.566  12.066  -6.420  1.00  0.00     0.037 A 
ATOM     55  C   UNL     1      10.421  10.818 -10.651  1.00  0.00     0.049 A 
ATOM     56  C   UNL     1       6.601  12.925  -7.106  1.00  0.00     0.074 A 
ATOM     57  C   UNL     1      11.264  11.724 -11.266  1.00  0.00     0.029 A 
ATOM     58  N   UNL     1       9.581  11.545  -9.820  1.00  0.00    -0.354 N 
ATOM     59  N   UNL     1       7.532  12.581  -7.964  1.00  0.00    -0.248 NA
ATOM     60  C   UNL     1       6.587  14.361  -6.789  1.00  0.00     0.031 C 
ATOM     61  C   UNL     1      10.967  12.997 -10.771  1.00  0.00     0.029 A 
ATOM     62  C   UNL     1       9.899  12.890  -9.892  1.00  0.00     0.049 A 
ATOM     63  H   UNL     1       8.866  11.162  -9.263  1.00  0.00     0.167 HD
ATOM     64  C   UNL     1       8.184  13.755  -8.318  1.00  0.00     0.074 A 
ATOM     65  C   UNL     1       7.538  14.825  -7.587  1.00  0.00     0.031 C 
ATOM     66  C   UNL     1       9.222  13.937  -9.171  1.00  0.00     0.037 A 
BRANCH  53  67
ATOM     67  C   UNL     1      11.356   8.729 -11.722  1.00  0.00     0.064 A 
ATOM     68  C   UNL     1      10.952   8.150 -12.934  1.00  0.00     0.173 A 
ATOM     69  C   UNL     1      12.720   8.690 -11.397  1.00  0.00     0.173 A 
ATOM     70  F   UNL     1       9.656   8.140 -13.279  1.00  0.00    -0.203 F 
ATOM     71  C   UNL     1      11.876   7.539 -13.778  1.00  0.00     0.198 A 
ATOM     72  C   UNL     1      13.645   8.105 -12.257  1.00  0.00     0.198 A 
ATOM     73  F   UNL     1      13.157   9.225 -10.247  1.00  0.00    -0.203 F 
ATOM     74  F   UNL     1      11.462   6.952 -14.910  1.00  0.00    -0.200 F 
ATOM     75  C   UNL     1      13.222   7.524 -13.443  1.00  0.00     0.200 A 
ATOM     76  F   UNL     1      14.946   8.100 -11.936  1.00  0.00    -0.200 F 
ATOM     77  F   UNL     1      14.111   6.945 -14.261  1.00  0.00    -0.200 F 
ENDBRANCH  53  67
BRANCH  54  78
ATOM     78  C   UNL     1       4.583  12.670  -5.481  1.00  0.00     0.064 A 
ATOM     79  C   UNL     1       3.604  13.567  -5.933  1.00  0.00     0.173 A 
ATOM     80  C   UNL     1       4.628  12.398  -4.106  1.00  0.00     0.173 A 
ATOM     81  F   UNL     1       3.536  13.883  -7.235  1.00  0.00    -0.203 F 
ATOM     82  C   UNL     1       2.728  14.188  -5.044  1.00  0.00     0.198 A 
ATOM     83  C   UNL     1       3.732  12.994  -3.221  1.00  0.00     0.198 A 
ATOM     84  F   UNL     1       5.547  11.551  -3.618  1.00  0.00    -0.203 F 
ATOM     85  F   UNL     1       1.841  15.085  -5.496  1.00  0.00    -0.200 F 
ATOM     86  C   UNL     1       2.789  13.897  -3.689  1.00  0.00     0.200 A 
ATOM     87  F   UNL     1       3.788  12.702  -1.915  1.00  0.00    -0.200 F 
ATOM     88  F   UNL     1       1.949  14.495  -2.834  1.00  0.00    -0.200 F 
ENDBRANCH  54  78
BRANCH  66  89
ATOM     89  C   UNL     1       9.687  15.345  -9.408  1.00  0.00     0.064 A 
ATOM     90  C   UNL     1      10.391  16.066  -8.434  1.00  0.00     0.173 A 
ATOM     91  C   UNL     1       9.471  15.957 -10.653  1.00  0.00     0.173 A 
ATOM     92  F   UNL     1      10.612  15.528  -7.225  1.00  0.00    -0.203 F 
ATOM     93  C   UNL     1      10.841  17.358  -8.689  1.00  0.00     0.198 A 
ATOM     94  C   UNL     1       9.951  17.236 -10.915  1.00  0.00     0.198 A 
ATOM     95  F   UNL     1       8.812  15.305 -11.623  1.00  0.00    -0.203 F 
ATOM     96  F   UNL     1      11.472  18.047  -7.727  1.00  0.00    -0.200 F 
ATOM     97  C   UNL     1      10.628  17.939  -9.931  1.00  0.00     0.200 A 
ATOM     98  F   UNL     1       9.760  17.788 -12.121  1.00  0.00    -0.200 F 
ATOM     99  F   UNL     1      11.072  19.179 -10.177  1.00  0.00    -0.200 F 
ENDBRANCH  66  89
ENDBRANCH  40  41
ENDBRANCH  33  35
ENDBRANCH  32  33
ENDBRANCH  31  32
ENDBRANCH  30  31
ENDBRANCH  29  30
ENDBRANCH  28  29
ENDBRANCH  27  28
ENDBRANCH  26  27
ENDBRANCH   1  26
TORSDOF 24
