REMARK SMILES C[C@H](NC(=O)c1cc(S(=O)(=O)N(C)C)cs1)C(=O)OCCOCCOCCOCCOC(=O)c1ccc(-c2c3nc(c(-c4c(F)c(F)c(F)c(F)c4F)c4ccc([nH]4)c(-c4c(F)c(F)c(F)c(F)c4F)c4nc(c(-c5c(F)c(F)c(F)c(F)c5F)c5ccc2[nH]5)C=C4)C=C3)cc1
REMARK SMILES IDX 24 1 23 2 22 3 21 4 20 5 19 6 17 7 18 8 2 9 1 10 3 11 4 12
REMARK SMILES IDX 5 14 6 15 7 16 16 17 8 18 15 19 9 20 10 21 11 22 12 23 13 24
REMARK SMILES IDX 14 25 25 26 26 27 27 28 28 29 29 30 30 31 31 32 32 33 33 34
REMARK SMILES IDX 34 35 35 36 96 37 36 38 95 39 37 40 38 41 39 42 89 43 40 44
REMARK SMILES IDX 94 45 88 46 90 47 41 48 93 49 87 50 86 51 42 53 74 54 54 55
REMARK SMILES IDX 73 56 55 57 58 58 72 59 91 60 56 61 57 62 71 64 92 65 59 66
REMARK SMILES IDX 43 67 44 68 52 69 45 70 46 71 50 72 53 73 47 74 48 75 51 76
REMARK SMILES IDX 49 77 75 78 76 79 84 80 77 81 78 82 82 83 85 84 79 85 80 86
REMARK SMILES IDX 83 87 81 88 60 89 61 90 69 91 62 92 63 93 67 94 70 95 64 96
REMARK SMILES IDX 65 97 68 98 66 99
REMARK H PARENT 3 13 90 52 58 63
REMARK Flexibility Score: inf
ROOT
ATOM      1  C   UNL     1      -1.353  -1.504  -0.314  1.00  0.00     0.188 C 
ENDROOT
BRANCH   1   2
ATOM      2  C   UNL     1      -2.172  -2.258   0.751  1.00  0.00     0.188 C 
BRANCH   2   3
ATOM      3  O   UNL     1      -3.548  -1.950   0.945  1.00  0.00    -0.376 OA
BRANCH   3   4
ATOM      4  C   UNL     1      -3.955  -0.613   1.227  1.00  0.00     0.202 C 
BRANCH   4   5
ATOM      5  C   UNL     1      -3.253   0.146   2.351  1.00  0.00     0.261 C 
BRANCH   5   6
ATOM      6  O   UNL     1      -1.899   0.493   2.019  1.00  0.00    -0.462 OA
BRANCH   6   7
ATOM      7  C   UNL     1      -0.937  -0.013   2.832  1.00  0.00     0.328 C 
ATOM      8  O   UNL     1      -1.139  -0.761   3.783  1.00  0.00    -0.250 OA
BRANCH   7   9
ATOM      9  C   UNL     1       0.447   0.563   2.516  1.00  0.00     0.189 C 
ATOM     10  C   UNL     1       0.742   1.545   3.652  1.00  0.00     0.043 C 
BRANCH   9  11
ATOM     11  N   UNL     1       0.566   1.128   1.160  1.00  0.00    -0.338 N 
ATOM     12  C   UNL     1       1.627   1.736   0.523  1.00  0.00     0.262 C 
ATOM     13  H   UNL     1      -0.252   1.059   0.616  1.00  0.00     0.164 HD
ATOM     14  O   UNL     1       1.520   1.968  -0.681  1.00  0.00    -0.268 OA
BRANCH  12  15
ATOM     15  C   UNL     1       2.766   2.145   1.321  1.00  0.00     0.093 A 
ATOM     16  C   UNL     1       3.514   1.440   2.243  1.00  0.00     0.047 A 
ATOM     17  S   UNL     1       3.272   3.785   1.238  1.00  0.00    -0.137 S 
ATOM     18  C   UNL     1       4.224   2.325   3.111  1.00  0.00     0.094 A 
ATOM     19  C   UNL     1       4.209   3.627   2.660  1.00  0.00     0.087 A 
BRANCH  18  20
ATOM     20  S   UNL     1       4.860   1.869   4.659  1.00  0.00     0.243 S 
ATOM     21  O   UNL     1       6.268   2.171   4.581  1.00  0.00    -0.207 OA
ATOM     22  O   UNL     1       3.968   2.554   5.574  1.00  0.00    -0.207 OA
BRANCH  20  23
ATOM     23  N   UNL     1       4.653   0.186   4.869  1.00  0.00    -0.204 NA
ATOM     24  C   UNL     1       5.657  -0.646   4.170  1.00  0.00     0.124 C 
ATOM     25  C   UNL     1       4.487  -0.220   6.283  1.00  0.00     0.124 C 
ENDBRANCH  20  23
ENDBRANCH  18  20
ENDBRANCH  12  15
ENDBRANCH   9  11
ENDBRANCH   7   9
ENDBRANCH   6   7
ENDBRANCH   5   6
ENDBRANCH   4   5
ENDBRANCH   3   4
ENDBRANCH   2   3
ENDBRANCH   1   2
BRANCH   1  26
ATOM     26  O   UNL     1      -1.902  -0.252  -0.689  1.00  0.00    -0.377 OA
BRANCH  26  27
ATOM     27  C   UNL     1      -2.524  -0.225  -1.980  1.00  0.00     0.188 C 
BRANCH  27  28
ATOM     28  C   UNL     1      -3.501  -1.373  -2.299  1.00  0.00     0.188 C 
BRANCH  28  29
ATOM     29  O   UNL     1      -2.809  -2.587  -2.604  1.00  0.00    -0.376 OA
BRANCH  29  30
ATOM     30  C   UNL     1      -2.753  -2.928  -3.990  1.00  0.00     0.202 C 
BRANCH  30  31
ATOM     31  C   UNL     1      -1.773  -2.069  -4.805  1.00  0.00     0.261 C 
BRANCH  31  32
ATOM     32  O   UNL     1      -2.175  -0.694  -4.955  1.00  0.00    -0.460 OA
BRANCH  32  33
ATOM     33  C   UNL     1      -3.334  -0.466  -5.608  1.00  0.00     0.338 C 
ATOM     34  O   UNL     1      -4.049  -1.286  -6.154  1.00  0.00    -0.246 OA
BRANCH  33  35
ATOM     35  C   UNL     1      -3.708   0.946  -5.397  1.00  0.00     0.060 A 
ATOM     36  C   UNL     1      -4.981   1.230  -4.888  1.00  0.00     0.016 A 
ATOM     37  C   UNL     1      -2.828   1.979  -5.729  1.00  0.00     0.016 A 
ATOM     38  C   UNL     1      -5.395   2.555  -4.752  1.00  0.00     0.010 A 
ATOM     39  C   UNL     1      -3.250   3.304  -5.609  1.00  0.00     0.010 A 
ATOM     40  C   UNL     1      -4.546   3.596  -5.153  1.00  0.00    -0.014 A 
BRANCH  40  41
ATOM     41  C   UNL     1      -5.075   4.974  -5.272  1.00  0.00     0.031 A 
ATOM     42  C   UNL     1      -5.661   5.405  -6.588  1.00  0.00     0.074 A 
ATOM     43  C   UNL     1      -5.032   5.830  -4.237  1.00  0.00     0.049 A 
ATOM     44  N   UNL     1      -6.152   6.566  -6.940  1.00  0.00    -0.248 NA
ATOM     45  C   UNL     1      -5.698   4.388  -7.652  1.00  0.00     0.031 C 
ATOM     46  C   UNL     1      -4.508   5.525  -2.909  1.00  0.00     0.029 A 
ATOM     47  N   UNL     1      -5.428   7.141  -4.153  1.00  0.00    -0.354 N 
ATOM     48  C   UNL     1      -6.559   6.418  -8.259  1.00  0.00     0.074 A 
ATOM     49  C   UNL     1      -6.238   5.064  -8.656  1.00  0.00     0.031 C 
ATOM     50  C   UNL     1      -4.596   6.628  -2.143  1.00  0.00     0.029 A 
ATOM     51  C   UNL     1      -5.163   7.718  -2.936  1.00  0.00     0.049 A 
ATOM     52  H   UNL     1      -5.861   7.623  -4.895  1.00  0.00     0.167 HD
ATOM     53  C   UNL     1      -7.153   7.327  -9.066  1.00  0.00     0.037 A 
ATOM     54  C   UNL     1      -5.341   8.988  -2.523  1.00  0.00     0.037 A 
ATOM     55  C   UNL     1      -7.462   8.676  -8.681  1.00  0.00     0.049 A 
ATOM     56  C   UNL     1      -5.941  10.000  -3.465  1.00  0.00     0.074 A 
ATOM     57  C   UNL     1      -8.085   9.665  -9.422  1.00  0.00     0.029 A 
ATOM     58  N   UNL     1      -7.157   9.230  -7.448  1.00  0.00    -0.354 N 
ATOM     59  N   UNL     1      -6.365   9.839  -4.694  1.00  0.00    -0.248 NA
ATOM     60  C   UNL     1      -6.084  11.374  -2.959  1.00  0.00     0.031 C 
ATOM     61  C   UNL     1      -8.123  10.830  -8.650  1.00  0.00     0.029 A 
ATOM     62  C   UNL     1      -7.557  10.556  -7.415  1.00  0.00     0.049 A 
ATOM     63  H   UNL     1      -6.722   8.753  -6.705  1.00  0.00     0.167 HD
ATOM     64  C   UNL     1      -6.845  11.078  -5.099  1.00  0.00     0.074 A 
ATOM     65  C   UNL     1      -6.670  11.980  -3.981  1.00  0.00     0.031 C 
ATOM     66  C   UNL     1      -7.382  11.436  -6.291  1.00  0.00     0.037 A 
BRANCH  53  67
ATOM     67  C   UNL     1      -7.495   6.892 -10.457  1.00  0.00     0.064 A 
ATOM     68  C   UNL     1      -8.593   6.058 -10.711  1.00  0.00     0.173 A 
ATOM     69  C   UNL     1      -6.741   7.344 -11.549  1.00  0.00     0.173 A 
ATOM     70  F   UNL     1      -9.333   5.588  -9.695  1.00  0.00    -0.203 F 
ATOM     71  C   UNL     1      -8.917   5.681 -12.011  1.00  0.00     0.198 A 
ATOM     72  C   UNL     1      -7.079   6.980 -12.849  1.00  0.00     0.198 A 
ATOM     73  F   UNL     1      -5.681   8.142 -11.354  1.00  0.00    -0.203 F 
ATOM     74  F   UNL     1      -9.952   4.859 -12.230  1.00  0.00    -0.200 F 
ATOM     75  C   UNL     1      -8.164   6.147 -13.079  1.00  0.00     0.200 A 
ATOM     76  F   UNL     1      -6.354   7.435 -13.881  1.00  0.00    -0.200 F 
ATOM     77  F   UNL     1      -8.481   5.788 -14.330  1.00  0.00    -0.200 F 
ENDBRANCH  53  67
BRANCH  54  78
ATOM     78  C   UNL     1      -4.932   9.389  -1.153  1.00  0.00     0.064 A 
ATOM     79  C   UNL     1      -5.887   9.706  -0.178  1.00  0.00     0.173 A 
ATOM     80  C   UNL     1      -3.578   9.501  -0.804  1.00  0.00     0.173 A 
ATOM     81  F   UNL     1      -7.193   9.643  -0.475  1.00  0.00    -0.203 F 
ATOM     82  C   UNL     1      -5.503  10.138   1.090  1.00  0.00     0.198 A 
ATOM     83  C   UNL     1      -3.196   9.911   0.471  1.00  0.00     0.198 A 
ATOM     84  F   UNL     1      -2.627   9.216  -1.706  1.00  0.00    -0.203 F 
ATOM     85  F   UNL     1      -6.436  10.481   1.989  1.00  0.00    -0.200 F 
ATOM     86  C   UNL     1      -4.158  10.236   1.414  1.00  0.00     0.200 A 
ATOM     87  F   UNL     1      -1.895  10.001   0.782  1.00  0.00    -0.200 F 
ATOM     88  F   UNL     1      -3.790  10.658   2.632  1.00  0.00    -0.200 F 
ENDBRANCH  54  78
BRANCH  66  89
ATOM     89  C   UNL     1      -7.845  12.854  -6.440  1.00  0.00     0.064 A 
ATOM     90  C   UNL     1      -6.934  13.907  -6.611  1.00  0.00     0.173 A 
ATOM     91  C   UNL     1      -9.214  13.156  -6.463  1.00  0.00     0.173 A 
ATOM     92  F   UNL     1      -5.614  13.668  -6.582  1.00  0.00    -0.203 F 
ATOM     93  C   UNL     1      -7.379  15.215  -6.783  1.00  0.00     0.198 A 
ATOM     94  C   UNL     1      -9.656  14.462  -6.658  1.00  0.00     0.198 A 
ATOM     95  F   UNL     1     -10.124  12.182  -6.310  1.00  0.00    -0.203 F 
ATOM     96  F   UNL     1      -6.492  16.211  -6.910  1.00  0.00    -0.200 F 
ATOM     97  C   UNL     1      -8.738  15.490  -6.813  1.00  0.00     0.200 A 
ATOM     98  F   UNL     1     -10.969  14.725  -6.698  1.00  0.00    -0.200 F 
ATOM     99  F   UNL     1      -9.164  16.749  -6.986  1.00  0.00    -0.200 F 
ENDBRANCH  66  89
ENDBRANCH  40  41
ENDBRANCH  33  35
ENDBRANCH  32  33
ENDBRANCH  31  32
ENDBRANCH  30  31
ENDBRANCH  29  30
ENDBRANCH  28  29
ENDBRANCH  27  28
ENDBRANCH  26  27
ENDBRANCH   1  26
TORSDOF 24
