REMARK SMILES Cc1ccn(CC(=O)N2CCC3(CC2)NC(=O)C[C@@H]3C(=O)OCCOCCOCCOCCOC(=O)c2ccc(-c3c4nc(c(-c5c(F)c(F)c(F)c(F)c5F)c5ccc([nH]5)c(-c5c(F)c(F)c(F)c(F)c5F)c5nc(c(-c6c(F)c(F)c(F)c(F)c6F)c6ccc3[nH]6)C=C5)C=C4)cc2)n1
REMARK SMILES IDX 28 1 27 2 26 3 25 4 24 5 23 6 22 7 20 8 21 9 19 10 7 11 8 12
REMARK SMILES IDX 9 13 10 14 14 15 11 16 13 17 12 18 15 19 16 20 18 22 17 23
REMARK SMILES IDX 6 24 5 25 1 26 2 27 3 28 100 29 4 30 29 31 30 32 31 33 32 34
REMARK SMILES IDX 33 35 34 36 35 37 36 38 37 39 38 40 99 41 39 42 98 43 40 44
REMARK SMILES IDX 41 45 42 46 92 47 43 48 97 49 91 50 93 51 44 52 96 53 90 54
REMARK SMILES IDX 89 55 45 57 77 58 57 59 76 60 58 61 61 62 75 63 94 64 59 65
REMARK SMILES IDX 60 66 74 68 95 69 62 70 46 71 47 72 55 73 48 74 49 75 53 76
REMARK SMILES IDX 56 77 50 78 51 79 54 80 52 81 78 82 79 83 87 84 80 85 81 86
REMARK SMILES IDX 85 87 88 88 82 89 83 90 86 91 84 92 63 93 64 94 72 95 65 96
REMARK SMILES IDX 66 97 70 98 73 99 67 100 68 101 71 102 69 103
REMARK H PARENT 15 21 93 56 61 67
REMARK Flexibility Score: inf
ROOT
ATOM      1  O   UNL     1       4.846   3.239  -8.036  1.00  0.00    -0.377 OA
ENDROOT
BRANCH   1   2
ATOM      2  C   UNL     1       6.206   3.166  -8.438  1.00  0.00     0.188 C 
BRANCH   2   3
ATOM      3  C   UNL     1       6.692   1.722  -8.512  1.00  0.00     0.188 C 
BRANCH   3   4
ATOM      4  O   UNL     1       5.958   0.881  -9.400  1.00  0.00    -0.376 OA
BRANCH   4   5
ATOM      5  C   UNL     1       4.586   0.626  -9.085  1.00  0.00     0.202 C 
BRANCH   5   6
ATOM      6  C   UNL     1       4.300   0.017  -7.704  1.00  0.00     0.261 C 
BRANCH   6   7
ATOM      7  O   UNL     1       4.538   0.933  -6.606  1.00  0.00    -0.463 OA
BRANCH   7   8
ATOM      8  C   UNL     1       5.317   0.492  -5.598  1.00  0.00     0.311 C 
ATOM      9  O   UNL     1       5.856  -0.611  -5.582  1.00  0.00    -0.252 OA
BRANCH   8  10
ATOM     10  C   UNL     1       5.563   1.486  -4.485  1.00  0.00     0.134 C 
ATOM     11  C   UNL     1       0.369   2.076  -4.958  1.00  0.00     0.244 C 
ATOM     12  O   UNL     1      -0.036   2.208  -6.119  1.00  0.00    -0.273 OA
ATOM     13  N   UNL     1       1.726   2.205  -4.666  1.00  0.00    -0.341 N 
ATOM     14  C   UNL     1       2.554   2.946  -5.607  1.00  0.00     0.122 C 
ATOM     15  C   UNL     1       2.445   1.242  -3.842  1.00  0.00     0.122 C 
ATOM     16  C   UNL     1       3.842   3.482  -4.973  1.00  0.00     0.051 C 
ATOM     17  C   UNL     1       3.523   1.928  -3.033  1.00  0.00     0.051 C 
ATOM     18  C   UNL     1       4.560   2.549  -3.975  1.00  0.00     0.057 C 
ATOM     19  N   UNL     1       5.476   3.390  -3.202  1.00  0.00    -0.350 N 
ATOM     20  C   UNL     1       6.780   3.305  -3.624  1.00  0.00     0.221 C 
ATOM     21  H   UNL     1       5.186   3.959  -2.453  1.00  0.00     0.164 HD
ATOM     22  C   UNL     1       6.872   2.250  -4.683  1.00  0.00     0.117 C 
ATOM     23  O   UNL     1       7.699   4.015  -3.221  1.00  0.00    -0.275 OA
BRANCH  11  24
ATOM     24  C   UNL     1      -0.637   2.054  -3.819  1.00  0.00     0.244 C 
BRANCH  24  25
ATOM     25  N   UNL     1      -0.493   0.979  -2.864  1.00  0.00    -0.263 N 
ATOM     26  C   UNL     1       0.829  -0.052   0.248  1.00  0.00     0.069 C 
ATOM     27  C   UNL     1       0.169   0.054  -1.075  1.00  0.00     0.059 A 
ATOM     28  C   UNL     1      -0.251  -0.987  -1.937  1.00  0.00     0.045 A 
ATOM     29  N   UNL     1      -0.031   1.256  -1.626  1.00  0.00    -0.178 NA
ATOM     30  C   UNL     1      -0.699  -0.354  -3.074  1.00  0.00     0.109 A 
ENDBRANCH  24  25
ENDBRANCH  11  24
ENDBRANCH   8  10
ENDBRANCH   7   8
ENDBRANCH   6   7
ENDBRANCH   5   6
ENDBRANCH   4   5
ENDBRANCH   3   4
ENDBRANCH   2   3
ENDBRANCH   1   2
BRANCH   1  31
ATOM     31  C   UNL     1       3.967   4.125  -8.726  1.00  0.00     0.188 C 
BRANCH  31  32
ATOM     32  C   UNL     1       4.474   4.776 -10.015  1.00  0.00     0.188 C 
BRANCH  32  33
ATOM     33  O   UNL     1       5.545   5.726  -9.910  1.00  0.00    -0.376 OA
BRANCH  33  34
ATOM     34  C   UNL     1       5.811   6.387  -8.671  1.00  0.00     0.202 C 
BRANCH  34  35
ATOM     35  C   UNL     1       5.001   7.651  -8.428  1.00  0.00     0.261 C 
BRANCH  35  36
ATOM     36  O   UNL     1       3.637   7.282  -8.278  1.00  0.00    -0.460 OA
BRANCH  36  37
ATOM     37  C   UNL     1       2.931   7.249  -9.426  1.00  0.00     0.338 C 
ATOM     38  O   UNL     1       3.310   7.641 -10.532  1.00  0.00    -0.246 OA
BRANCH  37  39
ATOM     39  C   UNL     1       1.569   6.696  -9.152  1.00  0.00     0.060 A 
ATOM     40  C   UNL     1       0.704   7.077 -10.178  1.00  0.00     0.016 A 
ATOM     41  C   UNL     1       1.197   6.856  -7.814  1.00  0.00     0.016 A 
ATOM     42  C   UNL     1      -0.087   8.167  -9.917  1.00  0.00     0.010 A 
ATOM     43  C   UNL     1       0.481   7.990  -7.543  1.00  0.00     0.010 A 
ATOM     44  C   UNL     1      -0.069   8.686  -8.621  1.00  0.00    -0.014 A 
BRANCH  44  45
ATOM     45  C   UNL     1      -0.728   9.943  -8.385  1.00  0.00     0.031 A 
ATOM     46  C   UNL     1      -2.164   9.770  -8.107  1.00  0.00     0.074 A 
ATOM     47  C   UNL     1      -0.057  11.101  -8.283  1.00  0.00     0.049 A 
ATOM     48  N   UNL     1      -3.161  10.129  -8.843  1.00  0.00    -0.248 NA
ATOM     49  C   UNL     1      -2.524   8.902  -6.973  1.00  0.00     0.031 C 
ATOM     50  C   UNL     1       1.389  11.321  -8.226  1.00  0.00     0.029 A 
ATOM     51  N   UNL     1      -0.569  12.337  -8.061  1.00  0.00    -0.354 N 
ATOM     52  C   UNL     1      -4.283   9.681  -8.160  1.00  0.00     0.074 A 
ATOM     53  C   UNL     1      -3.825   8.730  -7.186  1.00  0.00     0.031 C 
ATOM     54  C   UNL     1       1.621  12.566  -7.747  1.00  0.00     0.029 A 
ATOM     55  C   UNL     1       0.349  13.242  -7.552  1.00  0.00     0.049 A 
ATOM     56  H   UNL     1      -1.507  12.571  -8.244  1.00  0.00     0.167 HD
ATOM     57  C   UNL     1      -5.466  10.342  -8.233  1.00  0.00     0.037 A 
ATOM     58  C   UNL     1       0.009  14.363  -6.868  1.00  0.00     0.037 A 
ATOM     59  C   UNL     1      -5.511  11.217  -9.376  1.00  0.00     0.049 A 
ATOM     60  C   UNL     1      -1.417  14.668  -7.205  1.00  0.00     0.074 A 
ATOM     61  C   UNL     1      -5.348  11.024 -10.736  1.00  0.00     0.029 A 
ATOM     62  N   UNL     1      -5.355  12.568  -9.174  1.00  0.00    -0.354 N 
ATOM     63  N   UNL     1      -1.823  15.043  -8.390  1.00  0.00    -0.248 NA
ATOM     64  C   UNL     1      -2.453  14.093  -6.354  1.00  0.00     0.031 C 
ATOM     65  C   UNL     1      -4.621  12.164 -11.189  1.00  0.00     0.029 A 
ATOM     66  C   UNL     1      -4.432  13.005 -10.092  1.00  0.00     0.049 A 
ATOM     67  H   UNL     1      -5.816  13.117  -8.500  1.00  0.00     0.167 HD
ATOM     68  C   UNL     1      -3.034  14.389  -8.582  1.00  0.00     0.074 A 
ATOM     69  C   UNL     1      -3.406  13.879  -7.266  1.00  0.00     0.031 C 
ATOM     70  C   UNL     1      -3.481  14.059  -9.830  1.00  0.00     0.037 A 
BRANCH  57  71
ATOM     71  C   UNL     1      -6.412  10.458  -7.066  1.00  0.00     0.064 A 
ATOM     72  C   UNL     1      -7.695  10.987  -7.285  1.00  0.00     0.173 A 
ATOM     73  C   UNL     1      -6.033  10.321  -5.710  1.00  0.00     0.173 A 
ATOM     74  F   UNL     1      -8.146  11.187  -8.532  1.00  0.00    -0.203 F 
ATOM     75  C   UNL     1      -8.507  11.405  -6.229  1.00  0.00     0.198 A 
ATOM     76  C   UNL     1      -6.872  10.675  -4.658  1.00  0.00     0.198 A 
ATOM     77  F   UNL     1      -4.802   9.953  -5.336  1.00  0.00    -0.203 F 
ATOM     78  F   UNL     1      -9.667  12.021  -6.490  1.00  0.00    -0.200 F 
ATOM     79  C   UNL     1      -8.095  11.249  -4.917  1.00  0.00     0.200 A 
ATOM     80  F   UNL     1      -6.443  10.528  -3.397  1.00  0.00    -0.200 F 
ATOM     81  F   UNL     1      -8.850  11.698  -3.906  1.00  0.00    -0.200 F 
ENDBRANCH  57  71
BRANCH  58  82
ATOM     82  C   UNL     1       0.703  14.908  -5.671  1.00  0.00     0.064 A 
ATOM     83  C   UNL     1       0.390  16.183  -5.172  1.00  0.00     0.173 A 
ATOM     84  C   UNL     1       1.524  14.109  -4.847  1.00  0.00     0.173 A 
ATOM     85  F   UNL     1      -0.435  16.990  -5.855  1.00  0.00    -0.203 F 
ATOM     86  C   UNL     1       0.869  16.626  -3.932  1.00  0.00     0.198 A 
ATOM     87  C   UNL     1       2.017  14.558  -3.623  1.00  0.00     0.198 A 
ATOM     88  F   UNL     1       1.799  12.835  -5.161  1.00  0.00    -0.203 F 
ATOM     89  F   UNL     1       0.501  17.827  -3.464  1.00  0.00    -0.200 F 
ATOM     90  C   UNL     1       1.681  15.813  -3.159  1.00  0.00     0.200 A 
ATOM     91  F   UNL     1       2.772  13.742  -2.872  1.00  0.00    -0.200 F 
ATOM     92  F   UNL     1       2.104  16.218  -1.954  1.00  0.00    -0.200 F 
ENDBRANCH  58  82
BRANCH  70  93
ATOM     93  C   UNL     1      -2.754  14.615 -11.023  1.00  0.00     0.064 A 
ATOM     94  C   UNL     1      -1.401  14.349 -11.300  1.00  0.00     0.173 A 
ATOM     95  C   UNL     1      -3.492  15.280 -12.011  1.00  0.00     0.173 A 
ATOM     96  F   UNL     1      -0.660  13.615 -10.462  1.00  0.00    -0.203 F 
ATOM     97  C   UNL     1      -0.807  14.772 -12.487  1.00  0.00     0.198 A 
ATOM     98  C   UNL     1      -2.906  15.666 -13.215  1.00  0.00     0.198 A 
ATOM     99  F   UNL     1      -4.803  15.505 -11.834  1.00  0.00    -0.203 F 
ATOM    100  F   UNL     1       0.488  14.511 -12.720  1.00  0.00    -0.200 F 
ATOM    101  C   UNL     1      -1.563  15.421 -13.448  1.00  0.00     0.200 A 
ATOM    102  F   UNL     1      -3.655  16.244 -14.165  1.00  0.00    -0.200 F 
ATOM    103  F   UNL     1      -1.005  15.783 -14.612  1.00  0.00    -0.200 F 
ENDBRANCH  70  93
ENDBRANCH  44  45
ENDBRANCH  37  39
ENDBRANCH  36  37
ENDBRANCH  35  36
ENDBRANCH  34  35
ENDBRANCH  33  34
ENDBRANCH  32  33
ENDBRANCH  31  32
ENDBRANCH   1  31
TORSDOF 22
