REMARK SMILES CC(C)n1c2c(c3ccccc31)[C@@H](c1ccccc1)N(CC(=O)OCCOCCOCCOCCOC(=O)c1ccc(-c3c4nc(c(-c5c(F)c(F)c(F)c(F)c5F)c5ccc([nH]5)c(-c5c(F)c(F)c(F)c(F)c5F)c5nc(c(-c6c(F)c(F)c(F)c(F)c6F)c6ccc3[nH]6)C=C5)C=C4)cc1)C2=O
REMARK SMILES IDX 30 1 29 2 28 3 27 4 26 5 25 6 24 7 22 8 23 9 21 10 20 11
REMARK SMILES IDX 4 12 5 13 12 14 6 15 102 16 7 17 11 18 13 19 103 20 8 21
REMARK SMILES IDX 10 22 9 23 2 24 1 25 3 26 14 27 15 28 19 29 16 30 18 31
REMARK SMILES IDX 17 32 31 33 32 34 33 35 34 36 35 37 36 38 37 39 38 40 39 41
REMARK SMILES IDX 40 42 101 43 41 44 100 45 42 46 43 47 44 48 94 49 45 50
REMARK SMILES IDX 99 51 93 52 95 53 46 54 98 55 92 56 91 57 47 59 79 60 59 61
REMARK SMILES IDX 78 62 60 63 63 64 77 65 96 66 61 67 62 68 76 70 97 71 64 72
REMARK SMILES IDX 48 73 49 74 57 75 50 76 51 77 55 78 58 79 52 80 53 81 56 82
REMARK SMILES IDX 54 83 80 84 81 85 89 86 82 87 83 88 87 89 90 90 84 91 85 92
REMARK SMILES IDX 88 93 86 94 65 95 66 96 74 97 67 98 68 99 72 100 75 101
REMARK SMILES IDX 69 102 70 103 73 104 71 105
REMARK H PARENT 95 58 63 69
REMARK Flexibility Score: inf
ROOT
ATOM      1  O   UNL     1      -5.383  -1.319   3.507  1.00  0.00    -0.377 OA
ENDROOT
BRANCH   1   2
ATOM      2  C   UNL     1      -6.434  -1.961   2.837  1.00  0.00     0.188 C 
BRANCH   2   3
ATOM      3  C   UNL     1      -7.057  -3.115   3.609  1.00  0.00     0.188 C 
BRANCH   3   4
ATOM      4  O   UNL     1      -7.022  -3.087   5.022  1.00  0.00    -0.376 OA
BRANCH   4   5
ATOM      5  C   UNL     1      -5.778  -2.965   5.712  1.00  0.00     0.202 C 
BRANCH   5   6
ATOM      6  C   UNL     1      -4.477  -3.659   5.246  1.00  0.00     0.261 C 
BRANCH   6   7
ATOM      7  O   UNL     1      -3.865  -3.145   4.030  1.00  0.00    -0.462 OA
BRANCH   7   8
ATOM      8  C   UNL     1      -3.837  -3.976   2.962  1.00  0.00     0.325 C 
ATOM      9  O   UNL     1      -4.213  -5.148   3.014  1.00  0.00    -0.250 OA
BRANCH   8  10
ATOM     10  C   UNL     1      -3.311  -3.400   1.623  1.00  0.00     0.243 C 
BRANCH  10  11
ATOM     11  N   UNL     1      -2.969  -2.014   1.290  1.00  0.00    -0.315 N 
ATOM     12  N   UNL     1      -0.902   0.924   1.066  1.00  0.00    -0.334 N 
ATOM     13  C   UNL     1      -1.734  -0.157   1.125  1.00  0.00     0.114 A 
ATOM     14  C   UNL     1      -1.718   2.051   0.941  1.00  0.00     0.049 A 
ATOM     15  C   UNL     1      -2.977   0.193   0.682  1.00  0.00     0.018 A 
ATOM     16  C   UNL     1      -1.678  -1.526   1.507  1.00  0.00     0.272 C 
ATOM     17  C   UNL     1      -2.997   1.595   0.548  1.00  0.00     0.006 A 
ATOM     18  C   UNL     1      -1.497   3.427   1.147  1.00  0.00     0.027 A 
ATOM     19  C   UNL     1      -3.898  -0.984   0.706  1.00  0.00     0.150 C 
ATOM     20  O   UNL     1      -0.714  -2.139   1.957  1.00  0.00    -0.267 OA
ATOM     21  C   UNL     1      -3.985   2.537   0.201  1.00  0.00     0.011 A 
ATOM     22  C   UNL     1      -2.541   4.330   0.916  1.00  0.00     0.002 A 
ATOM     23  C   UNL     1      -3.760   3.897   0.418  1.00  0.00     0.001 A 
BRANCH  12  24
ATOM     24  C   UNL     1       0.560   0.807   1.086  1.00  0.00     0.082 C 
ATOM     25  C   UNL     1       1.052  -0.049  -0.095  1.00  0.00     0.031 C 
ATOM     26  C   UNL     1       1.351   2.118   1.062  1.00  0.00     0.031 C 
ENDBRANCH  12  24
BRANCH  19  27
ATOM     27  C   UNL     1      -4.497  -1.247  -0.677  1.00  0.00    -0.021 A 
ATOM     28  C   UNL     1      -5.493  -2.239  -0.814  1.00  0.00     0.006 A 
ATOM     29  C   UNL     1      -4.246  -0.472  -1.825  1.00  0.00     0.006 A 
ATOM     30  C   UNL     1      -6.208  -2.433  -2.002  1.00  0.00     0.000 A 
ATOM     31  C   UNL     1      -4.974  -0.648  -3.013  1.00  0.00     0.000 A 
ATOM     32  C   UNL     1      -5.957  -1.626  -3.100  1.00  0.00     0.000 A 
ENDBRANCH  19  27
ENDBRANCH  10  11
ENDBRANCH   8  10
ENDBRANCH   7   8
ENDBRANCH   6   7
ENDBRANCH   5   6
ENDBRANCH   4   5
ENDBRANCH   3   4
ENDBRANCH   2   3
ENDBRANCH   1   2
BRANCH   1  33
ATOM     33  C   UNL     1      -5.585  -0.075   4.141  1.00  0.00     0.188 C 
BRANCH  33  34
ATOM     34  C   UNL     1      -7.014   0.347   4.493  1.00  0.00     0.188 C 
BRANCH  34  35
ATOM     35  O   UNL     1      -7.839   0.444   3.344  1.00  0.00    -0.376 OA
BRANCH  35  36
ATOM     36  C   UNL     1      -7.933   1.685   2.658  1.00  0.00     0.202 C 
BRANCH  36  37
ATOM     37  C   UNL     1      -6.670   2.491   2.313  1.00  0.00     0.261 C 
BRANCH  37  38
ATOM     38  O   UNL     1      -5.729   2.629   3.383  1.00  0.00    -0.460 OA
BRANCH  38  39
ATOM     39  C   UNL     1      -5.699   3.705   4.190  1.00  0.00     0.338 C 
ATOM     40  O   UNL     1      -6.287   4.757   4.052  1.00  0.00    -0.246 OA
BRANCH  39  41
ATOM     41  C   UNL     1      -5.126   3.166   5.452  1.00  0.00     0.060 A 
ATOM     42  C   UNL     1      -3.910   2.468   5.479  1.00  0.00     0.016 A 
ATOM     43  C   UNL     1      -6.019   3.078   6.528  1.00  0.00     0.016 A 
ATOM     44  C   UNL     1      -3.646   1.606   6.548  1.00  0.00     0.010 A 
ATOM     45  C   UNL     1      -5.773   2.180   7.564  1.00  0.00     0.010 A 
ATOM     46  C   UNL     1      -4.607   1.411   7.560  1.00  0.00    -0.014 A 
BRANCH  46  47
ATOM     47  C   UNL     1      -4.257   0.579   8.724  1.00  0.00     0.031 A 
ATOM     48  C   UNL     1      -3.174   1.190   9.547  1.00  0.00     0.074 A 
ATOM     49  C   UNL     1      -4.923  -0.513   9.170  1.00  0.00     0.049 A 
ATOM     50  N   UNL     1      -2.046   0.674   9.911  1.00  0.00    -0.248 NA
ATOM     51  C   UNL     1      -3.338   2.608   9.922  1.00  0.00     0.031 C 
ATOM     52  C   UNL     1      -6.180  -1.057   8.658  1.00  0.00     0.029 A 
ATOM     53  N   UNL     1      -4.665  -1.326  10.250  1.00  0.00    -0.354 N 
ATOM     54  C   UNL     1      -1.427   1.645  10.694  1.00  0.00     0.074 A 
ATOM     55  C   UNL     1      -2.190   2.855  10.548  1.00  0.00     0.031 C 
ATOM     56  C   UNL     1      -6.665  -1.978   9.522  1.00  0.00     0.029 A 
ATOM     57  C   UNL     1      -5.729  -2.150  10.620  1.00  0.00     0.049 A 
ATOM     58  H   UNL     1      -3.801  -1.326  10.723  1.00  0.00     0.167 HD
ATOM     59  C   UNL     1      -0.463   1.328  11.597  1.00  0.00     0.037 A 
ATOM     60  C   UNL     1      -5.881  -2.865  11.770  1.00  0.00     0.037 A 
ATOM     61  C   UNL     1       0.163   0.072  11.296  1.00  0.00     0.049 A 
ATOM     62  C   UNL     1      -4.548  -3.002  12.400  1.00  0.00     0.074 A 
ATOM     63  C   UNL     1       0.883  -0.418  10.225  1.00  0.00     0.029 A 
ATOM     64  N   UNL     1      -0.192  -1.025  12.037  1.00  0.00    -0.354 N 
ATOM     65  N   UNL     1      -3.583  -3.737  11.931  1.00  0.00    -0.248 NA
ATOM     66  C   UNL     1      -4.154  -1.979  13.355  1.00  0.00     0.031 C 
ATOM     67  C   UNL     1       0.513  -1.789  10.122  1.00  0.00     0.029 A 
ATOM     68  C   UNL     1      -0.369  -2.068  11.165  1.00  0.00     0.049 A 
ATOM     69  H   UNL     1      -0.299  -1.059  13.015  1.00  0.00     0.167 HD
ATOM     70  C   UNL     1      -2.441  -2.989  12.164  1.00  0.00     0.074 A 
ATOM     71  C   UNL     1      -2.842  -1.960  13.117  1.00  0.00     0.031 C 
ATOM     72  C   UNL     1      -1.355  -3.104  11.349  1.00  0.00     0.037 A 
BRANCH  59  73
ATOM     73  C   UNL     1      -0.350   2.004  12.937  1.00  0.00     0.064 A 
ATOM     74  C   UNL     1       0.795   1.802  13.727  1.00  0.00     0.173 A 
ATOM     75  C   UNL     1      -1.446   2.612  13.590  1.00  0.00     0.173 A 
ATOM     76  F   UNL     1       1.874   1.188  13.218  1.00  0.00    -0.203 F 
ATOM     77  C   UNL     1       0.824   2.147  15.081  1.00  0.00     0.198 A 
ATOM     78  C   UNL     1      -1.394   3.007  14.924  1.00  0.00     0.198 A 
ATOM     79  F   UNL     1      -2.642   2.741  13.000  1.00  0.00    -0.203 F 
ATOM     80  F   UNL     1       1.893   1.832  15.824  1.00  0.00    -0.200 F 
ATOM     81  C   UNL     1      -0.270   2.751  15.677  1.00  0.00     0.200 A 
ATOM     82  F   UNL     1      -2.475   3.565  15.488  1.00  0.00    -0.200 F 
ATOM     83  F   UNL     1      -0.262   3.036  16.985  1.00  0.00    -0.200 F 
ENDBRANCH  59  73
BRANCH  60  84
ATOM     84  C   UNL     1      -7.123  -3.179  12.536  1.00  0.00     0.064 A 
ATOM     85  C   UNL     1      -7.120  -4.117  13.588  1.00  0.00     0.173 A 
ATOM     86  C   UNL     1      -8.261  -2.354  12.453  1.00  0.00     0.173 A 
ATOM     87  F   UNL     1      -6.063  -4.920  13.777  1.00  0.00    -0.203 F 
ATOM     88  C   UNL     1      -8.169  -4.194  14.515  1.00  0.00     0.198 A 
ATOM     89  C   UNL     1      -9.310  -2.439  13.371  1.00  0.00     0.198 A 
ATOM     90  F   UNL     1      -8.337  -1.376  11.541  1.00  0.00    -0.203 F 
ATOM     91  F   UNL     1      -8.094  -5.049  15.546  1.00  0.00    -0.200 F 
ATOM     92  C   UNL     1      -9.257  -3.345  14.413  1.00  0.00     0.200 A 
ATOM     93  F   UNL     1     -10.341  -1.586  13.279  1.00  0.00    -0.200 F 
ATOM     94  F   UNL     1     -10.228  -3.366  15.337  1.00  0.00    -0.200 F 
ENDBRANCH  60  84
BRANCH  72  95
ATOM     95  C   UNL     1      -1.297  -4.275  10.411  1.00  0.00     0.064 A 
ATOM     96  C   UNL     1      -2.220  -4.513   9.376  1.00  0.00     0.173 A 
ATOM     97  C   UNL     1      -0.177  -5.115  10.484  1.00  0.00     0.173 A 
ATOM     98  F   UNL     1      -3.269  -3.702   9.181  1.00  0.00    -0.203 F 
ATOM     99  C   UNL     1      -2.041  -5.569   8.483  1.00  0.00     0.198 A 
ATOM    100  C   UNL     1       0.018  -6.143   9.568  1.00  0.00     0.198 A 
ATOM    101  F   UNL     1       0.759  -4.905  11.423  1.00  0.00    -0.203 F 
ATOM    102  F   UNL     1      -2.939  -5.784   7.510  1.00  0.00    -0.200 F 
ATOM    103  C   UNL     1      -0.918  -6.377   8.574  1.00  0.00     0.200 A 
ATOM    104  F   UNL     1       1.129  -6.890   9.633  1.00  0.00    -0.200 F 
ATOM    105  F   UNL     1      -0.724  -7.365   7.690  1.00  0.00    -0.200 F 
ENDBRANCH  72  95
ENDBRANCH  46  47
ENDBRANCH  39  41
ENDBRANCH  38  39
ENDBRANCH  37  38
ENDBRANCH  36  37
ENDBRANCH  35  36
ENDBRANCH  34  35
ENDBRANCH  33  34
ENDBRANCH   1  33
TORSDOF 23
