REMARK SMILES O=C(CCCN1C(=O)C(=O)/C(=C(/[O-])c2ccccc2)[C@@H]1/C=C/c1ccccc1)OCCOCCOCCOCCOC(=O)c1ccc(-c2c3nc(c(-c4c(F)c(F)c(F)c(F)c4F)c4ccc([nH]4)c(-c4c(F)c(F)c(F)c(F)c4F)c4nc(c(-c5c(F)c(F)c(F)c(F)c5F)c5ccc2[nH]5)C=C4)C=C3)cc1
REMARK SMILES IDX 33 1 32 2 31 3 30 4 29 5 2 6 1 7 3 8 4 9 5 10 6 11 7 12
REMARK SMILES IDX 20 13 8 14 9 15 11 16 10 17 12 18 13 19 21 20 22 21 23 22
REMARK SMILES IDX 24 23 28 24 25 25 27 26 26 27 14 28 15 29 19 30 16 31 18 32
REMARK SMILES IDX 17 33 34 34 35 35 36 36 37 37 38 38 39 39 40 40 41 41 42 42
REMARK SMILES IDX 43 43 44 44 45 45 106 46 46 47 105 48 47 49 48 50 49 51
REMARK SMILES IDX 99 52 50 53 104 54 98 55 100 56 51 57 103 58 97 59 96 60
REMARK SMILES IDX 52 62 84 63 64 64 83 65 65 66 68 67 82 68 101 69 66 70 67 71
REMARK SMILES IDX 81 73 102 74 69 75 53 76 54 77 62 78 55 79 56 80 60 81 63 82
REMARK SMILES IDX 57 83 58 84 61 85 59 86 85 87 86 88 94 89 87 90 88 91 92 92
REMARK SMILES IDX 95 93 89 94 90 95 93 96 91 97 70 98 71 99 79 100 72 101
REMARK SMILES IDX 73 102 77 103 80 104 74 105 75 106 78 107 76 108
REMARK H PARENT 100 61 68 72
REMARK Flexibility Score: inf
ROOT
ATOM      1  C   UNL     1       2.210   1.663  -0.064  1.00  0.00     0.188 C 
ENDROOT
BRANCH   1   2
ATOM      2  O   UNL     1       3.236   0.820  -0.572  1.00  0.00    -0.376 OA
BRANCH   2   3
ATOM      3  C   UNL     1       3.186   0.472  -1.946  1.00  0.00     0.202 C 
BRANCH   3   4
ATOM      4  C   UNL     1       3.274  -1.055  -2.094  1.00  0.00     0.261 C 
BRANCH   4   5
ATOM      5  O   UNL     1       3.789  -1.649  -0.888  1.00  0.00    -0.463 OA
BRANCH   5   6
ATOM      6  C   UNL     1       2.842  -1.857   0.066  1.00  0.00     0.305 C 
ATOM      7  O   UNL     1       1.649  -2.022  -0.171  1.00  0.00    -0.252 OA
BRANCH   6   8
ATOM      8  C   UNL     1       3.367  -1.648   1.468  1.00  0.00     0.124 C 
BRANCH   8   9
ATOM      9  C   UNL     1       4.701  -2.258   1.893  1.00  0.00     0.033 C 
BRANCH   9  10
ATOM     10  C   UNL     1       5.951  -2.096   1.024  1.00  0.00     0.121 C 
BRANCH  10  11
ATOM     11  N   UNL     1       6.624  -0.803   0.898  1.00  0.00    -0.325 N 
ATOM     12  C   UNL     1       6.152   0.417   1.312  1.00  0.00     0.295 C 
ATOM     13  C   UNL     1       7.988  -0.716   0.380  1.00  0.00     0.143 C 
ATOM     14  O   UNL     1       5.190   0.700   1.994  1.00  0.00    -0.265 OA
ATOM     15  C   UNL     1       7.141   1.460   0.819  1.00  0.00     0.248 C 
ATOM     16  C   UNL     1       8.359   0.749   0.368  1.00  0.00     0.024 C 
ATOM     17  O   UNL     1       6.914   2.650   0.796  1.00  0.00    -0.283 OA
ATOM     18  C   UNL     1       9.523   1.347   0.035  1.00  0.00    -0.092 C 
ATOM     19  O   UNL     1      10.645   0.635  -0.353  1.00  0.00    -0.872 OA
BRANCH  13  20
ATOM     20  C   UNL     1       8.072  -1.364  -0.978  1.00  0.00     0.003 C 
ATOM     21  C   UNL     1       8.343  -2.671  -1.141  1.00  0.00     0.006 C 
BRANCH  21  22
ATOM     22  C   UNL     1       8.431  -3.321  -2.445  1.00  0.00    -0.026 A 
ATOM     23  C   UNL     1       7.356  -4.068  -2.940  1.00  0.00     0.008 A 
ATOM     24  C   UNL     1       9.622  -3.256  -3.174  1.00  0.00     0.008 A 
ATOM     25  C   UNL     1       7.482  -4.762  -4.146  1.00  0.00     0.001 A 
ATOM     26  C   UNL     1       9.746  -3.954  -4.377  1.00  0.00     0.001 A 
ATOM     27  C   UNL     1       8.679  -4.710  -4.859  1.00  0.00     0.000 A 
ENDBRANCH  21  22
ENDBRANCH  13  20
BRANCH  18  28
ATOM     28  C   UNL     1       9.740   2.814  -0.045  1.00  0.00    -0.033 A 
ATOM     29  C   UNL     1      10.210   3.368  -1.247  1.00  0.00     0.007 A 
ATOM     30  C   UNL     1       9.471   3.686   1.020  1.00  0.00     0.007 A 
ATOM     31  C   UNL     1      10.335   4.753  -1.402  1.00  0.00     0.001 A 
ATOM     32  C   UNL     1       9.565   5.073   0.857  1.00  0.00     0.001 A 
ATOM     33  C   UNL     1       9.991   5.606  -0.357  1.00  0.00     0.000 A 
ENDBRANCH  18  28
ENDBRANCH  10  11
ENDBRANCH   9  10
ENDBRANCH   8   9
ENDBRANCH   6   8
ENDBRANCH   5   6
ENDBRANCH   4   5
ENDBRANCH   3   4
ENDBRANCH   2   3
ENDBRANCH   1   2
BRANCH   1  34
ATOM     34  C   UNL     1       2.077   3.025  -0.754  1.00  0.00     0.188 C 
BRANCH  34  35
ATOM     35  O   UNL     1       3.282   3.682  -1.151  1.00  0.00    -0.377 OA
BRANCH  35  36
ATOM     36  C   UNL     1       4.403   3.524  -0.289  1.00  0.00     0.188 C 
BRANCH  36  37
ATOM     37  C   UNL     1       4.365   4.211   1.079  1.00  0.00     0.188 C 
BRANCH  37  38
ATOM     38  O   UNL     1       3.050   4.479   1.560  1.00  0.00    -0.376 OA
BRANCH  38  39
ATOM     39  C   UNL     1       2.938   5.800   2.085  1.00  0.00     0.202 C 
BRANCH  39  40
ATOM     40  C   UNL     1       2.429   6.798   1.037  1.00  0.00     0.261 C 
BRANCH  40  41
ATOM     41  O   UNL     1       3.006   6.657  -0.275  1.00  0.00    -0.460 OA
BRANCH  41  42
ATOM     42  C   UNL     1       4.264   7.114  -0.454  1.00  0.00     0.338 C 
ATOM     43  O   UNL     1       4.970   7.649   0.385  1.00  0.00    -0.246 OA
BRANCH  42  44
ATOM     44  C   UNL     1       4.708   6.804  -1.837  1.00  0.00     0.060 A 
ATOM     45  C   UNL     1       6.012   6.339  -2.050  1.00  0.00     0.016 A 
ATOM     46  C   UNL     1       3.861   7.025  -2.928  1.00  0.00     0.016 A 
ATOM     47  C   UNL     1       6.480   6.120  -3.352  1.00  0.00     0.010 A 
ATOM     48  C   UNL     1       4.336   6.832  -4.229  1.00  0.00     0.010 A 
ATOM     49  C   UNL     1       5.658   6.409  -4.451  1.00  0.00    -0.014 A 
BRANCH  49  50
ATOM     50  C   UNL     1       6.220   6.484  -5.824  1.00  0.00     0.031 A 
ATOM     51  C   UNL     1       6.785   7.799  -6.290  1.00  0.00     0.074 A 
ATOM     52  C   UNL     1       6.187   5.439  -6.669  1.00  0.00     0.049 A 
ATOM     53  N   UNL     1       7.229   8.146  -7.471  1.00  0.00    -0.248 NA
ATOM     54  C   UNL     1       6.849   8.870  -5.283  1.00  0.00     0.031 C 
ATOM     55  C   UNL     1       5.691   4.104  -6.346  1.00  0.00     0.029 A 
ATOM     56  N   UNL     1       6.560   5.351  -7.989  1.00  0.00    -0.354 N 
ATOM     57  C   UNL     1       7.620   9.473  -7.350  1.00  0.00     0.074 A 
ATOM     58  C   UNL     1       7.349   9.874  -5.987  1.00  0.00     0.031 C 
ATOM     59  C   UNL     1       5.761   3.337  -7.449  1.00  0.00     0.029 A 
ATOM     60  C   UNL     1       6.279   4.135  -8.561  1.00  0.00     0.049 A 
ATOM     61  H   UNL     1       6.987   6.091  -8.479  1.00  0.00     0.167 HD
ATOM     62  C   UNL     1       8.157  10.288  -8.288  1.00  0.00     0.037 A 
ATOM     63  C   UNL     1       6.398   3.726  -9.841  1.00  0.00     0.037 A 
ATOM     64  C   UNL     1       8.413   9.908  -9.650  1.00  0.00     0.049 A 
ATOM     65  C   UNL     1       6.930   4.673 -10.888  1.00  0.00     0.074 A 
ATOM     66  C   UNL     1       8.978  10.660 -10.665  1.00  0.00     0.029 A 
ATOM     67  N   UNL     1       8.105   8.670 -10.192  1.00  0.00    -0.354 N 
ATOM     68  N   UNL     1       7.338   5.911 -10.755  1.00  0.00    -0.248 NA
ATOM     69  C   UNL     1       7.012   4.164 -12.267  1.00  0.00     0.031 C 
ATOM     70  C   UNL     1       8.971   9.891 -11.834  1.00  0.00     0.029 A 
ATOM     71  C   UNL     1       8.441   8.646 -11.535  1.00  0.00     0.049 A 
ATOM     72  H   UNL     1       7.706   7.919  -9.695  1.00  0.00     0.167 HD
ATOM     73  C   UNL     1       7.745   6.320 -12.020  1.00  0.00     0.074 A 
ATOM     74  C   UNL     1       7.542   5.196 -12.909  1.00  0.00     0.031 C 
ATOM     75  C   UNL     1       8.243   7.519 -12.408  1.00  0.00     0.037 A 
BRANCH  62  76
ATOM     76  C   UNL     1       8.472  11.691  -7.872  1.00  0.00     0.064 A 
ATOM     77  C   UNL     1       9.574  11.983  -7.056  1.00  0.00     0.173 A 
ATOM     78  C   UNL     1       7.669  12.757  -8.304  1.00  0.00     0.173 A 
ATOM     79  F   UNL     1      10.361  10.994  -6.605  1.00  0.00    -0.203 F 
ATOM     80  C   UNL     1       9.848  13.291  -6.666  1.00  0.00     0.198 A 
ATOM     81  C   UNL     1       7.959  14.066  -7.931  1.00  0.00     0.198 A 
ATOM     82  F   UNL     1       6.605  12.527  -9.087  1.00  0.00    -0.203 F 
ATOM     83  F   UNL     1      10.881  13.544  -5.851  1.00  0.00    -0.200 F 
ATOM     84  C   UNL     1       9.043  14.331  -7.108  1.00  0.00     0.200 A 
ATOM     85  F   UNL     1       7.185  15.071  -8.364  1.00  0.00    -0.200 F 
ATOM     86  F   UNL     1       9.307  15.590  -6.732  1.00  0.00    -0.200 F 
ENDBRANCH  62  76
BRANCH  63  87
ATOM     87  C   UNL     1       5.974   2.354 -10.222  1.00  0.00     0.064 A 
ATOM     88  C   UNL     1       6.916   1.380 -10.582  1.00  0.00     0.173 A 
ATOM     89  C   UNL     1       4.618   2.000 -10.266  1.00  0.00     0.173 A 
ATOM     90  F   UNL     1       8.222   1.683 -10.589  1.00  0.00    -0.203 F 
ATOM     91  C   UNL     1       6.516   0.107 -10.982  1.00  0.00     0.198 A 
ATOM     92  C   UNL     1       4.221   0.719 -10.644  1.00  0.00     0.198 A 
ATOM     93  F   UNL     1       3.678   2.900  -9.942  1.00  0.00    -0.203 F 
ATOM     94  F   UNL     1       7.433  -0.793 -11.362  1.00  0.00    -0.200 F 
ATOM     95  C   UNL     1       5.169  -0.224 -11.008  1.00  0.00     0.200 A 
ATOM     96  F   UNL     1       2.919   0.402 -10.663  1.00  0.00    -0.200 F 
ATOM     97  F   UNL     1       4.785  -1.449 -11.393  1.00  0.00    -0.200 F 
ENDBRANCH  63  87
BRANCH  75  98
ATOM     98  C   UNL     1       8.635   7.679 -13.848  1.00  0.00     0.064 A 
ATOM     99  C   UNL     1       7.675   7.841 -14.856  1.00  0.00     0.173 A 
ATOM    100  C   UNL     1       9.989   7.739 -14.212  1.00  0.00     0.173 A 
ATOM    101  F   UNL     1       6.368   7.778 -14.560  1.00  0.00    -0.203 F 
ATOM    102  C   UNL     1       8.056   8.046 -16.180  1.00  0.00     0.198 A 
ATOM    103  C   UNL     1      10.367   7.966 -15.532  1.00  0.00     0.198 A 
ATOM    104  F   UNL     1      10.946   7.596 -13.282  1.00  0.00    -0.203 F 
ATOM    105  F   UNL     1       7.122   8.169 -17.133  1.00  0.00    -0.200 F 
ATOM    106  C   UNL     1       9.400   8.117 -16.515  1.00  0.00     0.200 A 
ATOM    107  F   UNL     1      11.666   8.045 -15.852  1.00  0.00    -0.200 F 
ATOM    108  F   UNL     1       9.765   8.326 -17.788  1.00  0.00    -0.200 F 
ENDBRANCH  75  98
ENDBRANCH  49  50
ENDBRANCH  42  44
ENDBRANCH  41  42
ENDBRANCH  40  41
ENDBRANCH  39  40
ENDBRANCH  38  39
ENDBRANCH  37  38
ENDBRANCH  36  37
ENDBRANCH  35  36
ENDBRANCH  34  35
ENDBRANCH   1  34
TORSDOF 26
