REMARK SMILES Cc1ccc(C(=O)OCCOCCOCCOCCOC(=O)c2ccc(-c3c4nc(c(-c5c(F)c(F)c(F)c(F)c5F)c5ccc([nH]5)c(-c5c(F)c(F)c(F)c(F)c5F)c5nc(c(-c6c(F)c(F)c(F)c(F)c6F)c6ccc3[nH]6)C=C5)C=C4)cc2)cc1NC(=O)Cc1ccc2ccccc2c1
REMARK SMILES IDX 13 1 12 2 11 3 10 4 9 5 8 6 6 7 7 8 5 9 1 10 2 11 3 12 87 13
REMARK SMILES IDX 4 14 86 15 88 16 89 17 90 19 91 20 92 21 93 22 101 23 94 24
REMARK SMILES IDX 100 25 95 26 99 27 96 28 98 29 97 30 14 31 15 32 16 33 17 34
REMARK SMILES IDX 18 35 19 36 20 37 21 38 22 39 23 40 24 41 85 42 25 43 84 44
REMARK SMILES IDX 26 45 27 46 28 47 78 48 29 49 83 50 77 51 79 52 30 53 82 54
REMARK SMILES IDX 76 55 75 56 31 58 63 59 43 60 62 61 44 62 47 63 61 64 80 65
REMARK SMILES IDX 45 66 46 67 60 69 81 70 48 71 32 72 33 73 41 74 34 75 35 76
REMARK SMILES IDX 39 77 42 78 36 79 37 80 40 81 38 82 64 83 65 84 73 85 66 86
REMARK SMILES IDX 67 87 71 88 74 89 68 90 69 91 72 92 70 93 49 94 50 95 58 96
REMARK SMILES IDX 51 97 52 98 56 99 59 100 53 101 54 102 57 103 55 104
REMARK H PARENT 88 18 79 57 47 68
REMARK Flexibility Score: inf
ROOT
ATOM      1  C   UNL     1      -2.650   1.451  -3.435  1.00  0.00     0.188 C 
ENDROOT
BRANCH   1   2
ATOM      2  C   UNL     1      -4.084   0.883  -3.084  1.00  0.00     0.188 C 
BRANCH   2   3
ATOM      3  O   UNL     1      -5.218   1.688  -2.398  1.00  0.00    -0.376 OA
BRANCH   3   4
ATOM      4  C   UNL     1      -6.118   1.398  -1.057  1.00  0.00     0.202 C 
BRANCH   4   5
ATOM      5  C   UNL     1      -5.974   0.590   0.603  1.00  0.00     0.261 C 
BRANCH   5   6
ATOM      6  O   UNL     1      -4.662  -0.404   1.419  1.00  0.00    -0.460 OA
BRANCH   6   7
ATOM      7  C   UNL     1      -3.276  -1.208   1.236  1.00  0.00     0.338 C 
ATOM      8  O   UNL     1      -3.324  -2.418   1.514  1.00  0.00    -0.246 OA
BRANCH   7   9
ATOM      9  C   UNL     1      -1.650  -0.735   0.772  1.00  0.00     0.062 A 
ATOM     10  C   UNL     1       2.712  -0.431   0.054  1.00  0.00     0.046 C 
ATOM     11  C   UNL     1       1.225  -0.398   0.309  1.00  0.00    -0.027 A 
ATOM     12  C   UNL     1       0.609  -1.655   0.546  1.00  0.00     0.006 A 
ATOM     13  C   UNL     1       0.439   0.762   0.256  1.00  0.00     0.044 A 
ATOM     14  C   UNL     1      -0.769  -1.814   0.799  1.00  0.00     0.016 A 
ATOM     15  C   UNL     1      -0.954   0.530   0.409  1.00  0.00     0.042 A 
BRANCH  13  16
ATOM     16  N   UNL     1       1.097   2.044   0.064  1.00  0.00    -0.326 N 
ATOM     17  C   UNL     1       0.871   3.418   0.060  1.00  0.00     0.228 C 
ATOM     18  H   UNL     1       2.047   1.882  -0.135  1.00  0.00     0.169 HD
ATOM     19  O   UNL     1       1.872   4.131  -0.090  1.00  0.00    -0.274 OA
BRANCH  17  20
ATOM     20  C   UNL     1      -0.481   4.042   0.264  1.00  0.00     0.135 C 
BRANCH  20  21
ATOM     21  C   UNL     1      -0.821   5.539   0.015  1.00  0.00    -0.038 A 
ATOM     22  C   UNL     1      -2.017   5.729  -0.678  1.00  0.00     0.005 A 
ATOM     23  C   UNL     1      -0.267   6.720   0.540  1.00  0.00     0.013 A 
ATOM     24  C   UNL     1      -2.710   6.934  -0.788  1.00  0.00     0.009 A 
ATOM     25  C   UNL     1      -0.947   8.008   0.433  1.00  0.00    -0.018 A 
ATOM     26  C   UNL     1      -2.203   8.078  -0.212  1.00  0.00    -0.018 A 
ATOM     27  C   UNL     1      -0.477   9.238   0.957  1.00  0.00     0.009 A 
ATOM     28  C   UNL     1      -2.961   9.264  -0.287  1.00  0.00     0.009 A 
ATOM     29  C   UNL     1      -1.234  10.429   0.880  1.00  0.00     0.001 A 
ATOM     30  C   UNL     1      -2.482  10.439   0.269  1.00  0.00     0.001 A 
ENDBRANCH  20  21
ENDBRANCH  17  20
ENDBRANCH  13  16
ENDBRANCH   7   9
ENDBRANCH   6   7
ENDBRANCH   5   6
ENDBRANCH   4   5
ENDBRANCH   3   4
ENDBRANCH   2   3
ENDBRANCH   1   2
BRANCH   1  31
ATOM     31  O   UNL     1      -2.420   1.872  -4.775  1.00  0.00    -0.377 OA
BRANCH  31  32
ATOM     32  C   UNL     1      -3.429   2.760  -5.213  1.00  0.00     0.188 C 
BRANCH  32  33
ATOM     33  C   UNL     1      -4.403   2.068  -6.164  1.00  0.00     0.188 C 
BRANCH  33  34
ATOM     34  O   UNL     1      -4.529   0.686  -5.880  1.00  0.00    -0.376 OA
BRANCH  34  35
ATOM     35  C   UNL     1      -3.832  -0.219  -6.722  1.00  0.00     0.202 C 
BRANCH  35  36
ATOM     36  C   UNL     1      -4.850  -0.749  -7.732  1.00  0.00     0.261 C 
BRANCH  36  37
ATOM     37  O   UNL     1      -5.823  -1.583  -7.050  1.00  0.00    -0.460 OA
BRANCH  37  38
ATOM     38  C   UNL     1      -6.728  -0.939  -6.288  1.00  0.00     0.338 C 
ATOM     39  O   UNL     1      -7.451   0.012  -6.682  1.00  0.00    -0.246 OA
BRANCH  38  40
ATOM     40  C   UNL     1      -6.586  -1.341  -4.862  1.00  0.00     0.060 A 
ATOM     41  C   UNL     1      -7.324  -0.712  -3.869  1.00  0.00     0.016 A 
ATOM     42  C   UNL     1      -5.520  -2.162  -4.459  1.00  0.00     0.016 A 
ATOM     43  C   UNL     1      -6.857  -0.767  -2.546  1.00  0.00     0.010 A 
ATOM     44  C   UNL     1      -4.952  -2.016  -3.181  1.00  0.00     0.010 A 
ATOM     45  C   UNL     1      -5.519  -1.140  -2.249  1.00  0.00    -0.014 A 
BRANCH  45  46
ATOM     46  C   UNL     1      -4.695  -0.720  -0.872  1.00  0.00     0.031 A 
ATOM     47  C   UNL     1      -5.517  -2.019   0.037  1.00  0.00     0.074 A 
ATOM     48  C   UNL     1      -3.879   0.655  -0.358  1.00  0.00     0.049 A 
ATOM     49  N   UNL     1      -6.267  -1.865   1.111  1.00  0.00    -0.248 NA
ATOM     50  C   UNL     1      -5.716  -3.405  -0.444  1.00  0.00     0.031 C 
ATOM     51  C   UNL     1      -3.353   1.239   1.163  1.00  0.00     0.029 A 
ATOM     52  N   UNL     1      -3.706   2.076  -0.824  1.00  0.00    -0.354 N 
ATOM     53  C   UNL     1      -6.365  -3.061   1.730  1.00  0.00     0.074 A 
ATOM     54  C   UNL     1      -6.349  -3.967   0.603  1.00  0.00     0.031 C 
ATOM     55  C   UNL     1      -3.175   2.545   1.290  1.00  0.00     0.029 A 
ATOM     56  C   UNL     1      -3.845   3.077   0.182  1.00  0.00     0.049 A 
ATOM     57  H   UNL     1      -3.510   2.300  -1.763  1.00  0.00     0.167 HD
ATOM     58  C   UNL     1      -6.075  -3.188   3.070  1.00  0.00     0.037 A 
ATOM     59  C   UNL     1      -4.778   4.065   0.375  1.00  0.00     0.037 A 
ATOM     60  C   UNL     1      -5.588  -1.920   3.731  1.00  0.00     0.049 A 
ATOM     61  C   UNL     1      -5.290   3.913   1.861  1.00  0.00     0.074 A 
ATOM     62  C   UNL     1      -4.310  -1.574   4.162  1.00  0.00     0.029 A 
ATOM     63  N   UNL     1      -6.310  -0.700   3.787  1.00  0.00    -0.354 N 
ATOM     64  N   UNL     1      -5.564   2.742   2.396  1.00  0.00    -0.248 NA
ATOM     65  C   UNL     1      -5.297   4.957   2.878  1.00  0.00     0.031 C 
ATOM     66  C   UNL     1      -4.238  -0.179   4.404  1.00  0.00     0.029 A 
ATOM     67  C   UNL     1      -5.491   0.379   4.190  1.00  0.00     0.049 A 
ATOM     68  H   UNL     1      -7.267  -0.614   3.571  1.00  0.00     0.167 HD
ATOM     69  C   UNL     1      -5.737   2.816   3.754  1.00  0.00     0.074 A 
ATOM     70  C   UNL     1      -5.573   4.250   3.998  1.00  0.00     0.031 C 
ATOM     71  C   UNL     1      -5.955   1.732   4.589  1.00  0.00     0.037 A 
BRANCH  58  72
ATOM     72  C   UNL     1      -5.727  -4.605   3.554  1.00  0.00     0.064 A 
ATOM     73  C   UNL     1      -4.687  -4.885   4.462  1.00  0.00     0.173 A 
ATOM     74  C   UNL     1      -6.348  -5.756   3.023  1.00  0.00     0.173 A 
ATOM     75  F   UNL     1      -4.172  -3.944   5.259  1.00  0.00    -0.203 F 
ATOM     76  C   UNL     1      -4.157  -6.172   4.623  1.00  0.00     0.198 A 
ATOM     77  C   UNL     1      -5.793  -7.036   3.141  1.00  0.00     0.198 A 
ATOM     78  F   UNL     1      -7.524  -5.663   2.384  1.00  0.00    -0.203 F 
ATOM     79  F   UNL     1      -3.134  -6.369   5.468  1.00  0.00    -0.200 F 
ATOM     80  C   UNL     1      -4.672  -7.238   3.916  1.00  0.00     0.200 A 
ATOM     81  F   UNL     1      -6.347  -8.067   2.486  1.00  0.00    -0.200 F 
ATOM     82  F   UNL     1      -4.125  -8.457   4.022  1.00  0.00    -0.200 F 
ENDBRANCH  58  72
BRANCH  59  83
ATOM     83  C   UNL     1      -5.590   4.595  -0.792  1.00  0.00     0.064 A 
ATOM     84  C   UNL     1      -5.053   4.708  -2.103  1.00  0.00     0.173 A 
ATOM     85  C   UNL     1      -6.971   4.808  -0.715  1.00  0.00     0.173 A 
ATOM     86  F   UNL     1      -3.790   4.368  -2.371  1.00  0.00    -0.203 F 
ATOM     87  C   UNL     1      -5.809   5.021  -3.232  1.00  0.00     0.198 A 
ATOM     88  C   UNL     1      -7.749   5.036  -1.867  1.00  0.00     0.198 A 
ATOM     89  F   UNL     1      -7.607   4.662   0.455  1.00  0.00    -0.203 F 
ATOM     90  F   UNL     1      -5.212   5.116  -4.429  1.00  0.00    -0.200 F 
ATOM     91  C   UNL     1      -7.168   5.147  -3.120  1.00  0.00     0.200 A 
ATOM     92  F   UNL     1      -9.084   5.091  -1.765  1.00  0.00    -0.200 F 
ATOM     93  F   UNL     1      -7.912   5.327  -4.219  1.00  0.00    -0.200 F 
ENDBRANCH  59  83
BRANCH  71  94
ATOM     94  C   UNL     1      -6.435   1.862   6.033  1.00  0.00     0.064 A 
ATOM     95  C   UNL     1      -7.275   2.902   6.461  1.00  0.00     0.173 A 
ATOM     96  C   UNL     1      -6.217   0.836   6.994  1.00  0.00     0.173 A 
ATOM     97  F   UNL     1      -7.641   3.885   5.628  1.00  0.00    -0.203 F 
ATOM     98  C   UNL     1      -7.819   2.936   7.749  1.00  0.00     0.198 A 
ATOM     99  C   UNL     1      -6.805   0.846   8.257  1.00  0.00     0.198 A 
ATOM    100  F   UNL     1      -5.446  -0.229   6.744  1.00  0.00    -0.203 F 
ATOM    101  F   UNL     1      -8.590   3.970   8.111  1.00  0.00    -0.200 F 
ATOM    102  C   UNL     1      -7.601   1.901   8.639  1.00  0.00     0.200 A 
ATOM    103  F   UNL     1      -6.613  -0.188   9.090  1.00  0.00    -0.200 F 
ATOM    104  F   UNL     1      -8.174   1.911   9.849  1.00  0.00    -0.200 F 
ENDBRANCH  71  94
ENDBRANCH  45  46
ENDBRANCH  38  40
ENDBRANCH  37  38
ENDBRANCH  36  37
ENDBRANCH  35  36
ENDBRANCH  34  35
ENDBRANCH  33  34
ENDBRANCH  32  33
ENDBRANCH  31  32
ENDBRANCH   1  31
TORSDOF 23
