REMARK SMILES CC[C@H](C(=O)OCCOCCOCCOCCOC(=O)c1ccc(-c2c3nc(c(-c4c(F)c(F)c(F)c(F)c4F)c4ccc([nH]4)c(-c4c(F)c(F)c(F)c(F)c4F)c4nc(c(-c5c(F)c(F)c(F)c(F)c5F)c5ccc2[nH]5)C=C4)C=C3)cc1)C1=CCCc2c(C)ccc(C)c21
REMARK SMILES IDX 13 1 12 2 11 3 10 4 9 5 8 6 7 7 6 8 4 9 5 10 3 11 2 12 1 13
REMARK SMILES IDX 84 14 85 15 95 16 86 17 88 18 93 19 87 20 89 21 92 22 94 23
REMARK SMILES IDX 90 24 91 25 14 26 15 27 16 28 17 29 18 30 19 31 20 32 21 33
REMARK SMILES IDX 22 34 83 35 23 36 82 37 24 38 25 39 26 40 76 41 27 42 81 43
REMARK SMILES IDX 75 44 77 45 28 46 80 47 74 48 73 49 29 51 61 52 41 53 60 54
REMARK SMILES IDX 42 55 45 56 59 57 78 58 43 59 44 60 58 62 79 63 46 64 30 65
REMARK SMILES IDX 31 66 39 67 32 68 33 69 37 70 40 71 34 72 35 73 38 74 36 75
REMARK SMILES IDX 62 76 63 77 71 78 64 79 65 80 69 81 72 82 66 83 67 84 70 85
REMARK SMILES IDX 68 86 47 87 48 88 56 89 49 90 50 91 54 92 57 93 51 94 52 95
REMARK SMILES IDX 55 96 53 97
REMARK H PARENT 77 50 45 61
REMARK Flexibility Score: inf
ROOT
ATOM      1  C   UNL     1       2.466  -1.556  -1.556  1.00  0.00     0.188 C 
ENDROOT
BRANCH   1   2
ATOM      2  O   UNL     1       2.941  -0.474  -0.759  1.00  0.00    -0.377 OA
BRANCH   2   3
ATOM      3  C   UNL     1       2.860  -0.643   0.658  1.00  0.00     0.188 C 
BRANCH   3   4
ATOM      4  C   UNL     1       1.581  -1.299   1.202  1.00  0.00     0.188 C 
BRANCH   4   5
ATOM      5  O   UNL     1       1.151  -2.480   0.554  1.00  0.00    -0.376 OA
BRANCH   5   6
ATOM      6  C   UNL     1      -0.235  -2.799   0.458  1.00  0.00     0.202 C 
BRANCH   6   7
ATOM      7  C   UNL     1      -1.232  -1.675   0.105  1.00  0.00     0.261 C 
BRANCH   7   8
ATOM      8  O   UNL     1      -1.276  -0.556   1.007  1.00  0.00    -0.463 OA
BRANCH   8   9
ATOM      9  C   UNL     1      -1.151  -0.807   2.330  1.00  0.00     0.313 C 
ATOM     10  O   UNL     1      -1.403  -1.891   2.843  1.00  0.00    -0.252 OA
BRANCH   9  11
ATOM     11  C   UNL     1      -0.596   0.391   3.107  1.00  0.00     0.129 C 
BRANCH  11  12
ATOM     12  C   UNL     1       0.313   1.469   2.353  1.00  0.00     0.017 C 
ATOM     13  C   UNL     1       0.094   1.858   0.880  1.00  0.00     0.005 C 
ENDBRANCH  11  12
BRANCH  11  14
ATOM     14  C   UNL     1      -1.681   1.010   3.974  1.00  0.00    -0.030 C 
ATOM     15  C   UNL     1      -1.948   2.324   3.739  1.00  0.00    -0.022 C 
ATOM     16  C   UNL     1      -2.930   0.195   4.410  1.00  0.00    -0.015 A 
ATOM     17  C   UNL     1      -2.911   2.537   2.554  1.00  0.00     0.032 C 
ATOM     18  C   UNL     1      -4.068   0.873   3.908  1.00  0.00    -0.037 A 
ATOM     19  C   UNL     1      -3.017  -0.352   5.701  1.00  0.00    -0.043 A 
ATOM     20  C   UNL     1      -3.908   1.369   2.478  1.00  0.00     0.040 C 
ATOM     21  C   UNL     1      -4.897   1.530   4.837  1.00  0.00    -0.047 A 
ATOM     22  C   UNL     1      -3.844   0.288   6.634  1.00  0.00     0.004 A 
ATOM     23  C   UNL     1      -2.905  -1.855   5.905  1.00  0.00     0.045 C 
ATOM     24  C   UNL     1      -5.692   2.738   4.430  1.00  0.00     0.044 C 
ATOM     25  C   UNL     1      -4.730   1.272   6.207  1.00  0.00     0.004 A 
ENDBRANCH  11  14
ENDBRANCH   9  11
ENDBRANCH   8   9
ENDBRANCH   7   8
ENDBRANCH   6   7
ENDBRANCH   5   6
ENDBRANCH   4   5
ENDBRANCH   3   4
ENDBRANCH   2   3
ENDBRANCH   1   2
BRANCH   1  26
ATOM     26  C   UNL     1       3.019  -2.976  -1.259  1.00  0.00     0.188 C 
BRANCH  26  27
ATOM     27  O   UNL     1       3.688  -3.104  -0.015  1.00  0.00    -0.376 OA
BRANCH  27  28
ATOM     28  C   UNL     1       5.107  -3.087  -0.010  1.00  0.00     0.202 C 
BRANCH  28  29
ATOM     29  C   UNL     1       5.867  -1.936  -0.699  1.00  0.00     0.261 C 
BRANCH  29  30
ATOM     30  O   UNL     1       5.423  -1.547  -2.008  1.00  0.00    -0.460 OA
BRANCH  30  31
ATOM     31  C   UNL     1       5.592  -2.423  -3.017  1.00  0.00     0.338 C 
ATOM     32  O   UNL     1       6.121  -3.524  -2.958  1.00  0.00    -0.246 OA
BRANCH  31  33
ATOM     33  C   UNL     1       4.820  -1.924  -4.175  1.00  0.00     0.060 A 
ATOM     34  C   UNL     1       3.776  -2.708  -4.691  1.00  0.00     0.016 A 
ATOM     35  C   UNL     1       5.102  -0.674  -4.730  1.00  0.00     0.016 A 
ATOM     36  C   UNL     1       3.031  -2.258  -5.780  1.00  0.00     0.010 A 
ATOM     37  C   UNL     1       4.384  -0.242  -5.848  1.00  0.00     0.010 A 
ATOM     38  C   UNL     1       3.371  -1.049  -6.398  1.00  0.00    -0.014 A 
BRANCH  38  39
ATOM     39  C   UNL     1       2.844  -0.752  -7.751  1.00  0.00     0.031 A 
ATOM     40  C   UNL     1       3.700  -1.124  -8.930  1.00  0.00     0.074 A 
ATOM     41  C   UNL     1       1.636  -0.195  -7.936  1.00  0.00     0.049 A 
ATOM     42  N   UNL     1       3.503  -0.912 -10.205  1.00  0.00    -0.248 NA
ATOM     43  C   UNL     1       4.956  -1.831  -8.624  1.00  0.00     0.031 C 
ATOM     44  C   UNL     1       0.695   0.158  -6.877  1.00  0.00     0.029 A 
ATOM     45  N   UNL     1       1.002   0.184  -9.094  1.00  0.00    -0.354 N 
ATOM     46  C   UNL     1       4.612  -1.447 -10.849  1.00  0.00     0.074 A 
ATOM     47  C   UNL     1       5.491  -1.966  -9.826  1.00  0.00     0.031 C 
ATOM     48  C   UNL     1      -0.393   0.722  -7.433  1.00  0.00     0.029 A 
ATOM     49  C   UNL     1      -0.205   0.802  -8.882  1.00  0.00     0.049 A 
ATOM     50  H   UNL     1       1.377   0.027  -9.990  1.00  0.00     0.167 HD
ATOM     51  C   UNL     1       4.869  -1.503 -12.176  1.00  0.00     0.037 A 
ATOM     52  C   UNL     1      -1.043   1.390  -9.759  1.00  0.00     0.037 A 
ATOM     53  C   UNL     1       3.992  -0.981 -13.189  1.00  0.00     0.049 A 
ATOM     54  C   UNL     1      -0.693   1.390 -11.227  1.00  0.00     0.074 A 
ATOM     55  C   UNL     1       4.152  -1.001 -14.562  1.00  0.00     0.029 A 
ATOM     56  N   UNL     1       2.792  -0.332 -12.934  1.00  0.00    -0.354 N 
ATOM     57  N   UNL     1       0.344   0.865 -11.835  1.00  0.00    -0.248 NA
ATOM     58  C   UNL     1      -1.634   2.064 -12.134  1.00  0.00     0.031 C 
ATOM     59  C   UNL     1       3.083  -0.306 -15.136  1.00  0.00     0.029 A 
ATOM     60  C   UNL     1       2.217   0.082 -14.125  1.00  0.00     0.049 A 
ATOM     61  H   UNL     1       2.406  -0.187 -12.040  1.00  0.00     0.167 HD
ATOM     62  C   UNL     1       0.163   1.112 -13.190  1.00  0.00     0.074 A 
ATOM     63  C   UNL     1      -1.091   1.824 -13.318  1.00  0.00     0.031 C 
ATOM     64  C   UNL     1       0.961   0.779 -14.236  1.00  0.00     0.037 A 
BRANCH  51  65
ATOM     65  C   UNL     1       6.170  -2.118 -12.605  1.00  0.00     0.064 A 
ATOM     66  C   UNL     1       6.420  -3.493 -12.476  1.00  0.00     0.173 A 
ATOM     67  C   UNL     1       7.171  -1.321 -13.181  1.00  0.00     0.173 A 
ATOM     68  F   UNL     1       5.504  -4.297 -11.916  1.00  0.00    -0.203 F 
ATOM     69  C   UNL     1       7.633  -4.041 -12.884  1.00  0.00     0.198 A 
ATOM     70  C   UNL     1       8.369  -1.878 -13.620  1.00  0.00     0.198 A 
ATOM     71  F   UNL     1       6.984  -0.001 -13.329  1.00  0.00    -0.203 F 
ATOM     72  F   UNL     1       7.870  -5.348 -12.704  1.00  0.00    -0.200 F 
ATOM     73  C   UNL     1       8.602  -3.236 -13.463  1.00  0.00     0.200 A 
ATOM     74  F   UNL     1       9.298  -1.100 -14.192  1.00  0.00    -0.200 F 
ATOM     75  F   UNL     1       9.765  -3.767 -13.865  1.00  0.00    -0.200 F 
ENDBRANCH  51  65
BRANCH  52  76
ATOM     76  C   UNL     1      -2.286   2.052  -9.277  1.00  0.00     0.064 A 
ATOM     77  C   UNL     1      -3.552   1.559  -9.624  1.00  0.00     0.173 A 
ATOM     78  C   UNL     1      -2.234   3.211  -8.488  1.00  0.00     0.173 A 
ATOM     79  F   UNL     1      -3.657   0.470 -10.400  1.00  0.00    -0.203 F 
ATOM     80  C   UNL     1      -4.715   2.213  -9.221  1.00  0.00     0.198 A 
ATOM     81  C   UNL     1      -3.398   3.844  -8.057  1.00  0.00     0.198 A 
ATOM     82  F   UNL     1      -1.049   3.729  -8.131  1.00  0.00    -0.203 F 
ATOM     83  F   UNL     1      -5.910   1.752  -9.615  1.00  0.00    -0.200 F 
ATOM     84  C   UNL     1      -4.638   3.351  -8.433  1.00  0.00     0.200 A 
ATOM     85  F   UNL     1      -3.317   4.936  -7.284  1.00  0.00    -0.200 F 
ATOM     86  F   UNL     1      -5.756   3.977  -8.044  1.00  0.00    -0.200 F 
ENDBRANCH  52  76
BRANCH  64  87
ATOM     87  C   UNL     1       0.483   1.133 -15.617  1.00  0.00     0.064 A 
ATOM     88  C   UNL     1       0.427   2.461 -16.066  1.00  0.00     0.173 A 
ATOM     89  C   UNL     1       0.119   0.121 -16.519  1.00  0.00     0.173 A 
ATOM     90  F   UNL     1       0.753   3.467 -15.241  1.00  0.00    -0.203 F 
ATOM     91  C   UNL     1      -0.003   2.763 -17.356  1.00  0.00     0.198 A 
ATOM     92  C   UNL     1      -0.275   0.424 -17.819  1.00  0.00     0.198 A 
ATOM     93  F   UNL     1       0.163  -1.167 -16.146  1.00  0.00    -0.203 F 
ATOM     94  F   UNL     1      -0.100   4.042 -17.745  1.00  0.00    -0.200 F 
ATOM     95  C   UNL     1      -0.345   1.745 -18.233  1.00  0.00     0.200 A 
ATOM     96  F   UNL     1      -0.586  -0.563 -18.671  1.00  0.00    -0.200 F 
ATOM     97  F   UNL     1      -0.750   2.038 -19.477  1.00  0.00    -0.200 F 
ENDBRANCH  64  87
ENDBRANCH  38  39
ENDBRANCH  31  33
ENDBRANCH  30  31
ENDBRANCH  29  30
ENDBRANCH  28  29
ENDBRANCH  27  28
ENDBRANCH  26  27
ENDBRANCH   1  26
TORSDOF 22
