REMARK SMILES O=C(Cc1csc(N2C(=O)C[C@H](Nc3cccc(F)c3)C2=O)n1)OCCOCCOCCOCCOC(=O)c1ccc(-c2c3nc(c(-c4c(F)c(F)c(F)c(F)c4F)c4ccc([nH]4)c(-c4c(F)c(F)c(F)c(F)c4F)c4nc(c(-c5c(F)c(F)c(F)c(F)c5F)c5ccc2[nH]5)C=C4)C=C3)cc1
REMARK SMILES IDX 29 1 28 2 27 3 26 4 25 5 24 6 2 7 1 8 3 9 4 10 5 11 23 12
REMARK SMILES IDX 6 13 7 14 8 15 9 16 21 17 10 18 11 19 12 20 22 21 13 22
REMARK SMILES IDX 14 24 15 25 20 26 16 27 18 28 17 29 19 30 30 31 31 32 32 33
REMARK SMILES IDX 33 34 34 35 35 36 36 37 37 38 38 39 39 40 40 41 101 42 41 43
REMARK SMILES IDX 100 44 42 45 43 46 44 47 94 48 45 49 99 50 93 51 95 52 46 53
REMARK SMILES IDX 98 54 92 55 91 56 47 58 79 59 59 60 78 61 60 62 63 63 77 64
REMARK SMILES IDX 96 65 61 66 62 67 76 69 97 70 64 71 48 72 49 73 57 74 50 75
REMARK SMILES IDX 51 76 55 77 58 78 52 79 53 80 56 81 54 82 80 83 81 84 89 85
REMARK SMILES IDX 82 86 83 87 87 88 90 89 84 90 85 91 88 92 86 93 65 94 66 95
REMARK SMILES IDX 74 96 67 97 68 98 72 99 75 100 69 101 70 102 73 103 71 104
REMARK H PARENT 13 23 95 57 63 68
REMARK Flexibility Score: inf
ROOT
ATOM      1  C   UNL     1       2.025  -2.572   0.067  1.00  0.00     0.188 C 
ENDROOT
BRANCH   1   2
ATOM      2  C   UNL     1       2.594  -1.567  -0.931  1.00  0.00     0.188 C 
BRANCH   2   3
ATOM      3  O   UNL     1       3.933  -1.085  -0.878  1.00  0.00    -0.376 OA
BRANCH   3   4
ATOM      4  C   UNL     1       4.635  -0.591   0.243  1.00  0.00     0.202 C 
BRANCH   4   5
ATOM      5  C   UNL     1       3.989   0.306   1.290  1.00  0.00     0.261 C 
BRANCH   5   6
ATOM      6  O   UNL     1       2.585   0.518   1.172  1.00  0.00    -0.463 OA
BRANCH   6   7
ATOM      7  C   UNL     1       1.990   1.313   0.253  1.00  0.00     0.311 C 
ATOM      8  O   UNL     1       0.783   1.530   0.364  1.00  0.00    -0.252 OA
BRANCH   7   9
ATOM      9  C   UNL     1       2.734   1.726  -0.996  1.00  0.00     0.179 C 
BRANCH   9  10
ATOM     10  C   UNL     1       3.896   2.600  -0.772  1.00  0.00     0.065 A 
ATOM     11  C   UNL     1       5.191   2.449  -1.233  1.00  0.00     0.093 A 
ATOM     12  N   UNL     1       3.654   3.769  -0.111  1.00  0.00    -0.224 NA
ATOM     13  S   UNL     1       6.077   3.871  -0.887  1.00  0.00    -0.104 S 
ATOM     14  C   UNL     1       4.624   4.608  -0.361  1.00  0.00     0.199 A 
BRANCH  14  15
ATOM     15  N   UNL     1       4.449   5.963  -0.349  1.00  0.00    -0.223 N 
ATOM     16  C   UNL     1       3.340   6.513   0.236  1.00  0.00     0.238 C 
ATOM     17  C   UNL     1       5.128   6.818  -1.168  1.00  0.00     0.258 C 
ATOM     18  O   UNL     1       2.559   6.027   1.042  1.00  0.00    -0.274 OA
ATOM     19  C   UNL     1       3.179   7.911  -0.260  1.00  0.00     0.136 C 
ATOM     20  C   UNL     1       4.409   8.149  -1.117  1.00  0.00     0.179 C 
ATOM     21  O   UNL     1       6.098   6.591  -1.880  1.00  0.00    -0.272 OA
BRANCH  20  22
ATOM     22  N   UNL     1       4.023   8.600  -2.455  1.00  0.00    -0.373 N 
ATOM     23  H   UNL     1       3.296   8.167  -2.958  1.00  0.00     0.161 HD
BRANCH  22  24
ATOM     24  C   UNL     1       4.736   9.670  -2.979  1.00  0.00     0.038 A 
ATOM     25  C   UNL     1       6.129   9.618  -3.122  1.00  0.00     0.026 A 
ATOM     26  C   UNL     1       4.081  10.877  -3.222  1.00  0.00     0.065 A 
ATOM     27  C   UNL     1       6.859  10.747  -3.493  1.00  0.00     0.005 A 
ATOM     28  C   UNL     1       4.815  12.003  -3.575  1.00  0.00     0.125 A 
ATOM     29  C   UNL     1       6.197  11.951  -3.709  1.00  0.00     0.039 A 
ATOM     30  F   UNL     1       4.178  13.167  -3.760  1.00  0.00    -0.207 F 
ENDBRANCH  22  24
ENDBRANCH  20  22
ENDBRANCH  14  15
ENDBRANCH   9  10
ENDBRANCH   7   9
ENDBRANCH   6   7
ENDBRANCH   5   6
ENDBRANCH   4   5
ENDBRANCH   3   4
ENDBRANCH   2   3
ENDBRANCH   1   2
BRANCH   1  31
ATOM     31  O   UNL     1       2.648  -3.843   0.101  1.00  0.00    -0.377 OA
BRANCH  31  32
ATOM     32  C   UNL     1       4.010  -3.794   0.477  1.00  0.00     0.188 C 
BRANCH  32  33
ATOM     33  C   UNL     1       4.985  -3.886  -0.711  1.00  0.00     0.188 C 
BRANCH  33  34
ATOM     34  O   UNL     1       4.482  -3.732  -2.020  1.00  0.00    -0.376 OA
BRANCH  34  35
ATOM     35  C   UNL     1       3.503  -4.599  -2.569  1.00  0.00     0.202 C 
BRANCH  35  36
ATOM     36  C   UNL     1       3.045  -5.962  -2.004  1.00  0.00     0.261 C 
BRANCH  36  37
ATOM     37  O   UNL     1       3.475  -6.348  -0.700  1.00  0.00    -0.460 OA
BRANCH  37  38
ATOM     38  C   UNL     1       4.626  -7.045  -0.625  1.00  0.00     0.338 C 
ATOM     39  O   UNL     1       5.330  -7.413  -1.551  1.00  0.00    -0.246 OA
BRANCH  38  40
ATOM     40  C   UNL     1       5.036  -7.079   0.796  1.00  0.00     0.060 A 
ATOM     41  C   UNL     1       6.309  -6.591   1.121  1.00  0.00     0.016 A 
ATOM     42  C   UNL     1       4.167  -7.512   1.803  1.00  0.00     0.016 A 
ATOM     43  C   UNL     1       6.736  -6.574   2.445  1.00  0.00     0.010 A 
ATOM     44  C   UNL     1       4.610  -7.532   3.130  1.00  0.00     0.010 A 
ATOM     45  C   UNL     1       5.912  -7.104   3.445  1.00  0.00    -0.014 A 
BRANCH  45  46
ATOM     46  C   UNL     1       6.532  -7.454   4.745  1.00  0.00     0.031 A 
ATOM     47  C   UNL     1       7.056  -8.856   4.907  1.00  0.00     0.074 A 
ATOM     48  C   UNL     1       6.717  -6.539   5.712  1.00  0.00     0.049 A 
ATOM     49  N   UNL     1       7.676  -9.400   5.922  1.00  0.00    -0.248 NA
ATOM     50  C   UNL     1       6.867  -9.765   3.763  1.00  0.00     0.031 C 
ATOM     51  C   UNL     1       6.310  -5.138   5.641  1.00  0.00     0.029 A 
ATOM     52  N   UNL     1       7.313  -6.657   6.943  1.00  0.00    -0.354 N 
ATOM     53  C   UNL     1       7.953 -10.704   5.535  1.00  0.00     0.074 A 
ATOM     54  C   UNL     1       7.406 -10.888   4.211  1.00  0.00     0.031 C 
ATOM     55  C   UNL     1       6.673  -4.523   6.781  1.00  0.00     0.029 A 
ATOM     56  C   UNL     1       7.312  -5.492   7.671  1.00  0.00     0.049 A 
ATOM     57  H   UNL     1       7.704  -7.497   7.274  1.00  0.00     0.167 HD
ATOM     58  C   UNL     1       8.622 -11.659   6.219  1.00  0.00     0.037 A 
ATOM     59  C   UNL     1       7.767  -5.247   8.916  1.00  0.00     0.037 A 
ATOM     60  C   UNL     1       9.170 -11.475   7.534  1.00  0.00     0.049 A 
ATOM     61  C   UNL     1       8.427  -6.361   9.693  1.00  0.00     0.074 A 
ATOM     62  C   UNL     1       9.860 -12.386   8.312  1.00  0.00     0.029 A 
ATOM     63  N   UNL     1       9.088 -10.300   8.265  1.00  0.00    -0.354 N 
ATOM     64  N   UNL     1       8.692  -7.589   9.318  1.00  0.00    -0.248 NA
ATOM     65  C   UNL     1       8.854  -6.052  11.066  1.00  0.00     0.031 C 
ATOM     66  C   UNL     1      10.149 -11.781   9.537  1.00  0.00     0.029 A 
ATOM     67  C   UNL     1       9.696 -10.472   9.497  1.00  0.00     0.049 A 
ATOM     68  H   UNL     1       8.662  -9.468   7.955  1.00  0.00     0.167 HD
ATOM     69  C   UNL     1       9.342  -8.187  10.392  1.00  0.00     0.074 A 
ATOM     70  C   UNL     1       9.448  -7.181  11.427  1.00  0.00     0.031 C 
ATOM     71  C   UNL     1       9.807  -9.455  10.511  1.00  0.00     0.037 A 
BRANCH  58  72
ATOM     72  C   UNL     1       8.800 -12.998   5.568  1.00  0.00     0.064 A 
ATOM     73  C   UNL     1       8.129 -14.123   6.070  1.00  0.00     0.173 A 
ATOM     74  C   UNL     1       9.703 -13.185   4.512  1.00  0.00     0.173 A 
ATOM     75  F   UNL     1       7.253 -13.995   7.077  1.00  0.00    -0.203 F 
ATOM     76  C   UNL     1       8.383 -15.393   5.560  1.00  0.00     0.198 A 
ATOM     77  C   UNL     1       9.934 -14.453   3.986  1.00  0.00     0.198 A 
ATOM     78  F   UNL     1      10.353 -12.136   3.985  1.00  0.00    -0.203 F 
ATOM     79  F   UNL     1       7.766 -16.460   6.087  1.00  0.00    -0.200 F 
ATOM     80  C   UNL     1       9.286 -15.557   4.520  1.00  0.00     0.200 A 
ATOM     81  F   UNL     1      10.789 -14.608   2.966  1.00  0.00    -0.200 F 
ATOM     82  F   UNL     1       9.533 -16.781   4.034  1.00  0.00    -0.200 F 
ENDBRANCH  58  72
BRANCH  59  83
ATOM     83  C   UNL     1       7.622  -3.892   9.513  1.00  0.00     0.064 A 
ATOM     84  C   UNL     1       6.360  -3.365   9.827  1.00  0.00     0.173 A 
ATOM     85  C   UNL     1       8.745  -3.105   9.807  1.00  0.00     0.173 A 
ATOM     86  F   UNL     1       5.252  -4.077   9.573  1.00  0.00    -0.203 F 
ATOM     87  C   UNL     1       6.226  -2.100  10.396  1.00  0.00     0.198 A 
ATOM     88  C   UNL     1       8.612  -1.853  10.407  1.00  0.00     0.198 A 
ATOM     89  F   UNL     1       9.975  -3.573   9.553  1.00  0.00    -0.203 F 
ATOM     90  F   UNL     1       5.007  -1.611  10.661  1.00  0.00    -0.200 F 
ATOM     91  C   UNL     1       7.353  -1.348  10.694  1.00  0.00     0.200 A 
ATOM     92  F   UNL     1       9.705  -1.144  10.722  1.00  0.00    -0.200 F 
ATOM     93  F   UNL     1       7.226  -0.142  11.264  1.00  0.00    -0.200 F 
ENDBRANCH  59  83
BRANCH  71  94
ATOM     94  C   UNL     1      10.506  -9.829  11.787  1.00  0.00     0.064 A 
ATOM     95  C   UNL     1      11.879 -10.123  11.785  1.00  0.00     0.173 A 
ATOM     96  C   UNL     1       9.807  -9.974  12.995  1.00  0.00     0.173 A 
ATOM     97  F   UNL     1      12.592 -10.015  10.653  1.00  0.00    -0.203 F 
ATOM     98  C   UNL     1      12.522 -10.558  12.940  1.00  0.00     0.198 A 
ATOM     99  C   UNL     1      10.461 -10.375  14.156  1.00  0.00     0.198 A 
ATOM    100  F   UNL     1       8.496  -9.699  13.053  1.00  0.00    -0.203 F 
ATOM    101  F   UNL     1      13.825 -10.870  12.902  1.00  0.00    -0.200 F 
ATOM    102  C   UNL     1      11.815 -10.677  14.126  1.00  0.00     0.200 A 
ATOM    103  F   UNL     1       9.782 -10.464  15.308  1.00  0.00    -0.200 F 
ATOM    104  F   UNL     1      12.438 -11.080  15.242  1.00  0.00    -0.200 F 
ENDBRANCH  71  94
ENDBRANCH  45  46
ENDBRANCH  38  40
ENDBRANCH  37  38
ENDBRANCH  36  37
ENDBRANCH  35  36
ENDBRANCH  34  35
ENDBRANCH  33  34
ENDBRANCH  32  33
ENDBRANCH  31  32
ENDBRANCH   1  31
TORSDOF 24
