REMARK SMILES COc1ccc(C(=O)OCCOCCOCCOCCOC(=O)c2ccc(-c3c4nc(c(-c5c(F)c(F)c(F)c(F)c5F)c5ccc([nH]5)c(-c5c(F)c(F)c(F)c(F)c5F)c5nc(c(-c6c(F)c(F)c(F)c(F)c6F)c6ccc3[nH]6)C=C5)C=C4)cc2)cc1CN1CC(=O)N(C)CC1=O
REMARK SMILES IDX 15 1 14 2 13 3 12 4 11 5 10 6 9 7 7 8 8 9 6 10 3 11 4 12
REMARK SMILES IDX 88 13 5 14 87 15 2 16 1 17 89 18 90 19 91 20 97 21 92 22
REMARK SMILES IDX 96 23 98 24 93 25 94 26 95 27 16 28 17 29 18 30 19 31 20 32
REMARK SMILES IDX 21 33 22 34 23 35 24 36 25 37 86 38 26 39 85 40 27 41 28 42
REMARK SMILES IDX 29 43 79 44 30 45 84 46 78 47 80 48 31 49 83 50 77 51 76 52
REMARK SMILES IDX 32 54 64 55 44 56 63 57 45 58 48 59 62 60 81 61 46 62 47 63
REMARK SMILES IDX 61 65 82 66 49 67 33 68 34 69 42 70 35 71 36 72 40 73 43 74
REMARK SMILES IDX 37 75 38 76 41 77 39 78 65 79 66 80 74 81 67 82 68 83 72 84
REMARK SMILES IDX 75 85 69 86 70 87 73 88 71 89 50 90 51 91 59 92 52 93 53 94
REMARK SMILES IDX 57 95 60 96 54 97 55 98 58 99 56 100
REMARK H PARENT 80 53 48 64
REMARK Flexibility Score: inf
ROOT
ATOM      1  O   UNL     1       4.025   3.909  -5.803  1.00  0.00    -0.377 OA
ENDROOT
BRANCH   1   2
ATOM      2  C   UNL     1       2.612   3.928  -5.616  1.00  0.00     0.188 C 
BRANCH   2   3
ATOM      3  C   UNL     1       1.797   5.243  -5.625  1.00  0.00     0.188 C 
BRANCH   3   4
ATOM      4  O   UNL     1       2.570   6.424  -5.759  1.00  0.00    -0.376 OA
BRANCH   4   5
ATOM      5  C   UNL     1       2.592   7.332  -4.674  1.00  0.00     0.202 C 
BRANCH   5   6
ATOM      6  C   UNL     1       3.369   6.864  -3.441  1.00  0.00     0.261 C 
BRANCH   6   7
ATOM      7  O   UNL     1       2.997   5.574  -2.944  1.00  0.00    -0.460 OA
BRANCH   7   8
ATOM      8  C   UNL     1       1.778   5.463  -2.371  1.00  0.00     0.338 C 
ATOM      9  O   UNL     1       0.950   6.346  -2.241  1.00  0.00    -0.246 OA
BRANCH   8  10
ATOM     10  C   UNL     1       1.537   4.031  -2.076  1.00  0.00     0.060 A 
ATOM     11  C   UNL     1       1.062   1.339  -1.551  1.00  0.00     0.123 A 
ATOM     12  C   UNL     1       0.040   2.139  -2.075  1.00  0.00     0.047 A 
ATOM     13  C   UNL     1       2.353   1.845  -1.354  1.00  0.00     0.014 A 
ATOM     14  C   UNL     1       0.273   3.491  -2.327  1.00  0.00     0.019 A 
ATOM     15  C   UNL     1       2.572   3.208  -1.612  1.00  0.00     0.025 A 
BRANCH  11  16
ATOM     16  O   UNL     1       0.766   0.035  -1.255  1.00  0.00    -0.496 OA
ATOM     17  C   UNL     1       0.304  -0.052   0.098  1.00  0.00     0.278 C 
ENDBRANCH  11  16
BRANCH  13  18
ATOM     18  C   UNL     1       3.516   0.973  -0.942  1.00  0.00     0.159 C 
BRANCH  18  19
ATOM     19  N   UNL     1       4.201   0.417  -2.101  1.00  0.00    -0.327 N 
ATOM     20  C   UNL     1       4.199  -1.031  -2.260  1.00  0.00     0.220 C 
ATOM     21  C   UNL     1       5.145   1.181  -2.775  1.00  0.00     0.242 C 
ATOM     22  C   UNL     1       4.690  -1.595  -3.595  1.00  0.00     0.242 C 
ATOM     23  C   UNL     1       5.464   0.667  -4.177  1.00  0.00     0.219 C 
ATOM     24  O   UNL     1       5.506   2.295  -2.397  1.00  0.00    -0.273 OA
ATOM     25  O   UNL     1       4.489  -2.770  -3.902  1.00  0.00    -0.273 OA
ATOM     26  N   UNL     1       5.582  -0.781  -4.280  1.00  0.00    -0.335 N 
ATOM     27  C   UNL     1       6.299  -1.334  -5.410  1.00  0.00     0.147 C 
ENDBRANCH  18  19
ENDBRANCH  13  18
ENDBRANCH   8  10
ENDBRANCH   7   8
ENDBRANCH   6   7
ENDBRANCH   5   6
ENDBRANCH   4   5
ENDBRANCH   3   4
ENDBRANCH   2   3
ENDBRANCH   1   2
BRANCH   1  28
ATOM     28  C   UNL     1       4.658   4.952  -6.533  1.00  0.00     0.188 C 
BRANCH  28  29
ATOM     29  C   UNL     1       4.038   5.415  -7.869  1.00  0.00     0.188 C 
BRANCH  29  30
ATOM     30  O   UNL     1       2.855   4.715  -8.223  1.00  0.00    -0.376 OA
BRANCH  30  31
ATOM     31  C   UNL     1       2.956   3.791  -9.293  1.00  0.00     0.202 C 
BRANCH  31  32
ATOM     32  C   UNL     1       3.850   2.566  -9.051  1.00  0.00     0.261 C 
BRANCH  32  33
ATOM     33  O   UNL     1       5.214   2.839  -8.687  1.00  0.00    -0.460 OA
BRANCH  33  34
ATOM     34  C   UNL     1       5.989   3.470  -9.595  1.00  0.00     0.338 C 
ATOM     35  O   UNL     1       5.676   3.829 -10.717  1.00  0.00    -0.246 OA
BRANCH  34  36
ATOM     36  C   UNL     1       7.259   3.818  -8.926  1.00  0.00     0.060 A 
ATOM     37  C   UNL     1       7.634   5.164  -8.820  1.00  0.00     0.016 A 
ATOM     38  C   UNL     1       8.069   2.813  -8.394  1.00  0.00     0.016 A 
ATOM     39  C   UNL     1       8.839   5.506  -8.205  1.00  0.00     0.010 A 
ATOM     40  C   UNL     1       9.285   3.155  -7.797  1.00  0.00     0.010 A 
ATOM     41  C   UNL     1       9.690   4.500  -7.729  1.00  0.00    -0.014 A 
BRANCH  41  42
ATOM     42  C   UNL     1      11.085   4.828  -7.346  1.00  0.00     0.031 A 
ATOM     43  C   UNL     1      12.169   4.610  -8.366  1.00  0.00     0.074 A 
ATOM     44  C   UNL     1      11.387   5.316  -6.130  1.00  0.00     0.049 A 
ATOM     45  N   UNL     1      13.465   4.749  -8.250  1.00  0.00    -0.248 NA
ATOM     46  C   UNL     1      11.729   4.171  -9.701  1.00  0.00     0.031 C 
ATOM     47  C   UNL     1      10.424   5.610  -5.072  1.00  0.00     0.029 A 
ATOM     48  N   UNL     1      12.603   5.639  -5.579  1.00  0.00    -0.354 N 
ATOM     49  C   UNL     1      13.991   4.413  -9.491  1.00  0.00     0.074 A 
ATOM     50  C   UNL     1      12.882   4.030 -10.336  1.00  0.00     0.031 C 
ATOM     51  C   UNL     1      11.088   6.057  -3.991  1.00  0.00     0.029 A 
ATOM     52  C   UNL     1      12.523   6.045  -4.269  1.00  0.00     0.049 A 
ATOM     53  H   UNL     1      13.451   5.585  -6.076  1.00  0.00     0.167 HD
ATOM     54  C   UNL     1      15.283   4.434  -9.893  1.00  0.00     0.037 A 
ATOM     55  C   UNL     1      13.503   6.344  -3.393  1.00  0.00     0.037 A 
ATOM     56  C   UNL     1      16.386   4.811  -9.050  1.00  0.00     0.049 A 
ATOM     57  C   UNL     1      14.943   6.275  -3.843  1.00  0.00     0.074 A 
ATOM     58  C   UNL     1      17.732   4.867  -9.364  1.00  0.00     0.029 A 
ATOM     59  N   UNL     1      16.268   5.192  -7.722  1.00  0.00    -0.354 N 
ATOM     60  N   UNL     1      15.433   5.978  -5.023  1.00  0.00    -0.248 NA
ATOM     61  C   UNL     1      15.969   6.586  -2.835  1.00  0.00     0.031 C 
ATOM     62  C   UNL     1      18.435   5.230  -8.211  1.00  0.00     0.029 A 
ATOM     63  C   UNL     1      17.521   5.463  -7.196  1.00  0.00     0.049 A 
ATOM     64  H   UNL     1      15.420   5.261  -7.226  1.00  0.00     0.167 HD
ATOM     65  C   UNL     1      16.812   6.104  -4.909  1.00  0.00     0.074 A 
ATOM     66  C   UNL     1      17.083   6.518  -3.549  1.00  0.00     0.031 C 
ATOM     67  C   UNL     1      17.771   5.896  -5.846  1.00  0.00     0.037 A 
BRANCH  54  68
ATOM     68  C   UNL     1      15.581   4.017 -11.303  1.00  0.00     0.064 A 
ATOM     69  C   UNL     1      15.231   4.822 -12.398  1.00  0.00     0.173 A 
ATOM     70  C   UNL     1      16.269   2.822 -11.560  1.00  0.00     0.173 A 
ATOM     71  F   UNL     1      14.557   5.966 -12.207  1.00  0.00    -0.203 F 
ATOM     72  C   UNL     1      15.545   4.437 -13.699  1.00  0.00     0.198 A 
ATOM     73  C   UNL     1      16.608   2.455 -12.859  1.00  0.00     0.198 A 
ATOM     74  F   UNL     1      16.627   2.016 -10.549  1.00  0.00    -0.203 F 
ATOM     75  F   UNL     1      15.166   5.202 -14.732  1.00  0.00    -0.200 F 
ATOM     76  C   UNL     1      16.241   3.260 -13.928  1.00  0.00     0.200 A 
ATOM     77  F   UNL     1      17.292   1.323 -13.077  1.00  0.00    -0.200 F 
ATOM     78  F   UNL     1      16.556   2.898 -15.179  1.00  0.00    -0.200 F 
ENDBRANCH  54  68
BRANCH  55  79
ATOM     79  C   UNL     1      13.173   6.714  -1.989  1.00  0.00     0.064 A 
ATOM     80  C   UNL     1      13.457   7.993  -1.489  1.00  0.00     0.173 A 
ATOM     81  C   UNL     1      12.623   5.777  -1.101  1.00  0.00     0.173 A 
ATOM     82  F   UNL     1      14.011   8.916  -2.289  1.00  0.00    -0.203 F 
ATOM     83  C   UNL     1      13.237   8.310  -0.149  1.00  0.00     0.198 A 
ATOM     84  C   UNL     1      12.370   6.106   0.230  1.00  0.00     0.198 A 
ATOM     85  F   UNL     1      12.338   4.537  -1.523  1.00  0.00    -0.203 F 
ATOM     86  F   UNL     1      13.584   9.517   0.317  1.00  0.00    -0.200 F 
ATOM     87  C   UNL     1      12.690   7.367   0.708  1.00  0.00     0.200 A 
ATOM     88  F   UNL     1      11.834   5.195   1.053  1.00  0.00    -0.200 F 
ATOM     89  F   UNL     1      12.486   7.670   1.997  1.00  0.00    -0.200 F 
ENDBRANCH  55  79
BRANCH  67  90
ATOM     90  C   UNL     1      19.197   6.165  -5.454  1.00  0.00     0.064 A 
ATOM     91  C   UNL     1      19.889   5.337  -4.559  1.00  0.00     0.173 A 
ATOM     92  C   UNL     1      19.893   7.244  -6.022  1.00  0.00     0.173 A 
ATOM     93  F   UNL     1      19.267   4.300  -3.979  1.00  0.00    -0.203 F 
ATOM     94  C   UNL     1      21.216   5.597  -4.224  1.00  0.00     0.198 A 
ATOM     95  C   UNL     1      21.229   7.480  -5.712  1.00  0.00     0.198 A 
ATOM     96  F   UNL     1      19.282   8.062  -6.893  1.00  0.00    -0.203 F 
ATOM     97  F   UNL     1      21.842   4.823  -3.326  1.00  0.00    -0.200 F 
ATOM     98  C   UNL     1      21.887   6.662  -4.806  1.00  0.00     0.200 A 
ATOM     99  F   UNL     1      21.880   8.499  -6.290  1.00  0.00    -0.200 F 
ATOM    100  F   UNL     1      23.166   6.904  -4.489  1.00  0.00    -0.200 F 
ENDBRANCH  67  90
ENDBRANCH  41  42
ENDBRANCH  34  36
ENDBRANCH  33  34
ENDBRANCH  32  33
ENDBRANCH  31  32
ENDBRANCH  30  31
ENDBRANCH  29  30
ENDBRANCH  28  29
ENDBRANCH   1  28
TORSDOF 23
