REMARK SMILES O=C(OCCOCCOCCOCCOC(=O)c1ccc(-c2c3nc(c(-c4c(F)c(F)c(F)c(F)c4F)c4ccc([nH]4)c(-c4c(F)c(F)c(F)c(F)c4F)c4nc(c(-c5c(F)c(F)c(F)c(F)c5F)c5ccc2[nH]5)C=C4)C=C3)cc1)C1=Cc2cc(S(F)(F)(F)(F)F)cc(Br)c2O[C@@H]1C(F)(F)F
REMARK SMILES IDX 10 1 9 2 8 3 7 4 6 5 5 6 4 7 3 8 2 9 1 10 81 11 82 12 97 13
REMARK SMILES IDX 83 14 96 15 84 16 95 17 85 18 93 19 92 20 94 21 98 22 99 23
REMARK SMILES IDX 100 24 101 25 86 26 87 27 88 28 89 29 90 30 91 31 11 32
REMARK SMILES IDX 12 33 13 34 14 35 15 36 16 37 17 38 18 39 19 40 80 41 20 42
REMARK SMILES IDX 79 43 21 44 22 45 23 46 73 47 24 48 78 49 72 50 74 51 25 52
REMARK SMILES IDX 77 53 71 54 70 55 26 57 58 58 38 59 57 60 39 61 42 62 56 63
REMARK SMILES IDX 75 64 40 65 41 66 55 68 76 69 43 70 27 71 28 72 36 73 29 74
REMARK SMILES IDX 30 75 34 76 37 77 31 78 32 79 35 80 33 81 59 82 60 83 68 84
REMARK SMILES IDX 61 85 62 86 66 87 69 88 63 89 64 90 67 91 65 92 44 93 45 94
REMARK SMILES IDX 53 95 46 96 47 97 51 98 54 99 48 100 49 101 52 102 50 103
REMARK H PARENT 74 56 42 67
REMARK Flexibility Score: inf
ROOT
ATOM      1  C   UNL     1       4.469   2.688   0.356  1.00  0.00     0.188 C 
ENDROOT
BRANCH   1   2
ATOM      2  O   UNL     1       3.049   2.688   0.356  1.00  0.00    -0.377 OA
BRANCH   2   3
ATOM      3  C   UNL     1       2.575   1.923   1.455  1.00  0.00     0.188 C 
BRANCH   3   4
ATOM      4  C   UNL     1       3.082   0.495   1.335  1.00  0.00     0.188 C 
BRANCH   4   5
ATOM      5  O   UNL     1       4.502   0.495   1.335  1.00  0.00    -0.376 OA
BRANCH   5   6
ATOM      6  C   UNL     1       4.975   1.260   0.235  1.00  0.00     0.202 C 
BRANCH   6   7
ATOM      7  C   UNL     1       4.469   0.650  -1.061  1.00  0.00     0.261 C 
BRANCH   7   8
ATOM      8  O   UNL     1       3.049   0.650  -1.061  1.00  0.00    -0.460 OA
BRANCH   8   9
ATOM      9  C   UNL     1       2.339  -0.052  -0.052  1.00  0.00     0.338 C 
ATOM     10  O   UNL     1       1.068  -0.052  -0.052  1.00  0.00    -0.246 OA
BRANCH   9  11
ATOM     11  C   UNL     1       3.099  -0.804   1.029  1.00  0.00     0.087 C 
ATOM     12  C   UNL     1       4.459  -0.804   1.029  1.00  0.00     0.027 C 
ATOM     13  C   UNL     1       2.339  -1.556   2.110  1.00  0.00     0.316 C 
ATOM     14  C   UNL     1       5.219  -0.052  -0.052  1.00  0.00     0.020 A 
ATOM     15  O   UNL     1       3.640   1.683   0.330  1.00  0.00    -0.474 OA
ATOM     16  C   UNL     1       6.233  -0.643  -0.787  1.00  0.00     0.036 A 
ATOM     17  C   UNL     1       4.785   1.170  -0.336  1.00  0.00     0.142 A 
ATOM     18  C   UNL     1       6.930   0.256  -1.628  1.00  0.00     0.109 A 
ATOM     19  C   UNL     1       5.433   1.944  -1.268  1.00  0.00     0.062 A 
ATOM     20  C   UNL     1       6.481   1.444  -1.990  1.00  0.00     0.044 A 
ATOM     21  Br  UNL     1       4.847   3.790  -1.567  1.00  0.00    -0.047 Br
BRANCH  13  22
ATOM     22  C   UNL     1       2.706  -0.992   3.473  1.00  0.00     0.430 C 
ATOM     23  F   UNL     1       2.385   0.298   3.520  1.00  0.00    -0.167 F 
ATOM     24  F   UNL     1       2.041  -1.649   4.418  1.00  0.00    -0.167 F 
ATOM     25  F   UNL     1       4.013  -1.131   3.672  1.00  0.00    -0.167 F 
ENDBRANCH  13  22
BRANCH  18  26
ATOM     26  S   UNL     1       8.549  -0.259  -2.253  1.00  0.00     0.310 S 
ATOM     27  F   UNL     1       9.179  -0.313  -0.798  1.00  0.00    -0.094 F 
ATOM     28  F   UNL     1       8.989   1.253  -2.312  1.00  0.00    -0.094 F 
ATOM     29  F   UNL     1       9.932  -0.711  -2.801  1.00  0.00    -0.094 F 
ATOM     30  F   UNL     1       8.143  -1.772  -2.054  1.00  0.00    -0.094 F 
ATOM     31  F   UNL     1       7.184   0.180  -1.589  1.00  0.00    -0.094 F 
ENDBRANCH  18  26
ENDBRANCH   9  11
ENDBRANCH   8   9
ENDBRANCH   7   8
ENDBRANCH   6   7
ENDBRANCH   5   6
ENDBRANCH   4   5
ENDBRANCH   3   4
ENDBRANCH   2   3
ENDBRANCH   1   2
BRANCH   1  32
ATOM     32  C   UNL     1       4.975   3.297   1.653  1.00  0.00     0.188 C 
BRANCH  32  33
ATOM     33  O   UNL     1       4.502   2.533   2.752  1.00  0.00    -0.376 OA
BRANCH  33  34
ATOM     34  C   UNL     1       3.082   2.533   2.752  1.00  0.00     0.202 C 
BRANCH  34  35
ATOM     35  C   UNL     1       2.575   3.961   2.872  1.00  0.00     0.261 C 
BRANCH  35  36
ATOM     36  O   UNL     1       3.049   4.725   1.773  1.00  0.00    -0.460 OA
BRANCH  36  37
ATOM     37  C   UNL     1       4.445   4.873   1.560  1.00  0.00     0.338 C 
ATOM     38  O   UNL     1       5.271   4.322   2.353  1.00  0.00    -0.246 OA
BRANCH  37  39
ATOM     39  C   UNL     1       4.951   5.692   0.384  1.00  0.00     0.060 A 
ATOM     40  C   UNL     1       5.874   5.201  -0.525  1.00  0.00     0.016 A 
ATOM     41  C   UNL     1       4.346   6.857   0.189  1.00  0.00     0.016 A 
ATOM     42  C   UNL     1       6.310   6.157  -1.473  1.00  0.00     0.010 A 
ATOM     43  C   UNL     1       4.731   7.682  -0.841  1.00  0.00     0.010 A 
ATOM     44  C   UNL     1       5.680   7.286  -1.742  1.00  0.00    -0.014 A 
BRANCH  44  45
ATOM     45  C   UNL     1       5.992   8.101  -2.986  1.00  0.00     0.031 A 
ATOM     46  C   UNL     1       6.441   9.404  -2.767  1.00  0.00     0.074 A 
ATOM     47  C   UNL     1       5.686   7.587  -4.235  1.00  0.00     0.049 A 
ATOM     48  N   UNL     1       6.682  10.346  -3.680  1.00  0.00    -0.248 NA
ATOM     49  C   UNL     1       6.734   9.963  -1.439  1.00  0.00     0.031 C 
ATOM     50  C   UNL     1       5.241   6.271  -4.465  1.00  0.00     0.029 A 
ATOM     51  N   UNL     1       5.751   8.229  -5.452  1.00  0.00    -0.354 N 
ATOM     52  C   UNL     1       7.119  11.460  -3.090  1.00  0.00     0.074 A 
ATOM     53  C   UNL     1       7.153  11.232  -1.639  1.00  0.00     0.031 C 
ATOM     54  C   UNL     1       5.029   6.125  -5.799  1.00  0.00     0.029 A 
ATOM     55  C   UNL     1       5.339   7.346  -6.426  1.00  0.00     0.049 A 
ATOM     56  H   UNL     1       6.041   9.158  -5.600  1.00  0.00     0.167 HD
ATOM     57  C   UNL     1       7.492  12.657  -3.704  1.00  0.00     0.037 A 
ATOM     58  C   UNL     1       5.231   7.576  -7.788  1.00  0.00     0.037 A 
ATOM     59  C   UNL     1       7.425  12.872  -5.071  1.00  0.00     0.049 A 
ATOM     60  C   UNL     1       5.549   8.793  -8.397  1.00  0.00     0.074 A 
ATOM     61  C   UNL     1       7.804  14.070  -5.707  1.00  0.00     0.029 A 
ATOM     62  N   UNL     1       6.990  11.998  -6.043  1.00  0.00    -0.354 N 
ATOM     63  N   UNL     1       6.023   9.893  -7.810  1.00  0.00    -0.248 NA
ATOM     64  C   UNL     1       5.408   9.058  -9.835  1.00  0.00     0.031 C 
ATOM     65  C   UNL     1       7.592  13.924  -7.043  1.00  0.00     0.029 A 
ATOM     66  C   UNL     1       7.076  12.632  -7.262  1.00  0.00     0.049 A 
ATOM     67  H   UNL     1       6.672  11.079  -5.891  1.00  0.00     0.167 HD
ATOM     68  C   UNL     1       6.224  10.848  -8.720  1.00  0.00     0.074 A 
ATOM     69  C   UNL     1       5.824  10.327 -10.034  1.00  0.00     0.031 C 
ATOM     70  C   UNL     1       6.728  12.133  -8.508  1.00  0.00     0.037 A 
BRANCH  57  71
ATOM     71  C   UNL     1       8.000  13.787  -2.824  1.00  0.00     0.064 A 
ATOM     72  C   UNL     1       9.022  13.580  -1.912  1.00  0.00     0.173 A 
ATOM     73  C   UNL     1       7.320  14.928  -2.849  1.00  0.00     0.173 A 
ATOM     74  F   UNL     1       9.888  12.575  -2.010  1.00  0.00    -0.203 F 
ATOM     75  C   UNL     1       9.062  14.534  -0.869  1.00  0.00     0.198 A 
ATOM     76  C   UNL     1       7.508  15.875  -1.872  1.00  0.00     0.198 A 
ATOM     77  F   UNL     1       6.450  15.155  -3.829  1.00  0.00    -0.203 F 
ATOM     78  F   UNL     1       9.753  14.227   0.225  1.00  0.00    -0.200 F 
ATOM     79  C   UNL     1       8.460  15.709  -0.905  1.00  0.00     0.200 A 
ATOM     80  F   UNL     1       6.752  16.970  -1.867  1.00  0.00    -0.200 F 
ATOM     81  F   UNL     1       8.764  16.679  -0.047  1.00  0.00    -0.200 F 
ENDBRANCH  57  71
BRANCH  58  82
ATOM     82  C   UNL     1       4.739   6.440  -8.670  1.00  0.00     0.064 A 
ATOM     83  C   UNL     1       5.521   5.807  -9.622  1.00  0.00     0.173 A 
ATOM     84  C   UNL     1       3.523   5.997  -8.371  1.00  0.00     0.173 A 
ATOM     85  F   UNL     1       6.819   6.052  -9.774  1.00  0.00    -0.203 F 
ATOM     86  C   UNL     1       4.813   4.875 -10.418  1.00  0.00     0.198 A 
ATOM     87  C   UNL     1       2.946   4.990  -9.106  1.00  0.00     0.198 A 
ATOM     88  F   UNL     1       2.859   6.532  -7.351  1.00  0.00    -0.203 F 
ATOM     89  F   UNL     1       5.368   4.494 -11.565  1.00  0.00    -0.200 F 
ATOM     90  C   UNL     1       3.639   4.359 -10.101  1.00  0.00     0.200 A 
ATOM     91  F   UNL     1       1.694   4.624  -8.846  1.00  0.00    -0.200 F 
ATOM     92  F   UNL     1       3.158   3.283 -10.717  1.00  0.00    -0.200 F 
ENDBRANCH  58  82
BRANCH  70  93
ATOM     93  C   UNL     1       6.907  13.038  -9.715  1.00  0.00     0.064 A 
ATOM     94  C   UNL     1       5.834  13.476 -10.473  1.00  0.00     0.173 A 
ATOM     95  C   UNL     1       8.141  13.466  -9.957  1.00  0.00     0.173 A 
ATOM     96  F   UNL     1       4.567  13.281 -10.118  1.00  0.00    -0.203 F 
ATOM     97  C   UNL     1       6.207  14.152 -11.659  1.00  0.00     0.198 A 
ATOM     98  C   UNL     1       8.410  14.236 -11.062  1.00  0.00     0.198 A 
ATOM     99  F   UNL     1       9.124  13.145  -9.121  1.00  0.00    -0.203 F 
ATOM    100  F   UNL     1       5.287  14.287 -12.610  1.00  0.00    -0.200 F 
ATOM    101  C   UNL     1       7.405  14.657 -11.888  1.00  0.00     0.200 A 
ATOM    102  F   UNL     1       9.667  14.578 -11.332  1.00  0.00    -0.200 F 
ATOM    103  F   UNL     1       7.623  15.528 -12.869  1.00  0.00    -0.200 F 
ENDBRANCH  70  93
ENDBRANCH  44  45
ENDBRANCH  37  39
ENDBRANCH  36  37
ENDBRANCH  35  36
ENDBRANCH  34  35
ENDBRANCH  33  34
ENDBRANCH  32  33
ENDBRANCH   1  32
TORSDOF 22
