REMARK SMILES Cc1ccc(C(=O)NC2(CC(=O)OCCOCCOCCOCCOC(=O)c3ccc(-c4c5nc(c(-c6c(F)c(F)c(F)c(F)c6F)c6ccc([nH]6)c(-c6c(F)c(F)c(F)c(F)c6F)c6nc(c(-c7c(F)c(F)c(F)c(F)c7F)c7ccc4[nH]7)C=C6)C=C5)cc3)CCC2)cc1
REMARK SMILES IDX 18 1 17 2 16 3 15 4 14 5 13 6 11 7 12 8 10 9 9 10 91 11
REMARK SMILES IDX 93 12 92 13 8 14 6 15 7 16 5 18 1 19 2 20 3 21 95 22 4 23
REMARK SMILES IDX 94 24 19 25 20 26 21 27 22 28 23 29 24 30 25 31 26 32 27 33
REMARK SMILES IDX 28 34 29 35 90 36 30 37 89 38 31 39 32 40 33 41 83 42 34 43
REMARK SMILES IDX 88 44 82 45 84 46 35 47 87 48 81 49 80 50 36 52 68 53 48 54
REMARK SMILES IDX 67 55 49 56 52 57 66 58 85 59 50 60 51 61 65 63 86 64 53 65
REMARK SMILES IDX 37 66 38 67 46 68 39 69 40 70 44 71 47 72 41 73 42 74 45 75
REMARK SMILES IDX 43 76 69 77 70 78 78 79 71 80 72 81 76 82 79 83 73 84 74 85
REMARK SMILES IDX 77 86 75 87 54 88 55 89 63 90 56 91 57 92 61 93 64 94 58 95
REMARK SMILES IDX 59 96 62 97 60 98
REMARK H PARENT 8 17 84 51 52 62
REMARK Flexibility Score: inf
ROOT
ATOM      1  C   UNL     1      -4.808  -1.694  -0.026  1.00  0.00     0.188 C 
ENDROOT
BRANCH   1   2
ATOM      2  C   UNL     1      -3.939  -3.163   0.037  1.00  0.00     0.188 C 
BRANCH   2   3
ATOM      3  O   UNL     1      -2.290  -3.586  -0.314  1.00  0.00    -0.376 OA
BRANCH   3   4
ATOM      4  C   UNL     1      -0.691  -2.814  -0.167  1.00  0.00     0.202 C 
BRANCH   4   5
ATOM      5  C   UNL     1      -0.134  -0.939  -0.339  1.00  0.00     0.261 C 
BRANCH   5   6
ATOM      6  O   UNL     1       0.404   0.784  -1.370  1.00  0.00    -0.463 OA
BRANCH   6   7
ATOM      7  C   UNL     1      -0.215   2.244  -2.047  1.00  0.00     0.308 C 
ATOM      8  O   UNL     1      -0.492   2.324  -3.259  1.00  0.00    -0.252 OA
BRANCH   7   9
ATOM      9  C   UNL     1      -1.015   3.462  -1.254  1.00  0.00     0.151 C 
BRANCH   9  10
ATOM     10  C   UNL     1      -2.588   3.575  -1.294  1.00  0.00     0.051 C 
ATOM     11  C   UNL     1      -3.195   4.860  -2.017  1.00  0.00     0.029 C 
ATOM     12  C   UNL     1      -3.481   4.105  -0.081  1.00  0.00     0.029 C 
ATOM     13  C   UNL     1      -3.354   5.510  -0.635  1.00  0.00     0.005 C 
BRANCH  10  14
ATOM     14  N   UNL     1      -3.247   2.395  -1.795  1.00  0.00    -0.346 N 
ATOM     15  C   UNL     1      -2.868   1.110  -1.786  1.00  0.00     0.251 C 
ATOM     16  O   UNL     1      -3.656   0.342  -2.331  1.00  0.00    -0.269 OA
ATOM     17  H   UNL     1      -4.123   2.561  -2.213  1.00  0.00     0.164 HD
BRANCH  15  18
ATOM     18  C   UNL     1      -1.555   0.652  -1.250  1.00  0.00     0.039 A 
ATOM     19  C   UNL     1       3.365  -0.884  -0.632  1.00  0.00     0.044 C 
ATOM     20  C   UNL     1       2.007  -0.317  -0.853  1.00  0.00    -0.051 A 
ATOM     21  C   UNL     1       0.991  -0.841  -2.168  1.00  0.00     0.004 A 
ATOM     22  C   UNL     1       1.206   0.600   0.364  1.00  0.00     0.004 A 
ATOM     23  C   UNL     1      -0.702  -0.169  -2.443  1.00  0.00     0.014 A 
ATOM     24  C   UNL     1      -0.545   1.140   0.113  1.00  0.00     0.014 A 
ENDBRANCH  15  18
ENDBRANCH  10  14
ENDBRANCH   9  10
ENDBRANCH   7   9
ENDBRANCH   6   7
ENDBRANCH   5   6
ENDBRANCH   4   5
ENDBRANCH   3   4
ENDBRANCH   2   3
ENDBRANCH   1   2
BRANCH   1  25
ATOM     25  O   UNL     1      -5.714  -1.347   1.050  1.00  0.00    -0.377 OA
BRANCH  25  26
ATOM     26  C   UNL     1      -5.193  -0.571   2.143  1.00  0.00     0.188 C 
BRANCH  26  27
ATOM     27  C   UNL     1      -5.765  -1.019   3.460  1.00  0.00     0.188 C 
BRANCH  27  28
ATOM     28  O   UNL     1      -5.794  -2.412   3.275  1.00  0.00    -0.376 OA
BRANCH  28  29
ATOM     29  C   UNL     1      -7.061  -3.008   3.411  1.00  0.00     0.202 C 
BRANCH  29  30
ATOM     30  C   UNL     1      -6.997  -3.673   4.775  1.00  0.00     0.261 C 
BRANCH  30  31
ATOM     31  O   UNL     1      -5.760  -4.453   4.819  1.00  0.00    -0.460 OA
BRANCH  31  32
ATOM     32  C   UNL     1      -4.690  -3.793   5.368  1.00  0.00     0.338 C 
ATOM     33  O   UNL     1      -4.732  -3.163   6.416  1.00  0.00    -0.246 OA
BRANCH  32  34
ATOM     34  C   UNL     1      -3.546  -3.663   4.400  1.00  0.00     0.060 A 
ATOM     35  C   UNL     1      -2.625  -2.635   4.527  1.00  0.00     0.016 A 
ATOM     36  C   UNL     1      -3.397  -4.421   3.261  1.00  0.00     0.016 A 
ATOM     37  C   UNL     1      -1.923  -2.167   3.379  1.00  0.00     0.010 A 
ATOM     38  C   UNL     1      -2.612  -3.921   2.176  1.00  0.00     0.010 A 
ATOM     39  C   UNL     1      -2.205  -2.557   2.056  1.00  0.00    -0.014 A 
BRANCH  39  40
ATOM     40  C   UNL     1      -2.329  -1.359   0.658  1.00  0.00     0.031 A 
ATOM     41  C   UNL     1      -2.326  -1.770  -1.323  1.00  0.00     0.074 A 
ATOM     42  C   UNL     1      -2.206  -0.114   1.434  1.00  0.00     0.049 A 
ATOM     43  N   UNL     1      -1.196  -2.155  -2.125  1.00  0.00    -0.248 NA
ATOM     44  C   UNL     1      -3.325  -2.261  -2.446  1.00  0.00     0.031 C 
ATOM     45  C   UNL     1      -2.901   1.203   1.412  1.00  0.00     0.029 A 
ATOM     46  N   UNL     1      -1.071   0.309   2.386  1.00  0.00    -0.354 N 
ATOM     47  C   UNL     1      -1.246  -2.251  -3.563  1.00  0.00     0.074 A 
ATOM     48  C   UNL     1      -2.660  -2.604  -3.601  1.00  0.00     0.031 C 
ATOM     49  C   UNL     1      -2.243   2.153   2.148  1.00  0.00     0.029 A 
ATOM     50  C   UNL     1      -0.861   1.754   2.500  1.00  0.00     0.049 A 
ATOM     51  H   UNL     1      -0.527  -0.344   2.882  1.00  0.00     0.167 HD
ATOM     52  C   UNL     1      -0.337  -1.744  -4.662  1.00  0.00     0.037 A 
ATOM     53  C   UNL     1       0.294   2.631   2.283  1.00  0.00     0.037 A 
ATOM     54  C   UNL     1       0.648  -0.323  -4.710  1.00  0.00     0.049 A 
ATOM     55  C   UNL     1       1.517   2.971   0.947  1.00  0.00     0.074 A 
ATOM     56  C   UNL     1       0.469   0.940  -5.320  1.00  0.00     0.029 A 
ATOM     57  N   UNL     1       1.957   0.050  -4.093  1.00  0.00    -0.354 N 
ATOM     58  N   UNL     1       1.423   3.003  -0.412  1.00  0.00    -0.248 NA
ATOM     59  C   UNL     1       2.952   3.021   1.260  1.00  0.00     0.031 C 
ATOM     60  C   UNL     1       1.391   1.981  -4.779  1.00  0.00     0.029 A 
ATOM     61  C   UNL     1       2.033   1.488  -3.633  1.00  0.00     0.049 A 
ATOM     62  H   UNL     1       2.703  -0.585  -3.995  1.00  0.00     0.167 HD
ATOM     63  C   UNL     1       2.672   2.671  -1.124  1.00  0.00     0.074 A 
ATOM     64  C   UNL     1       3.566   2.819   0.067  1.00  0.00     0.031 C 
ATOM     65  C   UNL     1       3.018   2.110  -2.470  1.00  0.00     0.037 A 
BRANCH  52  66
ATOM     66  C   UNL     1      -0.633  -2.376  -6.030  1.00  0.00     0.064 A 
ATOM     67  C   UNL     1      -0.599  -1.689  -7.259  1.00  0.00     0.173 A 
ATOM     68  C   UNL     1      -0.913  -3.755  -6.132  1.00  0.00     0.173 A 
ATOM     69  F   UNL     1      -0.177  -0.429  -7.367  1.00  0.00    -0.203 F 
ATOM     70  C   UNL     1      -0.985  -2.284  -8.462  1.00  0.00     0.198 A 
ATOM     71  C   UNL     1      -1.309  -4.350  -7.335  1.00  0.00     0.198 A 
ATOM     72  F   UNL     1      -0.798  -4.555  -5.060  1.00  0.00    -0.203 F 
ATOM     73  F   UNL     1      -0.975  -1.560  -9.591  1.00  0.00    -0.200 F 
ATOM     74  C   UNL     1      -1.379  -3.603  -8.495  1.00  0.00     0.200 A 
ATOM     75  F   UNL     1      -1.633  -5.650  -7.364  1.00  0.00    -0.200 F 
ATOM     76  F   UNL     1      -1.800  -4.155  -9.641  1.00  0.00    -0.200 F 
ENDBRANCH  52  66
BRANCH  53  77
ATOM     77  C   UNL     1       0.769   2.696   3.744  1.00  0.00     0.064 A 
ATOM     78  C   UNL     1      -0.140   3.420   4.552  1.00  0.00     0.173 A 
ATOM     79  C   UNL     1       1.293   1.500   4.285  1.00  0.00     0.173 A 
ATOM     80  F   UNL     1      -0.661   4.565   4.083  1.00  0.00    -0.203 F 
ATOM     81  C   UNL     1      -0.790   2.786   5.616  1.00  0.00     0.198 A 
ATOM     82  C   UNL     1       0.654   0.883   5.367  1.00  0.00     0.198 A 
ATOM     83  F   UNL     1       2.206   0.799   3.598  1.00  0.00    -0.203 F 
ATOM     84  F   UNL     1      -1.887   3.345   6.146  1.00  0.00    -0.200 F 
ATOM     85  C   UNL     1      -0.431   1.496   5.980  1.00  0.00     0.200 A 
ATOM     86  F   UNL     1       0.964  -0.382   5.689  1.00  0.00    -0.200 F 
ATOM     87  F   UNL     1      -1.196   0.804   6.837  1.00  0.00    -0.200 F 
ENDBRANCH  53  77
BRANCH  65  88
ATOM     88  C   UNL     1       4.532   1.899  -2.883  1.00  0.00     0.064 A 
ATOM     89  C   UNL     1       5.647   2.433  -2.224  1.00  0.00     0.173 A 
ATOM     90  C   UNL     1       4.903   1.110  -4.005  1.00  0.00     0.173 A 
ATOM     91  F   UNL     1       5.548   3.541  -1.477  1.00  0.00    -0.203 F 
ATOM     92  C   UNL     1       6.943   1.918  -2.395  1.00  0.00     0.198 A 
ATOM     93  C   UNL     1       6.191   0.613  -4.208  1.00  0.00     0.198 A 
ATOM     94  F   UNL     1       4.064   0.846  -5.012  1.00  0.00    -0.203 F 
ATOM     95  F   UNL     1       7.944   2.370  -1.627  1.00  0.00    -0.200 F 
ATOM     96  C   UNL     1       7.202   0.958  -3.350  1.00  0.00     0.200 A 
ATOM     97  F   UNL     1       6.431  -0.199  -5.248  1.00  0.00    -0.200 F 
ATOM     98  F   UNL     1       8.426   0.435  -3.495  1.00  0.00    -0.200 F 
ENDBRANCH  65  88
ENDBRANCH  39  40
ENDBRANCH  32  34
ENDBRANCH  31  32
ENDBRANCH  30  31
ENDBRANCH  29  30
ENDBRANCH  28  29
ENDBRANCH  27  28
ENDBRANCH  26  27
ENDBRANCH  25  26
ENDBRANCH   1  25
TORSDOF 23
