REMARK SMILES Cc1nc2n(n1)[C@@H](c1ccc([N+](=O)[O-])o1)CC(C(=O)OCCOCCOCCOCCOC(=O)c1ccc(-c3c4nc(c(-c5c(F)c(F)c(F)c(F)c5F)c5ccc([nH]5)c(-c5c(F)c(F)c(F)c(F)c5F)c5nc(c(-c6c(F)c(F)c(F)c(F)c6F)c6ccc3[nH]6)C=C5)C=C4)cc1)=N2
REMARK SMILES IDX 26 1 25 2 24 3 23 4 22 5 21 6 20 7 18 8 19 9 17 10 1 11 2 12
REMARK SMILES IDX 3 13 6 14 4 15 5 16 98 17 7 18 16 19 8 20 9 21 15 22 10 23
REMARK SMILES IDX 11 24 12 25 13 26 14 27 27 28 28 29 29 30 30 31 31 32 32 33
REMARK SMILES IDX 33 34 34 35 35 36 36 37 97 38 37 39 96 40 38 41 39 42 40 43
REMARK SMILES IDX 90 44 41 45 95 46 89 47 91 48 42 49 94 50 88 51 87 52 43 54
REMARK SMILES IDX 75 55 55 56 74 57 56 58 59 59 73 60 92 61 57 62 58 63 72 65
REMARK SMILES IDX 93 66 60 67 44 68 45 69 53 70 46 71 47 72 51 73 54 74 48 75
REMARK SMILES IDX 49 76 52 77 50 78 76 79 77 80 85 81 78 82 79 83 83 84 86 85
REMARK SMILES IDX 80 86 81 87 84 88 82 89 61 90 62 91 70 92 63 93 64 94 68 95
REMARK SMILES IDX 71 96 65 97 66 98 69 99 67 100
REMARK H PARENT 91 53 59 64
REMARK Flexibility Score: inf
ROOT
ATOM      1  O   UNL     1      -4.243   6.944   1.933  1.00  0.00    -0.377 OA
ENDROOT
BRANCH   1   2
ATOM      2  C   UNL     1      -4.164   5.532   1.779  1.00  0.00     0.188 C 
BRANCH   2   3
ATOM      3  C   UNL     1      -4.514   4.757   3.065  1.00  0.00     0.188 C 
BRANCH   3   4
ATOM      4  O   UNL     1      -5.245   5.550   3.991  1.00  0.00    -0.376 OA
BRANCH   4   5
ATOM      5  C   UNL     1      -4.559   6.149   5.080  1.00  0.00     0.202 C 
BRANCH   5   6
ATOM      6  C   UNL     1      -3.284   6.980   4.846  1.00  0.00     0.261 C 
BRANCH   6   7
ATOM      7  O   UNL     1      -2.392   6.449   3.861  1.00  0.00    -0.459 OA
BRANCH   7   8
ATOM      8  C   UNL     1      -1.419   5.610   4.253  1.00  0.00     0.352 C 
ATOM      9  O   UNL     1      -1.094   5.309   5.372  1.00  0.00    -0.245 OA
BRANCH   8  10
ATOM     10  C   UNL     1      -0.849   4.963   2.986  1.00  0.00     0.132 C 
ATOM     11  C   UNL     1       0.966   0.437  -0.107  1.00  0.00     0.092 C 
ATOM     12  C   UNL     1       0.497   1.717   0.458  1.00  0.00     0.149 A 
ATOM     13  N   UNL     1      -0.294   1.781   1.573  1.00  0.00    -0.195 NA
ATOM     14  N   UNL     1       0.856   2.906  -0.041  1.00  0.00    -0.154 NA
ATOM     15  C   UNL     1      -0.399   3.067   1.823  1.00  0.00     0.249 A 
ATOM     16  N   UNL     1       0.217   3.743   0.804  1.00  0.00    -0.219 N 
ATOM     17  N   UNL     1      -0.926   3.672   2.907  1.00  0.00    -0.209 NA
ATOM     18  C   UNL     1       0.351   5.186   0.733  1.00  0.00     0.184 C 
ATOM     19  C   UNL     1      -0.337   5.893   1.909  1.00  0.00     0.100 C 
BRANCH  18  20
ATOM     20  C   UNL     1      -0.112   5.715  -0.608  1.00  0.00     0.136 A 
ATOM     21  C   UNL     1      -0.432   5.132  -1.827  1.00  0.00     0.056 A 
ATOM     22  O   UNL     1      -0.195   7.082  -0.729  1.00  0.00    -0.404 OA
ATOM     23  C   UNL     1      -0.721   6.181  -2.737  1.00  0.00     0.134 A 
ATOM     24  C   UNL     1      -0.570   7.337  -2.013  1.00  0.00     0.433 A 
BRANCH  24  25
ATOM     25  N   UNL     1      -0.719   8.710  -2.382  1.00  0.00     0.102 N 
ATOM     26  O   UNL     1      -0.995   8.933  -3.568  1.00  0.00    -0.256 OA
ATOM     27  O   UNL     1      -0.566   9.564  -1.499  1.00  0.00    -0.256 OA
ENDBRANCH  24  25
ENDBRANCH  18  20
ENDBRANCH   8  10
ENDBRANCH   7   8
ENDBRANCH   6   7
ENDBRANCH   5   6
ENDBRANCH   4   5
ENDBRANCH   3   4
ENDBRANCH   2   3
ENDBRANCH   1   2
BRANCH   1  28
ATOM     28  C   UNL     1      -5.523   7.563   1.778  1.00  0.00     0.188 C 
BRANCH  28  29
ATOM     29  C   UNL     1      -6.833   6.774   2.007  1.00  0.00     0.188 C 
BRANCH  29  30
ATOM     30  O   UNL     1      -6.844   5.476   1.425  1.00  0.00    -0.376 OA
BRANCH  30  31
ATOM     31  C   UNL     1      -7.500   5.313   0.175  1.00  0.00     0.202 C 
BRANCH  31  32
ATOM     32  C   UNL     1      -6.897   6.110  -0.990  1.00  0.00     0.261 C 
BRANCH  32  33
ATOM     33  O   UNL     1      -7.071   7.530  -0.880  1.00  0.00    -0.460 OA
BRANCH  33  34
ATOM     34  C   UNL     1      -8.351   7.944  -0.833  1.00  0.00     0.338 C 
ATOM     35  O   UNL     1      -9.363   7.272  -0.908  1.00  0.00    -0.246 OA
BRANCH  34  36
ATOM     36  C   UNL     1      -8.377   9.385  -0.616  1.00  0.00     0.060 A 
ATOM     37  C   UNL     1      -8.716   9.885   0.644  1.00  0.00     0.016 A 
ATOM     38  C   UNL     1      -8.279  10.208  -1.734  1.00  0.00     0.016 A 
ATOM     39  C   UNL     1      -9.036  11.227   0.769  1.00  0.00     0.010 A 
ATOM     40  C   UNL     1      -8.627  11.543  -1.610  1.00  0.00     0.010 A 
ATOM     41  C   UNL     1      -9.046  12.047  -0.368  1.00  0.00    -0.014 A 
BRANCH  41  42
ATOM     42  C   UNL     1      -9.598  13.405  -0.218  1.00  0.00     0.031 A 
ATOM     43  C   UNL     1      -8.882  14.469  -0.989  1.00  0.00     0.074 A 
ATOM     44  C   UNL     1     -10.936  13.523  -0.067  1.00  0.00     0.049 A 
ATOM     45  N   UNL     1      -9.041  14.655  -2.268  1.00  0.00    -0.248 NA
ATOM     46  C   UNL     1      -7.734  15.181  -0.429  1.00  0.00     0.031 C 
ATOM     47  C   UNL     1     -11.913  12.610  -0.681  1.00  0.00     0.029 A 
ATOM     48  N   UNL     1     -11.704  14.535   0.463  1.00  0.00    -0.354 N 
ATOM     49  C   UNL     1      -7.981  15.427  -2.704  1.00  0.00     0.074 A 
ATOM     50  C   UNL     1      -7.212  15.756  -1.524  1.00  0.00     0.031 C 
ATOM     51  C   UNL     1     -13.126  13.192  -0.654  1.00  0.00     0.029 A 
ATOM     52  C   UNL     1     -13.039  14.456   0.073  1.00  0.00     0.049 A 
ATOM     53  H   UNL     1     -11.348  15.238   1.054  1.00  0.00     0.167 HD
ATOM     54  C   UNL     1      -7.770  15.721  -4.014  1.00  0.00     0.037 A 
ATOM     55  C   UNL     1     -13.820  15.540  -0.190  1.00  0.00     0.037 A 
ATOM     56  C   UNL     1      -8.724  15.196  -4.941  1.00  0.00     0.049 A 
ATOM     57  C   UNL     1     -13.284  15.963  -1.536  1.00  0.00     0.074 A 
ATOM     58  C   UNL     1      -8.812  14.124  -5.803  1.00  0.00     0.029 A 
ATOM     59  N   UNL     1      -9.932  15.841  -5.062  1.00  0.00    -0.354 N 
ATOM     60  N   UNL     1     -13.578  15.418  -2.689  1.00  0.00    -0.248 NA
ATOM     61  C   UNL     1     -12.091  16.811  -1.555  1.00  0.00     0.031 C 
ATOM     62  C   UNL     1     -10.212  13.931  -6.028  1.00  0.00     0.029 A 
ATOM     63  C   UNL     1     -10.883  14.869  -5.244  1.00  0.00     0.049 A 
ATOM     64  H   UNL     1     -10.085  16.812  -5.025  1.00  0.00     0.167 HD
ATOM     65  C   UNL     1     -12.464  15.646  -3.503  1.00  0.00     0.074 A 
ATOM     66  C   UNL     1     -11.616  16.556  -2.765  1.00  0.00     0.031 C 
ATOM     67  C   UNL     1     -12.190  14.928  -4.631  1.00  0.00     0.037 A 
BRANCH  54  68
ATOM     68  C   UNL     1      -6.713  16.615  -4.517  1.00  0.00     0.064 A 
ATOM     69  C   UNL     1      -7.082  17.909  -4.909  1.00  0.00     0.173 A 
ATOM     70  C   UNL     1      -5.427  16.166  -4.826  1.00  0.00     0.173 A 
ATOM     71  F   UNL     1      -8.317  18.363  -4.639  1.00  0.00    -0.203 F 
ATOM     72  C   UNL     1      -6.208  18.717  -5.626  1.00  0.00     0.198 A 
ATOM     73  C   UNL     1      -4.548  16.982  -5.539  1.00  0.00     0.198 A 
ATOM     74  F   UNL     1      -5.040  14.929  -4.484  1.00  0.00    -0.203 F 
ATOM     75  F   UNL     1      -6.605  19.931  -6.031  1.00  0.00    -0.200 F 
ATOM     76  C   UNL     1      -4.945  18.249  -5.950  1.00  0.00     0.200 A 
ATOM     77  F   UNL     1      -3.327  16.531  -5.860  1.00  0.00    -0.200 F 
ATOM     78  F   UNL     1      -4.115  19.013  -6.673  1.00  0.00    -0.200 F 
ENDBRANCH  54  68
BRANCH  55  79
ATOM     79  C   UNL     1     -14.047  16.444   0.979  1.00  0.00     0.064 A 
ATOM     80  C   UNL     1     -14.586  15.866   2.152  1.00  0.00     0.173 A 
ATOM     81  C   UNL     1     -13.758  17.812   1.049  1.00  0.00     0.173 A 
ATOM     82  F   UNL     1     -14.997  14.588   2.144  1.00  0.00    -0.203 F 
ATOM     83  C   UNL     1     -14.698  16.577   3.346  1.00  0.00     0.198 A 
ATOM     84  C   UNL     1     -13.841  18.517   2.254  1.00  0.00     0.198 A 
ATOM     85  F   UNL     1     -13.377  18.501  -0.033  1.00  0.00    -0.203 F 
ATOM     86  F   UNL     1     -15.175  15.972   4.443  1.00  0.00    -0.200 F 
ATOM     87  C   UNL     1     -14.292  17.896   3.405  1.00  0.00     0.200 A 
ATOM     88  F   UNL     1     -13.455  19.800   2.297  1.00  0.00    -0.200 F 
ATOM     89  F   UNL     1     -14.336  18.567   4.563  1.00  0.00    -0.200 F 
ENDBRANCH  55  79
BRANCH  67  90
ATOM     90  C   UNL     1     -13.241  13.960  -5.051  1.00  0.00     0.064 A 
ATOM     91  C   UNL     1     -14.439  14.412  -5.616  1.00  0.00     0.173 A 
ATOM     92  C   UNL     1     -13.043  12.574  -4.942  1.00  0.00     0.173 A 
ATOM     93  F   UNL     1     -14.670  15.727  -5.751  1.00  0.00    -0.203 F 
ATOM     94  C   UNL     1     -15.393  13.510  -6.078  1.00  0.00     0.198 A 
ATOM     95  C   UNL     1     -13.986  11.676  -5.432  1.00  0.00     0.198 A 
ATOM     96  F   UNL     1     -11.923  12.081  -4.388  1.00  0.00    -0.203 F 
ATOM     97  F   UNL     1     -16.530  13.962  -6.625  1.00  0.00    -0.200 F 
ATOM     98  C   UNL     1     -15.159  12.145  -6.001  1.00  0.00     0.200 A 
ATOM     99  F   UNL     1     -13.747  10.358  -5.376  1.00  0.00    -0.200 F 
ATOM    100  F   UNL     1     -16.059  11.280  -6.488  1.00  0.00    -0.200 F 
ENDBRANCH  67  90
ENDBRANCH  41  42
ENDBRANCH  34  36
ENDBRANCH  33  34
ENDBRANCH  32  33
ENDBRANCH  31  32
ENDBRANCH  30  31
ENDBRANCH  29  30
ENDBRANCH  28  29
ENDBRANCH   1  28
TORSDOF 22
