REMARK SMILES COc1cc2c(cc1OC)[C@H](C(=O)OCCOCCOCCOCCOC(=O)c1ccc(-c3c4nc(c(-c5c(F)c(F)c(F)c(F)c5F)c5ccc([nH]5)c(-c5c(F)c(F)c(F)c(F)c5F)c5nc(c(-c6c(F)c(F)c(F)c(F)c6F)c6ccc3[nH]6)C=C5)C=C4)cc1)[C@H](c1cccc(Cl)c1)N(C)C2=O
REMARK SMILES IDX 21 1 20 2 19 3 18 4 17 5 16 6 15 7 14 8 12 9 13 10 11 11
REMARK SMILES IDX 3 12 4 13 8 14 5 15 7 16 6 17 102 18 100 19 103 20 92 21
REMARK SMILES IDX 101 22 2 23 1 24 9 25 10 26 93 27 94 28 99 29 95 30 97 31
REMARK SMILES IDX 96 32 98 33 22 34 23 35 24 36 25 37 26 38 27 39 28 40 29 41
REMARK SMILES IDX 30 42 91 43 31 44 90 45 32 46 33 47 34 48 84 49 35 50 89 51
REMARK SMILES IDX 83 52 85 53 36 54 88 55 82 56 81 57 37 59 69 60 49 61 68 62
REMARK SMILES IDX 50 63 53 64 67 65 86 66 51 67 52 68 66 70 87 71 54 72 38 73
REMARK SMILES IDX 39 74 47 75 40 76 41 77 45 78 48 79 42 80 43 81 46 82 44 83
REMARK SMILES IDX 70 84 71 85 79 86 72 87 73 88 77 89 80 90 74 91 75 92 78 93
REMARK SMILES IDX 76 94 55 95 56 96 64 97 57 98 58 99 62 100 65 101 59 102
REMARK SMILES IDX 60 103 63 104 61 105
REMARK H PARENT 85 58 53 69
REMARK Flexibility Score: inf
ROOT
ATOM      1  C   UNL     1      -1.789   0.599   9.575  1.00  0.00     0.188 C 
ENDROOT
BRANCH   1   2
ATOM      2  O   UNL     1      -0.787   0.468   8.570  1.00  0.00    -0.377 OA
BRANCH   2   3
ATOM      3  C   UNL     1       0.574   0.522   8.948  1.00  0.00     0.188 C 
BRANCH   3   4
ATOM      4  C   UNL     1       1.081   1.894   9.431  1.00  0.00     0.188 C 
BRANCH   4   5
ATOM      5  O   UNL     1       0.052   2.824   9.763  1.00  0.00    -0.376 OA
BRANCH   5   6
ATOM      6  C   UNL     1      -0.174   3.892   8.846  1.00  0.00     0.202 C 
BRANCH   6   7
ATOM      7  C   UNL     1      -0.803   3.465   7.517  1.00  0.00     0.261 C 
BRANCH   7   8
ATOM      8  O   UNL     1       0.049   2.553   6.812  1.00  0.00    -0.463 OA
BRANCH   8   9
ATOM      9  C   UNL     1       1.165   3.101   6.260  1.00  0.00     0.316 C 
ATOM     10  O   UNL     1       1.364   4.303   6.231  1.00  0.00    -0.251 OA
BRANCH   9  11
ATOM     11  C   UNL     1       2.051   1.990   5.708  1.00  0.00     0.157 C 
ATOM     12  C   UNL     1       1.014   0.915   1.654  1.00  0.00     0.161 A 
ATOM     13  C   UNL     1       2.296   0.647   2.167  1.00  0.00     0.064 A 
ATOM     14  C   UNL     1       0.028   1.426   2.505  1.00  0.00     0.161 A 
ATOM     15  C   UNL     1       2.614   0.941   3.500  1.00  0.00     0.048 A 
ATOM     16  C   UNL     1       0.367   1.734   3.823  1.00  0.00     0.056 A 
ATOM     17  C   UNL     1       1.670   1.570   4.311  1.00  0.00    -0.015 A 
ATOM     18  C   UNL     1       3.953   0.565   4.051  1.00  0.00     0.254 C 
ATOM     19  N   UNL     1       4.329   1.142   5.265  1.00  0.00    -0.333 N 
ATOM     20  O   UNL     1       4.654  -0.231   3.435  1.00  0.00    -0.269 OA
ATOM     21  C   UNL     1       3.572   2.266   5.850  1.00  0.00     0.134 C 
ATOM     22  C   UNL     1       5.598   0.767   5.868  1.00  0.00     0.147 C 
BRANCH  12  23
ATOM     23  O   UNL     1       0.720   0.765   0.327  1.00  0.00    -0.493 OA
ATOM     24  C   UNL     1       1.301  -0.364  -0.312  1.00  0.00     0.278 C 
ENDBRANCH  12  23
BRANCH  14  25
ATOM     25  O   UNL     1      -1.293   1.684   2.260  1.00  0.00    -0.493 OA
ATOM     26  C   UNL     1      -1.795   1.521   0.947  1.00  0.00     0.278 C 
ENDBRANCH  14  25
BRANCH  21  27
ATOM     27  C   UNL     1       4.051   3.621   5.330  1.00  0.00    -0.023 A 
ATOM     28  C   UNL     1       4.082   4.720   6.211  1.00  0.00     0.006 A 
ATOM     29  C   UNL     1       4.342   3.857   3.979  1.00  0.00     0.026 A 
ATOM     30  C   UNL     1       4.251   6.021   5.734  1.00  0.00     0.002 A 
ATOM     31  C   UNL     1       4.534   5.157   3.509  1.00  0.00     0.041 A 
ATOM     32  C   UNL     1       4.457   6.242   4.375  1.00  0.00     0.020 A 
ATOM     33  Cl  UNL     1       4.820   5.418   1.833  1.00  0.00    -0.084 Cl
ENDBRANCH  21  27
ENDBRANCH   9  11
ENDBRANCH   8   9
ENDBRANCH   7   8
ENDBRANCH   6   7
ENDBRANCH   5   6
ENDBRANCH   4   5
ENDBRANCH   3   4
ENDBRANCH   2   3
ENDBRANCH   1   2
BRANCH   1  34
ATOM     34  C   UNL     1      -1.456   0.776  11.073  1.00  0.00     0.188 C 
BRANCH  34  35
ATOM     35  O   UNL     1      -0.264   0.134  11.508  1.00  0.00    -0.376 OA
BRANCH  35  36
ATOM     36  C   UNL     1      -0.429  -1.022  12.319  1.00  0.00     0.202 C 
BRANCH  36  37
ATOM     37  C   UNL     1      -0.810  -2.277  11.527  1.00  0.00     0.261 C 
BRANCH  37  38
ATOM     38  O   UNL     1      -2.093  -2.212  10.883  1.00  0.00    -0.460 OA
BRANCH  38  39
ATOM     39  C   UNL     1      -3.175  -2.037  11.672  1.00  0.00     0.338 C 
ATOM     40  O   UNL     1      -3.208  -1.985  12.889  1.00  0.00    -0.246 OA
BRANCH  39  41
ATOM     41  C   UNL     1      -4.311  -1.709  10.791  1.00  0.00     0.060 A 
ATOM     42  C   UNL     1      -4.997  -0.503  10.990  1.00  0.00     0.016 A 
ATOM     43  C   UNL     1      -4.663  -2.567   9.747  1.00  0.00     0.016 A 
ATOM     44  C   UNL     1      -6.056  -0.161  10.149  1.00  0.00     0.010 A 
ATOM     45  C   UNL     1      -5.739  -2.237   8.925  1.00  0.00     0.010 A 
ATOM     46  C   UNL     1      -6.454  -1.046   9.137  1.00  0.00    -0.014 A 
BRANCH  46  47
ATOM     47  C   UNL     1      -7.733  -0.836   8.425  1.00  0.00     0.031 A 
ATOM     48  C   UNL     1      -8.969  -1.469   8.995  1.00  0.00     0.074 A 
ATOM     49  C   UNL     1      -7.791  -0.131   7.283  1.00  0.00     0.049 A 
ATOM     50  N   UNL     1     -10.182  -1.510   8.510  1.00  0.00    -0.248 NA
ATOM     51  C   UNL     1      -8.812  -2.153  10.289  1.00  0.00     0.031 C 
ATOM     52  C   UNL     1      -6.666   0.556   6.654  1.00  0.00     0.029 A 
ATOM     53  N   UNL     1      -8.848   0.105   6.439  1.00  0.00    -0.354 N 
ATOM     54  C   UNL     1     -10.931  -2.221   9.438  1.00  0.00     0.074 A 
ATOM     55  C   UNL     1     -10.034  -2.613  10.502  1.00  0.00     0.031 C 
ATOM     56  C   UNL     1      -7.088   1.119   5.507  1.00  0.00     0.029 A 
ATOM     57  C   UNL     1      -8.502   0.801   5.308  1.00  0.00     0.049 A 
ATOM     58  H   UNL     1      -9.766  -0.197   6.628  1.00  0.00     0.167 HD
ATOM     59  C   UNL     1     -12.250  -2.517   9.405  1.00  0.00     0.037 A 
ATOM     60  C   UNL     1      -9.240   1.113   4.225  1.00  0.00     0.037 A 
ATOM     61  C   UNL     1     -13.135  -2.143   8.336  1.00  0.00     0.049 A 
ATOM     62  C   UNL     1     -10.685   0.684   4.165  1.00  0.00     0.074 A 
ATOM     63  C   UNL     1     -14.494  -2.372   8.221  1.00  0.00     0.029 A 
ATOM     64  N   UNL     1     -12.740  -1.476   7.186  1.00  0.00    -0.354 N 
ATOM     65  N   UNL     1     -11.399   0.047   5.062  1.00  0.00    -0.248 NA
ATOM     66  C   UNL     1     -11.424   1.009   2.936  1.00  0.00     0.031 C 
ATOM     67  C   UNL     1     -14.912  -1.888   6.977  1.00  0.00     0.029 A 
ATOM     68  C   UNL     1     -13.823  -1.317   6.338  1.00  0.00     0.049 A 
ATOM     69  H   UNL     1     -11.826  -1.161   7.001  1.00  0.00     0.167 HD
ATOM     70  C   UNL     1     -12.669  -0.088   4.517  1.00  0.00     0.074 A 
ATOM     71  C   UNL     1     -12.635   0.546   3.216  1.00  0.00     0.031 C 
ATOM     72  C   UNL     1     -13.767  -0.685   5.045  1.00  0.00     0.037 A 
BRANCH  59  73
ATOM     73  C   UNL     1     -12.805  -3.309  10.548  1.00  0.00     0.064 A 
ATOM     74  C   UNL     1     -12.989  -2.737  11.816  1.00  0.00     0.173 A 
ATOM     75  C   UNL     1     -13.174  -4.650  10.369  1.00  0.00     0.173 A 
ATOM     76  F   UNL     1     -12.632  -1.464  12.041  1.00  0.00    -0.203 F 
ATOM     77  C   UNL     1     -13.504  -3.488  12.870  1.00  0.00     0.198 A 
ATOM     78  C   UNL     1     -13.711  -5.389  11.419  1.00  0.00     0.198 A 
ATOM     79  F   UNL     1     -13.014  -5.242   9.176  1.00  0.00    -0.203 F 
ATOM     80  F   UNL     1     -13.631  -2.935  14.084  1.00  0.00    -0.200 F 
ATOM     81  C   UNL     1     -13.870  -4.810  12.669  1.00  0.00     0.200 A 
ATOM     82  F   UNL     1     -14.071  -6.665  11.222  1.00  0.00    -0.200 F 
ATOM     83  F   UNL     1     -14.369  -5.530  13.683  1.00  0.00    -0.200 F 
ENDBRANCH  59  73
BRANCH  60  84
ATOM     84  C   UNL     1      -8.622   1.847   3.089  1.00  0.00     0.064 A 
ATOM     85  C   UNL     1      -8.999   3.163   2.790  1.00  0.00     0.173 A 
ATOM     86  C   UNL     1      -7.662   1.239   2.266  1.00  0.00     0.173 A 
ATOM     87  F   UNL     1      -9.935   3.775   3.528  1.00  0.00    -0.203 F 
ATOM     88  C   UNL     1      -8.448   3.839   1.702  1.00  0.00     0.198 A 
ATOM     89  C   UNL     1      -7.093   1.925   1.196  1.00  0.00     0.198 A 
ATOM     90  F   UNL     1      -7.276  -0.023   2.504  1.00  0.00    -0.203 F 
ATOM     91  F   UNL     1      -8.860   5.080   1.410  1.00  0.00    -0.200 F 
ATOM     92  C   UNL     1      -7.492   3.221   0.910  1.00  0.00     0.200 A 
ATOM     93  F   UNL     1      -6.164   1.327   0.436  1.00  0.00    -0.200 F 
ATOM     94  F   UNL     1      -6.964   3.872  -0.136  1.00  0.00    -0.200 F 
ENDBRANCH  60  84
BRANCH  72  95
ATOM     95  C   UNL     1     -15.024  -0.672   4.226  1.00  0.00     0.064 A 
ATOM     96  C   UNL     1     -15.174  -1.499   3.104  1.00  0.00     0.173 A 
ATOM     97  C   UNL     1     -16.113   0.127   4.606  1.00  0.00     0.173 A 
ATOM     98  F   UNL     1     -14.157  -2.271   2.693  1.00  0.00    -0.203 F 
ATOM     99  C   UNL     1     -16.365  -1.515   2.382  1.00  0.00     0.198 A 
ATOM    100  C   UNL     1     -17.311   0.089   3.898  1.00  0.00     0.198 A 
ATOM    101  F   UNL     1     -16.022   0.930   5.677  1.00  0.00    -0.203 F 
ATOM    102  F   UNL     1     -16.475  -2.287   1.292  1.00  0.00    -0.200 F 
ATOM    103  C   UNL     1     -17.434  -0.729   2.784  1.00  0.00     0.200 A 
ATOM    104  F   UNL     1     -18.348   0.839   4.296  1.00  0.00    -0.200 F 
ATOM    105  F   UNL     1     -18.584  -0.756   2.096  1.00  0.00    -0.200 F 
ENDBRANCH  72  95
ENDBRANCH  46  47
ENDBRANCH  39  41
ENDBRANCH  38  39
ENDBRANCH  37  38
ENDBRANCH  36  37
ENDBRANCH  35  36
ENDBRANCH  34  35
ENDBRANCH   1  34
TORSDOF 23
