REMARK SMILES O=C(OCCOCCOCCOCCOC(=O)c1cc2c(c(S(=O)(=O)Nc3cc(C(F)(F)F)ccc3-n3cccn3)c1)CCC2)c1ccc(-c2c3nc(c(-c4c(F)c(F)c(F)c(F)c4F)c4ccc([nH]4)c(-c4c(F)c(F)c(F)c(F)c4F)c4nc(c(-c5c(F)c(F)c(F)c(F)c5F)c5ccc2[nH]5)C=C4)C=C3)cc1
REMARK SMILES IDX 10 1 9 2 8 3 7 4 6 5 5 6 4 7 3 8 2 9 1 10 46 11 47 12 108 13
REMARK SMILES IDX 48 14 107 15 49 16 50 17 51 18 101 19 52 20 106 21 100 22
REMARK SMILES IDX 102 23 53 24 105 25 99 26 98 27 54 29 86 30 66 31 85 32
REMARK SMILES IDX 67 33 70 34 84 35 103 36 68 37 69 38 83 40 104 41 71 42
REMARK SMILES IDX 55 43 56 44 64 45 57 46 58 47 62 48 65 49 59 50 60 51 63 52
REMARK SMILES IDX 61 53 87 54 88 55 96 56 89 57 90 58 94 59 97 60 91 61 92 62
REMARK SMILES IDX 95 63 93 64 72 65 73 66 81 67 74 68 75 69 79 70 82 71 76 72
REMARK SMILES IDX 77 73 80 74 78 75 11 76 12 77 13 78 14 79 15 80 16 81 17 82
REMARK SMILES IDX 18 83 19 84 42 85 20 86 22 87 21 88 45 89 43 90 44 91 23 92
REMARK SMILES IDX 24 93 25 94 26 95 27 97 28 98 36 99 29 100 35 101 34 102
REMARK SMILES IDX 37 103 38 104 41 105 39 106 40 107 30 108 31 109 32 110
REMARK SMILES IDX 33 111
REMARK H PARENT 102 28 70 39 26 96
REMARK Flexibility Score: inf
ROOT
ATOM      1  C   UNL     1       4.191   0.171  -3.328  1.00  0.00     0.188 C 
ENDROOT
BRANCH   1   2
ATOM      2  O   UNL     1       2.872   0.644  -3.196  1.00  0.00    -0.377 OA
BRANCH   2   3
ATOM      3  C   UNL     1       2.348   0.530  -1.885  1.00  0.00     0.188 C 
BRANCH   3   4
ATOM      4  C   UNL     1       3.048   1.338  -0.775  1.00  0.00     0.188 C 
BRANCH   4   5
ATOM      5  O   UNL     1       4.240   1.014  -0.065  1.00  0.00    -0.376 OA
BRANCH   5   6
ATOM      6  C   UNL     1       5.099  -0.096  -0.199  1.00  0.00     0.202 C 
BRANCH   6   7
ATOM      7  C   UNL     1       4.637  -1.503   0.174  1.00  0.00     0.261 C 
BRANCH   7   8
ATOM      8  O   UNL     1       3.273  -1.796  -0.099  1.00  0.00    -0.460 OA
BRANCH   8   9
ATOM      9  C   UNL     1       2.180  -1.432   0.598  1.00  0.00     0.338 C 
ATOM     10  O   UNL     1       1.079  -1.799   0.185  1.00  0.00    -0.246 OA
BRANCH   9  11
ATOM     11  C   UNL     1       2.197  -0.567   1.806  1.00  0.00     0.060 A 
ATOM     12  C   UNL     1       3.300  -0.310   2.622  1.00  0.00     0.016 A 
ATOM     13  C   UNL     1       0.940  -0.046   2.171  1.00  0.00     0.016 A 
ATOM     14  C   UNL     1       3.118   0.238   3.871  1.00  0.00     0.010 A 
ATOM     15  C   UNL     1       0.752   0.527   3.409  1.00  0.00     0.010 A 
ATOM     16  C   UNL     1       1.830   0.557   4.280  1.00  0.00    -0.014 A 
BRANCH  16  17
ATOM     17  C   UNL     1       1.661   0.911   5.669  1.00  0.00     0.031 A 
ATOM     18  C   UNL     1       2.287   2.197   6.037  1.00  0.00     0.074 A 
ATOM     19  C   UNL     1       0.972   0.095   6.488  1.00  0.00     0.049 A 
ATOM     20  N   UNL     1       3.252   2.396   6.872  1.00  0.00    -0.248 NA
ATOM     21  C   UNL     1       1.911   3.386   5.255  1.00  0.00     0.031 C 
ATOM     22  C   UNL     1       0.170  -1.076   6.117  1.00  0.00     0.029 A 
ATOM     23  N   UNL     1       0.755   0.200   7.824  1.00  0.00    -0.354 N 
ATOM     24  C   UNL     1       3.459   3.772   6.879  1.00  0.00     0.074 A 
ATOM     25  C   UNL     1       2.755   4.295   5.741  1.00  0.00     0.031 C 
ATOM     26  C   UNL     1      -0.634  -1.409   7.150  1.00  0.00     0.029 A 
ATOM     27  C   UNL     1      -0.312  -0.561   8.282  1.00  0.00     0.049 A 
ATOM     28  H   UNL     1       1.305   0.764   8.415  1.00  0.00     0.167 HD
ATOM     29  C   UNL     1       3.923   4.381   8.005  1.00  0.00     0.037 A 
ATOM     30  C   UNL     1      -0.942  -0.406   9.473  1.00  0.00     0.037 A 
ATOM     31  C   UNL     1       4.654   3.441   8.825  1.00  0.00     0.049 A 
ATOM     32  C   UNL     1      -0.020   0.347  10.364  1.00  0.00     0.074 A 
ATOM     33  C   UNL     1       5.767   2.643   8.635  1.00  0.00     0.029 A 
ATOM     34  N   UNL     1       4.035   2.946   9.947  1.00  0.00    -0.354 N 
ATOM     35  N   UNL     1       1.095  -0.143  10.832  1.00  0.00    -0.248 NA
ATOM     36  C   UNL     1      -0.101   1.801  10.350  1.00  0.00     0.031 C 
ATOM     37  C   UNL     1       5.500   1.445   9.365  1.00  0.00     0.029 A 
ATOM     38  C   UNL     1       4.271   1.600  10.006  1.00  0.00     0.049 A 
ATOM     39  H   UNL     1       3.512   3.469  10.596  1.00  0.00     0.167 HD
ATOM     40  C   UNL     1       2.002   0.904  10.752  1.00  0.00     0.074 A 
ATOM     41  C   UNL     1       1.189   2.097  10.536  1.00  0.00     0.031 C 
ATOM     42  C   UNL     1       3.334   0.660  10.572  1.00  0.00     0.037 A 
BRANCH  29  43
ATOM     43  C   UNL     1       3.277   5.630   8.584  1.00  0.00     0.064 A 
ATOM     44  C   UNL     1       3.759   6.107   9.821  1.00  0.00     0.173 A 
ATOM     45  C   UNL     1       2.019   6.142   8.194  1.00  0.00     0.173 A 
ATOM     46  F   UNL     1       4.959   5.723  10.282  1.00  0.00    -0.203 F 
ATOM     47  C   UNL     1       2.968   6.882  10.672  1.00  0.00     0.198 A 
ATOM     48  C   UNL     1       1.250   6.950   9.029  1.00  0.00     0.198 A 
ATOM     49  F   UNL     1       1.425   5.822   7.042  1.00  0.00    -0.203 F 
ATOM     50  F   UNL     1       3.403   7.163  11.907  1.00  0.00    -0.200 F 
ATOM     51  C   UNL     1       1.703   7.280  10.286  1.00  0.00     0.200 A 
ATOM     52  F   UNL     1       0.026   7.327   8.632  1.00  0.00    -0.200 F 
ATOM     53  F   UNL     1       0.906   7.941  11.134  1.00  0.00    -0.200 F 
ENDBRANCH  29  43
BRANCH  30  54
ATOM     54  C   UNL     1      -2.392  -0.546   9.750  1.00  0.00     0.064 A 
ATOM     55  C   UNL     1      -2.871  -0.603  11.068  1.00  0.00     0.173 A 
ATOM     56  C   UNL     1      -3.362  -0.365   8.742  1.00  0.00     0.173 A 
ATOM     57  F   UNL     1      -2.013  -0.724  12.092  1.00  0.00    -0.203 F 
ATOM     58  C   UNL     1      -4.232  -0.464  11.361  1.00  0.00     0.198 A 
ATOM     59  C   UNL     1      -4.720  -0.240   9.035  1.00  0.00     0.198 A 
ATOM     60  F   UNL     1      -3.008  -0.208   7.459  1.00  0.00    -0.203 F 
ATOM     61  F   UNL     1      -4.643  -0.459  12.637  1.00  0.00    -0.200 F 
ATOM     62  C   UNL     1      -5.154  -0.276  10.345  1.00  0.00     0.200 A 
ATOM     63  F   UNL     1      -5.596  -0.022   8.043  1.00  0.00    -0.200 F 
ATOM     64  F   UNL     1      -6.450  -0.086  10.630  1.00  0.00    -0.200 F 
ENDBRANCH  30  54
BRANCH  42  65
ATOM     65  C   UNL     1       3.816  -0.748  10.764  1.00  0.00     0.064 A 
ATOM     66  C   UNL     1       3.408  -1.835   9.971  1.00  0.00     0.173 A 
ATOM     67  C   UNL     1       4.822  -0.979  11.710  1.00  0.00     0.173 A 
ATOM     68  F   UNL     1       2.530  -1.670   8.973  1.00  0.00    -0.203 F 
ATOM     69  C   UNL     1       3.947  -3.106  10.160  1.00  0.00     0.198 A 
ATOM     70  C   UNL     1       5.386  -2.240  11.870  1.00  0.00     0.198 A 
ATOM     71  F   UNL     1       5.291   0.035  12.454  1.00  0.00    -0.203 F 
ATOM     72  F   UNL     1       3.530  -4.133   9.405  1.00  0.00    -0.200 F 
ATOM     73  C   UNL     1       4.939  -3.306  11.106  1.00  0.00     0.200 A 
ATOM     74  F   UNL     1       6.382  -2.417  12.750  1.00  0.00    -0.200 F 
ATOM     75  F   UNL     1       5.486  -4.520  11.262  1.00  0.00    -0.200 F 
ENDBRANCH  42  65
ENDBRANCH  16  17
ENDBRANCH   9  11
ENDBRANCH   8   9
ENDBRANCH   7   8
ENDBRANCH   6   7
ENDBRANCH   5   6
ENDBRANCH   4   5
ENDBRANCH   3   4
ENDBRANCH   2   3
ENDBRANCH   1   2
BRANCH   1  76
ATOM     76  C   UNL     1       5.248   1.294  -3.367  1.00  0.00     0.188 C 
BRANCH  76  77
ATOM     77  O   UNL     1       4.876   2.661  -3.262  1.00  0.00    -0.376 OA
BRANCH  77  78
ATOM     78  C   UNL     1       3.703   3.148  -3.893  1.00  0.00     0.202 C 
BRANCH  78  79
ATOM     79  C   UNL     1       3.441   2.885  -5.383  1.00  0.00     0.261 C 
BRANCH  79  80
ATOM     80  O   UNL     1       3.725   1.563  -5.858  1.00  0.00    -0.460 OA
BRANCH  80  81
ATOM     81  C   UNL     1       4.925   1.369  -6.458  1.00  0.00     0.338 C 
ATOM     82  O   UNL     1       5.816   2.186  -6.631  1.00  0.00    -0.246 OA
BRANCH  81  83
ATOM     83  C   UNL     1       5.049  -0.071  -6.771  1.00  0.00     0.061 A 
ATOM     84  C   UNL     1       4.072  -0.638  -7.579  1.00  0.00     0.019 A 
ATOM     85  C   UNL     1       6.108  -0.854  -6.239  1.00  0.00     0.038 A 
ATOM     86  C   UNL     1       4.192  -1.979  -7.866  1.00  0.00    -0.043 A 
ATOM     87  C   UNL     1       6.184  -2.242  -6.487  1.00  0.00     0.092 A 
ATOM     88  C   UNL     1       5.195  -2.792  -7.291  1.00  0.00    -0.024 A 
ATOM     89  C   UNL     1       3.342  -2.758  -8.825  1.00  0.00     0.036 C 
ATOM     90  C   UNL     1       4.934  -4.198  -7.730  1.00  0.00     0.037 C 
ATOM     91  C   UNL     1       4.298  -3.918  -9.097  1.00  0.00     0.010 C 
BRANCH  87  92
ATOM     92  S   UNL     1       7.358  -3.230  -5.572  1.00  0.00     0.262 S 
ATOM     93  O   UNL     1       8.065  -2.330  -4.679  1.00  0.00    -0.201 OA
ATOM     94  O   UNL     1       6.626  -4.344  -5.008  1.00  0.00    -0.201 OA
BRANCH  92  95
ATOM     95  N   UNL     1       8.585  -3.935  -6.539  1.00  0.00    -0.277 N 
ATOM     96  H   UNL     1       9.472  -4.091  -6.143  1.00  0.00     0.180 HD
BRANCH  95  97
ATOM     97  C   UNL     1       8.360  -4.306  -7.909  1.00  0.00     0.075 A 
ATOM     98  C   UNL     1       8.057  -5.648  -8.204  1.00  0.00     0.042 A 
ATOM     99  C   UNL     1       8.313  -3.352  -8.935  1.00  0.00     0.089 A 
ATOM    100  C   UNL     1       7.608  -6.024  -9.487  1.00  0.00     0.058 A 
ATOM    101  C   UNL     1       7.883  -3.721 -10.219  1.00  0.00     0.031 A 
ATOM    102  C   UNL     1       7.538  -5.048 -10.492  1.00  0.00     0.015 A 
BRANCH  99 103
ATOM    103  N   UNL     1       8.655  -2.000  -8.697  1.00  0.00    -0.239 N 
ATOM    104  C   UNL     1       9.586  -1.507  -7.810  1.00  0.00     0.115 A 
ATOM    105  N   UNL     1       7.955  -0.999  -9.286  1.00  0.00    -0.177 NA
ATOM    106  C   UNL     1       9.342  -0.162  -7.684  1.00  0.00     0.042 A 
ATOM    107  C   UNL     1       8.304   0.090  -8.594  1.00  0.00     0.135 A 
ENDBRANCH  99 103
BRANCH 100 108
ATOM    108  C   UNL     1       7.125  -7.435  -9.747  1.00  0.00     0.416 C 
ATOM    109  F   UNL     1       8.142  -8.333  -9.825  1.00  0.00    -0.166 F 
ATOM    110  F   UNL     1       6.299  -7.884  -8.761  1.00  0.00    -0.166 F 
ATOM    111  F   UNL     1       6.417  -7.560 -10.903  1.00  0.00    -0.166 F 
ENDBRANCH 100 108
ENDBRANCH  95  97
ENDBRANCH  92  95
ENDBRANCH  87  92
ENDBRANCH  81  83
ENDBRANCH  80  81
ENDBRANCH  79  80
ENDBRANCH  78  79
ENDBRANCH  77  78
ENDBRANCH  76  77
ENDBRANCH   1  76
TORSDOF 25
