REMARK SMILES Cc1nc(NC(=O)[C@H]2[C@@H]3CC[C@@H](C3)[C@@H]2C(=O)OCCOCCOCCOCCOC(=O)c2ccc(-c3c4nc(c(-c5c(F)c(F)c(F)c(F)c5F)c5ccc([nH]5)c(-c5c(F)c(F)c(F)c(F)c5F)c5nc(c(-c6c(F)c(F)c(F)c(F)c6F)c6ccc3[nH]6)C=C5)C=C4)cc2)sc1-c1ccccc1
REMARK SMILES IDX 22 1 21 2 20 3 19 4 18 5 17 6 15 7 16 8 14 9 8 10 9 11 10 12
REMARK SMILES IDX 13 13 12 14 11 15 6 16 5 17 7 19 4 20 1 21 2 22 3 23 96 24
REMARK SMILES IDX 95 25 97 26 98 27 102 28 99 29 101 30 100 31 23 32 24 33
REMARK SMILES IDX 25 34 26 35 27 36 28 37 29 38 30 39 31 40 32 41 33 42 94 43
REMARK SMILES IDX 34 44 93 45 35 46 36 47 37 48 87 49 38 50 92 51 86 52 88 53
REMARK SMILES IDX 39 54 91 55 85 56 84 57 40 59 72 60 52 61 71 62 53 63 56 64
REMARK SMILES IDX 70 65 89 66 54 67 55 68 69 70 90 71 57 72 41 73 42 74 50 75
REMARK SMILES IDX 43 76 44 77 48 78 51 79 45 80 46 81 49 82 47 83 73 84 74 85
REMARK SMILES IDX 82 86 75 87 76 88 80 89 83 90 77 91 78 92 81 93 79 94 58 95
REMARK SMILES IDX 59 96 67 97 60 98 61 99 65 100 68 101 62 102 63 103 66 104
REMARK SMILES IDX 64 105
REMARK H PARENT 5 18 88 58 56 69
REMARK Flexibility Score: inf
ROOT
ATOM      1  C   UNL     1      -0.012   1.059   3.425  1.00  0.00     0.188 C 
ENDROOT
BRANCH   1   2
ATOM      2  C   UNL     1      -1.056   2.174   3.524  1.00  0.00     0.188 C 
BRANCH   2   3
ATOM      3  O   UNL     1      -2.139   1.913   4.417  1.00  0.00    -0.376 OA
BRANCH   3   4
ATOM      4  C   UNL     1      -3.244   1.152   3.927  1.00  0.00     0.202 C 
BRANCH   4   5
ATOM      5  C   UNL     1      -4.228   1.902   3.021  1.00  0.00     0.261 C 
BRANCH   5   6
ATOM      6  O   UNL     1      -3.723   1.964   1.681  1.00  0.00    -0.463 OA
BRANCH   6   7
ATOM      7  C   UNL     1      -3.285   3.173   1.234  1.00  0.00     0.310 C 
ATOM      8  O   UNL     1      -3.436   4.245   1.815  1.00  0.00    -0.252 OA
BRANCH   7   9
ATOM      9  C   UNL     1      -2.478   2.956  -0.026  1.00  0.00     0.115 C 
ATOM     10  C   UNL     1      -1.234   3.833  -0.162  1.00  0.00     0.096 C 
ATOM     11  C   UNL     1      -1.553   4.661  -1.430  1.00  0.00     0.003 C 
ATOM     12  C   UNL     1      -2.791   5.554  -1.172  1.00  0.00     0.005 C 
ATOM     13  C   UNL     1      -2.132   3.583  -2.340  1.00  0.00     0.009 C 
ATOM     14  C   UNL     1      -3.243   3.212  -1.345  1.00  0.00     0.004 C 
ATOM     15  C   UNL     1      -3.966   4.564  -1.267  1.00  0.00     0.005 C 
BRANCH  10  16
ATOM     16  C   UNL     1       0.158   3.191  -0.299  1.00  0.00     0.230 C 
ATOM     17  N   UNL     1       0.502   1.934  -0.665  1.00  0.00    -0.302 N 
ATOM     18  H   UNL     1       1.476   1.816  -0.757  1.00  0.00     0.172 HD
ATOM     19  O   UNL     1       1.133   3.933  -0.074  1.00  0.00    -0.274 OA
BRANCH  17  20
ATOM     20  C   UNL     1      -0.198   0.793  -0.935  1.00  0.00     0.190 A 
ATOM     21  C   UNL     1      -3.168  -1.203  -1.063  1.00  0.00     0.068 C 
ATOM     22  C   UNL     1      -1.747  -0.799  -0.970  1.00  0.00     0.058 A 
ATOM     23  N   UNL     1      -1.462   0.557  -1.147  1.00  0.00    -0.225 NA
ATOM     24  C   UNL     1      -0.643  -1.593  -0.730  1.00  0.00     0.059 A 
ATOM     25  S   UNL     1       0.771  -0.598  -1.000  1.00  0.00    -0.096 S 
BRANCH  24  26
ATOM     26  C   UNL     1      -0.426  -3.042  -0.535  1.00  0.00    -0.006 A 
ATOM     27  C   UNL     1      -0.193  -3.812   1.113  1.00  0.00     0.009 A 
ATOM     28  C   UNL     1       0.400  -3.796  -1.957  1.00  0.00     0.009 A 
ATOM     29  C   UNL     1       0.958  -5.220   1.342  1.00  0.00     0.001 A 
ATOM     30  C   UNL     1       1.550  -5.160  -1.739  1.00  0.00     0.001 A 
ATOM     31  C   UNL     1       1.892  -5.841  -0.099  1.00  0.00     0.000 A 
ENDBRANCH  24  26
ENDBRANCH  17  20
ENDBRANCH  10  16
ENDBRANCH   7   9
ENDBRANCH   6   7
ENDBRANCH   5   6
ENDBRANCH   4   5
ENDBRANCH   3   4
ENDBRANCH   2   3
ENDBRANCH   1   2
BRANCH   1  32
ATOM     32  O   UNL     1      -0.426  -0.009   2.577  1.00  0.00    -0.377 OA
BRANCH  32  33
ATOM     33  C   UNL     1      -0.633  -1.232   3.282  1.00  0.00     0.188 C 
BRANCH  33  34
ATOM     34  C   UNL     1       0.664  -1.920   3.799  1.00  0.00     0.188 C 
BRANCH  34  35
ATOM     35  O   UNL     1       1.406  -2.805   2.939  1.00  0.00    -0.376 OA
BRANCH  35  36
ATOM     36  C   UNL     1       1.984  -2.245   1.750  1.00  0.00     0.202 C 
BRANCH  36  37
ATOM     37  C   UNL     1       2.388  -3.320   0.645  1.00  0.00     0.261 C 
BRANCH  37  38
ATOM     38  O   UNL     1       1.086  -4.088  -0.200  1.00  0.00    -0.460 OA
BRANCH  38  39
ATOM     39  C   UNL     1      -0.265  -5.353  -0.409  1.00  0.00     0.338 C 
ATOM     40  O   UNL     1      -0.144  -6.626  -0.368  1.00  0.00    -0.246 OA
BRANCH  39  41
ATOM     41  C   UNL     1      -1.821  -5.191  -0.543  1.00  0.00     0.060 A 
ATOM     42  C   UNL     1      -2.647  -5.026   0.602  1.00  0.00     0.016 A 
ATOM     43  C   UNL     1      -2.378  -5.809  -1.668  1.00  0.00     0.016 A 
ATOM     44  C   UNL     1      -3.944  -5.520   0.658  1.00  0.00     0.010 A 
ATOM     45  C   UNL     1      -3.665  -6.338  -1.603  1.00  0.00     0.010 A 
ATOM     46  C   UNL     1      -4.417  -6.247  -0.421  1.00  0.00    -0.014 A 
BRANCH  46  47
ATOM     47  C   UNL     1      -5.641  -7.054  -0.316  1.00  0.00     0.031 A 
ATOM     48  C   UNL     1      -5.506  -8.541  -0.241  1.00  0.00     0.074 A 
ATOM     49  C   UNL     1      -6.824  -6.447  -0.474  1.00  0.00     0.049 A 
ATOM     50  N   UNL     1      -6.336  -9.466  -0.638  1.00  0.00    -0.248 NA
ATOM     51  C   UNL     1      -4.248  -9.052   0.329  1.00  0.00     0.031 C 
ATOM     52  C   UNL     1      -7.036  -5.001  -0.464  1.00  0.00     0.029 A 
ATOM     53  N   UNL     1      -8.046  -6.978  -0.780  1.00  0.00    -0.354 N 
ATOM     54  C   UNL     1      -5.675 -10.670  -0.434  1.00  0.00     0.074 A 
ATOM     55  C   UNL     1      -4.389 -10.360   0.153  1.00  0.00     0.031 C 
ATOM     56  C   UNL     1      -8.294  -4.750  -0.854  1.00  0.00     0.029 A 
ATOM     57  C   UNL     1      -8.931  -6.017  -1.200  1.00  0.00     0.049 A 
ATOM     58  H   UNL     1      -8.265  -7.935  -0.708  1.00  0.00     0.167 HD
ATOM     59  C   UNL     1      -6.112 -11.911  -0.753  1.00  0.00     0.037 A 
ATOM     60  C   UNL     1     -10.082  -6.150  -1.881  1.00  0.00     0.037 A 
ATOM     61  C   UNL     1      -7.408 -12.158  -1.332  1.00  0.00     0.049 A 
ATOM     62  C   UNL     1     -10.542  -7.529  -2.254  1.00  0.00     0.074 A 
ATOM     63  C   UNL     1      -7.993 -13.364  -1.673  1.00  0.00     0.029 A 
ATOM     64  N   UNL     1      -8.322 -11.162  -1.656  1.00  0.00    -0.354 N 
ATOM     65  N   UNL     1      -9.924  -8.676  -2.096  1.00  0.00    -0.248 NA
ATOM     66  C   UNL     1     -11.856  -7.635  -2.895  1.00  0.00     0.031 C 
ATOM     67  C   UNL     1      -9.246 -13.093  -2.236  1.00  0.00     0.029 A 
ATOM     68  C   UNL     1      -9.463 -11.724  -2.200  1.00  0.00     0.049 A 
ATOM     69  H   UNL     1      -8.177 -10.198  -1.519  1.00  0.00     0.167 HD
ATOM     70  C   UNL     1     -10.788  -9.646  -2.581  1.00  0.00     0.074 A 
ATOM     71  C   UNL     1     -11.971  -8.948  -3.047  1.00  0.00     0.031 C 
ATOM     72  C   UNL     1     -10.627 -10.991  -2.630  1.00  0.00     0.037 A 
BRANCH  59  73
ATOM     73  C   UNL     1      -5.183 -13.070  -0.537  1.00  0.00     0.064 A 
ATOM     74  C   UNL     1      -4.839 -13.522   0.745  1.00  0.00     0.173 A 
ATOM     75  C   UNL     1      -4.660 -13.771  -1.637  1.00  0.00     0.173 A 
ATOM     76  F   UNL     1      -5.301 -12.886   1.831  1.00  0.00    -0.203 F 
ATOM     77  C   UNL     1      -3.992 -14.616   0.918  1.00  0.00     0.198 A 
ATOM     78  C   UNL     1      -3.838 -14.881  -1.461  1.00  0.00     0.198 A 
ATOM     79  F   UNL     1      -4.958 -13.387  -2.888  1.00  0.00    -0.203 F 
ATOM     80  F   UNL     1      -3.648 -15.006   2.153  1.00  0.00    -0.200 F 
ATOM     81  C   UNL     1      -3.499 -15.300  -0.184  1.00  0.00     0.200 A 
ATOM     82  F   UNL     1      -3.376 -15.548  -2.528  1.00  0.00    -0.200 F 
ATOM     83  F   UNL     1      -2.696 -16.359  -0.015  1.00  0.00    -0.200 F 
ENDBRANCH  59  73
BRANCH  60  84
ATOM     84  C   UNL     1     -10.837  -4.934  -2.261  1.00  0.00     0.064 A 
ATOM     85  C   UNL     1     -12.006  -4.585  -1.575  1.00  0.00     0.173 A 
ATOM     86  C   UNL     1     -10.367  -4.055  -3.249  1.00  0.00     0.173 A 
ATOM     87  F   UNL     1     -12.492  -5.401  -0.629  1.00  0.00    -0.203 F 
ATOM     88  C   UNL     1     -12.680  -3.402  -1.863  1.00  0.00     0.198 A 
ATOM     89  C   UNL     1     -11.030  -2.860  -3.520  1.00  0.00     0.198 A 
ATOM     90  F   UNL     1      -9.240  -4.337  -3.920  1.00  0.00    -0.203 F 
ATOM     91  F   UNL     1     -13.805  -3.099  -1.201  1.00  0.00    -0.200 F 
ATOM     92  C   UNL     1     -12.187  -2.536  -2.828  1.00  0.00     0.200 A 
ATOM     93  F   UNL     1     -10.537  -2.015  -4.436  1.00  0.00    -0.200 F 
ATOM     94  F   UNL     1     -12.824  -1.386  -3.086  1.00  0.00    -0.200 F 
ENDBRANCH  60  84
BRANCH  72  95
ATOM     95  C   UNL     1     -11.784 -11.794  -3.139  1.00  0.00     0.064 A 
ATOM     96  C   UNL     1     -12.082 -11.873  -4.506  1.00  0.00     0.173 A 
ATOM     97  C   UNL     1     -12.566 -12.539  -2.244  1.00  0.00     0.173 A 
ATOM     98  F   UNL     1     -11.370 -11.163  -5.394  1.00  0.00    -0.203 F 
ATOM     99  C   UNL     1     -13.135 -12.661  -4.958  1.00  0.00     0.198 A 
ATOM    100  C   UNL     1     -13.602 -13.344  -2.703  1.00  0.00     0.198 A 
ATOM    101  F   UNL     1     -12.312 -12.496  -0.927  1.00  0.00    -0.203 F 
ATOM    102  F   UNL     1     -13.428 -12.698  -6.265  1.00  0.00    -0.200 F 
ATOM    103  C   UNL     1     -13.889 -13.402  -4.058  1.00  0.00     0.200 A 
ATOM    104  F   UNL     1     -14.322 -14.067  -1.833  1.00  0.00    -0.200 F 
ATOM    105  F   UNL     1     -14.896 -14.168  -4.498  1.00  0.00    -0.200 F 
ENDBRANCH  72  95
ENDBRANCH  46  47
ENDBRANCH  39  41
ENDBRANCH  38  39
ENDBRANCH  37  38
ENDBRANCH  36  37
ENDBRANCH  35  36
ENDBRANCH  34  35
ENDBRANCH  33  34
ENDBRANCH  32  33
ENDBRANCH   1  32
TORSDOF 23
