REMARK SMILES CC1(C)S[C@H]2[C@@H](NC(=O)[C@H](NN3CCNC3=O)c3ccccc3)C(=O)N2[C@H]1C(=O)OCCOCCOCCOCCOC(=O)c1ccc(-c2c3nc(c(-c4c(F)c(F)c(F)c(F)c4F)c4ccc([nH]4)c(-c4c(F)c(F)c(F)c(F)c4F)c4nc(c(-c5c(F)c(F)c(F)c(F)c5F)c5ccc2[nH]5)C=C4)C=C3)cc1
REMARK SMILES IDX 35 1 34 2 33 3 32 4 31 5 30 6 28 7 29 8 27 9 1 10 2 11 3 12
REMARK SMILES IDX 4 13 5 14 26 15 6 16 24 17 25 18 7 19 8 20 9 22 10 23 18 24
REMARK SMILES IDX 19 25 23 26 20 27 22 28 21 29 11 30 12 32 13 33 16 34 14 35
REMARK SMILES IDX 15 36 17 37 36 39 37 40 38 41 39 42 40 43 41 44 42 45 43 46
REMARK SMILES IDX 44 47 45 48 46 49 107 50 47 51 106 52 48 53 49 54 50 55
REMARK SMILES IDX 100 56 51 57 105 58 99 59 101 60 52 61 104 62 98 63 97 64
REMARK SMILES IDX 53 66 85 67 65 68 84 69 66 70 69 71 83 72 102 73 67 74 68 75
REMARK SMILES IDX 82 77 103 78 70 79 54 80 55 81 63 82 56 83 57 84 61 85 64 86
REMARK SMILES IDX 58 87 59 88 62 89 60 90 86 91 87 92 95 93 88 94 89 95 93 96
REMARK SMILES IDX 96 97 90 98 91 99 94 100 92 101 71 102 72 103 80 104 73 105
REMARK SMILES IDX 74 106 78 107 81 108 75 109 76 110 79 111 77 112
REMARK H PARENT 7 21 11 31 15 38 101 65 69 76
REMARK Flexibility Score: inf
ROOT
ATOM      1  C   UNL     1      -5.148  -9.377   1.344  1.00  0.00     0.188 C 
ENDROOT
BRANCH   1   2
ATOM      2  C   UNL     1      -6.619  -9.285   1.713  1.00  0.00     0.188 C 
BRANCH   2   3
ATOM      3  O   UNL     1      -7.603  -9.731   0.813  1.00  0.00    -0.376 OA
BRANCH   3   4
ATOM      4  C   UNL     1      -7.752  -9.231  -0.505  1.00  0.00     0.202 C 
BRANCH   4   5
ATOM      5  C   UNL     1      -7.263  -7.871  -1.045  1.00  0.00     0.261 C 
BRANCH   5   6
ATOM      6  O   UNL     1      -5.904  -7.493  -0.783  1.00  0.00    -0.462 OA
BRANCH   6   7
ATOM      7  C   UNL     1      -5.739  -6.646   0.257  1.00  0.00     0.330 C 
ATOM      8  O   UNL     1      -6.674  -6.236   0.949  1.00  0.00    -0.250 OA
BRANCH   7   9
ATOM      9  C   UNL     1      -4.299  -6.187   0.543  1.00  0.00     0.212 C 
ATOM     10  C   UNL     1      -2.322  -7.701   1.462  1.00  0.00     0.026 C 
ATOM     11  C   UNL     1      -2.898  -6.930   0.226  1.00  0.00     0.044 C 
ATOM     12  C   UNL     1      -2.742  -7.838  -1.016  1.00  0.00     0.026 C 
ATOM     13  S   UNL     1      -1.510  -5.719   0.023  1.00  0.00    -0.125 SA
ATOM     14  C   UNL     1      -2.556  -4.088  -0.107  1.00  0.00     0.176 C 
ATOM     15  N   UNL     1      -4.291  -4.724   0.273  1.00  0.00    -0.311 N 
ATOM     16  C   UNL     1      -3.588  -2.938  -1.889  1.00  0.00     0.205 C 
ATOM     17  C   UNL     1      -5.185  -3.952  -0.949  1.00  0.00     0.250 C 
ATOM     18  O   UNL     1      -6.379  -4.139  -1.080  1.00  0.00    -0.272 OA
BRANCH  16  19
ATOM     19  N   UNL     1      -3.639  -3.330  -3.548  1.00  0.00    -0.340 N 
ATOM     20  C   UNL     1      -2.525  -3.180  -4.401  1.00  0.00     0.244 C 
ATOM     21  H   UNL     1      -4.480  -3.674  -3.926  1.00  0.00     0.164 HD
ATOM     22  O   UNL     1      -2.532  -2.274  -5.233  1.00  0.00    -0.273 OA
BRANCH  20  23
ATOM     23  C   UNL     1      -1.458  -4.310  -4.351  1.00  0.00     0.194 C 
BRANCH  23  24
ATOM     24  C   UNL     1       0.001  -4.130  -4.754  1.00  0.00    -0.020 A 
ATOM     25  C   UNL     1       0.746  -5.344  -4.787  1.00  0.00     0.006 A 
ATOM     26  C   UNL     1       0.682  -2.929  -4.549  1.00  0.00     0.006 A 
ATOM     27  C   UNL     1       2.088  -5.367  -4.423  1.00  0.00     0.000 A 
ATOM     28  C   UNL     1       2.043  -2.959  -4.227  1.00  0.00     0.000 A 
ATOM     29  C   UNL     1       2.729  -4.173  -4.122  1.00  0.00     0.000 A 
ENDBRANCH  23  24
BRANCH  23  30
ATOM     30  N   UNL     1      -1.259  -4.800  -2.984  1.00  0.00    -0.213 NA
ATOM     31  H   UNL     1      -0.258  -4.909  -2.820  1.00  0.00     0.149 HD
BRANCH  30  32
ATOM     32  N   UNL     1      -1.766  -3.960  -2.037  1.00  0.00    -0.257 N 
ATOM     33  C   UNL     1      -1.201  -2.605  -1.522  1.00  0.00     0.163 C 
ATOM     34  C   UNL     1      -3.337  -4.530  -1.528  1.00  0.00     0.331 C 
ATOM     35  C   UNL     1      -2.216  -1.889  -0.379  1.00  0.00     0.141 C 
ATOM     36  N   UNL     1      -3.656  -2.893  -0.272  1.00  0.00    -0.335 N 
ATOM     37  O   UNL     1      -3.919  -5.503  -2.008  1.00  0.00    -0.247 OA
ATOM     38  H   UNL     1      -4.456  -2.717   0.274  1.00  0.00     0.165 HD
ENDBRANCH  30  32
ENDBRANCH  23  30
ENDBRANCH  20  23
ENDBRANCH  16  19
ENDBRANCH   7   9
ENDBRANCH   6   7
ENDBRANCH   5   6
ENDBRANCH   4   5
ENDBRANCH   3   4
ENDBRANCH   2   3
ENDBRANCH   1   2
BRANCH   1  39
ATOM     39  O   UNL     1      -4.794  -9.603   0.004  1.00  0.00    -0.377 OA
BRANCH  39  40
ATOM     40  C   UNL     1      -4.930 -10.882  -0.581  1.00  0.00     0.188 C 
BRANCH  40  41
ATOM     41  C   UNL     1      -5.404 -12.047   0.291  1.00  0.00     0.188 C 
BRANCH  41  42
ATOM     42  O   UNL     1      -4.986 -12.016   1.636  1.00  0.00    -0.376 OA
BRANCH  42  43
ATOM     43  C   UNL     1      -3.683 -12.362   2.064  1.00  0.00     0.202 C 
BRANCH  43  44
ATOM     44  C   UNL     1      -2.399 -12.308   1.218  1.00  0.00     0.261 C 
BRANCH  44  45
ATOM     45  O   UNL     1      -2.487 -12.415  -0.200  1.00  0.00    -0.460 OA
BRANCH  45  46
ATOM     46  C   UNL     1      -2.825 -13.612  -0.722  1.00  0.00     0.338 C 
ATOM     47  O   UNL     1      -3.091 -14.632  -0.120  1.00  0.00    -0.246 OA
BRANCH  46  48
ATOM     48  C   UNL     1      -2.954 -13.423  -2.183  1.00  0.00     0.060 A 
ATOM     49  C   UNL     1      -4.218 -13.452  -2.789  1.00  0.00     0.016 A 
ATOM     50  C   UNL     1      -1.807 -13.206  -2.947  1.00  0.00     0.016 A 
ATOM     51  C   UNL     1      -4.338 -13.282  -4.168  1.00  0.00     0.010 A 
ATOM     52  C   UNL     1      -1.926 -13.068  -4.330  1.00  0.00     0.010 A 
ATOM     53  C   UNL     1      -3.188 -13.128  -4.948  1.00  0.00    -0.014 A 
BRANCH  53  54
ATOM     54  C   UNL     1      -3.265 -13.173  -6.425  1.00  0.00     0.031 A 
ATOM     55  C   UNL     1      -2.872 -14.441  -7.123  1.00  0.00     0.074 A 
ATOM     56  C   UNL     1      -3.632 -12.089  -7.129  1.00  0.00     0.049 A 
ATOM     57  N   UNL     1      -2.693 -14.667  -8.399  1.00  0.00    -0.248 NA
ATOM     58  C   UNL     1      -2.636 -15.612  -6.263  1.00  0.00     0.031 C 
ATOM     59  C   UNL     1      -4.083 -10.823  -6.556  1.00  0.00     0.029 A 
ATOM     60  N   UNL     1      -3.651 -11.874  -8.485  1.00  0.00    -0.354 N 
ATOM     61  C   UNL     1      -2.300 -15.995  -8.492  1.00  0.00     0.074 A 
ATOM     62  C   UNL     1      -2.248 -16.520  -7.145  1.00  0.00     0.031 C 
ATOM     63  C   UNL     1      -4.302  -9.949  -7.553  1.00  0.00     0.029 A 
ATOM     64  C   UNL     1      -3.956 -10.579  -8.826  1.00  0.00     0.049 A 
ATOM     65  H   UNL     1      -3.464 -12.578  -9.147  1.00  0.00     0.167 HD
ATOM     66  C   UNL     1      -2.005 -16.705  -9.606  1.00  0.00     0.037 A 
ATOM     67  C   UNL     1      -3.910  -9.964 -10.024  1.00  0.00     0.037 A 
ATOM     68  C   UNL     1      -2.058 -16.165 -10.939  1.00  0.00     0.049 A 
ATOM     69  C   UNL     1      -3.493 -10.755 -11.240  1.00  0.00     0.074 A 
ATOM     70  C   UNL     1      -1.813 -16.809 -12.138  1.00  0.00     0.029 A 
ATOM     71  N   UNL     1      -2.356 -14.845 -11.247  1.00  0.00    -0.354 N 
ATOM     72  N   UNL     1      -3.158 -12.020 -11.333  1.00  0.00    -0.248 NA
ATOM     73  C   UNL     1      -3.445 -10.033 -12.520  1.00  0.00     0.031 C 
ATOM     74  C   UNL     1      -1.875 -15.861 -13.162  1.00  0.00     0.029 A 
ATOM     75  C   UNL     1      -2.251 -14.645 -12.614  1.00  0.00     0.049 A 
ATOM     76  H   UNL     1      -2.606 -14.154 -10.592  1.00  0.00     0.167 HD
ATOM     77  C   UNL     1      -2.891 -12.250 -12.678  1.00  0.00     0.074 A 
ATOM     78  C   UNL     1      -3.122 -10.999 -13.367  1.00  0.00     0.031 C 
ATOM     79  C   UNL     1      -2.489 -13.393 -13.287  1.00  0.00     0.037 A 
BRANCH  66  80
ATOM     80  C   UNL     1      -1.551 -18.126  -9.434  1.00  0.00     0.064 A 
ATOM     81  C   UNL     1      -2.414 -19.136  -8.985  1.00  0.00     0.173 A 
ATOM     82  C   UNL     1      -0.239 -18.490  -9.777  1.00  0.00     0.173 A 
ATOM     83  F   UNL     1      -3.675 -18.843  -8.633  1.00  0.00    -0.203 F 
ATOM     84  C   UNL     1      -1.972 -20.451  -8.859  1.00  0.00     0.198 A 
ATOM     85  C   UNL     1       0.187 -19.811  -9.688  1.00  0.00     0.198 A 
ATOM     86  F   UNL     1       0.627 -17.564 -10.217  1.00  0.00    -0.203 F 
ATOM     87  F   UNL     1      -2.799 -21.391  -8.379  1.00  0.00    -0.200 F 
ATOM     88  C   UNL     1      -0.677 -20.790  -9.221  1.00  0.00     0.200 A 
ATOM     89  F   UNL     1       1.433 -20.138 -10.057  1.00  0.00    -0.200 F 
ATOM     90  F   UNL     1      -0.259 -22.058  -9.115  1.00  0.00    -0.200 F 
ENDBRANCH  66  80
BRANCH  67  91
ATOM     91  C   UNL     1      -4.223  -8.513 -10.132  1.00  0.00     0.064 A 
ATOM     92  C   UNL     1      -5.322  -8.061 -10.876  1.00  0.00     0.173 A 
ATOM     93  C   UNL     1      -3.409  -7.544  -9.524  1.00  0.00     0.173 A 
ATOM     94  F   UNL     1      -6.118  -8.944 -11.497  1.00  0.00    -0.203 F 
ATOM     95  C   UNL     1      -5.575  -6.700 -11.035  1.00  0.00     0.198 A 
ATOM     96  C   UNL     1      -3.688  -6.185  -9.648  1.00  0.00     0.198 A 
ATOM     97  F   UNL     1      -2.343  -7.918  -8.800  1.00  0.00    -0.203 F 
ATOM     98  F   UNL     1      -6.592  -6.298 -11.809  1.00  0.00    -0.200 F 
ATOM     99  C   UNL     1      -4.762  -5.763 -10.416  1.00  0.00     0.200 A 
ATOM    100  F   UNL     1      -2.910  -5.286  -9.030  1.00  0.00    -0.200 F 
ATOM    101  F   UNL     1      -5.007  -4.455 -10.569  1.00  0.00    -0.200 F 
ENDBRANCH  67  91
BRANCH  79 102
ATOM    102  C   UNL     1      -2.308 -13.363 -14.780  1.00  0.00     0.064 A 
ATOM    103  C   UNL     1      -1.264 -12.647 -15.385  1.00  0.00     0.173 A 
ATOM    104  C   UNL     1      -3.153 -14.116 -15.612  1.00  0.00     0.173 A 
ATOM    105  F   UNL     1      -0.434 -11.903 -14.639  1.00  0.00    -0.203 F 
ATOM    106  C   UNL     1      -1.091 -12.664 -16.767  1.00  0.00     0.198 A 
ATOM    107  C   UNL     1      -2.951 -14.164 -16.988  1.00  0.00     0.198 A 
ATOM    108  F   UNL     1      -4.161 -14.829 -15.086  1.00  0.00    -0.203 F 
ATOM    109  F   UNL     1      -0.119 -11.931 -17.327  1.00  0.00    -0.200 F 
ATOM    110  C   UNL     1      -1.927 -13.431 -17.566  1.00  0.00     0.200 A 
ATOM    111  F   UNL     1      -3.745 -14.925 -17.753  1.00  0.00    -0.200 F 
ATOM    112  F   UNL     1      -1.746 -13.461 -18.893  1.00  0.00    -0.200 F 
ENDBRANCH  79 102
ENDBRANCH  53  54
ENDBRANCH  46  48
ENDBRANCH  45  46
ENDBRANCH  44  45
ENDBRANCH  43  44
ENDBRANCH  42  43
ENDBRANCH  41  42
ENDBRANCH  40  41
ENDBRANCH  39  40
ENDBRANCH   1  39
TORSDOF 25
