REMARK SMILES Cn1c(C[NH+]2CCCC2)nnc1[C@@H]1CCCN(c2cccc(C(=O)OCCOCCOCCOCCOC(=O)c3ccc(-c4c5nc(c(-c6c(F)c(F)c(F)c(F)c6F)c6ccc([nH]6)c(-c6c(F)c(F)c(F)c(F)c6F)c6nc(c(-c7c(F)c(F)c(F)c(F)c7F)c7ccc4[nH]7)C=C6)C=C5)cc3)n2)C1
REMARK SMILES IDX 30 1 29 2 28 3 27 4 26 5 25 6 23 7 24 8 22 9 18 10 19 11
REMARK SMILES IDX 103 12 20 13 21 14 17 15 13 16 14 17 104 18 15 19 16 20
REMARK SMILES IDX 12 21 1 22 2 23 3 24 10 25 11 26 4 27 5 28 6 29 9 30 7 32
REMARK SMILES IDX 8 33 31 34 32 35 33 36 34 37 35 38 36 39 37 40 38 41 39 42
REMARK SMILES IDX 40 43 41 44 102 45 42 46 101 47 43 48 44 49 45 50 95 51
REMARK SMILES IDX 46 52 100 53 94 54 96 55 47 56 99 57 93 58 92 59 48 61 80 62
REMARK SMILES IDX 60 63 79 64 61 65 64 66 78 67 97 68 62 69 63 70 77 72 98 73
REMARK SMILES IDX 65 74 49 75 50 76 58 77 51 78 52 79 56 80 59 81 53 82 54 83
REMARK SMILES IDX 57 84 55 85 81 86 82 87 90 88 83 89 84 90 88 91 91 92 85 93
REMARK SMILES IDX 86 94 89 95 87 96 66 97 67 98 75 99 68 100 69 101 73 102
REMARK SMILES IDX 76 103 70 104 71 105 74 106 72 107
REMARK H PARENT 5 31 96 60 64 71
REMARK Flexibility Score: inf
ROOT
ATOM      1  C   UNL     1      -3.166   2.434   0.576  1.00  0.00     0.188 C 
ENDROOT
BRANCH   1   2
ATOM      2  C   UNL     1      -3.988   1.181   0.911  1.00  0.00     0.188 C 
BRANCH   2   3
ATOM      3  O   UNL     1      -5.109   1.291   1.776  1.00  0.00    -0.376 OA
BRANCH   3   4
ATOM      4  C   UNL     1      -5.025   2.174   2.878  1.00  0.00     0.202 C 
BRANCH   4   5
ATOM      5  C   UNL     1      -3.868   2.024   3.886  1.00  0.00     0.261 C 
BRANCH   5   6
ATOM      6  O   UNL     1      -2.516   1.954   3.374  1.00  0.00    -0.459 OA
BRANCH   6   7
ATOM      7  C   UNL     1      -1.817   0.787   3.562  1.00  0.00     0.357 C 
ATOM      8  O   UNL     1      -2.291  -0.235   4.034  1.00  0.00    -0.244 OA
BRANCH   7   9
ATOM      9  C   UNL     1      -0.358   0.946   3.169  1.00  0.00     0.150 A 
ATOM     10  C   UNL     1       1.676  -0.108   2.590  1.00  0.00     0.129 A 
ATOM     11  C   UNL     1       2.303   1.132   2.528  1.00  0.00     0.047 A 
ATOM     12  N   UNL     1       0.366  -0.196   2.942  1.00  0.00    -0.224 NA
ATOM     13  C   UNL     1       1.585   2.290   2.836  1.00  0.00     0.006 A 
ATOM     14  C   UNL     1       0.231   2.202   3.147  1.00  0.00     0.036 A 
BRANCH  10  15
ATOM     15  N   UNL     1       2.438  -1.267   2.359  1.00  0.00    -0.356 N 
ATOM     16  C   UNL     1       1.310  -2.114   0.315  1.00  0.00     0.077 C 
ATOM     17  C   UNL     1       0.501  -3.050   1.268  1.00  0.00     0.015 C 
ATOM     18  C   UNL     1       2.641  -1.804   1.007  1.00  0.00     0.129 C 
ATOM     19  C   UNL     1       0.906  -3.135   2.776  1.00  0.00     0.022 C 
ATOM     20  C   UNL     1       2.128  -2.352   3.264  1.00  0.00     0.118 C 
BRANCH  16  21
ATOM     21  C   UNL     1       0.600  -0.856  -0.147  1.00  0.00     0.137 A 
ATOM     22  C   UNL     1       2.564   0.460  -1.109  1.00  0.00     0.153 C 
ATOM     23  N   UNL     1       1.217   0.274  -0.649  1.00  0.00    -0.313 N 
ATOM     24  C   UNL     1       0.291   1.286  -0.576  1.00  0.00     0.187 A 
ATOM     25  N   UNL     1      -0.880   0.738  -0.320  1.00  0.00    -0.129 NA
ATOM     26  N   UNL     1      -0.694  -0.604  -0.094  1.00  0.00    -0.135 NA
BRANCH  24  27
ATOM     27  C   UNL     1       0.627   2.748  -0.668  1.00  0.00     0.341 C 
BRANCH  27  28
ATOM     28  N   UNL     1       0.496   3.450  -1.961  1.00  0.00    -0.329 N 
ATOM     29  C   UNL     1      -0.891   3.532  -2.397  1.00  0.00     0.262 C 
ATOM     30  C   UNL     1       1.169   2.875  -3.121  1.00  0.00     0.262 C 
ATOM     31  H   UNL     1       0.937   4.338  -1.723  1.00  0.00     0.348 HD
ATOM     32  C   UNL     1      -1.148   2.254  -3.191  1.00  0.00     0.067 C 
ATOM     33  C   UNL     1       0.224   1.820  -3.683  1.00  0.00     0.067 C 
ENDBRANCH  27  28
ENDBRANCH  24  27
ENDBRANCH  16  21
ENDBRANCH  10  15
ENDBRANCH   7   9
ENDBRANCH   6   7
ENDBRANCH   5   6
ENDBRANCH   4   5
ENDBRANCH   3   4
ENDBRANCH   2   3
ENDBRANCH   1   2
BRANCH   1  34
ATOM     34  O   UNL     1      -3.707   3.678   0.982  1.00  0.00    -0.377 OA
BRANCH  34  35
ATOM     35  C   UNL     1      -4.263   4.530  -0.006  1.00  0.00     0.188 C 
BRANCH  35  36
ATOM     36  C   UNL     1      -5.497   4.003  -0.757  1.00  0.00     0.188 C 
BRANCH  36  37
ATOM     37  O   UNL     1      -5.345   2.992  -1.752  1.00  0.00    -0.376 OA
BRANCH  37  38
ATOM     38  C   UNL     1      -4.237   3.059  -2.634  1.00  0.00     0.202 C 
BRANCH  38  39
ATOM     39  C   UNL     1      -4.270   4.070  -3.771  1.00  0.00     0.261 C 
BRANCH  39  40
ATOM     40  O   UNL     1      -4.075   5.379  -3.219  1.00  0.00    -0.460 OA
BRANCH  40  41
ATOM     41  C   UNL     1      -5.043   6.251  -3.538  1.00  0.00     0.338 C 
ATOM     42  O   UNL     1      -5.927   6.122  -4.378  1.00  0.00    -0.246 OA
BRANCH  41  43
ATOM     43  C   UNL     1      -5.051   7.318  -2.541  1.00  0.00     0.060 A 
ATOM     44  C   UNL     1      -6.240   7.468  -1.823  1.00  0.00     0.016 A 
ATOM     45  C   UNL     1      -3.972   8.189  -2.359  1.00  0.00     0.016 A 
ATOM     46  C   UNL     1      -6.394   8.546  -0.976  1.00  0.00     0.010 A 
ATOM     47  C   UNL     1      -4.138   9.293  -1.521  1.00  0.00     0.010 A 
ATOM     48  C   UNL     1      -5.372   9.498  -0.882  1.00  0.00    -0.014 A 
BRANCH  48  49
ATOM     49  C   UNL     1      -5.750  10.806  -0.315  1.00  0.00     0.031 A 
ATOM     50  C   UNL     1      -6.185  11.886  -1.265  1.00  0.00     0.074 A 
ATOM     51  C   UNL     1      -5.875  10.947   1.014  1.00  0.00     0.049 A 
ATOM     52  N   UNL     1      -6.670  13.073  -1.008  1.00  0.00    -0.248 NA
ATOM     53  C   UNL     1      -6.077  11.581  -2.703  1.00  0.00     0.031 C 
ATOM     54  C   UNL     1      -5.558   9.918   2.003  1.00  0.00     0.029 A 
ATOM     55  N   UNL     1      -6.334  12.002   1.754  1.00  0.00    -0.354 N 
ATOM     56  C   UNL     1      -6.932  13.646  -2.246  1.00  0.00     0.074 A 
ATOM     57  C   UNL     1      -6.519  12.700  -3.256  1.00  0.00     0.031 C 
ATOM     58  C   UNL     1      -5.834  10.395   3.228  1.00  0.00     0.029 A 
ATOM     59  C   UNL     1      -6.315  11.769   3.106  1.00  0.00     0.049 A 
ATOM     60  H   UNL     1      -6.647  12.847   1.356  1.00  0.00     0.167 HD
ATOM     61  C   UNL     1      -7.484  14.853  -2.510  1.00  0.00     0.037 A 
ATOM     62  C   UNL     1      -6.635  12.590   4.122  1.00  0.00     0.037 A 
ATOM     63  C   UNL     1      -7.888  15.783  -1.489  1.00  0.00     0.049 A 
ATOM     64  C   UNL     1      -7.157  13.965   3.797  1.00  0.00     0.074 A 
ATOM     65  C   UNL     1      -8.434  17.044  -1.636  1.00  0.00     0.029 A 
ATOM     66  N   UNL     1      -7.782  15.546  -0.125  1.00  0.00    -0.354 N 
ATOM     67  N   UNL     1      -7.395  14.508   2.626  1.00  0.00    -0.248 NA
ATOM     68  C   UNL     1      -7.465  14.839   4.936  1.00  0.00     0.031 C 
ATOM     69  C   UNL     1      -8.604  17.594  -0.361  1.00  0.00     0.029 A 
ATOM     70  C   UNL     1      -8.228  16.650   0.582  1.00  0.00     0.049 A 
ATOM     71  H   UNL     1      -7.439  14.716   0.280  1.00  0.00     0.167 HD
ATOM     72  C   UNL     1      -7.903  15.774   2.886  1.00  0.00     0.074 A 
ATOM     73  C   UNL     1      -7.966  15.904   4.328  1.00  0.00     0.031 C 
ATOM     74  C   UNL     1      -8.277  16.748   2.019  1.00  0.00     0.037 A 
BRANCH  61  75
ATOM     75  C   UNL     1      -7.650  15.248  -3.948  1.00  0.00     0.064 A 
ATOM     76  C   UNL     1      -8.601  14.638  -4.781  1.00  0.00     0.173 A 
ATOM     77  C   UNL     1      -6.871  16.281  -4.492  1.00  0.00     0.173 A 
ATOM     78  F   UNL     1      -9.356  13.630  -4.319  1.00  0.00    -0.203 F 
ATOM     79  C   UNL     1      -8.755  15.039  -6.107  1.00  0.00     0.198 A 
ATOM     80  C   UNL     1      -7.049  16.699  -5.807  1.00  0.00     0.198 A 
ATOM     81  F   UNL     1      -5.944  16.894  -3.741  1.00  0.00    -0.203 F 
ATOM     82  F   UNL     1      -9.641  14.415  -6.895  1.00  0.00    -0.200 F 
ATOM     83  C   UNL     1      -7.987  16.076  -6.615  1.00  0.00     0.200 A 
ATOM     84  F   UNL     1      -6.313  17.709  -6.293  1.00  0.00    -0.200 F 
ATOM     85  F   UNL     1      -8.147  16.470  -7.886  1.00  0.00    -0.200 F 
ENDBRANCH  61  75
BRANCH  62  86
ATOM     86  C   UNL     1      -6.433  12.153   5.529  1.00  0.00     0.064 A 
ATOM     87  C   UNL     1      -7.507  12.019   6.419  1.00  0.00     0.173 A 
ATOM     88  C   UNL     1      -5.144  11.899   6.024  1.00  0.00     0.173 A 
ATOM     89  F   UNL     1      -8.757  12.269   6.003  1.00  0.00    -0.203 F 
ATOM     90  C   UNL     1      -7.297  11.684   7.756  1.00  0.00     0.198 A 
ATOM     91  C   UNL     1      -4.938  11.527   7.350  1.00  0.00     0.198 A 
ATOM     92  F   UNL     1      -4.079  12.011   5.216  1.00  0.00    -0.203 F 
ATOM     93  F   UNL     1      -8.335  11.630   8.601  1.00  0.00    -0.200 F 
ATOM     94  C   UNL     1      -6.013  11.434   8.219  1.00  0.00     0.200 A 
ATOM     95  F   UNL     1      -3.698  11.271   7.787  1.00  0.00    -0.200 F 
ATOM     96  F   UNL     1      -5.812  11.117   9.505  1.00  0.00    -0.200 F 
ENDBRANCH  62  86
BRANCH  74  97
ATOM     97  C   UNL     1      -8.816  18.018   2.614  1.00  0.00     0.064 A 
ATOM     98  C   UNL     1      -7.997  18.901   3.334  1.00  0.00     0.173 A 
ATOM     99  C   UNL     1     -10.168  18.359   2.454  1.00  0.00     0.173 A 
ATOM    100  F   UNL     1      -6.699  18.615   3.524  1.00  0.00    -0.203 F 
ATOM    101  C   UNL     1      -8.521  20.052   3.913  1.00  0.00     0.198 A 
ATOM    102  C   UNL     1     -10.680  19.533   2.999  1.00  0.00     0.198 A 
ATOM    103  F   UNL     1     -10.992  17.558   1.763  1.00  0.00    -0.203 F 
ATOM    104  F   UNL     1      -7.736  20.841   4.659  1.00  0.00    -0.200 F 
ATOM    105  C   UNL     1      -9.860  20.370   3.740  1.00  0.00     0.200 A 
ATOM    106  F   UNL     1     -11.969  19.849   2.814  1.00  0.00    -0.200 F 
ATOM    107  F   UNL     1     -10.364  21.479   4.299  1.00  0.00    -0.200 F 
ENDBRANCH  74  97
ENDBRANCH  48  49
ENDBRANCH  41  43
ENDBRANCH  40  41
ENDBRANCH  39  40
ENDBRANCH  38  39
ENDBRANCH  37  38
ENDBRANCH  36  37
ENDBRANCH  35  36
ENDBRANCH  34  35
ENDBRANCH   1  34
TORSDOF 24
