REMARK SMILES C[C@@H](OCC(F)(F)F)C(=O)OCCOCCOCCOCCOC(=O)c1ccc(-c2c3nc(c(-c4c(F)c(F)c(F)c(F)c4F)c4ccc([nH]4)c(-c4c(F)c(F)c(F)c(F)c4F)c4nc(c(-c5c(F)c(F)c(F)c(F)c5F)c5ccc2[nH]5)C=C4)C=C3)cc1
REMARK SMILES IDX 16 1 15 2 14 3 13 4 12 5 11 6 9 7 10 8 2 9 1 10 3 11 4 12
REMARK SMILES IDX 5 13 6 14 7 15 8 16 17 17 18 18 19 19 20 20 21 21 22 22
REMARK SMILES IDX 23 23 24 24 25 25 26 26 27 27 88 28 28 29 87 30 29 31 30 32
REMARK SMILES IDX 31 33 81 34 32 35 86 36 80 37 82 38 33 39 85 40 79 41 78 42
REMARK SMILES IDX 34 44 66 45 46 46 65 47 47 48 50 49 64 50 83 51 48 52 49 53
REMARK SMILES IDX 63 55 84 56 51 57 35 58 36 59 44 60 37 61 38 62 42 63 45 64
REMARK SMILES IDX 39 65 40 66 43 67 41 68 67 69 68 70 76 71 69 72 70 73 74 74
REMARK SMILES IDX 77 75 71 76 72 77 75 78 73 79 52 80 53 81 61 82 54 83 55 84
REMARK SMILES IDX 59 85 62 86 56 87 57 88 60 89 58 90
REMARK H PARENT 82 43 50 54
REMARK Flexibility Score: inf
ROOT
ATOM      1  C   UNL     1      -1.287   0.752  -1.125  1.00  0.00     0.188 C 
ENDROOT
BRANCH   1   2
ATOM      2  C   UNL     1      -2.008  -0.210  -2.083  1.00  0.00     0.188 C 
BRANCH   2   3
ATOM      3  O   UNL     1      -3.362  -0.559  -1.856  1.00  0.00    -0.376 OA
BRANCH   3   4
ATOM      4  C   UNL     1      -3.766  -1.258  -0.685  1.00  0.00     0.202 C 
BRANCH   4   5
ATOM      5  C   UNL     1      -2.870  -2.250   0.072  1.00  0.00     0.261 C 
BRANCH   5   6
ATOM      6  O   UNL     1      -1.518  -1.826   0.288  1.00  0.00    -0.461 OA
BRANCH   6   7
ATOM      7  C   UNL     1      -0.550  -2.601  -0.259  1.00  0.00     0.335 C 
ATOM      8  O   UNL     1      -0.777  -3.627  -0.895  1.00  0.00    -0.249 OA
BRANCH   7   9
ATOM      9  C   UNL     1       0.868  -2.015  -0.117  1.00  0.00     0.225 C 
ATOM     10  C   UNL     1       1.086  -0.884   0.888  1.00  0.00     0.051 C 
BRANCH   9  11
ATOM     11  O   UNL     1       1.716  -3.129   0.192  1.00  0.00    -0.357 OA
BRANCH  11  12
ATOM     12  C   UNL     1       3.101  -2.989  -0.145  1.00  0.00     0.276 C 
BRANCH  12  13
ATOM     13  C   UNL     1       3.444  -2.721  -1.610  1.00  0.00     0.411 C 
ATOM     14  F   UNL     1       3.140  -1.450  -1.962  1.00  0.00    -0.168 F 
ATOM     15  F   UNL     1       4.772  -2.881  -1.817  1.00  0.00    -0.168 F 
ATOM     16  F   UNL     1       2.794  -3.552  -2.449  1.00  0.00    -0.168 F 
ENDBRANCH  12  13
ENDBRANCH  11  12
ENDBRANCH   9  11
ENDBRANCH   7   9
ENDBRANCH   6   7
ENDBRANCH   5   6
ENDBRANCH   4   5
ENDBRANCH   3   4
ENDBRANCH   2   3
ENDBRANCH   1   2
BRANCH   1  17
ATOM     17  O   UNL     1      -1.763   0.753   0.205  1.00  0.00    -0.377 OA
BRANCH  17  18
ATOM     18  C   UNL     1      -2.813   1.645   0.561  1.00  0.00     0.188 C 
BRANCH  18  19
ATOM     19  C   UNL     1      -3.713   2.273  -0.524  1.00  0.00     0.188 C 
BRANCH  19  20
ATOM     20  O   UNL     1      -3.016   2.744  -1.666  1.00  0.00    -0.376 OA
BRANCH  20  21
ATOM     21  C   UNL     1      -2.674   4.121  -1.731  1.00  0.00     0.202 C 
BRANCH  21  22
ATOM     22  C   UNL     1      -1.691   4.655  -0.676  1.00  0.00     0.261 C 
BRANCH  22  23
ATOM     23  O   UNL     1      -2.114   4.564   0.696  1.00  0.00    -0.460 OA
BRANCH  23  24
ATOM     24  C   UNL     1      -3.271   5.158   1.046  1.00  0.00     0.338 C 
ATOM     25  O   UNL     1      -3.995   5.843   0.340  1.00  0.00    -0.246 OA
BRANCH  24  26
ATOM     26  C   UNL     1      -3.637   4.682   2.396  1.00  0.00     0.060 A 
ATOM     27  C   UNL     1      -4.848   4.000   2.570  1.00  0.00     0.016 A 
ATOM     28  C   UNL     1      -2.796   4.918   3.486  1.00  0.00     0.016 A 
ATOM     29  C   UNL     1      -5.244   3.591   3.843  1.00  0.00     0.010 A 
ATOM     30  C   UNL     1      -3.203   4.525   4.764  1.00  0.00     0.010 A 
ATOM     31  C   UNL     1      -4.446   3.894   4.954  1.00  0.00    -0.014 A 
BRANCH  31  32
ATOM     32  C   UNL     1      -5.000   3.738   6.322  1.00  0.00     0.031 A 
ATOM     33  C   UNL     1      -5.553   4.956   7.011  1.00  0.00     0.074 A 
ATOM     34  C   UNL     1      -5.033   2.543   6.936  1.00  0.00     0.049 A 
ATOM     35  N   UNL     1      -6.033   5.085   8.222  1.00  0.00    -0.248 NA
ATOM     36  C   UNL     1      -5.561   6.201   6.225  1.00  0.00     0.031 C 
ATOM     37  C   UNL     1      -4.572   1.283   6.358  1.00  0.00     0.029 A 
ATOM     38  N   UNL     1      -5.469   2.200   8.192  1.00  0.00    -0.354 N 
ATOM     39  C   UNL     1      -6.387   6.422   8.345  1.00  0.00     0.074 A 
ATOM     40  C   UNL     1      -6.040   7.071   7.100  1.00  0.00     0.031 C 
ATOM     41  C   UNL     1      -4.735   0.304   7.265  1.00  0.00     0.029 A 
ATOM     42  C   UNL     1      -5.276   0.875   8.498  1.00  0.00     0.049 A 
ATOM     43  H   UNL     1      -5.881   2.842   8.814  1.00  0.00     0.167 HD
ATOM     44  C   UNL     1      -6.957   7.051   9.401  1.00  0.00     0.037 A 
ATOM     45  C   UNL     1      -5.486   0.210   9.652  1.00  0.00     0.037 A 
ATOM     46  C   UNL     1      -7.301   6.401  10.638  1.00  0.00     0.049 A 
ATOM     47  C   UNL     1      -6.051   0.949  10.840  1.00  0.00     0.074 A 
ATOM     48  C   UNL     1      -7.904   6.945  11.758  1.00  0.00     0.029 A 
ATOM     49  N   UNL     1      -7.062   5.065  10.921  1.00  0.00    -0.354 N 
ATOM     50  N   UNL     1      -6.408   2.207  10.943  1.00  0.00    -0.248 NA
ATOM     51  C   UNL     1      -6.247   0.172  12.073  1.00  0.00     0.031 C 
ATOM     52  C   UNL     1      -7.967   5.956  12.744  1.00  0.00     0.029 A 
ATOM     53  C   UNL     1      -7.474   4.775  12.213  1.00  0.00     0.049 A 
ATOM     54  H   UNL     1      -6.660   4.418  10.298  1.00  0.00     0.167 HD
ATOM     55  C   UNL     1      -6.898   2.363  12.235  1.00  0.00     0.074 A 
ATOM     56  C   UNL     1      -6.806   1.068  12.874  1.00  0.00     0.031 C 
ATOM     57  C   UNL     1      -7.383   3.478  12.836  1.00  0.00     0.037 A 
BRANCH  44  58
ATOM     58  C   UNL     1      -7.208   8.527   9.279  1.00  0.00     0.064 A 
ATOM     59  C   UNL     1      -8.186   9.046   8.418  1.00  0.00     0.173 A 
ATOM     60  C   UNL     1      -6.479   9.434  10.064  1.00  0.00     0.173 A 
ATOM     61  F   UNL     1      -8.901   8.225   7.634  1.00  0.00    -0.203 F 
ATOM     62  C   UNL     1      -8.406  10.419   8.328  1.00  0.00     0.198 A 
ATOM     63  C   UNL     1      -6.724  10.802   9.997  1.00  0.00     0.198 A 
ATOM     64  F   UNL     1      -5.532   8.991  10.906  1.00  0.00    -0.203 F 
ATOM     65  F   UNL     1      -9.310  10.896   7.460  1.00  0.00    -0.200 F 
ATOM     66  C   UNL     1      -7.682  11.294   9.123  1.00  0.00     0.200 A 
ATOM     67  F   UNL     1      -6.033  11.644  10.777  1.00  0.00    -0.200 F 
ATOM     68  F   UNL     1      -7.901  12.614   9.042  1.00  0.00    -0.200 F 
ENDBRANCH  44  58
BRANCH  45  69
ATOM     69  C   UNL     1      -5.141  -1.234   9.751  1.00  0.00     0.064 A 
ATOM     70  C   UNL     1      -6.134  -2.208   9.925  1.00  0.00     0.173 A 
ATOM     71  C   UNL     1      -3.808  -1.667   9.698  1.00  0.00     0.173 A 
ATOM     72  F   UNL     1      -7.422  -1.844  10.011  1.00  0.00    -0.203 F 
ATOM     73  C   UNL     1      -5.805  -3.556  10.062  1.00  0.00     0.198 A 
ATOM     74  C   UNL     1      -3.483  -3.018   9.802  1.00  0.00     0.198 A 
ATOM     75  F   UNL     1      -2.817  -0.777   9.538  1.00  0.00    -0.203 F 
ATOM     76  F   UNL     1      -6.771  -4.460  10.280  1.00  0.00    -0.200 F 
ATOM     77  C   UNL     1      -4.481  -3.961   9.993  1.00  0.00     0.200 A 
ATOM     78  F   UNL     1      -2.202  -3.405   9.722  1.00  0.00    -0.200 F 
ATOM     79  F   UNL     1      -4.166  -5.257  10.120  1.00  0.00    -0.200 F 
ENDBRANCH  45  69
BRANCH  57  80
ATOM     80  C   UNL     1      -7.897   3.344  14.243  1.00  0.00     0.064 A 
ATOM     81  C   UNL     1      -7.039   3.117  15.329  1.00  0.00     0.173 A 
ATOM     82  C   UNL     1      -9.268   3.492  14.512  1.00  0.00     0.173 A 
ATOM     83  F   UNL     1      -5.722   2.957  15.127  1.00  0.00    -0.203 F 
ATOM     84  C   UNL     1      -7.536   3.014  16.626  1.00  0.00     0.198 A 
ATOM     85  C   UNL     1      -9.756   3.425  15.814  1.00  0.00     0.198 A 
ATOM     86  F   UNL     1     -10.133   3.721  13.513  1.00  0.00    -0.203 F 
ATOM     87  F   UNL     1      -6.703   2.744  17.641  1.00  0.00    -0.200 F 
ATOM     88  C   UNL     1      -8.892   3.177  16.869  1.00  0.00     0.200 A 
ATOM     89  F   UNL     1     -11.064   3.603  16.048  1.00  0.00    -0.200 F 
ATOM     90  F   UNL     1      -9.366   3.088  18.119  1.00  0.00    -0.200 F 
ENDBRANCH  57  80
ENDBRANCH  31  32
ENDBRANCH  24  26
ENDBRANCH  23  24
ENDBRANCH  22  23
ENDBRANCH  21  22
ENDBRANCH  20  21
ENDBRANCH  19  20
ENDBRANCH  18  19
ENDBRANCH  17  18
ENDBRANCH   1  17
TORSDOF 23
