REMARK SMILES C[C@@H](C(=O)OCCOCCOCCOCCOC(=O)c1ccc(-c2c3nc(c(-c4c(F)c(F)c(F)c(F)c4F)c4ccc([nH]4)c(-c4c(F)c(F)c(F)c(F)c4F)c4nc(c(-c5c(F)c(F)c(F)c(F)c5F)c5ccc2[nH]5)C=C4)C=C3)cc1)c1ccn(C(F)F)c(=O)c1
REMARK SMILES IDX 11 1 10 2 9 3 8 4 7 5 6 6 5 7 3 8 4 9 2 10 1 11 83 12 84 13
REMARK SMILES IDX 92 14 85 15 90 16 86 17 91 18 87 19 88 20 89 21 12 22 13 23
REMARK SMILES IDX 14 24 15 25 16 26 17 27 18 28 19 29 20 30 21 31 82 32 22 33
REMARK SMILES IDX 81 34 23 35 24 36 25 37 75 38 26 39 80 40 74 41 76 42 27 43
REMARK SMILES IDX 79 44 73 45 72 46 28 48 60 49 40 50 59 51 41 52 44 53 58 54
REMARK SMILES IDX 77 55 42 56 43 57 57 59 78 60 45 61 29 62 30 63 38 64 31 65
REMARK SMILES IDX 32 66 36 67 39 68 33 69 34 70 37 71 35 72 61 73 62 74 70 75
REMARK SMILES IDX 63 76 64 77 68 78 71 79 65 80 66 81 69 82 67 83 46 84 47 85
REMARK SMILES IDX 55 86 48 87 49 88 53 89 56 90 50 91 51 92 54 93 52 94
REMARK H PARENT 76 47 44 58
REMARK Flexibility Score: inf
ROOT
ATOM      1  O   UNL     1       2.417  -1.441  -2.707  1.00  0.00    -0.377 OA
ENDROOT
BRANCH   1   2
ATOM      2  C   UNL     1       1.032  -1.450  -2.424  1.00  0.00     0.188 C 
BRANCH   2   3
ATOM      3  C   UNL     1       0.146  -0.846  -3.528  1.00  0.00     0.188 C 
BRANCH   3   4
ATOM      4  O   UNL     1       0.706  -0.531  -4.792  1.00  0.00    -0.376 OA
BRANCH   4   5
ATOM      5  C   UNL     1       1.929   0.183  -4.884  1.00  0.00     0.202 C 
BRANCH   5   6
ATOM      6  C   UNL     1       2.334   1.311  -3.910  1.00  0.00     0.261 C 
BRANCH   6   7
ATOM      7  O   UNL     1       1.883   1.210  -2.548  1.00  0.00    -0.463 OA
BRANCH   7   8
ATOM      8  C   UNL     1       0.906   2.069  -2.173  1.00  0.00     0.313 C 
ATOM      9  O   UNL     1       0.435   2.923  -2.918  1.00  0.00    -0.252 OA
BRANCH   8  10
ATOM     10  C   UNL     1       0.403   1.870  -0.724  1.00  0.00     0.126 C 
ATOM     11  C   UNL     1       1.198   0.940   0.205  1.00  0.00     0.025 C 
BRANCH  10  12
ATOM     12  C   UNL     1      -1.112   1.651  -0.781  1.00  0.00    -0.027 A 
ATOM     13  C   UNL     1      -1.722   0.330  -0.788  1.00  0.00     0.023 A 
ATOM     14  C   UNL     1      -1.923   2.716  -0.928  1.00  0.00     0.076 A 
ATOM     15  C   UNL     1      -3.030   0.179  -1.042  1.00  0.00     0.095 A 
ATOM     16  C   UNL     1      -3.382   2.572  -1.174  1.00  0.00     0.255 A 
ATOM     17  N   UNL     1      -3.848   1.271  -1.252  1.00  0.00    -0.258 N 
ATOM     18  O   UNL     1      -4.057   3.586  -1.306  1.00  0.00    -0.269 OA
BRANCH  17  19
ATOM     19  C   UNL     1      -5.244   1.103  -1.559  1.00  0.00     0.451 C 
ATOM     20  F   UNL     1      -6.025   1.689  -0.619  1.00  0.00    -0.185 F 
ATOM     21  F   UNL     1      -5.550   1.651  -2.760  1.00  0.00    -0.185 F 
ENDBRANCH  17  19
ENDBRANCH  10  12
ENDBRANCH   8  10
ENDBRANCH   7   8
ENDBRANCH   6   7
ENDBRANCH   5   6
ENDBRANCH   4   5
ENDBRANCH   3   4
ENDBRANCH   2   3
ENDBRANCH   1   2
BRANCH   1  22
ATOM     22  C   UNL     1       2.958  -2.624  -3.274  1.00  0.00     0.188 C 
BRANCH  22  23
ATOM     23  C   UNL     1       2.085  -3.438  -4.250  1.00  0.00     0.188 C 
BRANCH  23  24
ATOM     24  O   UNL     1       0.777  -3.718  -3.764  1.00  0.00    -0.376 OA
BRANCH  24  25
ATOM     25  C   UNL     1       0.518  -4.992  -3.194  1.00  0.00     0.202 C 
BRANCH  25  26
ATOM     26  C   UNL     1       1.171  -5.300  -1.836  1.00  0.00     0.261 C 
BRANCH  26  27
ATOM     27  O   UNL     1       2.604  -5.231  -1.788  1.00  0.00    -0.460 OA
BRANCH  27  28
ATOM     28  C   UNL     1       3.298  -6.042  -2.612  1.00  0.00     0.338 C 
ATOM     29  O   UNL     1       2.847  -6.889  -3.365  1.00  0.00    -0.246 OA
BRANCH  28  30
ATOM     30  C   UNL     1       4.707  -5.597  -2.606  1.00  0.00     0.060 A 
ATOM     31  C   UNL     1       5.291  -5.189  -3.812  1.00  0.00     0.016 A 
ATOM     32  C   UNL     1       5.443  -5.569  -1.419  1.00  0.00     0.016 A 
ATOM     33  C   UNL     1       6.627  -4.790  -3.842  1.00  0.00     0.010 A 
ATOM     34  C   UNL     1       6.789  -5.194  -1.455  1.00  0.00     0.010 A 
ATOM     35  C   UNL     1       7.396  -4.838  -2.673  1.00  0.00    -0.014 A 
BRANCH  35  36
ATOM     36  C   UNL     1       8.871  -4.717  -2.761  1.00  0.00     0.031 A 
ATOM     37  C   UNL     1       9.688  -5.980  -2.783  1.00  0.00     0.074 A 
ATOM     38  C   UNL     1       9.475  -3.520  -2.846  1.00  0.00     0.049 A 
ATOM     39  N   UNL     1      10.987  -6.132  -2.793  1.00  0.00    -0.248 NA
ATOM     40  C   UNL     1       8.934  -7.245  -2.792  1.00  0.00     0.031 C 
ATOM     41  C   UNL     1       8.792  -2.230  -2.884  1.00  0.00     0.029 A 
ATOM     42  N   UNL     1      10.809  -3.199  -2.907  1.00  0.00    -0.354 N 
ATOM     43  C   UNL     1      11.204  -7.503  -2.798  1.00  0.00     0.074 A 
ATOM     44  C   UNL     1       9.907  -8.142  -2.764  1.00  0.00     0.031 C 
ATOM     45  C   UNL     1       9.714  -1.252  -2.944  1.00  0.00     0.029 A 
ATOM     46  C   UNL     1      11.050  -1.848  -2.913  1.00  0.00     0.049 A 
ATOM     47  H   UNL     1      11.525  -3.874  -2.943  1.00  0.00     0.167 HD
ATOM     48  C   UNL     1      12.381  -8.169  -2.833  1.00  0.00     0.037 A 
ATOM     49  C   UNL     1      12.215  -1.171  -2.868  1.00  0.00     0.037 A 
ATOM     50  C   UNL     1      13.670  -7.530  -2.872  1.00  0.00     0.049 A 
ATOM     51  C   UNL     1      13.515  -1.936  -2.843  1.00  0.00     0.074 A 
ATOM     52  C   UNL     1      14.921  -8.120  -2.930  1.00  0.00     0.029 A 
ATOM     53  N   UNL     1      13.874  -6.159  -2.848  1.00  0.00    -0.354 N 
ATOM     54  N   UNL     1      13.715  -3.232  -2.857  1.00  0.00    -0.248 NA
ATOM     55  C   UNL     1      14.752  -1.142  -2.800  1.00  0.00     0.031 C 
ATOM     56  C   UNL     1      15.883  -7.107  -2.875  1.00  0.00     0.029 A 
ATOM     57  C   UNL     1      15.232  -5.884  -2.859  1.00  0.00     0.049 A 
ATOM     58  H   UNL     1      13.160  -5.481  -2.825  1.00  0.00     0.167 HD
ATOM     59  C   UNL     1      15.093  -3.408  -2.854  1.00  0.00     0.074 A 
ATOM     60  C   UNL     1      15.682  -2.086  -2.849  1.00  0.00     0.031 C 
ATOM     61  C   UNL     1      15.806  -4.562  -2.858  1.00  0.00     0.037 A 
BRANCH  48  62
ATOM     62  C   UNL     1      12.339  -9.669  -2.801  1.00  0.00     0.064 A 
ATOM     63  C   UNL     1      11.892 -10.422  -3.896  1.00  0.00     0.173 A 
ATOM     64  C   UNL     1      12.809 -10.363  -1.675  1.00  0.00     0.173 A 
ATOM     65  F   UNL     1      11.415  -9.808  -4.989  1.00  0.00    -0.203 F 
ATOM     66  C   UNL     1      11.907 -11.815  -3.861  1.00  0.00     0.198 A 
ATOM     67  C   UNL     1      12.852 -11.754  -1.655  1.00  0.00     0.198 A 
ATOM     68  F   UNL     1      13.246  -9.690  -0.600  1.00  0.00    -0.203 F 
ATOM     69  F   UNL     1      11.440 -12.514  -4.904  1.00  0.00    -0.200 F 
ATOM     70  C   UNL     1      12.397 -12.478  -2.746  1.00  0.00     0.200 A 
ATOM     71  F   UNL     1      13.338 -12.392  -0.582  1.00  0.00    -0.200 F 
ATOM     72  F   UNL     1      12.428 -13.818  -2.721  1.00  0.00    -0.200 F 
ENDBRANCH  48  62
BRANCH  49  73
ATOM     73  C   UNL     1      12.203   0.315  -2.826  1.00  0.00     0.064 A 
ATOM     74  C   UNL     1      12.676   1.078  -3.903  1.00  0.00     0.173 A 
ATOM     75  C   UNL     1      11.718   1.004  -1.704  1.00  0.00     0.173 A 
ATOM     76  F   UNL     1      13.176   0.467  -4.987  1.00  0.00    -0.203 F 
ATOM     77  C   UNL     1      12.674   2.471  -3.854  1.00  0.00     0.198 A 
ATOM     78  C   UNL     1      11.687   2.396  -1.669  1.00  0.00     0.198 A 
ATOM     79  F   UNL     1      11.258   0.322  -0.644  1.00  0.00    -0.203 F 
ATOM     80  F   UNL     1      13.170   3.175  -4.881  1.00  0.00    -0.200 F 
ATOM     81  C   UNL     1      12.171   3.129  -2.742  1.00  0.00     0.200 A 
ATOM     82  F   UNL     1      11.188   3.026  -0.597  1.00  0.00    -0.200 F 
ATOM     83  F   UNL     1      12.158   4.468  -2.701  1.00  0.00    -0.200 F 
ENDBRANCH  49  73
BRANCH  61  84
ATOM     84  C   UNL     1      17.305  -4.457  -2.898  1.00  0.00     0.064 A 
ATOM     85  C   UNL     1      18.047  -3.996  -1.801  1.00  0.00     0.173 A 
ATOM     86  C   UNL     1      18.014  -4.879  -4.035  1.00  0.00     0.173 A 
ATOM     87  F   UNL     1      17.420  -3.572  -0.693  1.00  0.00    -0.203 F 
ATOM     88  C   UNL     1      19.437  -3.934  -1.850  1.00  0.00     0.198 A 
ATOM     89  C   UNL     1      19.405  -4.850  -4.068  1.00  0.00     0.198 A 
ATOM     90  F   UNL     1      17.356  -5.341  -5.109  1.00  0.00    -0.203 F 
ATOM     91  F   UNL     1      20.121  -3.443  -0.807  1.00  0.00    -0.200 F 
ATOM     92  C   UNL     1      20.115  -4.369  -2.979  1.00  0.00     0.200 A 
ATOM     93  F   UNL     1      20.058  -5.291  -5.152  1.00  0.00    -0.200 F 
ATOM     94  F   UNL     1      21.454  -4.320  -3.020  1.00  0.00    -0.200 F 
ENDBRANCH  61  84
ENDBRANCH  35  36
ENDBRANCH  28  30
ENDBRANCH  27  28
ENDBRANCH  26  27
ENDBRANCH  25  26
ENDBRANCH  24  25
ENDBRANCH  23  24
ENDBRANCH  22  23
ENDBRANCH   1  22
TORSDOF 22
