REMARK SMILES O=C(OCCOCCOCCOCCOC(=O)[C@H]1[C@H]2CC[C@H](C2)[C@@H]1C(=O)Nc1sc2c(c1C(=O)NC1CCCCC1)CCCC2)c1ccc(-c2c3nc(c(-c4c(F)c(F)c(F)c(F)c4F)c4ccc([nH]4)c(-c4c(F)c(F)c(F)c(F)c4F)c4nc(c(-c5c(F)c(F)c(F)c(F)c5F)c5ccc2[nH]5)C=C4)C=C3)cc1
REMARK SMILES IDX 10 1 9 2 8 3 7 4 6 5 5 6 4 7 3 8 2 9 1 10 46 11 47 12 108 13
REMARK SMILES IDX 48 14 107 15 49 16 50 17 51 18 101 19 52 20 106 21 100 22
REMARK SMILES IDX 102 23 53 24 105 25 99 26 98 27 54 29 86 30 66 31 85 32
REMARK SMILES IDX 67 33 70 34 84 35 103 36 68 37 69 38 83 40 104 41 71 42
REMARK SMILES IDX 55 43 56 44 64 45 57 46 58 47 62 48 65 49 59 50 60 51 63 52
REMARK SMILES IDX 61 53 87 54 88 55 96 56 89 57 90 58 94 59 97 60 91 61 92 62
REMARK SMILES IDX 95 63 93 64 72 65 73 66 81 67 74 68 75 69 79 70 82 71 76 72
REMARK SMILES IDX 77 73 80 74 78 75 11 76 12 77 13 78 14 79 15 80 16 81 17 82
REMARK SMILES IDX 18 83 19 84 24 85 20 86 23 87 22 88 21 89 25 90 26 91 27 92
REMARK SMILES IDX 28 94 29 95 32 96 30 97 31 98 45 99 42 100 44 101 43 102
REMARK SMILES IDX 33 103 34 104 35 105 36 107 37 108 41 109 38 110 40 111
REMARK SMILES IDX 39 112
REMARK H PARENT 102 28 70 39 27 93 35 106
REMARK Flexibility Score: inf
ROOT
ATOM      1  C   UNL     1       7.238   1.974   5.597  1.00  0.00     0.188 C 
ENDROOT
BRANCH   1   2
ATOM      2  O   UNL     1       7.702   0.837   6.307  1.00  0.00    -0.377 OA
BRANCH   2   3
ATOM      3  C   UNL     1       9.049   0.898   6.753  1.00  0.00     0.188 C 
BRANCH   3   4
ATOM      4  C   UNL     1      10.041   1.441   5.726  1.00  0.00     0.188 C 
BRANCH   4   5
ATOM      5  O   UNL     1       9.928   2.862   5.589  1.00  0.00    -0.376 OA
BRANCH   5   6
ATOM      6  C   UNL     1      10.002   3.371   4.255  1.00  0.00     0.202 C 
BRANCH   6   7
ATOM      7  C   UNL     1      11.419   3.506   3.701  1.00  0.00     0.261 C 
BRANCH   7   8
ATOM      8  O   UNL     1      12.326   2.520   4.208  1.00  0.00    -0.460 OA
BRANCH   8   9
ATOM      9  C   UNL     1      12.982   2.497   5.394  1.00  0.00     0.338 C 
ATOM     10  O   UNL     1      13.711   1.530   5.619  1.00  0.00    -0.246 OA
BRANCH   9  11
ATOM     11  C   UNL     1      12.862   3.534   6.478  1.00  0.00     0.060 A 
ATOM     12  C   UNL     1      11.969   4.608   6.503  1.00  0.00     0.016 A 
ATOM     13  C   UNL     1      13.718   3.380   7.586  1.00  0.00     0.016 A 
ATOM     14  C   UNL     1      11.929   5.507   7.557  1.00  0.00     0.010 A 
ATOM     15  C   UNL     1      13.716   4.298   8.640  1.00  0.00     0.010 A 
ATOM     16  C   UNL     1      12.838   5.383   8.600  1.00  0.00    -0.014 A 
BRANCH  16  17
ATOM     17  C   UNL     1      13.024   6.570   9.444  1.00  0.00     0.031 A 
ATOM     18  C   UNL     1      14.123   7.511   9.050  1.00  0.00     0.074 A 
ATOM     19  C   UNL     1      12.117   6.879  10.384  1.00  0.00     0.049 A 
ATOM     20  N   UNL     1      14.524   8.612   9.621  1.00  0.00    -0.248 NA
ATOM     21  C   UNL     1      14.856   7.173   7.814  1.00  0.00     0.031 C 
ATOM     22  C   UNL     1      10.916   6.098  10.685  1.00  0.00     0.029 A 
ATOM     23  N   UNL     1      12.047   7.949  11.233  1.00  0.00    -0.354 N 
ATOM     24  C   UNL     1      15.571   9.076   8.836  1.00  0.00     0.074 A 
ATOM     25  C   UNL     1      15.745   8.149   7.745  1.00  0.00     0.031 C 
ATOM     26  C   UNL     1      10.226   6.719  11.656  1.00  0.00     0.029 A 
ATOM     27  C   UNL     1      10.973   7.896  12.086  1.00  0.00     0.049 A 
ATOM     28  H   UNL     1      12.701   8.684  11.232  1.00  0.00     0.167 HD
ATOM     29  C   UNL     1      16.325  10.181   9.030  1.00  0.00     0.037 A 
ATOM     30  C   UNL     1      10.675   8.697  13.125  1.00  0.00     0.037 A 
ATOM     31  C   UNL     1      16.117  11.071  10.138  1.00  0.00     0.049 A 
ATOM     32  C   UNL     1      11.610   9.847  13.405  1.00  0.00     0.074 A 
ATOM     33  C   UNL     1      16.852  12.175  10.516  1.00  0.00     0.029 A 
ATOM     34  N   UNL     1      15.078  10.939  11.053  1.00  0.00    -0.354 N 
ATOM     35  N   UNL     1      12.664  10.240  12.725  1.00  0.00    -0.248 NA
ATOM     36  C   UNL     1      11.331  10.652  14.598  1.00  0.00     0.031 C 
ATOM     37  C   UNL     1      16.289  12.680  11.694  1.00  0.00     0.029 A 
ATOM     38  C   UNL     1      15.164  11.930  12.011  1.00  0.00     0.049 A 
ATOM     39  H   UNL     1      14.384  10.241  11.023  1.00  0.00     0.167 HD
ATOM     40  C   UNL     1      13.160  11.350  13.392  1.00  0.00     0.074 A 
ATOM     41  C   UNL     1      12.278  11.576  14.522  1.00  0.00     0.031 C 
ATOM     42  C   UNL     1      14.245  12.115  13.108  1.00  0.00     0.037 A 
BRANCH  29  43
ATOM     43  C   UNL     1      17.474  10.399   8.092  1.00  0.00     0.064 A 
ATOM     44  C   UNL     1      17.289  10.757   6.748  1.00  0.00     0.173 A 
ATOM     45  C   UNL     1      18.788  10.183   8.535  1.00  0.00     0.173 A 
ATOM     46  F   UNL     1      16.052  10.939   6.261  1.00  0.00    -0.203 F 
ATOM     47  C   UNL     1      18.372  10.859   5.876  1.00  0.00     0.198 A 
ATOM     48  C   UNL     1      19.871  10.315   7.669  1.00  0.00     0.198 A 
ATOM     49  F   UNL     1      19.023   9.824   9.806  1.00  0.00    -0.203 F 
ATOM     50  F   UNL     1      18.166  11.135   4.581  1.00  0.00    -0.200 F 
ATOM     51  C   UNL     1      19.662  10.642   6.339  1.00  0.00     0.200 A 
ATOM     52  F   UNL     1      21.116  10.105   8.119  1.00  0.00    -0.200 F 
ATOM     53  F   UNL     1      20.701  10.730   5.497  1.00  0.00    -0.200 F 
ENDBRANCH  29  43
BRANCH  30  54
ATOM     54  C   UNL     1       9.507   8.402  13.998  1.00  0.00     0.064 A 
ATOM     55  C   UNL     1       8.436   9.298  14.119  1.00  0.00     0.173 A 
ATOM     56  C   UNL     1       9.447   7.220  14.755  1.00  0.00     0.173 A 
ATOM     57  F   UNL     1       8.449  10.453  13.438  1.00  0.00    -0.203 F 
ATOM     58  C   UNL     1       7.365   9.034  14.974  1.00  0.00     0.198 A 
ATOM     59  C   UNL     1       8.361   6.941  15.583  1.00  0.00     0.198 A 
ATOM     60  F   UNL     1      10.445   6.326  14.687  1.00  0.00    -0.203 F 
ATOM     61  F   UNL     1       6.381   9.934  15.110  1.00  0.00    -0.200 F 
ATOM     62  C   UNL     1       7.326   7.854  15.701  1.00  0.00     0.200 A 
ATOM     63  F   UNL     1       8.324   5.792  16.271  1.00  0.00    -0.200 F 
ATOM     64  F   UNL     1       6.298   7.602  16.523  1.00  0.00    -0.200 F 
ENDBRANCH  30  54
BRANCH  42  65
ATOM     65  C   UNL     1      14.498  13.287  14.006  1.00  0.00     0.064 A 
ATOM     66  C   UNL     1      14.977  13.124  15.313  1.00  0.00     0.173 A 
ATOM     67  C   UNL     1      14.318  14.592  13.522  1.00  0.00     0.173 A 
ATOM     68  F   UNL     1      15.151  11.895  15.821  1.00  0.00    -0.203 F 
ATOM     69  C   UNL     1      15.245  14.230  16.114  1.00  0.00     0.198 A 
ATOM     70  C   UNL     1      14.621  15.693  14.313  1.00  0.00     0.198 A 
ATOM     71  F   UNL     1      13.871  14.795  12.273  1.00  0.00    -0.203 F 
ATOM     72  F   UNL     1      15.656  14.054  17.377  1.00  0.00    -0.200 F 
ATOM     73  C   UNL     1      15.077  15.512  15.610  1.00  0.00     0.200 A 
ATOM     74  F   UNL     1      14.477  16.930  13.819  1.00  0.00    -0.200 F 
ATOM     75  F   UNL     1      15.350  16.575  16.378  1.00  0.00    -0.200 F 
ENDBRANCH  42  65
ENDBRANCH  16  17
ENDBRANCH   9  11
ENDBRANCH   8   9
ENDBRANCH   7   8
ENDBRANCH   6   7
ENDBRANCH   5   6
ENDBRANCH   4   5
ENDBRANCH   3   4
ENDBRANCH   2   3
ENDBRANCH   1   2
BRANCH   1  76
ATOM     76  C   UNL     1       7.252   3.328   6.347  1.00  0.00     0.188 C 
BRANCH  76  77
ATOM     77  O   UNL     1       7.562   3.231   7.719  1.00  0.00    -0.376 OA
BRANCH  77  78
ATOM     78  C   UNL     1       6.501   2.894   8.602  1.00  0.00     0.202 C 
BRANCH  78  79
ATOM     79  C   UNL     1       5.332   1.988   8.146  1.00  0.00     0.261 C 
BRANCH  79  80
ATOM     80  O   UNL     1       4.779   2.245   6.829  1.00  0.00    -0.463 OA
BRANCH  80  81
ATOM     81  C   UNL     1       4.004   3.329   6.665  1.00  0.00     0.310 C 
ATOM     82  O   UNL     1       3.575   3.984   7.618  1.00  0.00    -0.252 OA
BRANCH  81  83
ATOM     83  C   UNL     1       3.660   3.656   5.201  1.00  0.00     0.115 C 
ATOM     84  C   UNL     1       3.438   5.211   5.173  1.00  0.00     0.004 C 
ATOM     85  C   UNL     1       4.608   3.493   3.967  1.00  0.00     0.096 C 
ATOM     86  C   UNL     1       4.737   6.042   5.292  1.00  0.00     0.005 C 
ATOM     87  C   UNL     1       3.138   5.409   3.713  1.00  0.00     0.009 C 
ATOM     88  C   UNL     1       4.481   4.854   3.236  1.00  0.00     0.003 C 
ATOM     89  C   UNL     1       5.428   5.845   3.932  1.00  0.00     0.005 C 
BRANCH  85  90
ATOM     90  C   UNL     1       4.569   2.253   3.036  1.00  0.00     0.229 C 
ATOM     91  O   UNL     1       5.617   1.599   2.910  1.00  0.00    -0.274 OA
ATOM     92  N   UNL     1       3.500   1.780   2.347  1.00  0.00    -0.317 N 
ATOM     93  H   UNL     1       3.623   0.905   1.912  1.00  0.00     0.170 HD
BRANCH  92  94
ATOM     94  C   UNL     1       2.275   2.361   2.178  1.00  0.00     0.108 A 
ATOM     95  S   UNL     1       2.200   3.689   1.120  1.00  0.00    -0.122 S 
ATOM     96  C   UNL     1       1.013   1.855   2.481  1.00  0.00     0.078 A 
ATOM     97  C   UNL     1       0.681   4.067   1.768  1.00  0.00     0.011 A 
ATOM     98  C   UNL     1       0.054   2.940   2.290  1.00  0.00    -0.019 A 
ATOM     99  C   UNL     1       0.155   5.470   1.797  1.00  0.00     0.047 C 
ATOM    100  C   UNL     1      -1.391   3.037   2.675  1.00  0.00     0.037 C 
ATOM    101  C   UNL     1      -0.977   5.540   2.829  1.00  0.00     0.006 C 
ATOM    102  C   UNL     1      -1.998   4.444   2.510  1.00  0.00     0.005 C 
BRANCH  96 103
ATOM    103  C   UNL     1       0.952   0.465   2.960  1.00  0.00     0.254 C 
ATOM    104  O   UNL     1       1.702  -0.383   2.459  1.00  0.00    -0.269 OA
ATOM    105  N   UNL     1       0.202   0.009   4.008  1.00  0.00    -0.349 N 
ATOM    106  H   UNL     1       0.431  -0.913   4.266  1.00  0.00     0.164 HD
BRANCH 105 107
ATOM    107  C   UNL     1      -0.853   0.571   4.826  1.00  0.00     0.082 C 
ATOM    108  C   UNL     1      -1.465  -0.498   5.749  1.00  0.00     0.025 C 
ATOM    109  C   UNL     1      -0.398   1.742   5.705  1.00  0.00     0.025 C 
ATOM    110  C   UNL     1      -2.660   0.059   6.526  1.00  0.00     0.002 C 
ATOM    111  C   UNL     1      -1.626   2.375   6.363  1.00  0.00     0.002 C 
ATOM    112  C   UNL     1      -2.352   1.371   7.250  1.00  0.00     0.000 C 
ENDBRANCH 105 107
ENDBRANCH  96 103
ENDBRANCH  92  94
ENDBRANCH  85  90
ENDBRANCH  81  83
ENDBRANCH  80  81
ENDBRANCH  79  80
ENDBRANCH  78  79
ENDBRANCH  77  78
ENDBRANCH  76  77
ENDBRANCH   1  76
TORSDOF 24
