REMARK SMILES O=C(OCCOCCOCCOCCOC(=O)[C@@H]1C=C[C@@H](NS(=O)(=O)c2ccc(F)c(F)c2F)C1)c1ccc(-c2c3nc(c(-c4c(F)c(F)c(F)c(F)c4F)c4ccc([nH]4)c(-c4c(F)c(F)c(F)c(F)c4F)c4nc(c(-c5c(F)c(F)c(F)c(F)c5F)c5ccc2[nH]5)C=C4)C=C3)cc1
REMARK SMILES IDX 10 1 9 2 8 3 7 4 6 5 5 6 4 7 3 8 2 9 1 10 36 11 37 12 98 13
REMARK SMILES IDX 38 14 97 15 39 16 40 17 41 18 91 19 42 20 96 21 90 22 92 23
REMARK SMILES IDX 43 24 95 25 89 26 88 27 44 29 76 30 56 31 75 32 57 33 60 34
REMARK SMILES IDX 74 35 93 36 58 37 59 38 73 40 94 41 61 42 45 43 46 44 54 45
REMARK SMILES IDX 47 46 48 47 52 48 55 49 49 50 50 51 53 52 51 53 77 54 78 55
REMARK SMILES IDX 86 56 79 57 80 58 84 59 87 60 81 61 82 62 85 63 83 64 62 65
REMARK SMILES IDX 63 66 71 67 64 68 65 69 69 70 72 71 66 72 67 73 70 74 68 75
REMARK SMILES IDX 11 76 12 77 13 78 14 79 15 80 16 81 17 82 18 83 19 84 35 85
REMARK SMILES IDX 20 86 21 87 22 88 23 90 24 91 25 92 26 93 27 94 33 95 28 96
REMARK SMILES IDX 31 97 34 98 29 99 32 100 30 101
REMARK H PARENT 92 28 60 39 22 89
REMARK Flexibility Score: inf
ROOT
ATOM      1  C   UNL     1       5.163   3.569  -0.361  1.00  0.00     0.188 C 
ENDROOT
BRANCH   1   2
ATOM      2  O   UNL     1       6.219   3.639  -1.315  1.00  0.00    -0.377 OA
BRANCH   2   3
ATOM      3  C   UNL     1       6.509   2.436  -2.035  1.00  0.00     0.188 C 
BRANCH   3   4
ATOM      4  C   UNL     1       6.699   1.198  -1.159  1.00  0.00     0.188 C 
BRANCH   4   5
ATOM      5  O   UNL     1       5.480   0.885  -0.492  1.00  0.00    -0.376 OA
BRANCH   5   6
ATOM      6  C   UNL     1       5.580   0.368   0.830  1.00  0.00     0.202 C 
BRANCH   6   7
ATOM      7  C   UNL     1       6.130  -1.053   0.937  1.00  0.00     0.261 C 
BRANCH   7   8
ATOM      8  O   UNL     1       6.822  -1.503  -0.242  1.00  0.00    -0.460 OA
BRANCH   8   9
ATOM      9  C   UNL     1       6.316  -2.165  -1.312  1.00  0.00     0.338 C 
ATOM     10  O   UNL     1       7.083  -2.609  -2.163  1.00  0.00    -0.246 OA
BRANCH   9  11
ATOM     11  C   UNL     1       4.860  -2.421  -1.487  1.00  0.00     0.060 A 
ATOM     12  C   UNL     1       3.867  -1.517  -1.133  1.00  0.00     0.016 A 
ATOM     13  C   UNL     1       4.468  -3.603  -2.130  1.00  0.00     0.016 A 
ATOM     14  C   UNL     1       2.526  -1.826  -1.232  1.00  0.00     0.010 A 
ATOM     15  C   UNL     1       3.111  -3.887  -2.330  1.00  0.00     0.010 A 
ATOM     16  C   UNL     1       2.135  -3.016  -1.830  1.00  0.00    -0.014 A 
BRANCH  16  17
ATOM     17  C   UNL     1       0.705  -3.362  -1.747  1.00  0.00     0.031 A 
ATOM     18  C   UNL     1       0.312  -4.469  -0.816  1.00  0.00     0.074 A 
ATOM     19  C   UNL     1      -0.213  -2.557  -2.318  1.00  0.00     0.049 A 
ATOM     20  N   UNL     1      -0.868  -4.974  -0.582  1.00  0.00    -0.248 NA
ATOM     21  C   UNL     1       1.393  -5.082  -0.020  1.00  0.00     0.031 C 
ATOM     22  C   UNL     1       0.091  -1.350  -3.095  1.00  0.00     0.029 A 
ATOM     23  N   UNL     1      -1.581  -2.585  -2.280  1.00  0.00    -0.354 N 
ATOM     24  C   UNL     1      -0.662  -5.987   0.344  1.00  0.00     0.074 A 
ATOM     25  C   UNL     1       0.749  -6.031   0.639  1.00  0.00     0.031 C 
ATOM     26  C   UNL     1      -1.054  -0.720  -3.398  1.00  0.00     0.029 A 
ATOM     27  C   UNL     1      -2.172  -1.529  -2.932  1.00  0.00     0.049 A 
ATOM     28  H   UNL     1      -2.093  -3.294  -1.828  1.00  0.00     0.167 HD
ATOM     29  C   UNL     1      -1.585  -6.807   0.890  1.00  0.00     0.037 A 
ATOM     30  C   UNL     1      -3.476  -1.275  -3.152  1.00  0.00     0.037 A 
ATOM     31  C   UNL     1      -2.987  -6.707   0.598  1.00  0.00     0.049 A 
ATOM     32  C   UNL     1      -4.472  -2.273  -2.625  1.00  0.00     0.074 A 
ATOM     33  C   UNL     1      -4.018  -7.527   1.010  1.00  0.00     0.029 A 
ATOM     34  N   UNL     1      -3.550  -5.700  -0.177  1.00  0.00    -0.354 N 
ATOM     35  N   UNL     1      -4.266  -3.315  -1.853  1.00  0.00    -0.248 NA
ATOM     36  C   UNL     1      -5.872  -2.088  -3.026  1.00  0.00     0.031 C 
ATOM     37  C   UNL     1      -5.202  -7.038   0.451  1.00  0.00     0.029 A 
ATOM     38  C   UNL     1      -4.916  -5.885  -0.266  1.00  0.00     0.049 A 
ATOM     39  H   UNL     1      -3.050  -4.964  -0.599  1.00  0.00     0.167 HD
ATOM     40  C   UNL     1      -5.506  -3.905  -1.667  1.00  0.00     0.074 A 
ATOM     41  C   UNL     1      -6.465  -3.086  -2.385  1.00  0.00     0.031 C 
ATOM     42  C   UNL     1      -5.829  -5.029  -0.981  1.00  0.00     0.037 A 
BRANCH  29  43
ATOM     43  C   UNL     1      -1.102  -7.903   1.788  1.00  0.00     0.064 A 
ATOM     44  C   UNL     1      -1.097  -9.230   1.331  1.00  0.00     0.173 A 
ATOM     45  C   UNL     1      -0.660  -7.657   3.095  1.00  0.00     0.173 A 
ATOM     46  F   UNL     1      -1.495  -9.516   0.083  1.00  0.00    -0.203 F 
ATOM     47  C   UNL     1      -0.687 -10.272   2.158  1.00  0.00     0.198 A 
ATOM     48  C   UNL     1      -0.228  -8.699   3.912  1.00  0.00     0.198 A 
ATOM     49  F   UNL     1      -0.610  -6.401   3.566  1.00  0.00    -0.203 F 
ATOM     50  F   UNL     1      -0.712 -11.534   1.706  1.00  0.00    -0.200 F 
ATOM     51  C   UNL     1      -0.252 -10.006   3.447  1.00  0.00     0.200 A 
ATOM     52  F   UNL     1       0.224  -8.438   5.146  1.00  0.00    -0.200 F 
ATOM     53  F   UNL     1       0.155 -11.009   4.238  1.00  0.00    -0.200 F 
ENDBRANCH  29  43
BRANCH  30  54
ATOM     54  C   UNL     1      -3.902  -0.083  -3.938  1.00  0.00     0.064 A 
ATOM     55  C   UNL     1      -3.527   0.080  -5.282  1.00  0.00     0.173 A 
ATOM     56  C   UNL     1      -4.706   0.915  -3.370  1.00  0.00     0.173 A 
ATOM     57  F   UNL     1      -2.765  -0.844  -5.886  1.00  0.00    -0.203 F 
ATOM     58  C   UNL     1      -3.917   1.200  -6.015  1.00  0.00     0.198 A 
ATOM     59  C   UNL     1      -5.126   2.018  -4.115  1.00  0.00     0.198 A 
ATOM     60  F   UNL     1      -5.115   0.802  -2.098  1.00  0.00    -0.203 F 
ATOM     61  F   UNL     1      -3.511   1.341  -7.285  1.00  0.00    -0.200 F 
ATOM     62  C   UNL     1      -4.725   2.163  -5.434  1.00  0.00     0.200 A 
ATOM     63  F   UNL     1      -5.933   2.932  -3.558  1.00  0.00    -0.200 F 
ATOM     64  F   UNL     1      -5.123   3.226  -6.147  1.00  0.00    -0.200 F 
ENDBRANCH  30  54
BRANCH  42  65
ATOM     65  C   UNL     1      -7.273  -5.420  -0.955  1.00  0.00     0.064 A 
ATOM     66  C   UNL     1      -8.010  -5.320   0.234  1.00  0.00     0.173 A 
ATOM     67  C   UNL     1      -7.895  -5.980  -2.079  1.00  0.00     0.173 A 
ATOM     68  F   UNL     1      -7.449  -4.802   1.336  1.00  0.00    -0.203 F 
ATOM     69  C   UNL     1      -9.317  -5.788   0.301  1.00  0.00     0.198 A 
ATOM     70  C   UNL     1      -9.213  -6.417  -2.016  1.00  0.00     0.198 A 
ATOM     71  F   UNL     1      -7.229  -6.083  -3.239  1.00  0.00    -0.203 F 
ATOM     72  F   UNL     1      -9.990  -5.724   1.458  1.00  0.00    -0.200 F 
ATOM     73  C   UNL     1      -9.918  -6.332  -0.824  1.00  0.00     0.200 A 
ATOM     74  F   UNL     1      -9.802  -6.920  -3.110  1.00  0.00    -0.200 F 
ATOM     75  F   UNL     1     -11.181  -6.776  -0.760  1.00  0.00    -0.200 F 
ENDBRANCH  42  65
ENDBRANCH  16  17
ENDBRANCH   9  11
ENDBRANCH   8   9
ENDBRANCH   7   8
ENDBRANCH   6   7
ENDBRANCH   5   6
ENDBRANCH   4   5
ENDBRANCH   3   4
ENDBRANCH   2   3
ENDBRANCH   1   2
BRANCH   1  76
ATOM     76  C   UNL     1       3.726   3.301  -0.860  1.00  0.00     0.188 C 
BRANCH  76  77
ATOM     77  O   UNL     1       3.650   2.655  -2.125  1.00  0.00    -0.376 OA
BRANCH  77  78
ATOM     78  C   UNL     1       3.031   3.415  -3.163  1.00  0.00     0.202 C 
BRANCH  78  79
ATOM     79  C   UNL     1       3.802   4.647  -3.671  1.00  0.00     0.261 C 
BRANCH  79  80
ATOM     80  O   UNL     1       4.413   5.415  -2.624  1.00  0.00    -0.463 OA
BRANCH  80  81
ATOM     81  C   UNL     1       3.772   6.490  -2.097  1.00  0.00     0.312 C 
ATOM     82  O   UNL     1       2.708   6.931  -2.505  1.00  0.00    -0.252 OA
BRANCH  81  83
ATOM     83  C   UNL     1       4.477   6.919  -0.801  1.00  0.00     0.123 C 
ATOM     84  C   UNL     1       4.252   8.338  -0.384  1.00  0.00    -0.015 C 
ATOM     85  C   UNL     1       6.013   6.844  -0.849  1.00  0.00     0.043 C 
ATOM     86  C   UNL     1       5.373   9.065  -0.466  1.00  0.00    -0.011 C 
ATOM     87  C   UNL     1       6.495   8.279  -1.045  1.00  0.00     0.093 C 
BRANCH  87  88
ATOM     88  N   UNL     1       7.729   8.487  -0.317  1.00  0.00    -0.204 NA
ATOM     89  H   UNL     1       8.260   7.620  -0.398  1.00  0.00     0.142 HD
BRANCH  88  90
ATOM     90  S   UNL     1       8.778   9.718  -0.713  1.00  0.00     0.244 S 
ATOM     91  O   UNL     1       8.061  10.960  -0.530  1.00  0.00    -0.207 OA
ATOM     92  O   UNL     1      10.022   9.456  -0.023  1.00  0.00    -0.207 OA
BRANCH  90  93
ATOM     93  C   UNL     1       9.094   9.552  -2.439  1.00  0.00     0.121 A 
ATOM     94  C   UNL     1       9.053  10.694  -3.252  1.00  0.00     0.028 A 
ATOM     95  C   UNL     1       9.323   8.299  -2.995  1.00  0.00     0.181 A 
ATOM     96  C   UNL     1       9.233  10.568  -4.630  1.00  0.00     0.044 A 
ATOM     97  C   UNL     1       9.489   8.178  -4.370  1.00  0.00     0.195 A 
ATOM     98  F   UNL     1       9.347   7.196  -2.233  1.00  0.00    -0.202 F 
ATOM     99  C   UNL     1       9.443   9.307  -5.181  1.00  0.00     0.161 A 
ATOM    100  F   UNL     1       9.669   6.968  -4.919  1.00  0.00    -0.200 F 
ATOM    101  F   UNL     1       9.589   9.191  -6.507  1.00  0.00    -0.204 F 
ENDBRANCH  90  93
ENDBRANCH  88  90
ENDBRANCH  87  88
ENDBRANCH  81  83
ENDBRANCH  80  81
ENDBRANCH  79  80
ENDBRANCH  78  79
ENDBRANCH  77  78
ENDBRANCH  76  77
ENDBRANCH   1  76
TORSDOF 23
