REMARK SMILES O=C(OCCOCCOCCOCCOC(=O)[C@@H]1CCc2[nH]ncc2C1)c1ccc(-c2c3nc(c(-c4c(F)c(F)c(F)c(F)c4F)c4ccc([nH]4)c(-c4c(F)c(F)c(F)c(F)c4F)c4nc(c(-c5c(F)c(F)c(F)c(F)c5F)c5ccc2[nH]5)C=C4)C=C3)cc1
REMARK SMILES IDX 8 1 7 2 6 3 5 4 4 5 3 6 2 7 1 8 27 9 28 10 89 11 29 12 88 13
REMARK SMILES IDX 30 14 31 15 32 16 82 17 33 18 87 19 81 20 83 21 34 22 86 23
REMARK SMILES IDX 80 24 79 25 35 27 67 28 47 29 66 30 48 31 51 32 65 33 84 34
REMARK SMILES IDX 49 35 50 36 64 38 85 39 52 40 36 41 37 42 45 43 38 44 39 45
REMARK SMILES IDX 43 46 46 47 40 48 41 49 44 50 42 51 68 52 69 53 77 54 70 55
REMARK SMILES IDX 71 56 75 57 78 58 72 59 73 60 76 61 74 62 53 63 54 64 62 65
REMARK SMILES IDX 55 66 56 67 60 68 63 69 57 70 58 71 61 72 59 73 9 74 10 75
REMARK SMILES IDX 11 76 12 77 13 78 14 79 15 80 16 81 17 82 18 83 19 84 26 85
REMARK SMILES IDX 20 86 25 87 21 88 24 89 22 90 23 91
REMARK H PARENT 83 26 51 37 22 92
REMARK Flexibility Score: inf
ROOT
ATOM      1  C   UNL     1       2.155   2.671  -0.077  1.00  0.00     0.188 C 
ENDROOT
BRANCH   1   2
ATOM      2  C   UNL     1       2.374   1.350  -0.814  1.00  0.00     0.188 C 
BRANCH   2   3
ATOM      3  O   UNL     1       3.454   0.687  -0.169  1.00  0.00    -0.376 OA
BRANCH   3   4
ATOM      4  C   UNL     1       4.293  -0.133  -0.965  1.00  0.00     0.202 C 
BRANCH   4   5
ATOM      5  C   UNL     1       3.666  -1.454  -1.396  1.00  0.00     0.261 C 
BRANCH   5   6
ATOM      6  O   UNL     1       2.260  -1.567  -1.088  1.00  0.00    -0.460 OA
BRANCH   6   7
ATOM      7  C   UNL     1       1.712  -2.104   0.027  1.00  0.00     0.338 C 
ATOM      8  O   UNL     1       0.508  -2.388   0.058  1.00  0.00    -0.246 OA
BRANCH   7   9
ATOM      9  C   UNL     1       2.541  -2.420   1.209  1.00  0.00     0.060 A 
ATOM     10  C   UNL     1       3.423  -1.497   1.754  1.00  0.00     0.016 A 
ATOM     11  C   UNL     1       2.381  -3.645   1.861  1.00  0.00     0.016 A 
ATOM     12  C   UNL     1       4.334  -1.860   2.724  1.00  0.00     0.010 A 
ATOM     13  C   UNL     1       3.182  -3.958   2.966  1.00  0.00     0.010 A 
ATOM     14  C   UNL     1       4.218  -3.092   3.357  1.00  0.00    -0.014 A 
BRANCH  14  15
ATOM     15  C   UNL     1       5.266  -3.482   4.328  1.00  0.00     0.031 A 
ATOM     16  C   UNL     1       6.099  -4.692   4.023  1.00  0.00     0.074 A 
ATOM     17  C   UNL     1       5.568  -2.682   5.370  1.00  0.00     0.049 A 
ATOM     18  N   UNL     1       6.972  -5.310   4.771  1.00  0.00    -0.248 NA
ATOM     19  C   UNL     1       5.924  -5.293   2.688  1.00  0.00     0.031 C 
ATOM     20  C   UNL     1       4.913  -1.407   5.680  1.00  0.00     0.029 A 
ATOM     21  N   UNL     1       6.540  -2.789   6.332  1.00  0.00    -0.354 N 
ATOM     22  C   UNL     1       7.397  -6.402   4.026  1.00  0.00     0.074 A 
ATOM     23  C   UNL     1       6.691  -6.367   2.767  1.00  0.00     0.031 C 
ATOM     24  C   UNL     1       5.549  -0.817   6.703  1.00  0.00     0.029 A 
ATOM     25  C   UNL     1       6.569  -1.727   7.205  1.00  0.00     0.049 A 
ATOM     26  H   UNL     1       7.157  -3.553   6.391  1.00  0.00     0.167 HD
ATOM     27  C   UNL     1       8.296  -7.350   4.376  1.00  0.00     0.037 A 
ATOM     28  C   UNL     1       7.303  -1.540   8.317  1.00  0.00     0.037 A 
ATOM     29  C   UNL     1       9.006  -7.334   5.624  1.00  0.00     0.049 A 
ATOM     30  C   UNL     1       8.248  -2.640   8.718  1.00  0.00     0.074 A 
ATOM     31  C   UNL     1       9.850  -8.285   6.161  1.00  0.00     0.029 A 
ATOM     32  N   UNL     1       8.964  -6.274   6.523  1.00  0.00    -0.354 N 
ATOM     33  N   UNL     1       8.530  -3.757   8.089  1.00  0.00    -0.248 NA
ATOM     34  C   UNL     1       8.950  -2.475   9.996  1.00  0.00     0.031 C 
ATOM     35  C   UNL     1      10.304  -7.809   7.398  1.00  0.00     0.029 A 
ATOM     36  C   UNL     1       9.773  -6.545   7.611  1.00  0.00     0.049 A 
ATOM     37  H   UNL     1       8.437  -5.452   6.402  1.00  0.00     0.167 HD
ATOM     38  C   UNL     1       9.435  -4.431   8.893  1.00  0.00     0.074 A 
ATOM     39  C   UNL     1       9.686  -3.576  10.038  1.00  0.00     0.031 C 
ATOM     40  C   UNL     1       9.994  -5.654   8.721  1.00  0.00     0.037 A 
BRANCH  27  41
ATOM     41  C   UNL     1       8.481  -8.493   3.423  1.00  0.00     0.064 A 
ATOM     42  C   UNL     1       9.157  -8.341   2.203  1.00  0.00     0.173 A 
ATOM     43  C   UNL     1       7.915  -9.745   3.708  1.00  0.00     0.173 A 
ATOM     44  F   UNL     1       9.682  -7.154   1.866  1.00  0.00    -0.203 F 
ATOM     45  C   UNL     1       9.230  -9.391   1.290  1.00  0.00     0.198 A 
ATOM     46  C   UNL     1       8.012 -10.800   2.804  1.00  0.00     0.198 A 
ATOM     47  F   UNL     1       7.247  -9.939   4.855  1.00  0.00    -0.203 F 
ATOM     48  F   UNL     1       9.821  -9.204   0.102  1.00  0.00    -0.200 F 
ATOM     49  C   UNL     1       8.660 -10.619   1.592  1.00  0.00     0.200 A 
ATOM     50  F   UNL     1       7.457 -11.984   3.097  1.00  0.00    -0.200 F 
ATOM     51  F   UNL     1       8.717 -11.623   0.705  1.00  0.00    -0.200 F 
ENDBRANCH  27  41
BRANCH  28  52
ATOM     52  C   UNL     1       7.111  -0.327   9.161  1.00  0.00     0.064 A 
ATOM     53  C   UNL     1       8.149   0.591   9.373  1.00  0.00     0.173 A 
ATOM     54  C   UNL     1       5.883  -0.068   9.793  1.00  0.00     0.173 A 
ATOM     55  F   UNL     1       9.351   0.382   8.816  1.00  0.00    -0.203 F 
ATOM     56  C   UNL     1       7.973   1.704  10.195  1.00  0.00     0.198 A 
ATOM     57  C   UNL     1       5.697   1.065  10.583  1.00  0.00     0.198 A 
ATOM     58  F   UNL     1       4.853  -0.912   9.635  1.00  0.00    -0.203 F 
ATOM     59  F   UNL     1       9.000   2.535  10.424  1.00  0.00    -0.200 F 
ATOM     60  C   UNL     1       6.745   1.945  10.793  1.00  0.00     0.200 A 
ATOM     61  F   UNL     1       4.502   1.299  11.143  1.00  0.00    -0.200 F 
ATOM     62  F   UNL     1       6.576   3.016  11.579  1.00  0.00    -0.200 F 
ENDBRANCH  28  52
BRANCH  40  63
ATOM     63  C   UNL     1      10.940  -6.112   9.787  1.00  0.00     0.064 A 
ATOM     64  C   UNL     1      10.475  -6.543  11.037  1.00  0.00     0.173 A 
ATOM     65  C   UNL     1      12.319  -6.148   9.540  1.00  0.00     0.173 A 
ATOM     66  F   UNL     1       9.164  -6.507  11.319  1.00  0.00    -0.203 F 
ATOM     67  C   UNL     1      11.364  -6.976  12.014  1.00  0.00     0.198 A 
ATOM     68  C   UNL     1      13.202  -6.606  10.510  1.00  0.00     0.198 A 
ATOM     69  F   UNL     1      12.805  -5.748   8.355  1.00  0.00    -0.203 F 
ATOM     70  F   UNL     1      10.905  -7.342  13.219  1.00  0.00    -0.200 F 
ATOM     71  C   UNL     1      12.725  -7.013  11.748  1.00  0.00     0.200 A 
ATOM     72  F   UNL     1      14.516  -6.652  10.250  1.00  0.00    -0.200 F 
ATOM     73  F   UNL     1      13.580  -7.434  12.690  1.00  0.00    -0.200 F 
ENDBRANCH  40  63
ENDBRANCH  14  15
ENDBRANCH   7   9
ENDBRANCH   6   7
ENDBRANCH   5   6
ENDBRANCH   4   5
ENDBRANCH   3   4
ENDBRANCH   2   3
ENDBRANCH   1   2
BRANCH   1  74
ATOM     74  O   UNL     1       3.157   3.670  -0.305  1.00  0.00    -0.377 OA
BRANCH  74  75
ATOM     75  C   UNL     1       4.511   3.265  -0.144  1.00  0.00     0.188 C 
BRANCH  75  76
ATOM     76  C   UNL     1       5.140   3.352   1.251  1.00  0.00     0.188 C 
BRANCH  76  77
ATOM     77  O   UNL     1       4.394   2.868   2.347  1.00  0.00    -0.376 OA
BRANCH  77  78
ATOM     78  C   UNL     1       3.427   3.703   2.972  1.00  0.00     0.202 C 
BRANCH  78  79
ATOM     79  C   UNL     1       3.404   5.243   2.878  1.00  0.00     0.261 C 
BRANCH  79  80
ATOM     80  O   UNL     1       3.704   5.839   1.603  1.00  0.00    -0.463 OA
BRANCH  80  81
ATOM     81  C   UNL     1       4.653   6.817   1.625  1.00  0.00     0.309 C 
ATOM     82  O   UNL     1       5.269   7.164   2.633  1.00  0.00    -0.252 OA
BRANCH  81  83
ATOM     83  C   UNL     1       4.933   7.442   0.274  1.00  0.00     0.104 C 
ATOM     84  C   UNL     1       3.765   8.285  -0.282  1.00  0.00     0.022 C 
ATOM     85  C   UNL     1       5.350   6.388  -0.755  1.00  0.00     0.054 C 
ATOM     86  C   UNL     1       4.182   9.062  -1.562  1.00  0.00     0.057 C 
ATOM     87  C   UNL     1       5.604   7.005  -2.072  1.00  0.00    -0.006 A 
ATOM     88  C   UNL     1       5.040   8.207  -2.426  1.00  0.00     0.038 A 
ATOM     89  C   UNL     1       6.316   6.585  -3.205  1.00  0.00     0.138 A 
ATOM     90  N   UNL     1       5.452   8.455  -3.700  1.00  0.00    -0.282 N 
ATOM     91  N   UNL     1       6.232   7.474  -4.200  1.00  0.00    -0.184 NA
ATOM     92  H   UNL     1       5.206   9.265  -4.204  1.00  0.00     0.190 HD
ENDBRANCH  81  83
ENDBRANCH  80  81
ENDBRANCH  79  80
ENDBRANCH  78  79
ENDBRANCH  77  78
ENDBRANCH  76  77
ENDBRANCH  75  76
ENDBRANCH  74  75
ENDBRANCH   1  74
TORSDOF 20
