REMARK SMILES COc1cccc(Cn2c(=O)c(=O)n(CC(=O)OCCOCCOCCOCCOC(=O)c3ccc(-c4c5nc(c(-c6c(F)c(F)c(F)c(F)c6F)c6ccc([nH]6)c(-c6c(F)c(F)c(F)c(F)c6F)c6nc(c(-c7c(F)c(F)c(F)c(F)c7F)c7ccc4[nH]7)C=C6)C=C5)cc3)c3ccccc32)c1
REMARK SMILES IDX 23 1 22 2 21 3 20 4 19 5 18 6 16 7 17 8 15 9 14 10 9 11
REMARK SMILES IDX 10 12 101 13 11 14 12 15 96 16 100 17 13 18 97 19 99 20
REMARK SMILES IDX 98 21 8 22 7 23 3 24 4 25 102 26 5 27 6 28 2 29 1 30 24 31
REMARK SMILES IDX 25 32 26 33 27 34 28 35 29 36 30 37 31 38 32 39 33 40 34 41
REMARK SMILES IDX 95 42 35 43 94 44 36 45 37 46 38 47 88 48 39 49 93 50 87 51
REMARK SMILES IDX 89 52 40 53 92 54 86 55 85 56 41 58 73 59 53 60 72 61 54 62
REMARK SMILES IDX 57 63 71 64 90 65 55 66 56 67 70 69 91 70 58 71 42 72 43 73
REMARK SMILES IDX 51 74 44 75 45 76 49 77 52 78 46 79 47 80 50 81 48 82 74 83
REMARK SMILES IDX 75 84 83 85 76 86 77 87 81 88 84 89 78 90 79 91 82 92 80 93
REMARK SMILES IDX 59 94 60 95 68 96 61 97 62 98 66 99 69 100 63 101 64 102
REMARK SMILES IDX 67 103 65 104
REMARK H PARENT 89 57 57 68
REMARK Flexibility Score: inf
ROOT
ATOM      1  C   UNL     1       3.220   4.331   7.458  1.00  0.00     0.188 C 
ENDROOT
BRANCH   1   2
ATOM      2  C   UNL     1       3.255   5.758   6.881  1.00  0.00     0.188 C 
BRANCH   2   3
ATOM      3  O   UNL     1       2.034   6.477   6.730  1.00  0.00    -0.376 OA
BRANCH   3   4
ATOM      4  C   UNL     1       0.843   5.839   6.288  1.00  0.00     0.202 C 
BRANCH   4   5
ATOM      5  C   UNL     1       0.849   4.878   5.094  1.00  0.00     0.261 C 
BRANCH   5   6
ATOM      6  O   UNL     1       2.140   4.356   4.820  1.00  0.00    -0.462 OA
BRANCH   6   7
ATOM      7  C   UNL     1       2.876   4.815   3.782  1.00  0.00     0.326 C 
ATOM      8  O   UNL     1       2.511   5.665   2.984  1.00  0.00    -0.250 OA
BRANCH   7   9
ATOM      9  C   UNL     1       4.290   4.187   3.809  1.00  0.00     0.248 C 
BRANCH   9  10
ATOM     10  N   UNL     1       4.408   3.061   4.733  1.00  0.00    -0.291 N 
ATOM     11  N   UNL     1       5.100   0.318   4.581  1.00  0.00    -0.298 N 
ATOM     12  C   UNL     1       4.313   1.004   3.681  1.00  0.00     0.317 A 
ATOM     13  C   UNL     1       5.881   1.181   5.435  1.00  0.00     0.068 A 
ATOM     14  O   UNL     1       4.317   0.990   2.463  1.00  0.00    -0.263 OA
ATOM     15  C   UNL     1       3.538   2.028   4.452  1.00  0.00     0.317 A 
ATOM     16  C   UNL     1       5.656   2.612   5.314  1.00  0.00     0.069 A 
ATOM     17  C   UNL     1       6.889   0.726   6.280  1.00  0.00     0.028 A 
ATOM     18  O   UNL     1       2.442   1.800   4.930  1.00  0.00    -0.263 OA
ATOM     19  C   UNL     1       6.524   3.520   5.921  1.00  0.00     0.028 A 
ATOM     20  C   UNL     1       7.701   1.658   6.945  1.00  0.00     0.002 A 
ATOM     21  C   UNL     1       7.542   3.036   6.744  1.00  0.00     0.002 A 
BRANCH  11  22
ATOM     22  C   UNL     1       5.047  -1.137   4.515  1.00  0.00     0.162 C 
BRANCH  22  23
ATOM     23  C   UNL     1       3.586  -1.582   4.252  1.00  0.00    -0.024 A 
ATOM     24  C   UNL     1       1.648  -1.198   2.808  1.00  0.00     0.119 A 
ATOM     25  C   UNL     1       0.816  -1.373   3.912  1.00  0.00     0.046 A 
ATOM     26  C   UNL     1       3.020  -1.417   2.958  1.00  0.00     0.052 A 
ATOM     27  C   UNL     1       1.342  -1.730   5.153  1.00  0.00     0.004 A 
ATOM     28  C   UNL     1       2.724  -1.803   5.335  1.00  0.00     0.006 A 
BRANCH  24  29
ATOM     29  O   UNL     1       1.003  -0.699   1.711  1.00  0.00    -0.497 OA
ATOM     30  C   UNL     1       1.701  -0.559   0.483  1.00  0.00     0.278 C 
ENDBRANCH  24  29
ENDBRANCH  22  23
ENDBRANCH  11  22
ENDBRANCH   9  10
ENDBRANCH   7   9
ENDBRANCH   6   7
ENDBRANCH   5   6
ENDBRANCH   4   5
ENDBRANCH   3   4
ENDBRANCH   2   3
ENDBRANCH   1   2
BRANCH   1  31
ATOM     31  O   UNL     1       3.293   4.237   8.870  1.00  0.00    -0.377 OA
BRANCH  31  32
ATOM     32  C   UNL     1       2.241   4.887   9.533  1.00  0.00     0.188 C 
BRANCH  32  33
ATOM     33  C   UNL     1       2.574   6.288  10.066  1.00  0.00     0.188 C 
BRANCH  33  34
ATOM     34  O   UNL     1       3.869   6.871   9.980  1.00  0.00    -0.376 OA
BRANCH  34  35
ATOM     35  C   UNL     1       5.066   6.108   9.970  1.00  0.00     0.202 C 
BRANCH  35  36
ATOM     36  C   UNL     1       5.468   5.350  11.233  1.00  0.00     0.261 C 
BRANCH  36  37
ATOM     37  O   UNL     1       4.524   4.347  11.617  1.00  0.00    -0.460 OA
BRANCH  37  38
ATOM     38  C   UNL     1       3.737   4.686  12.664  1.00  0.00     0.338 C 
ATOM     39  O   UNL     1       3.775   5.700  13.329  1.00  0.00    -0.246 OA
BRANCH  38  40
ATOM     40  C   UNL     1       2.661   3.687  12.793  1.00  0.00     0.060 A 
ATOM     41  C   UNL     1       1.348   4.170  12.876  1.00  0.00     0.016 A 
ATOM     42  C   UNL     1       2.927   2.316  12.838  1.00  0.00     0.016 A 
ATOM     43  C   UNL     1       0.293   3.285  13.034  1.00  0.00     0.010 A 
ATOM     44  C   UNL     1       1.871   1.427  13.048  1.00  0.00     0.010 A 
ATOM     45  C   UNL     1       0.562   1.920  13.189  1.00  0.00    -0.014 A 
BRANCH  45  46
ATOM     46  C   UNL     1      -0.491   1.087  13.804  1.00  0.00     0.031 A 
ATOM     47  C   UNL     1      -0.525   1.026  15.305  1.00  0.00     0.074 A 
ATOM     48  C   UNL     1      -1.430   0.485  13.060  1.00  0.00     0.049 A 
ATOM     49  N   UNL     1      -1.373   0.425  16.096  1.00  0.00    -0.248 NA
ATOM     50  C   UNL     1       0.545   1.753  16.009  1.00  0.00     0.031 C 
ATOM     51  C   UNL     1      -1.513   0.532  11.602  1.00  0.00     0.029 A 
ATOM     52  N   UNL     1      -2.502  -0.280  13.439  1.00  0.00    -0.354 N 
ATOM     53  C   UNL     1      -0.942   0.708  17.386  1.00  0.00     0.074 A 
ATOM     54  C   UNL     1       0.259   1.502  17.276  1.00  0.00     0.031 C 
ATOM     55  C   UNL     1      -2.579  -0.186  11.207  1.00  0.00     0.029 A 
ATOM     56  C   UNL     1      -3.235  -0.755  12.383  1.00  0.00     0.049 A 
ATOM     57  H   UNL     1      -2.723  -0.469  14.379  1.00  0.00     0.167 HD
ATOM     58  C   UNL     1      -1.506   0.341  18.559  1.00  0.00     0.037 A 
ATOM     59  C   UNL     1      -4.308  -1.570  12.380  1.00  0.00     0.037 A 
ATOM     60  C   UNL     1      -2.689  -0.469  18.654  1.00  0.00     0.049 A 
ATOM     61  C   UNL     1      -4.876  -2.029  13.699  1.00  0.00     0.074 A 
ATOM     62  C   UNL     1      -3.346  -0.913  19.785  1.00  0.00     0.029 A 
ATOM     63  N   UNL     1      -3.383  -0.971  17.561  1.00  0.00    -0.354 N 
ATOM     64  N   UNL     1      -4.481  -1.744  14.917  1.00  0.00    -0.248 NA
ATOM     65  C   UNL     1      -6.046  -2.915  13.642  1.00  0.00     0.031 C 
ATOM     66  C   UNL     1      -4.405  -1.731  19.378  1.00  0.00     0.029 A 
ATOM     67  C   UNL     1      -4.448  -1.743  17.991  1.00  0.00     0.049 A 
ATOM     68  H   UNL     1      -3.152  -0.803  16.618  1.00  0.00     0.167 HD
ATOM     69  C   UNL     1      -5.369  -2.385  15.771  1.00  0.00     0.074 A 
ATOM     70  C   UNL     1      -6.330  -3.068  14.928  1.00  0.00     0.031 C 
ATOM     71  C   UNL     1      -5.393  -2.406  17.128  1.00  0.00     0.037 A 
BRANCH  58  72
ATOM     72  C   UNL     1      -0.812   0.775  19.817  1.00  0.00     0.064 A 
ATOM     73  C   UNL     1      -0.773   2.120  20.218  1.00  0.00     0.173 A 
ATOM     74  C   UNL     1      -0.154  -0.167  20.621  1.00  0.00     0.173 A 
ATOM     75  F   UNL     1      -1.364   3.065  19.471  1.00  0.00    -0.203 F 
ATOM     76  C   UNL     1      -0.072   2.508  21.357  1.00  0.00     0.198 A 
ATOM     77  C   UNL     1       0.518   0.220  21.777  1.00  0.00     0.198 A 
ATOM     78  F   UNL     1      -0.155  -1.465  20.281  1.00  0.00    -0.203 F 
ATOM     79  F   UNL     1       0.006   3.805  21.685  1.00  0.00    -0.200 F 
ATOM     80  C   UNL     1       0.568   1.558  22.139  1.00  0.00     0.200 A 
ATOM     81  F   UNL     1       1.129  -0.701  22.535  1.00  0.00    -0.200 F 
ATOM     82  F   UNL     1       1.244   1.933  23.233  1.00  0.00    -0.200 F 
ENDBRANCH  58  72
BRANCH  59  83
ATOM     83  C   UNL     1      -4.906  -1.999  11.089  1.00  0.00     0.064 A 
ATOM     84  C   UNL     1      -6.180  -1.566  10.696  1.00  0.00     0.173 A 
ATOM     85  C   UNL     1      -4.213  -2.855  10.220  1.00  0.00     0.173 A 
ATOM     86  F   UNL     1      -6.893  -0.766  11.502  1.00  0.00    -0.203 F 
ATOM     87  C   UNL     1      -6.742  -1.983   9.491  1.00  0.00     0.198 A 
ATOM     88  C   UNL     1      -4.764  -3.249   9.003  1.00  0.00     0.198 A 
ATOM     89  F   UNL     1      -2.991  -3.301  10.550  1.00  0.00    -0.203 F 
ATOM     90  F   UNL     1      -7.978  -1.587   9.158  1.00  0.00    -0.200 F 
ATOM     91  C   UNL     1      -6.031  -2.818   8.642  1.00  0.00     0.200 A 
ATOM     92  F   UNL     1      -4.067  -4.047   8.181  1.00  0.00    -0.200 F 
ATOM     93  F   UNL     1      -6.569  -3.214   7.480  1.00  0.00    -0.200 F 
ENDBRANCH  59  83
BRANCH  71  94
ATOM     94  C   UNL     1      -6.519  -3.153  17.784  1.00  0.00     0.064 A 
ATOM     95  C   UNL     1      -6.590  -4.553  17.764  1.00  0.00     0.173 A 
ATOM     96  C   UNL     1      -7.514  -2.454  18.485  1.00  0.00     0.173 A 
ATOM     97  F   UNL     1      -5.668  -5.267  17.100  1.00  0.00    -0.203 F 
ATOM     98  C   UNL     1      -7.634  -5.225  18.395  1.00  0.00     0.198 A 
ATOM     99  C   UNL     1      -8.537  -3.130  19.143  1.00  0.00     0.198 A 
ATOM    100  F   UNL     1      -7.486  -1.114  18.544  1.00  0.00    -0.203 F 
ATOM    101  F   UNL     1      -7.711  -6.561  18.319  1.00  0.00    -0.200 F 
ATOM    102  C   UNL     1      -8.601  -4.514  19.090  1.00  0.00     0.200 A 
ATOM    103  F   UNL     1      -9.459  -2.442  19.829  1.00  0.00    -0.200 F 
ATOM    104  F   UNL     1      -9.600  -5.163  19.704  1.00  0.00    -0.200 F 
ENDBRANCH  71  94
ENDBRANCH  45  46
ENDBRANCH  38  40
ENDBRANCH  37  38
ENDBRANCH  36  37
ENDBRANCH  35  36
ENDBRANCH  34  35
ENDBRANCH  33  34
ENDBRANCH  32  33
ENDBRANCH  31  32
ENDBRANCH   1  31
TORSDOF 24
