REMARK SMILES O=C(CC[N@H+]1CCC[C@@H](C(=O)OCCOCCOCCOCCOC(=O)c2ccc(-c3c4nc(c(-c5c(F)c(F)c(F)c(F)c5F)c5ccc([nH]5)c(-c5c(F)c(F)c(F)c(F)c5F)c5nc(c(-c6c(F)c(F)c(F)c(F)c6F)c6ccc3[nH]6)C=C5)C=C4)cc2)C1)Nc1cccc(F)c1
REMARK SMILES IDX 17 1 16 2 15 3 14 4 13 5 12 6 10 7 11 8 9 9 5 10 6 11 90 12
REMARK SMILES IDX 7 14 8 15 4 16 3 17 2 18 1 19 91 20 92 22 93 23 98 24 94 25
REMARK SMILES IDX 96 26 95 27 97 28 18 29 19 30 20 31 21 32 22 33 23 34 24 35
REMARK SMILES IDX 25 36 26 37 27 38 28 39 89 40 29 41 88 42 30 43 31 44 32 45
REMARK SMILES IDX 82 46 33 47 87 48 81 49 83 50 34 51 86 52 80 53 79 54 35 56
REMARK SMILES IDX 67 57 47 58 66 59 48 60 51 61 65 62 84 63 49 64 50 65 64 67
REMARK SMILES IDX 85 68 52 69 36 70 37 71 45 72 38 73 39 74 43 75 46 76 40 77
REMARK SMILES IDX 41 78 44 79 42 80 68 81 69 82 77 83 70 84 71 85 75 86 78 87
REMARK SMILES IDX 72 88 73 89 76 90 74 91 53 92 54 93 62 94 55 95 56 96 60 97
REMARK SMILES IDX 63 98 57 99 58 100 61 101 59 102
REMARK H PARENT 5 13 91 21 83 55 51 66
REMARK Flexibility Score: inf
ROOT
ATOM      1  C   UNL     1       5.433   5.319  -1.885  1.00  0.00     0.188 C 
ENDROOT
BRANCH   1   2
ATOM      2  C   UNL     1       4.980   5.646  -3.315  1.00  0.00     0.188 C 
BRANCH   2   3
ATOM      3  O   UNL     1       3.664   6.139  -3.540  1.00  0.00    -0.376 OA
BRANCH   3   4
ATOM      4  C   UNL     1       2.532   5.607  -2.867  1.00  0.00     0.202 C 
BRANCH   4   5
ATOM      5  C   UNL     1       2.218   4.129  -3.049  1.00  0.00     0.261 C 
BRANCH   5   6
ATOM      6  O   UNL     1       3.141   3.320  -2.313  1.00  0.00    -0.463 OA
BRANCH   6   7
ATOM      7  C   UNL     1       4.025   2.590  -3.043  1.00  0.00     0.314 C 
ATOM      8  O   UNL     1       4.108   2.576  -4.261  1.00  0.00    -0.252 OA
BRANCH   7   9
ATOM      9  C   UNL     1       4.852   1.744  -2.113  1.00  0.00     0.154 C 
ATOM     10  N   UNL     1       4.761  -0.488  -1.112  1.00  0.00    -0.334 N 
ATOM     11  C   UNL     1       6.016  -0.881  -1.783  1.00  0.00     0.262 C 
ATOM     12  C   UNL     1       4.061   0.453  -2.000  1.00  0.00     0.277 C 
ATOM     13  H   UNL     1       4.985  -0.067  -0.211  1.00  0.00     0.348 HD
ATOM     14  C   UNL     1       6.943   0.335  -1.913  1.00  0.00     0.062 C 
ATOM     15  C   UNL     1       6.273   1.510  -2.628  1.00  0.00     0.027 C 
BRANCH  10  16
ATOM     16  C   UNL     1       3.886  -1.646  -0.847  1.00  0.00     0.272 C 
BRANCH  16  17
ATOM     17  C   UNL     1       3.174  -1.525   0.505  1.00  0.00     0.161 C 
BRANCH  17  18
ATOM     18  C   UNL     1       2.157  -0.400   0.602  1.00  0.00     0.230 C 
ATOM     19  O   UNL     1       0.969  -0.600   0.367  1.00  0.00    -0.275 OA
ATOM     20  N   UNL     1       2.723   0.820   0.941  1.00  0.00    -0.326 N 
ATOM     21  H   UNL     1       3.705   0.851   0.992  1.00  0.00     0.169 HD
BRANCH  20  22
ATOM     22  C   UNL     1       2.038   2.023   1.219  1.00  0.00     0.044 A 
ATOM     23  C   UNL     1       2.780   3.214   1.208  1.00  0.00     0.026 A 
ATOM     24  C   UNL     1       0.678   2.081   1.525  1.00  0.00     0.065 A 
ATOM     25  C   UNL     1       2.164   4.446   1.459  1.00  0.00     0.005 A 
ATOM     26  C   UNL     1       0.079   3.310   1.797  1.00  0.00     0.125 A 
ATOM     27  C   UNL     1       0.805   4.494   1.753  1.00  0.00     0.039 A 
ATOM     28  F   UNL     1      -1.220   3.355   2.121  1.00  0.00    -0.207 F 
ENDBRANCH  20  22
ENDBRANCH  17  18
ENDBRANCH  16  17
ENDBRANCH  10  16
ENDBRANCH   7   9
ENDBRANCH   6   7
ENDBRANCH   5   6
ENDBRANCH   4   5
ENDBRANCH   3   4
ENDBRANCH   2   3
ENDBRANCH   1   2
BRANCH   1  29
ATOM     29  O   UNL     1       5.792   6.429  -1.078  1.00  0.00    -0.377 OA
BRANCH  29  30
ATOM     30  C   UNL     1       4.715   7.229  -0.624  1.00  0.00     0.188 C 
BRANCH  30  31
ATOM     31  C   UNL     1       4.351   8.416  -1.532  1.00  0.00     0.188 C 
BRANCH  31  32
ATOM     32  O   UNL     1       5.337   9.250  -2.134  1.00  0.00    -0.376 OA
BRANCH  32  33
ATOM     33  C   UNL     1       6.709   8.916  -2.047  1.00  0.00     0.202 C 
BRANCH  33  34
ATOM     34  C   UNL     1       7.403   9.346  -0.747  1.00  0.00     0.261 C 
BRANCH  34  35
ATOM     35  O   UNL     1       6.585   9.281   0.431  1.00  0.00    -0.460 OA
BRANCH  35  36
ATOM     36  C   UNL     1       5.801  10.356   0.658  1.00  0.00     0.338 C 
ATOM     37  O   UNL     1       5.755  11.402   0.013  1.00  0.00    -0.246 OA
BRANCH  36  38
ATOM     38  C   UNL     1       4.886  10.064   1.776  1.00  0.00     0.060 A 
ATOM     39  C   UNL     1       3.511  10.263   1.595  1.00  0.00     0.016 A 
ATOM     40  C   UNL     1       5.381   9.643   3.014  1.00  0.00     0.016 A 
ATOM     41  C   UNL     1       2.631  10.069   2.658  1.00  0.00     0.010 A 
ATOM     42  C   UNL     1       4.502   9.475   4.087  1.00  0.00     0.010 A 
ATOM     43  C   UNL     1       3.127   9.720   3.921  1.00  0.00    -0.014 A 
BRANCH  43  44
ATOM     44  C   UNL     1       2.234   9.808   5.099  1.00  0.00     0.031 A 
ATOM     45  C   UNL     1       2.230  11.080   5.902  1.00  0.00     0.074 A 
ATOM     46  C   UNL     1       1.412   8.796   5.426  1.00  0.00     0.049 A 
ATOM     47  N   UNL     1       1.540  11.390   6.969  1.00  0.00    -0.248 NA
ATOM     48  C   UNL     1       3.129  12.148   5.435  1.00  0.00     0.031 C 
ATOM     49  C   UNL     1       1.301   7.531   4.705  1.00  0.00     0.029 A 
ATOM     50  N   UNL     1       0.515   8.678   6.458  1.00  0.00    -0.354 N 
ATOM     51  C   UNL     1       1.919  12.685   7.299  1.00  0.00     0.074 A 
ATOM     52  C   UNL     1       2.923  13.091   6.340  1.00  0.00     0.031 C 
ATOM     53  C   UNL     1       0.390   6.757   5.321  1.00  0.00     0.029 A 
ATOM     54  C   UNL     1      -0.124   7.464   6.494  1.00  0.00     0.049 A 
ATOM     55  H   UNL     1       0.345   9.396   7.110  1.00  0.00     0.167 HD
ATOM     56  C   UNL     1       1.462  13.468   8.304  1.00  0.00     0.037 A 
ATOM     57  C   UNL     1      -1.010   6.978   7.385  1.00  0.00     0.037 A 
ATOM     58  C   UNL     1       0.467  13.060   9.260  1.00  0.00     0.049 A 
ATOM     59  C   UNL     1      -1.449   7.845   8.538  1.00  0.00     0.074 A 
ATOM     60  C   UNL     1      -0.074  13.784  10.307  1.00  0.00     0.029 A 
ATOM     61  N   UNL     1      -0.130  11.808   9.289  1.00  0.00    -0.354 N 
ATOM     62  N   UNL     1      -1.108   9.077   8.828  1.00  0.00    -0.248 NA
ATOM     63  C   UNL     1      -2.403   7.251   9.486  1.00  0.00     0.031 C 
ATOM     64  C   UNL     1      -0.961  12.954  11.001  1.00  0.00     0.029 A 
ATOM     65  C   UNL     1      -1.013  11.729  10.354  1.00  0.00     0.049 A 
ATOM     66  H   UNL     1       0.049  11.082   8.649  1.00  0.00     0.167 HD
ATOM     67  C   UNL     1      -1.820   9.414   9.973  1.00  0.00     0.074 A 
ATOM     68  C   UNL     1      -2.627   8.262  10.314  1.00  0.00     0.031 C 
ATOM     69  C   UNL     1      -1.807  10.572  10.680  1.00  0.00     0.037 A 
BRANCH  56  70
ATOM     70  C   UNL     1       2.057  14.840   8.435  1.00  0.00     0.064 A 
ATOM     71  C   UNL     1       1.770  15.859   7.515  1.00  0.00     0.173 A 
ATOM     72  C   UNL     1       2.906  15.144   9.509  1.00  0.00     0.173 A 
ATOM     73  F   UNL     1       0.978  15.614   6.461  1.00  0.00    -0.203 F 
ATOM     74  C   UNL     1       2.332  17.127   7.653  1.00  0.00     0.198 A 
ATOM     75  C   UNL     1       3.442  16.420   9.660  1.00  0.00     0.198 A 
ATOM     76  F   UNL     1       3.212  14.205  10.417  1.00  0.00    -0.203 F 
ATOM     77  F   UNL     1       2.081  18.072   6.737  1.00  0.00    -0.200 F 
ATOM     78  C   UNL     1       3.161  17.408   8.728  1.00  0.00     0.200 A 
ATOM     79  F   UNL     1       4.236  16.693  10.705  1.00  0.00    -0.200 F 
ATOM     80  F   UNL     1       3.695  18.630   8.863  1.00  0.00    -0.200 F 
ENDBRANCH  56  70
BRANCH  57  81
ATOM     81  C   UNL     1      -1.533   5.594   7.234  1.00  0.00     0.064 A 
ATOM     82  C   UNL     1      -2.878   5.357   6.922  1.00  0.00     0.173 A 
ATOM     83  C   UNL     1      -0.702   4.480   7.426  1.00  0.00     0.173 A 
ATOM     84  F   UNL     1      -3.719   6.390   6.759  1.00  0.00    -0.203 F 
ATOM     85  C   UNL     1      -3.378   4.059   6.827  1.00  0.00     0.198 A 
ATOM     86  C   UNL     1      -1.196   3.183   7.302  1.00  0.00     0.198 A 
ATOM     87  F   UNL     1       0.592   4.652   7.733  1.00  0.00    -0.203 F 
ATOM     88  F   UNL     1      -4.680   3.862   6.583  1.00  0.00    -0.200 F 
ATOM     89  C   UNL     1      -2.535   2.974   7.012  1.00  0.00     0.200 A 
ATOM     90  F   UNL     1      -0.376   2.138   7.477  1.00  0.00    -0.200 F 
ATOM     91  F   UNL     1      -3.017   1.726   6.926  1.00  0.00    -0.200 F 
ENDBRANCH  57  81
BRANCH  69  92
ATOM     92  C   UNL     1      -2.712  10.657  11.876  1.00  0.00     0.064 A 
ATOM     93  C   UNL     1      -2.454   9.931  13.048  1.00  0.00     0.173 A 
ATOM     94  C   UNL     1      -3.838  11.495  11.858  1.00  0.00     0.173 A 
ATOM     95  F   UNL     1      -1.398   9.106  13.112  1.00  0.00    -0.203 F 
ATOM     96  C   UNL     1      -3.308  10.014  14.145  1.00  0.00     0.198 A 
ATOM     97  C   UNL     1      -4.671  11.601  12.969  1.00  0.00     0.198 A 
ATOM     98  F   UNL     1      -4.125  12.219  10.767  1.00  0.00    -0.203 F 
ATOM     99  F   UNL     1      -3.072   9.268  15.233  1.00  0.00    -0.200 F 
ATOM    100  C   UNL     1      -4.412  10.853  14.107  1.00  0.00     0.200 A 
ATOM    101  F   UNL     1      -5.729  12.423  12.935  1.00  0.00    -0.200 F 
ATOM    102  F   UNL     1      -5.231  10.934  15.164  1.00  0.00    -0.200 F 
ENDBRANCH  69  92
ENDBRANCH  43  44
ENDBRANCH  36  38
ENDBRANCH  35  36
ENDBRANCH  34  35
ENDBRANCH  33  34
ENDBRANCH  32  33
ENDBRANCH  31  32
ENDBRANCH  30  31
ENDBRANCH  29  30
ENDBRANCH   1  29
TORSDOF 24
