REMARK SMILES C[C@H]1C[N@H+]2CCCC[C@@H]2CN1C(=O)[C@H]([NH3+])CC(=O)OCCOCCOCCOCCOC(=O)c1ccc(-c2c3nc(c(-c4c(F)c(F)c(F)c(F)c4F)c4ccc([nH]4)c(-c4c(F)c(F)c(F)c(F)c4F)c4nc(c(-c5c(F)c(F)c(F)c(F)c5F)c5ccc2[nH]5)C=C4)C=C3)cc1
REMARK SMILES IDX 24 1 23 2 22 3 21 4 20 5 19 6 17 7 18 8 16 9 14 10 12 11
REMARK SMILES IDX 13 12 11 13 1 14 2 15 3 16 4 17 10 18 5 19 9 20 6 22 8 23
REMARK SMILES IDX 7 24 15 25 25 29 26 30 27 31 28 32 29 33 30 34 31 35 32 36
REMARK SMILES IDX 33 37 34 38 35 39 96 40 36 41 95 42 37 43 38 44 39 45 89 46
REMARK SMILES IDX 40 47 94 48 88 49 90 50 41 51 93 52 87 53 86 54 42 56 74 57
REMARK SMILES IDX 54 58 73 59 55 60 58 61 72 62 91 63 56 64 57 65 71 67 92 68
REMARK SMILES IDX 59 69 43 70 44 71 52 72 45 73 46 74 50 75 53 76 47 77 48 78
REMARK SMILES IDX 51 79 49 80 75 81 76 82 84 83 77 84 78 85 82 86 85 87 79 88
REMARK SMILES IDX 80 89 83 90 81 91 60 92 61 93 69 94 62 95 63 96 67 97 70 98
REMARK SMILES IDX 64 99 65 100 68 101 66 102
REMARK H PARENT 4 21 15 26 15 27 15 28 90 55 58 66
REMARK Flexibility Score: inf
ROOT
ATOM      1  C   UNL     1       3.641   2.027  -4.250  1.00  0.00     0.188 C 
ENDROOT
BRANCH   1   2
ATOM      2  C   UNL     1       4.898   2.900  -4.214  1.00  0.00     0.188 C 
BRANCH   2   3
ATOM      3  O   UNL     1       6.051   2.462  -3.516  1.00  0.00    -0.376 OA
BRANCH   3   4
ATOM      4  C   UNL     1       5.937   1.920  -2.208  1.00  0.00     0.202 C 
BRANCH   4   5
ATOM      5  C   UNL     1       5.077   2.594  -1.122  1.00  0.00     0.261 C 
BRANCH   5   6
ATOM      6  O   UNL     1       3.701   2.878  -1.461  1.00  0.00    -0.463 OA
BRANCH   6   7
ATOM      7  C   UNL     1       3.363   4.185  -1.519  1.00  0.00     0.312 C 
ATOM      8  O   UNL     1       4.142   5.103  -1.278  1.00  0.00    -0.252 OA
BRANCH   7   9
ATOM      9  C   UNL     1       1.918   4.481  -1.849  1.00  0.00     0.198 C 
BRANCH   9  10
ATOM     10  C   UNL     1       0.956   3.466  -2.477  1.00  0.00     0.282 C 
BRANCH  10  11
ATOM     11  C   UNL     1      -0.423   4.141  -2.674  1.00  0.00     0.282 C 
ATOM     12  O   UNL     1      -0.657   4.614  -3.792  1.00  0.00    -0.268 OA
BRANCH  11  13
ATOM     13  N   UNL     1      -1.309   4.263  -1.619  1.00  0.00    -0.323 N 
ATOM     14  C   UNL     1      -3.250   4.910  -3.185  1.00  0.00     0.037 C 
ATOM     15  C   UNL     1      -2.682   4.810  -1.761  1.00  0.00     0.137 C 
ATOM     16  C   UNL     1      -3.720   3.978  -0.925  1.00  0.00     0.287 C 
ATOM     17  N   UNL     1      -3.279   3.464   0.395  1.00  0.00    -0.329 N 
ATOM     18  C   UNL     1      -0.975   3.946  -0.232  1.00  0.00     0.185 C 
ATOM     19  C   UNL     1      -4.247   2.477   0.895  1.00  0.00     0.262 C 
ATOM     20  C   UNL     1      -1.932   2.867   0.284  1.00  0.00     0.203 C 
ATOM     21  H   UNL     1      -3.233   4.238   1.058  1.00  0.00     0.348 HD
ATOM     22  C   UNL     1      -3.826   1.921   2.255  1.00  0.00     0.062 C 
ATOM     23  C   UNL     1      -1.438   2.321   1.628  1.00  0.00     0.067 C 
ATOM     24  C   UNL     1      -2.428   1.316   2.201  1.00  0.00     0.012 C 
ENDBRANCH  11  13
ENDBRANCH  10  11
BRANCH  10  25
ATOM     25  N   UNL     1       0.856   2.091  -1.948  1.00  0.00    -0.347 N 
ATOM     26  H   UNL     1       0.408   2.111  -1.032  1.00  0.00     0.345 HD
ATOM     27  H   UNL     1       1.791   1.691  -1.860  1.00  0.00     0.345 HD
ATOM     28  H   UNL     1       0.301   1.520  -2.586  1.00  0.00     0.345 HD
ENDBRANCH  10  25
ENDBRANCH   9  10
ENDBRANCH   7   9
ENDBRANCH   6   7
ENDBRANCH   5   6
ENDBRANCH   4   5
ENDBRANCH   3   4
ENDBRANCH   2   3
ENDBRANCH   1   2
BRANCH   1  29
ATOM     29  O   UNL     1       3.571   0.999  -3.280  1.00  0.00    -0.377 OA
BRANCH  29  30
ATOM     30  C   UNL     1       3.897  -0.317  -3.712  1.00  0.00     0.188 C 
BRANCH  30  31
ATOM     31  C   UNL     1       4.939  -0.475  -4.835  1.00  0.00     0.188 C 
BRANCH  31  32
ATOM     32  O   UNL     1       4.651   0.277  -6.006  1.00  0.00    -0.376 OA
BRANCH  32  33
ATOM     33  C   UNL     1       3.916  -0.342  -7.055  1.00  0.00     0.202 C 
BRANCH  33  34
ATOM     34  C   UNL     1       2.466  -0.773  -6.767  1.00  0.00     0.261 C 
BRANCH  34  35
ATOM     35  O   UNL     1       2.281  -1.780  -5.755  1.00  0.00    -0.460 OA
BRANCH  35  36
ATOM     36  C   UNL     1       2.956  -2.942  -5.881  1.00  0.00     0.338 C 
ATOM     37  O   UNL     1       3.643  -3.298  -6.815  1.00  0.00    -0.246 OA
BRANCH  36  38
ATOM     38  C   UNL     1       2.895  -3.648  -4.580  1.00  0.00     0.060 A 
ATOM     39  C   UNL     1       4.099  -3.956  -3.935  1.00  0.00     0.016 A 
ATOM     40  C   UNL     1       1.675  -4.029  -4.017  1.00  0.00     0.016 A 
ATOM     41  C   UNL     1       4.091  -4.693  -2.752  1.00  0.00     0.010 A 
ATOM     42  C   UNL     1       1.669  -4.791  -2.842  1.00  0.00     0.010 A 
ATOM     43  C   UNL     1       2.879  -5.163  -2.229  1.00  0.00    -0.014 A 
BRANCH  43  44
ATOM     44  C   UNL     1       2.909  -6.216  -1.182  1.00  0.00     0.031 A 
ATOM     45  C   UNL     1       2.759  -7.652  -1.612  1.00  0.00     0.074 A 
ATOM     46  C   UNL     1       3.128  -5.918   0.111  1.00  0.00     0.049 A 
ATOM     47  N   UNL     1       2.758  -8.743  -0.890  1.00  0.00    -0.248 NA
ATOM     48  C   UNL     1       2.592  -7.889  -3.056  1.00  0.00     0.031 C 
ATOM     49  C   UNL     1       3.342  -4.575   0.645  1.00  0.00     0.029 A 
ATOM     50  N   UNL     1       3.208  -6.735   1.213  1.00  0.00    -0.354 N 
ATOM     51  C   UNL     1       2.579  -9.789  -1.787  1.00  0.00     0.074 A 
ATOM     52  C   UNL     1       2.451  -9.205  -3.103  1.00  0.00     0.031 C 
ATOM     53  C   UNL     1       3.525  -4.659   1.976  1.00  0.00     0.029 A 
ATOM     54  C   UNL     1       3.408  -6.057   2.391  1.00  0.00     0.049 A 
ATOM     55  H   UNL     1       3.129  -7.715   1.163  1.00  0.00     0.167 HD
ATOM     56  C   UNL     1       2.531 -11.118  -1.535  1.00  0.00     0.037 A 
ATOM     57  C   UNL     1       3.466  -6.515   3.657  1.00  0.00     0.037 A 
ATOM     58  C   UNL     1       2.675 -11.700  -0.227  1.00  0.00     0.049 A 
ATOM     59  C   UNL     1       3.332  -7.998   3.913  1.00  0.00     0.074 A 
ATOM     60  C   UNL     1       2.677 -13.038   0.124  1.00  0.00     0.029 A 
ATOM     61  N   UNL     1       2.830 -10.977   0.945  1.00  0.00    -0.354 N 
ATOM     62  N   UNL     1       3.206  -8.982   3.056  1.00  0.00    -0.248 NA
ATOM     63  C   UNL     1       3.350  -8.433   5.318  1.00  0.00     0.031 C 
ATOM     64  C   UNL     1       2.764 -13.123   1.516  1.00  0.00     0.029 A 
ATOM     65  C   UNL     1       2.891 -11.841   2.026  1.00  0.00     0.049 A 
ATOM     66  H   UNL     1       2.889  -9.996   1.002  1.00  0.00     0.167 HD
ATOM     67  C   UNL     1       3.176 -10.148   3.812  1.00  0.00     0.074 A 
ATOM     68  C   UNL     1       3.309  -9.752   5.196  1.00  0.00     0.031 C 
ATOM     69  C   UNL     1       3.049 -11.433   3.398  1.00  0.00     0.037 A 
BRANCH  56  70
ATOM     70  C   UNL     1       2.280 -12.045  -2.689  1.00  0.00     0.064 A 
ATOM     71  C   UNL     1       3.252 -12.293  -3.669  1.00  0.00     0.173 A 
ATOM     72  C   UNL     1       1.068 -12.748  -2.773  1.00  0.00     0.173 A 
ATOM     73  F   UNL     1       4.422 -11.636  -3.642  1.00  0.00    -0.203 F 
ATOM     74  C   UNL     1       3.015 -13.201  -4.698  1.00  0.00     0.198 A 
ATOM     75  C   UNL     1       0.847 -13.677  -3.785  1.00  0.00     0.198 A 
ATOM     76  F   UNL     1       0.106 -12.549  -1.860  1.00  0.00    -0.203 F 
ATOM     77  F   UNL     1       3.944 -13.398  -5.643  1.00  0.00    -0.200 F 
ATOM     78  C   UNL     1       1.818 -13.901  -4.748  1.00  0.00     0.200 A 
ATOM     79  F   UNL     1      -0.305 -14.362  -3.823  1.00  0.00    -0.200 F 
ATOM     80  F   UNL     1       1.600 -14.789  -5.728  1.00  0.00    -0.200 F 
ENDBRANCH  56  70
BRANCH  57  81
ATOM     81  C   UNL     1       3.638  -5.573   4.799  1.00  0.00     0.064 A 
ATOM     82  C   UNL     1       4.773  -5.627   5.621  1.00  0.00     0.173 A 
ATOM     83  C   UNL     1       2.638  -4.648   5.135  1.00  0.00     0.173 A 
ATOM     84  F   UNL     1       5.748  -6.511   5.360  1.00  0.00    -0.203 F 
ATOM     85  C   UNL     1       4.882  -4.824   6.755  1.00  0.00     0.198 A 
ATOM     86  C   UNL     1       2.765  -3.820   6.248  1.00  0.00     0.198 A 
ATOM     87  F   UNL     1       1.529  -4.554   4.387  1.00  0.00    -0.203 F 
ATOM     88  F   UNL     1       5.944  -4.950   7.564  1.00  0.00    -0.200 F 
ATOM     89  C   UNL     1       3.880  -3.918   7.066  1.00  0.00     0.200 A 
ATOM     90  F   UNL     1       1.799  -2.937   6.537  1.00  0.00    -0.200 F 
ATOM     91  F   UNL     1       3.980  -3.153   8.161  1.00  0.00    -0.200 F 
ENDBRANCH  57  81
BRANCH  69  92
ATOM     92  C   UNL     1       3.110 -12.512   4.443  1.00  0.00     0.064 A 
ATOM     93  C   UNL     1       2.081 -12.700   5.377  1.00  0.00     0.173 A 
ATOM     94  C   UNL     1       4.197 -13.401   4.477  1.00  0.00     0.173 A 
ATOM     95  F   UNL     1       1.026 -11.872   5.396  1.00  0.00    -0.203 F 
ATOM     96  C   UNL     1       2.153 -13.717   6.327  1.00  0.00     0.198 A 
ATOM     97  C   UNL     1       4.247 -14.439   5.403  1.00  0.00     0.198 A 
ATOM     98  F   UNL     1       5.203 -13.274   3.599  1.00  0.00    -0.203 F 
ATOM     99  F   UNL     1       1.185 -13.842   7.245  1.00  0.00    -0.200 F 
ATOM    100  C   UNL     1       3.231 -14.590   6.333  1.00  0.00     0.200 A 
ATOM    101  F   UNL     1       5.279 -15.294   5.394  1.00  0.00    -0.200 F 
ATOM    102  F   UNL     1       3.292 -15.574   7.241  1.00  0.00    -0.200 F 
ENDBRANCH  69  92
ENDBRANCH  43  44
ENDBRANCH  36  38
ENDBRANCH  35  36
ENDBRANCH  34  35
ENDBRANCH  33  34
ENDBRANCH  32  33
ENDBRANCH  31  32
ENDBRANCH  30  31
ENDBRANCH  29  30
ENDBRANCH   1  29
TORSDOF 24
