REMARK SMILES Cc1ccc(S(=O)(=O)N[C@@H](C)C(=O)Oc2csc(C(=O)OCCOCCOCCOCCOC(=O)c3ccc(-c4c5nc(c(-c6c(F)c(F)c(F)c(F)c6F)c6ccc([nH]6)c(-c6c(F)c(F)c(F)c(F)c6F)c6nc(c(-c7c(F)c(F)c(F)c(F)c7F)c7ccc4[nH]7)C=C6)C=C5)cc3)c2C)cc1
REMARK SMILES IDX 25 1 24 2 23 3 22 4 21 5 19 6 20 7 18 8 15 9 16 10 99 11
REMARK SMILES IDX 17 12 100 13 14 14 12 15 13 16 10 17 11 18 9 19 6 21 7 22
REMARK SMILES IDX 8 23 5 24 1 25 2 26 3 27 102 28 4 29 101 30 26 31 27 32
REMARK SMILES IDX 28 33 29 34 30 35 31 36 32 37 33 38 34 39 35 40 36 41 37 42
REMARK SMILES IDX 98 43 38 44 97 45 39 46 40 47 41 48 91 49 42 50 96 51 90 52
REMARK SMILES IDX 92 53 43 54 95 55 89 56 88 57 44 59 76 60 56 61 75 62 57 63
REMARK SMILES IDX 60 64 74 65 93 66 58 67 59 68 73 70 94 71 61 72 45 73 46 74
REMARK SMILES IDX 54 75 47 76 48 77 52 78 55 79 49 80 50 81 53 82 51 83 77 84
REMARK SMILES IDX 78 85 86 86 79 87 80 88 84 89 87 90 81 91 82 92 85 93 83 94
REMARK SMILES IDX 62 95 63 96 71 97 64 98 65 99 69 100 72 101 66 102 67 103
REMARK SMILES IDX 70 104 68 105
REMARK H PARENT 9 20 92 58 60 69
REMARK Flexibility Score: inf
ROOT
ATOM      1  C   UNL     1      -9.298   8.246  -3.774  1.00  0.00     0.188 C 
ENDROOT
BRANCH   1   2
ATOM      2  O   UNL     1      -8.176   8.854  -3.176  1.00  0.00    -0.376 OA
BRANCH   2   3
ATOM      3  C   UNL     1      -7.163   9.314  -4.052  1.00  0.00     0.202 C 
BRANCH   3   4
ATOM      4  C   UNL     1      -6.053   8.302  -4.224  1.00  0.00     0.261 C 
BRANCH   4   5
ATOM      5  O   UNL     1      -5.386   7.904  -3.030  1.00  0.00    -0.459 OA
BRANCH   5   6
ATOM      6  C   UNL     1      -6.084   8.030  -1.870  1.00  0.00     0.348 C 
ATOM      7  O   UNL     1      -6.260   9.082  -1.278  1.00  0.00    -0.245 OA
BRANCH   6   8
ATOM      8  C   UNL     1      -6.429   6.719  -1.395  1.00  0.00     0.119 A 
ATOM      9  C   UNL     1      -6.256   4.533  -0.815  1.00  0.00     0.145 A 
ATOM     10  C   UNL     1      -7.129   4.957   0.153  1.00  0.00     0.113 A 
ATOM     11  C   UNL     1      -6.029   5.476  -1.856  1.00  0.00     0.017 A 
ATOM     12  S   UNL     1      -7.469   6.614  -0.035  1.00  0.00    -0.133 S 
ATOM     13  C   UNL     1      -5.269   5.150  -3.108  1.00  0.00     0.050 C 
BRANCH   9  14
ATOM     14  O   UNL     1      -5.668   3.326  -0.765  1.00  0.00    -0.424 OA
BRANCH  14  15
ATOM     15  C   UNL     1      -4.295   3.357  -0.880  1.00  0.00     0.329 C 
ATOM     16  O   UNL     1      -3.557   4.308  -0.641  1.00  0.00    -0.250 OA
BRANCH  15  17
ATOM     17  C   UNL     1      -3.789   1.989  -1.282  1.00  0.00     0.177 C 
ATOM     18  C   UNL     1      -4.407   1.535  -2.591  1.00  0.00     0.038 C 
BRANCH  17  19
ATOM     19  N   UNL     1      -4.105   1.143  -0.133  1.00  0.00    -0.197 NA
ATOM     20  H   UNL     1      -3.818   1.675   0.688  1.00  0.00     0.142 HD
BRANCH  19  21
ATOM     21  S   UNL     1      -3.507  -0.377   0.090  1.00  0.00     0.241 S 
ATOM     22  O   UNL     1      -3.801  -1.129  -1.116  1.00  0.00    -0.207 OA
ATOM     23  O   UNL     1      -3.989  -0.795   1.380  1.00  0.00    -0.207 OA
BRANCH  21  24
ATOM     24  C   UNL     1      -1.750  -0.206   0.202  1.00  0.00     0.082 A 
ATOM     25  C   UNL     1       2.534  -0.006   0.003  1.00  0.00     0.044 C 
ATOM     26  C   UNL     1       1.038  -0.061   0.084  1.00  0.00    -0.051 A 
ATOM     27  C   UNL     1       0.388  -1.294  -0.045  1.00  0.00     0.005 A 
ATOM     28  C   UNL     1       0.280   1.096   0.309  1.00  0.00     0.005 A 
ATOM     29  C   UNL     1      -1.001  -1.366  -0.002  1.00  0.00     0.022 A 
ATOM     30  C   UNL     1      -1.113   1.024   0.390  1.00  0.00     0.022 A 
ENDBRANCH  21  24
ENDBRANCH  19  21
ENDBRANCH  17  19
ENDBRANCH  15  17
ENDBRANCH  14  15
ENDBRANCH   9  14
ENDBRANCH   6   8
ENDBRANCH   5   6
ENDBRANCH   4   5
ENDBRANCH   3   4
ENDBRANCH   2   3
ENDBRANCH   1   2
BRANCH   1  31
ATOM     31  C   UNL     1      -9.107   6.814  -4.307  1.00  0.00     0.188 C 
BRANCH  31  32
ATOM     32  O   UNL     1      -8.005   6.509  -5.143  1.00  0.00    -0.377 OA
BRANCH  32  33
ATOM     33  C   UNL     1      -8.067   6.604  -6.556  1.00  0.00     0.188 C 
BRANCH  33  34
ATOM     34  C   UNL     1      -7.880   7.998  -7.139  1.00  0.00     0.188 C 
BRANCH  34  35
ATOM     35  O   UNL     1      -8.841   8.920  -6.657  1.00  0.00    -0.376 OA
BRANCH  35  36
ATOM     36  C   UNL     1     -10.128   8.882  -7.255  1.00  0.00     0.202 C 
BRANCH  36  37
ATOM     37  C   UNL     1     -10.093   9.385  -8.699  1.00  0.00     0.261 C 
BRANCH  37  38
ATOM     38  O   UNL     1      -9.421  10.662  -8.717  1.00  0.00    -0.460 OA
BRANCH  38  39
ATOM     39  C   UNL     1      -8.122  10.639  -9.130  1.00  0.00     0.338 C 
ATOM     40  O   UNL     1      -7.693   9.992 -10.072  1.00  0.00    -0.246 OA
BRANCH  39  41
ATOM     41  C   UNL     1      -7.242  11.299  -8.118  1.00  0.00     0.060 A 
ATOM     42  C   UNL     1      -5.840  11.197  -8.219  1.00  0.00     0.016 A 
ATOM     43  C   UNL     1      -7.800  11.797  -6.947  1.00  0.00     0.016 A 
ATOM     44  C   UNL     1      -5.010  11.515  -7.125  1.00  0.00     0.010 A 
ATOM     45  C   UNL     1      -6.982  12.046  -5.857  1.00  0.00     0.010 A 
ATOM     46  C   UNL     1      -5.582  11.907  -5.913  1.00  0.00    -0.014 A 
BRANCH  46  47
ATOM     47  C   UNL     1      -4.881  12.052  -4.617  1.00  0.00     0.031 A 
ATOM     48  C   UNL     1      -5.234  13.168  -3.680  1.00  0.00     0.074 A 
ATOM     49  C   UNL     1      -4.246  10.985  -4.073  1.00  0.00     0.049 A 
ATOM     50  N   UNL     1      -4.779  13.282  -2.477  1.00  0.00    -0.248 NA
ATOM     51  C   UNL     1      -6.130  14.275  -4.008  1.00  0.00     0.031 C 
ATOM     52  C   UNL     1      -4.197  10.677  -2.650  1.00  0.00     0.029 A 
ATOM     53  N   UNL     1      -3.629   9.884  -4.633  1.00  0.00    -0.354 N 
ATOM     54  C   UNL     1      -5.641  14.087  -1.776  1.00  0.00     0.074 A 
ATOM     55  C   UNL     1      -6.312  14.838  -2.806  1.00  0.00     0.031 C 
ATOM     56  C   UNL     1      -3.439   9.605  -2.419  1.00  0.00     0.029 A 
ATOM     57  C   UNL     1      -2.873   9.210  -3.683  1.00  0.00     0.049 A 
ATOM     58  H   UNL     1      -3.713   9.613  -5.576  1.00  0.00     0.167 HD
ATOM     59  C   UNL     1      -5.772  13.901  -0.426  1.00  0.00     0.037 A 
ATOM     60  C   UNL     1      -1.641   8.671  -3.812  1.00  0.00     0.037 A 
ATOM     61  C   UNL     1      -4.809  12.889   0.088  1.00  0.00     0.049 A 
ATOM     62  C   UNL     1      -0.812   9.418  -2.786  1.00  0.00     0.074 A 
ATOM     63  C   UNL     1      -4.921  11.696   0.785  1.00  0.00     0.029 A 
ATOM     64  N   UNL     1      -3.465  12.942  -0.322  1.00  0.00    -0.354 N 
ATOM     65  N   UNL     1      -1.131  10.652  -2.440  1.00  0.00    -0.248 NA
ATOM     66  C   UNL     1       0.114   8.794  -1.841  1.00  0.00     0.031 C 
ATOM     67  C   UNL     1      -3.654  11.021   0.731  1.00  0.00     0.029 A 
ATOM     68  C   UNL     1      -2.752  11.798   0.011  1.00  0.00     0.049 A 
ATOM     69  H   UNL     1      -3.071  13.710  -0.796  1.00  0.00     0.167 HD
ATOM     70  C   UNL     1      -0.767  10.825  -1.133  1.00  0.00     0.074 A 
ATOM     71  C   UNL     1       0.102   9.692  -0.836  1.00  0.00     0.031 C 
ATOM     72  C   UNL     1      -1.310  11.710  -0.242  1.00  0.00     0.037 A 
BRANCH  59  73
ATOM     73  C   UNL     1      -6.862  14.543   0.444  1.00  0.00     0.064 A 
ATOM     74  C   UNL     1      -6.802  14.462   1.855  1.00  0.00     0.173 A 
ATOM     75  C   UNL     1      -8.004  15.231  -0.035  1.00  0.00     0.173 A 
ATOM     76  F   UNL     1      -5.808  13.806   2.469  1.00  0.00    -0.203 F 
ATOM     77  C   UNL     1      -7.760  15.054   2.696  1.00  0.00     0.198 A 
ATOM     78  C   UNL     1      -8.924  15.876   0.805  1.00  0.00     0.198 A 
ATOM     79  F   UNL     1      -8.326  15.264  -1.331  1.00  0.00    -0.203 F 
ATOM     80  F   UNL     1      -7.659  14.913   4.026  1.00  0.00    -0.200 F 
ATOM     81  C   UNL     1      -8.803  15.787   2.172  1.00  0.00     0.200 A 
ATOM     82  F   UNL     1      -9.938  16.572   0.269  1.00  0.00    -0.200 F 
ATOM     83  F   UNL     1      -9.695  16.386   2.973  1.00  0.00    -0.200 F 
ENDBRANCH  59  73
BRANCH  60  84
ATOM     84  C   UNL     1      -1.434   8.038  -5.140  1.00  0.00     0.064 A 
ATOM     85  C   UNL     1      -2.033   6.758  -5.262  1.00  0.00     0.173 A 
ATOM     86  C   UNL     1      -1.427   8.837  -6.295  1.00  0.00     0.173 A 
ATOM     87  F   UNL     1      -2.047   5.925  -4.208  1.00  0.00    -0.203 F 
ATOM     88  C   UNL     1      -2.787   6.403  -6.384  1.00  0.00     0.198 A 
ATOM     89  C   UNL     1      -2.208   8.486  -7.409  1.00  0.00     0.198 A 
ATOM     90  F   UNL     1      -0.939  10.084  -6.239  1.00  0.00    -0.203 F 
ATOM     91  F   UNL     1      -3.489   5.259  -6.390  1.00  0.00    -0.200 F 
ATOM     92  C   UNL     1      -2.922   7.295  -7.432  1.00  0.00     0.200 A 
ATOM     93  F   UNL     1      -2.422   9.392  -8.375  1.00  0.00    -0.200 F 
ATOM     94  F   UNL     1      -3.800   7.052  -8.416  1.00  0.00    -0.200 F 
ENDBRANCH  60  84
BRANCH  72  95
ATOM     95  C   UNL     1      -0.361  12.639   0.458  1.00  0.00     0.064 A 
ATOM     96  C   UNL     1       0.989  12.763   0.079  1.00  0.00     0.173 A 
ATOM     97  C   UNL     1      -0.813  13.538   1.447  1.00  0.00     0.173 A 
ATOM     98  F   UNL     1       1.512  12.046  -0.928  1.00  0.00    -0.203 F 
ATOM     99  C   UNL     1       1.845  13.657   0.709  1.00  0.00     0.198 A 
ATOM    100  C   UNL     1       0.034  14.470   2.032  1.00  0.00     0.198 A 
ATOM    101  F   UNL     1      -2.088  13.562   1.861  1.00  0.00    -0.203 F 
ATOM    102  F   UNL     1       3.137  13.691   0.356  1.00  0.00    -0.200 F 
ATOM    103  C   UNL     1       1.368  14.510   1.685  1.00  0.00     0.200 A 
ATOM    104  F   UNL     1      -0.455  15.336   2.930  1.00  0.00    -0.200 F 
ATOM    105  F   UNL     1       2.194  15.376   2.284  1.00  0.00    -0.200 F 
ENDBRANCH  72  95
ENDBRANCH  46  47
ENDBRANCH  39  41
ENDBRANCH  38  39
ENDBRANCH  37  38
ENDBRANCH  36  37
ENDBRANCH  35  36
ENDBRANCH  34  35
ENDBRANCH  33  34
ENDBRANCH  32  33
ENDBRANCH  31  32
ENDBRANCH   1  31
TORSDOF 26
