REMARK SMILES CS(=O)(=O)c1ccc(/C=C(/C(=O)OCCOCCOCCOCCOC(=O)c2ccc(-c3c4nc(c(-c5c(F)c(F)c(F)c(F)c5F)c5ccc([nH]5)c(-c5c(F)c(F)c(F)c(F)c5F)c5nc(c(-c6c(F)c(F)c(F)c(F)c6F)c6ccc3[nH]6)C=C5)C=C4)cc2)c2ccccc2)cc1
REMARK SMILES IDX 19 1 18 2 17 3 16 4 15 5 14 6 13 7 11 8 12 9 10 10 9 11 8 12
REMARK SMILES IDX 5 13 6 14 98 15 7 16 97 17 2 18 1 19 3 20 4 21 91 22 92 23
REMARK SMILES IDX 96 24 93 25 95 26 94 27 20 28 21 29 22 30 23 31 24 32 25 33
REMARK SMILES IDX 26 34 27 35 28 36 29 37 90 38 30 39 89 40 31 41 32 42 33 43
REMARK SMILES IDX 83 44 34 45 88 46 82 47 84 48 35 49 87 50 81 51 80 52 36 54
REMARK SMILES IDX 68 55 48 56 67 57 49 58 52 59 66 60 85 61 50 62 51 63 65 65
REMARK SMILES IDX 86 66 53 67 37 68 38 69 46 70 39 71 40 72 44 73 47 74 41 75
REMARK SMILES IDX 42 76 45 77 43 78 69 79 70 80 78 81 71 82 72 83 76 84 79 85
REMARK SMILES IDX 73 86 74 87 77 88 75 89 54 90 55 91 63 92 56 93 57 94 61 95
REMARK SMILES IDX 64 96 58 97 59 98 62 99 60 100
REMARK H PARENT 84 53 52 64
REMARK Flexibility Score: inf
ROOT
ATOM      1  O   UNL     1      -0.078  -5.151   8.965  1.00  0.00    -0.377 OA
ENDROOT
BRANCH   1   2
ATOM      2  C   UNL     1      -0.150  -5.801   7.706  1.00  0.00     0.188 C 
BRANCH   2   3
ATOM      3  C   UNL     1       0.619  -7.127   7.502  1.00  0.00     0.188 C 
BRANCH   3   4
ATOM      4  O   UNL     1       1.279  -7.584   8.670  1.00  0.00    -0.376 OA
BRANCH   4   5
ATOM      5  C   UNL     1       2.687  -7.450   8.718  1.00  0.00     0.202 C 
BRANCH   5   6
ATOM      6  C   UNL     1       3.291  -6.041   8.587  1.00  0.00     0.261 C 
BRANCH   6   7
ATOM      7  O   UNL     1       2.729  -5.196   7.569  1.00  0.00    -0.460 OA
BRANCH   7   8
ATOM      8  C   UNL     1       3.078  -5.446   6.283  1.00  0.00     0.338 C 
ATOM      9  O   UNL     1       3.874  -6.301   5.926  1.00  0.00    -0.246 OA
BRANCH   8  10
ATOM     10  C   UNL     1       2.237  -4.628   5.338  1.00  0.00     0.067 C 
ATOM     11  C   UNL     1       1.953  -3.339   5.651  1.00  0.00     0.024 C 
BRANCH  11  12
ATOM     12  C   UNL     1       1.312  -2.294   4.811  1.00  0.00    -0.025 A 
ATOM     13  C   UNL     1       0.548  -0.292   2.992  1.00  0.00     0.067 A 
ATOM     14  C   UNL     1       0.029  -1.576   2.863  1.00  0.00     0.021 A 
ATOM     15  C   UNL     1       1.332   0.041   4.095  1.00  0.00     0.021 A 
ATOM     16  C   UNL     1       0.385  -2.554   3.792  1.00  0.00     0.009 A 
ATOM     17  C   UNL     1       1.710  -0.960   4.999  1.00  0.00     0.009 A 
BRANCH  13  18
ATOM     18  S   UNL     1       0.221   0.895   1.715  1.00  0.00     0.175 S 
ATOM     19  C   UNL     1       0.972   0.183   0.268  1.00  0.00     0.163 C 
ATOM     20  O   UNL     1       0.957   2.103   2.036  1.00  0.00    -0.224 OA
ATOM     21  O   UNL     1      -1.215   0.920   1.519  1.00  0.00    -0.224 OA
ENDBRANCH  13  18
ENDBRANCH  11  12
BRANCH  10  22
ATOM     22  C   UNL     1       1.779  -5.272   4.088  1.00  0.00    -0.011 A 
ATOM     23  C   UNL     1       0.587  -6.021   4.071  1.00  0.00     0.009 A 
ATOM     24  C   UNL     1       2.440  -5.033   2.881  1.00  0.00     0.009 A 
ATOM     25  C   UNL     1       0.054  -6.498   2.874  1.00  0.00     0.001 A 
ATOM     26  C   UNL     1       1.898  -5.502   1.681  1.00  0.00     0.001 A 
ATOM     27  C   UNL     1       0.706  -6.228   1.677  1.00  0.00     0.000 A 
ENDBRANCH  10  22
ENDBRANCH   8  10
ENDBRANCH   7   8
ENDBRANCH   6   7
ENDBRANCH   5   6
ENDBRANCH   4   5
ENDBRANCH   3   4
ENDBRANCH   2   3
ENDBRANCH   1   2
BRANCH   1  28
ATOM     28  C   UNL     1      -0.243  -5.914  10.155  1.00  0.00     0.188 C 
BRANCH  28  29
ATOM     29  C   UNL     1      -1.064  -7.227  10.156  1.00  0.00     0.188 C 
BRANCH  29  30
ATOM     30  O   UNL     1      -1.757  -7.503   8.950  1.00  0.00    -0.376 OA
BRANCH  30  31
ATOM     31  C   UNL     1      -3.161  -7.323   8.929  1.00  0.00     0.202 C 
BRANCH  31  32
ATOM     32  C   UNL     1      -3.684  -5.893   9.127  1.00  0.00     0.261 C 
BRANCH  32  33
ATOM     33  O   UNL     1      -3.211  -5.209  10.297  1.00  0.00    -0.460 OA
BRANCH  33  34
ATOM     34  C   UNL     1      -3.583  -5.716  11.489  1.00  0.00     0.338 C 
ATOM     35  O   UNL     1      -4.301  -6.686  11.690  1.00  0.00    -0.246 OA
BRANCH  34  36
ATOM     36  C   UNL     1      -2.819  -5.021  12.541  1.00  0.00     0.060 A 
ATOM     37  C   UNL     1      -1.998  -5.778  13.388  1.00  0.00     0.016 A 
ATOM     38  C   UNL     1      -2.917  -3.636  12.697  1.00  0.00     0.016 A 
ATOM     39  C   UNL     1      -1.321  -5.159  14.435  1.00  0.00     0.010 A 
ATOM     40  C   UNL     1      -2.256  -3.019  13.763  1.00  0.00     0.010 A 
ATOM     41  C   UNL     1      -1.500  -3.789  14.665  1.00  0.00    -0.014 A 
BRANCH  41  42
ATOM     42  C   UNL     1      -1.107  -3.235  15.983  1.00  0.00     0.031 A 
ATOM     43  C   UNL     1      -2.170  -3.106  17.040  1.00  0.00     0.074 A 
ATOM     44  C   UNL     1       0.171  -2.930  16.264  1.00  0.00     0.049 A 
ATOM     45  N   UNL     1      -2.074  -2.685  18.275  1.00  0.00    -0.248 NA
ATOM     46  C   UNL     1      -3.531  -3.509  16.648  1.00  0.00     0.031 C 
ATOM     47  C   UNL     1       1.294  -3.056  15.338  1.00  0.00     0.029 A 
ATOM     48  N   UNL     1       0.736  -2.455  17.421  1.00  0.00    -0.354 N 
ATOM     49  C   UNL     1      -3.357  -2.771  18.802  1.00  0.00     0.074 A 
ATOM     50  C   UNL     1      -4.222  -3.242  17.744  1.00  0.00     0.031 C 
ATOM     51  C   UNL     1       2.418  -2.665  15.964  1.00  0.00     0.029 A 
ATOM     52  C   UNL     1       2.088  -2.237  17.323  1.00  0.00     0.049 A 
ATOM     53  H   UNL     1       0.221  -2.287  18.242  1.00  0.00     0.167 HD
ATOM     54  C   UNL     1      -3.774  -2.497  20.061  1.00  0.00     0.037 A 
ATOM     55  C   UNL     1       2.951  -1.736  18.228  1.00  0.00     0.037 A 
ATOM     56  C   UNL     1      -2.910  -2.026  21.110  1.00  0.00     0.049 A 
ATOM     57  C   UNL     1       2.448  -1.370  19.602  1.00  0.00     0.074 A 
ATOM     58  C   UNL     1      -3.229  -1.726  22.422  1.00  0.00     0.029 A 
ATOM     59  N   UNL     1      -1.553  -1.776  20.962  1.00  0.00    -0.354 N 
ATOM     60  N   UNL     1       1.240  -1.479  20.103  1.00  0.00    -0.248 NA
ATOM     61  C   UNL     1       3.436  -0.822  20.542  1.00  0.00     0.031 C 
ATOM     62  C   UNL     1      -2.080  -1.235  23.050  1.00  0.00     0.029 A 
ATOM     63  C   UNL     1      -1.027  -1.299  22.152  1.00  0.00     0.049 A 
ATOM     64  H   UNL     1      -1.040  -1.917  20.133  1.00  0.00     0.167 HD
ATOM     65  C   UNL     1       1.331  -1.049  21.422  1.00  0.00     0.074 A 
ATOM     66  C   UNL     1       2.717  -0.696  21.647  1.00  0.00     0.031 C 
ATOM     67  C   UNL     1       0.357  -0.957  22.363  1.00  0.00     0.037 A 
BRANCH  54  68
ATOM     68  C   UNL     1      -5.236  -2.668  20.358  1.00  0.00     0.064 A 
ATOM     69  C   UNL     1      -5.844  -3.933  20.395  1.00  0.00     0.173 A 
ATOM     70  C   UNL     1      -6.039  -1.550  20.628  1.00  0.00     0.173 A 
ATOM     71  F   UNL     1      -5.127  -5.036  20.127  1.00  0.00    -0.203 F 
ATOM     72  C   UNL     1      -7.204  -4.068  20.662  1.00  0.00     0.198 A 
ATOM     73  C   UNL     1      -7.391  -1.691  20.929  1.00  0.00     0.198 A 
ATOM     74  F   UNL     1      -5.511  -0.317  20.605  1.00  0.00    -0.203 F 
ATOM     75  F   UNL     1      -7.774  -5.282  20.637  1.00  0.00    -0.200 F 
ATOM     76  C   UNL     1      -7.974  -2.948  20.937  1.00  0.00     0.200 A 
ATOM     77  F   UNL     1      -8.130  -0.608  21.208  1.00  0.00    -0.200 F 
ATOM     78  F   UNL     1      -9.281  -3.080  21.201  1.00  0.00    -0.200 F 
ENDBRANCH  54  68
BRANCH  55  79
ATOM     79  C   UNL     1       4.382  -1.546  17.868  1.00  0.00     0.064 A 
ATOM     80  C   UNL     1       5.395  -2.288  18.493  1.00  0.00     0.173 A 
ATOM     81  C   UNL     1       4.769  -0.592  16.915  1.00  0.00     0.173 A 
ATOM     82  F   UNL     1       5.080  -3.194  19.430  1.00  0.00    -0.203 F 
ATOM     83  C   UNL     1       6.739  -2.065  18.198  1.00  0.00     0.198 A 
ATOM     84  C   UNL     1       6.111  -0.394  16.596  1.00  0.00     0.198 A 
ATOM     85  F   UNL     1       3.842   0.147  16.289  1.00  0.00    -0.203 F 
ATOM     86  F   UNL     1       7.688  -2.747  18.853  1.00  0.00    -0.200 F 
ATOM     87  C   UNL     1       7.095  -1.122  17.246  1.00  0.00     0.200 A 
ATOM     88  F   UNL     1       6.450   0.508  15.665  1.00  0.00    -0.200 F 
ATOM     89  F   UNL     1       8.387  -0.909  16.962  1.00  0.00    -0.200 F 
ENDBRANCH  55  79
BRANCH  67  90
ATOM     90  C   UNL     1       0.767  -0.503  23.737  1.00  0.00     0.064 A 
ATOM     91  C   UNL     1       1.201   0.807  23.991  1.00  0.00     0.173 A 
ATOM     92  C   UNL     1       0.709  -1.393  24.822  1.00  0.00     0.173 A 
ATOM     93  F   UNL     1       1.285   1.697  22.989  1.00  0.00    -0.203 F 
ATOM     94  C   UNL     1       1.607   1.195  25.266  1.00  0.00     0.198 A 
ATOM     95  C   UNL     1       1.076  -0.990  26.104  1.00  0.00     0.198 A 
ATOM     96  F   UNL     1       0.289  -2.654  24.642  1.00  0.00    -0.203 F 
ATOM     97  F   UNL     1       2.086   2.430  25.468  1.00  0.00    -0.200 F 
ATOM     98  C   UNL     1       1.538   0.298  26.322  1.00  0.00     0.200 A 
ATOM     99  F   UNL     1       0.989  -1.852  27.126  1.00  0.00    -0.200 F 
ATOM    100  F   UNL     1       1.928   0.673  27.548  1.00  0.00    -0.200 F 
ENDBRANCH  67  90
ENDBRANCH  41  42
ENDBRANCH  34  36
ENDBRANCH  33  34
ENDBRANCH  32  33
ENDBRANCH  31  32
ENDBRANCH  30  31
ENDBRANCH  29  30
ENDBRANCH  28  29
ENDBRANCH   1  28
TORSDOF 23
