REMARK SMILES CC(C)C[C@H](NC(=O)CNC(=O)[C@@H](NC(=O)OCc1ccccc1)C(C)C)C(=O)N[C@@H](C)C(=O)OCCOCCOCCOCCOC(=O)c1ccc(-c2c3nc(c(-c4c(F)c(F)c(F)c(F)c4F)c4ccc([nH]4)c(-c4c(F)c(F)c(F)c(F)c4F)c4nc(c(-c5c(F)c(F)c(F)c(F)c5F)c5ccc2[nH]5)C=C4)C=C3)cc1
REMARK SMILES IDX 37 1 36 2 35 3 33 4 34 5 31 6 32 7 30 8 28 9 29 10 5 12 4 13
REMARK SMILES IDX 2 14 1 15 3 16 6 17 7 18 8 20 9 21 10 22 11 23 12 25 13 26
REMARK SMILES IDX 14 27 15 28 16 30 17 31 18 32 19 33 20 34 24 35 21 36 23 37
REMARK SMILES IDX 22 38 25 39 26 40 27 41 38 42 39 43 40 44 41 45 42 46 43 47
REMARK SMILES IDX 44 48 45 49 46 50 47 51 48 52 49 53 50 54 51 55 112 56 52 57
REMARK SMILES IDX 111 58 53 59 54 60 55 61 105 62 56 63 110 64 104 65 106 66
REMARK SMILES IDX 57 67 109 68 103 69 102 70 58 72 90 73 70 74 89 75 71 76
REMARK SMILES IDX 74 77 88 78 107 79 72 80 73 81 87 83 108 84 75 85 59 86
REMARK SMILES IDX 60 87 68 88 61 89 62 90 66 91 69 92 63 93 64 94 67 95 65 96
REMARK SMILES IDX 91 97 92 98 100 99 93 100 94 101 98 102 101 103 95 104
REMARK SMILES IDX 96 105 99 106 97 107 76 108 77 109 85 110 78 111 79 112
REMARK SMILES IDX 83 113 86 114 80 115 81 116 84 117 82 118
REMARK H PARENT 30 11 6 19 10 24 14 29 106 71 74 82
REMARK Flexibility Score: inf
ROOT
ATOM      1  C   UNL     1      -4.235   5.854   4.152  1.00  0.00     0.202 C 
ENDROOT
BRANCH   1   2
ATOM      2  C   UNL     1      -4.857   6.379   2.839  1.00  0.00     0.261 C 
BRANCH   2   3
ATOM      3  O   UNL     1      -4.584   5.563   1.671  1.00  0.00    -0.462 OA
BRANCH   3   4
ATOM      4  C   UNL     1      -3.289   5.405   1.304  1.00  0.00     0.328 C 
ATOM      5  O   UNL     1      -2.382   6.142   1.672  1.00  0.00    -0.250 OA
BRANCH   4   6
ATOM      6  C   UNL     1      -3.095   4.237   0.303  1.00  0.00     0.189 C 
ATOM      7  C   UNL     1      -3.508   4.708  -1.083  1.00  0.00     0.043 C 
BRANCH   6   8
ATOM      8  N   UNL     1      -3.824   2.977   0.548  1.00  0.00    -0.341 N 
ATOM      9  C   UNL     1      -3.382   1.680   0.594  1.00  0.00     0.243 C 
ATOM     10  O   UNL     1      -4.241   0.801   0.717  1.00  0.00    -0.273 OA
ATOM     11  H   UNL     1      -4.790   3.086   0.706  1.00  0.00     0.164 HD
BRANCH   9  12
ATOM     12  C   UNL     1      -1.878   1.321   0.716  1.00  0.00     0.171 C 
BRANCH  12  13
ATOM     13  C   UNL     1      -1.395   1.662   2.107  1.00  0.00     0.038 C 
BRANCH  13  14
ATOM     14  C   UNL     1      -2.130   1.157   3.341  1.00  0.00    -0.015 C 
ATOM     15  C   UNL     1      -2.263  -0.357   3.494  1.00  0.00     0.007 C 
ATOM     16  C   UNL     1      -1.529   1.829   4.584  1.00  0.00     0.007 C 
ENDBRANCH  13  14
ENDBRANCH  12  13
BRANCH  12  17
ATOM     17  N   UNL     1      -1.071   1.994  -0.317  1.00  0.00    -0.343 N 
ATOM     18  C   UNL     1       0.242   2.316  -0.464  1.00  0.00     0.240 C 
ATOM     19  H   UNL     1      -1.614   2.279  -1.087  1.00  0.00     0.164 HD
ATOM     20  O   UNL     1       0.534   2.812  -1.561  1.00  0.00    -0.273 OA
BRANCH  18  21
ATOM     21  C   UNL     1       1.382   2.025   0.552  1.00  0.00     0.216 C 
BRANCH  21  22
ATOM     22  N   UNL     1       1.387   2.615   1.885  1.00  0.00    -0.345 N 
ATOM     23  C   UNL     1       1.614   2.130   3.139  1.00  0.00     0.243 C 
ATOM     24  H   UNL     1       1.181   3.578   1.879  1.00  0.00     0.164 HD
ATOM     25  O   UNL     1       1.709   3.004   4.014  1.00  0.00    -0.273 OA
BRANCH  23  26
ATOM     26  C   UNL     1       1.776   0.617   3.562  1.00  0.00     0.177 C 
BRANCH  26  27
ATOM     27  N   UNL     1       1.034  -0.380   2.792  1.00  0.00    -0.309 N 
ATOM     28  C   UNL     1       1.329  -1.068   1.672  1.00  0.00     0.408 C 
ATOM     29  H   UNL     1       0.147  -0.588   3.164  1.00  0.00     0.167 HD
ATOM     30  O   UNL     1       0.422  -1.585   1.022  1.00  0.00    -0.225 OA
BRANCH  28  31
ATOM     31  O   UNL     1       2.639  -1.070   1.363  1.00  0.00    -0.445 OA
BRANCH  31  32
ATOM     32  C   UNL     1       3.009  -1.882   0.243  1.00  0.00     0.270 C 
BRANCH  32  33
ATOM     33  C   UNL     1       2.773  -3.349   0.503  1.00  0.00    -0.011 A 
ATOM     34  C   UNL     1       3.553  -4.051   1.431  1.00  0.00     0.007 A 
ATOM     35  C   UNL     1       1.715  -4.013  -0.136  1.00  0.00     0.007 A 
ATOM     36  C   UNL     1       3.285  -5.395   1.700  1.00  0.00     0.000 A 
ATOM     37  C   UNL     1       1.442  -5.350   0.142  1.00  0.00     0.000 A 
ATOM     38  C   UNL     1       2.232  -6.043   1.056  1.00  0.00     0.000 A 
ENDBRANCH  32  33
ENDBRANCH  31  32
ENDBRANCH  28  31
ENDBRANCH  26  27
BRANCH  26  39
ATOM     39  C   UNL     1       3.209   0.201   3.950  1.00  0.00     0.015 C 
ATOM     40  C   UNL     1       3.760   1.087   5.076  1.00  0.00     0.010 C 
ATOM     41  C   UNL     1       3.264  -1.254   4.452  1.00  0.00     0.010 C 
ENDBRANCH  26  39
ENDBRANCH  23  26
ENDBRANCH  21  22
ENDBRANCH  18  21
ENDBRANCH  12  17
ENDBRANCH   9  12
ENDBRANCH   6   8
ENDBRANCH   4   6
ENDBRANCH   3   4
ENDBRANCH   2   3
ENDBRANCH   1   2
BRANCH   1  42
ATOM     42  O   UNL     1      -4.511   4.502   4.531  1.00  0.00    -0.376 OA
BRANCH  42  43
ATOM     43  C   UNL     1      -4.713   3.571   3.478  1.00  0.00     0.188 C 
BRANCH  43  44
ATOM     44  C   UNL     1      -5.354   2.227   3.834  1.00  0.00     0.188 C 
BRANCH  44  45
ATOM     45  O   UNL     1      -6.600   2.329   4.512  1.00  0.00    -0.377 OA
BRANCH  45  46
ATOM     46  C   UNL     1      -6.562   3.179   5.652  1.00  0.00     0.188 C 
BRANCH  46  47
ATOM     47  C   UNL     1      -5.567   2.831   6.788  1.00  0.00     0.188 C 
BRANCH  47  48
ATOM     48  O   UNL     1      -4.387   2.134   6.400  1.00  0.00    -0.376 OA
BRANCH  48  49
ATOM     49  C   UNL     1      -4.117   0.911   7.090  1.00  0.00     0.202 C 
BRANCH  49  50
ATOM     50  C   UNL     1      -4.839  -0.331   6.536  1.00  0.00     0.261 C 
BRANCH  50  51
ATOM     51  O   UNL     1      -6.246  -0.167   6.355  1.00  0.00    -0.460 OA
BRANCH  51  52
ATOM     52  C   UNL     1      -6.973  -0.045   7.483  1.00  0.00     0.338 C 
ATOM     53  O   UNL     1      -6.583  -0.152   8.631  1.00  0.00    -0.246 OA
BRANCH  52  54
ATOM     54  C   UNL     1      -8.277   0.513   7.089  1.00  0.00     0.060 A 
ATOM     55  C   UNL     1      -8.707   1.681   7.734  1.00  0.00     0.016 A 
ATOM     56  C   UNL     1      -9.022  -0.055   6.052  1.00  0.00     0.016 A 
ATOM     57  C   UNL     1      -9.879   2.302   7.327  1.00  0.00     0.010 A 
ATOM     58  C   UNL     1     -10.230   0.531   5.685  1.00  0.00     0.010 A 
ATOM     59  C   UNL     1     -10.666   1.692   6.345  1.00  0.00    -0.014 A 
BRANCH  59  60
ATOM     60  C   UNL     1     -12.081   2.092   6.265  1.00  0.00     0.031 A 
ATOM     61  C   UNL     1     -13.034   1.358   7.158  1.00  0.00     0.074 A 
ATOM     62  C   UNL     1     -12.482   3.097   5.475  1.00  0.00     0.049 A 
ATOM     63  N   UNL     1     -14.325   1.492   7.292  1.00  0.00    -0.248 NA
ATOM     64  C   UNL     1     -12.441   0.322   8.024  1.00  0.00     0.031 C 
ATOM     65  C   UNL     1     -11.614   3.893   4.612  1.00  0.00     0.029 A 
ATOM     66  N   UNL     1     -13.734   3.611   5.272  1.00  0.00    -0.354 N 
ATOM     67  C   UNL     1     -14.694   0.562   8.254  1.00  0.00     0.074 A 
ATOM     68  C   UNL     1     -13.506  -0.161   8.639  1.00  0.00     0.031 C 
ATOM     69  C   UNL     1     -12.369   4.785   3.946  1.00  0.00     0.029 A 
ATOM     70  C   UNL     1     -13.770   4.595   4.319  1.00  0.00     0.049 A 
ATOM     71  H   UNL     1     -14.531   3.303   5.762  1.00  0.00     0.167 HD
ATOM     72  C   UNL     1     -15.922   0.341   8.775  1.00  0.00     0.037 A 
ATOM     73  C   UNL     1     -14.830   5.238   3.795  1.00  0.00     0.037 A 
ATOM     74  C   UNL     1     -17.096   1.050   8.349  1.00  0.00     0.049 A 
ATOM     75  C   UNL     1     -16.204   4.918   4.324  1.00  0.00     0.074 A 
ATOM     76  C   UNL     1     -18.397   0.914   8.791  1.00  0.00     0.029 A 
ATOM     77  N   UNL     1     -17.105   2.022   7.356  1.00  0.00    -0.354 N 
ATOM     78  N   UNL     1     -16.556   4.057   5.251  1.00  0.00    -0.248 NA
ATOM     79  C   UNL     1     -17.328   5.662   3.743  1.00  0.00     0.031 C 
ATOM     80  C   UNL     1     -19.204   1.755   8.018  1.00  0.00     0.029 A 
ATOM     81  C   UNL     1     -18.397   2.473   7.147  1.00  0.00     0.049 A 
ATOM     82  H   UNL     1     -16.310   2.343   6.871  1.00  0.00     0.167 HD
ATOM     83  C   UNL     1     -17.934   4.171   5.383  1.00  0.00     0.074 A 
ATOM     84  C   UNL     1     -18.351   5.198   4.447  1.00  0.00     0.031 C 
ATOM     85  C   UNL     1     -18.779   3.494   6.202  1.00  0.00     0.037 A 
BRANCH  72  86
ATOM     86  C   UNL     1     -16.038  -0.745   9.806  1.00  0.00     0.064 A 
ATOM     87  C   UNL     1     -15.428  -0.641  11.067  1.00  0.00     0.173 A 
ATOM     88  C   UNL     1     -16.732  -1.928   9.512  1.00  0.00     0.173 A 
ATOM     89  F   UNL     1     -14.729   0.457  11.392  1.00  0.00    -0.203 F 
ATOM     90  C   UNL     1     -15.470  -1.698  11.974  1.00  0.00     0.198 A 
ATOM     91  C   UNL     1     -16.805  -2.966  10.436  1.00  0.00     0.198 A 
ATOM     92  F   UNL     1     -17.329  -2.085   8.321  1.00  0.00    -0.203 F 
ATOM     93  F   UNL     1     -14.812  -1.606  13.138  1.00  0.00    -0.200 F 
ATOM     94  C   UNL     1     -16.163  -2.857  11.660  1.00  0.00     0.200 A 
ATOM     95  F   UNL     1     -17.485  -4.081  10.135  1.00  0.00    -0.200 F 
ATOM     96  F   UNL     1     -16.198  -3.875  12.530  1.00  0.00    -0.200 F 
ENDBRANCH  72  86
BRANCH  73  97
ATOM     97  C   UNL     1     -14.621   6.225   2.705  1.00  0.00     0.064 A 
ATOM     98  C   UNL     1     -14.831   7.595   2.908  1.00  0.00     0.173 A 
ATOM     99  C   UNL     1     -14.173   5.816   1.438  1.00  0.00     0.173 A 
ATOM    100  F   UNL     1     -15.277   8.035   4.094  1.00  0.00    -0.203 F 
ATOM    101  C   UNL     1     -14.607   8.517   1.887  1.00  0.00     0.198 A 
ATOM    102  C   UNL     1     -13.922   6.740   0.428  1.00  0.00     0.198 A 
ATOM    103  F   UNL     1     -13.956   4.515   1.191  1.00  0.00    -0.203 F 
ATOM    104  F   UNL     1     -14.844   9.818   2.099  1.00  0.00    -0.200 F 
ATOM    105  C   UNL     1     -14.143   8.090   0.651  1.00  0.00     0.200 A 
ATOM    106  F   UNL     1     -13.457   6.324  -0.758  1.00  0.00    -0.200 F 
ATOM    107  F   UNL     1     -13.911   8.979  -0.324  1.00  0.00    -0.200 F 
ENDBRANCH  73  97
BRANCH  85 108
ATOM    108  C   UNL     1     -20.234   3.865   6.145  1.00  0.00     0.064 A 
ATOM    109  C   UNL     1     -21.035   3.555   5.037  1.00  0.00     0.173 A 
ATOM    110  C   UNL     1     -20.844   4.495   7.242  1.00  0.00     0.173 A 
ATOM    111  F   UNL     1     -20.498   2.964   3.959  1.00  0.00    -0.203 F 
ATOM    112  C   UNL     1     -22.386   3.890   5.016  1.00  0.00     0.198 A 
ATOM    113  C   UNL     1     -22.203   4.793   7.232  1.00  0.00     0.198 A 
ATOM    114  F   UNL     1     -20.126   4.803   8.332  1.00  0.00    -0.203 F 
ATOM    115  F   UNL     1     -23.120   3.634   3.924  1.00  0.00    -0.200 F 
ATOM    116  C   UNL     1     -22.971   4.499   6.116  1.00  0.00     0.200 A 
ATOM    117  F   UNL     1     -22.770   5.362   8.305  1.00  0.00    -0.200 F 
ATOM    118  F   UNL     1     -24.274   4.810   6.098  1.00  0.00    -0.200 F 
ENDBRANCH  85 108
ENDBRANCH  59  60
ENDBRANCH  52  54
ENDBRANCH  51  52
ENDBRANCH  50  51
ENDBRANCH  49  50
ENDBRANCH  48  49
ENDBRANCH  47  48
ENDBRANCH  46  47
ENDBRANCH  45  46
ENDBRANCH  44  45
ENDBRANCH  43  44
ENDBRANCH  42  43
ENDBRANCH   1  42
TORSDOF 33
