REMARK SMILES O=C(OCCOCCOCCOCCOC(=O)[C@@H]1[C@@H](C(=O)NCc2ccccc2OCc2ccccc2)[C@@H]2C=C[C@H]1C2)c1ccc(-c2c3nc(c(-c4c(F)c(F)c(F)c(F)c4F)c4ccc([nH]4)c(-c4c(F)c(F)c(F)c(F)c4F)c4nc(c(-c5c(F)c(F)c(F)c(F)c5F)c5ccc2[nH]5)C=C4)C=C3)cc1
REMARK SMILES IDX 11 1 10 2 9 3 8 4 7 5 6 6 5 7 4 8 3 9 2 10 1 11 43 12 44 13
REMARK SMILES IDX 105 14 45 15 104 16 46 17 47 18 48 19 98 20 49 21 103 22
REMARK SMILES IDX 97 23 99 24 50 25 102 26 96 27 95 28 51 30 83 31 63 32 82 33
REMARK SMILES IDX 64 34 67 35 81 36 100 37 65 38 66 39 80 41 101 42 68 43
REMARK SMILES IDX 52 44 53 45 61 46 54 47 55 48 59 49 62 50 56 51 57 52 60 53
REMARK SMILES IDX 58 54 84 55 85 56 93 57 86 58 87 59 91 60 94 61 88 62 89 63
REMARK SMILES IDX 92 64 90 65 69 66 70 67 78 68 71 69 72 70 76 71 79 72 73 73
REMARK SMILES IDX 74 74 77 75 75 76 12 77 13 78 14 79 15 80 16 81 17 82 18 83
REMARK SMILES IDX 19 84 41 85 38 86 40 87 42 88 39 89 20 90 21 91 22 92 23 94
REMARK SMILES IDX 24 95 25 96 29 97 26 98 28 99 27 100 30 101 31 102 32 103
REMARK SMILES IDX 33 104 37 105 34 106 36 107 35 108
REMARK H PARENT 99 29 67 40 22 93
REMARK Flexibility Score: inf
ROOT
ATOM      1  C   UNL     1       4.627  -0.901  -3.501  1.00  0.00     0.188 C 
ENDROOT
BRANCH   1   2
ATOM      2  C   UNL     1       3.611  -1.874  -2.888  1.00  0.00     0.188 C 
BRANCH   2   3
ATOM      3  O   UNL     1       2.220  -1.666  -2.956  1.00  0.00    -0.377 OA
BRANCH   3   4
ATOM      4  C   UNL     1       1.679  -0.699  -2.083  1.00  0.00     0.188 C 
BRANCH   4   5
ATOM      5  C   UNL     1       2.241  -0.718  -0.671  1.00  0.00     0.188 C 
BRANCH   5   6
ATOM      6  O   UNL     1       3.627  -0.356  -0.663  1.00  0.00    -0.376 OA
BRANCH   6   7
ATOM      7  C   UNL     1       4.456  -1.136   0.205  1.00  0.00     0.202 C 
BRANCH   7   8
ATOM      8  C   UNL     1       4.310  -0.838   1.698  1.00  0.00     0.261 C 
BRANCH   8   9
ATOM      9  O   UNL     1       2.998  -0.401   2.081  1.00  0.00    -0.460 OA
BRANCH   9  10
ATOM     10  C   UNL     1       2.461   0.839   2.020  1.00  0.00     0.338 C 
ATOM     11  O   UNL     1       1.315   0.988   2.470  1.00  0.00    -0.246 OA
BRANCH  10  12
ATOM     12  C   UNL     1       3.104   2.030   1.374  1.00  0.00     0.060 A 
ATOM     13  C   UNL     1       4.296   2.018   0.649  1.00  0.00     0.016 A 
ATOM     14  C   UNL     1       2.417   3.257   1.465  1.00  0.00     0.016 A 
ATOM     15  C   UNL     1       4.789   3.143   0.017  1.00  0.00     0.010 A 
ATOM     16  C   UNL     1       2.936   4.421   0.890  1.00  0.00     0.010 A 
ATOM     17  C   UNL     1       4.141   4.357   0.186  1.00  0.00    -0.014 A 
BRANCH  17  18
ATOM     18  C   UNL     1       4.950   5.543  -0.114  1.00  0.00     0.031 A 
ATOM     19  C   UNL     1       5.739   6.115   1.024  1.00  0.00     0.074 A 
ATOM     20  C   UNL     1       5.152   5.912  -1.388  1.00  0.00     0.049 A 
ATOM     21  N   UNL     1       6.526   7.153   1.054  1.00  0.00    -0.248 NA
ATOM     22  C   UNL     1       5.656   5.388   2.307  1.00  0.00     0.031 C 
ATOM     23  C   UNL     1       4.584   5.241  -2.560  1.00  0.00     0.029 A 
ATOM     24  N   UNL     1       5.923   6.910  -1.911  1.00  0.00    -0.354 N 
ATOM     25  C   UNL     1       6.998   7.222   2.358  1.00  0.00     0.074 A 
ATOM     26  C   UNL     1       6.429   6.119   3.091  1.00  0.00     0.031 C 
ATOM     27  C   UNL     1       5.025   5.856  -3.669  1.00  0.00     0.029 A 
ATOM     28  C   UNL     1       5.843   6.999  -3.278  1.00  0.00     0.049 A 
ATOM     29  H   UNL     1       6.481   7.507  -1.361  1.00  0.00     0.167 HD
ATOM     30  C   UNL     1       7.824   8.150   2.889  1.00  0.00     0.037 A 
ATOM     31  C   UNL     1       6.341   7.944  -4.095  1.00  0.00     0.037 A 
ATOM     32  C   UNL     1       8.355   9.237   2.115  1.00  0.00     0.049 A 
ATOM     33  C   UNL     1       7.134   9.056  -3.457  1.00  0.00     0.074 A 
ATOM     34  C   UNL     1       9.116  10.310   2.529  1.00  0.00     0.029 A 
ATOM     35  N   UNL     1       8.162   9.376   0.745  1.00  0.00    -0.354 N 
ATOM     36  N   UNL     1       7.492   9.202  -2.201  1.00  0.00    -0.248 NA
ATOM     37  C   UNL     1       7.574  10.144  -4.336  1.00  0.00     0.031 C 
ATOM     38  C   UNL     1       9.336  11.129   1.416  1.00  0.00     0.029 A 
ATOM     39  C   UNL     1       8.770  10.533   0.297  1.00  0.00     0.049 A 
ATOM     40  H   UNL     1       7.665   8.744   0.177  1.00  0.00     0.167 HD
ATOM     41  C   UNL     1       8.215  10.383  -2.140  1.00  0.00     0.074 A 
ATOM     42  C   UNL     1       8.260  10.904  -3.494  1.00  0.00     0.031 C 
ATOM     43  C   UNL     1       8.789  10.992  -1.071  1.00  0.00     0.037 A 
BRANCH  30  44
ATOM     44  C   UNL     1       8.079   8.072   4.364  1.00  0.00     0.064 A 
ATOM     45  C   UNL     1       8.856   7.055   4.940  1.00  0.00     0.173 A 
ATOM     46  C   UNL     1       7.470   8.996   5.226  1.00  0.00     0.173 A 
ATOM     47  F   UNL     1       9.426   6.119   4.166  1.00  0.00    -0.203 F 
ATOM     48  C   UNL     1       8.984   6.948   6.324  1.00  0.00     0.198 A 
ATOM     49  C   UNL     1       7.624   8.904   6.607  1.00  0.00     0.198 A 
ATOM     50  F   UNL     1       6.700   9.977   4.731  1.00  0.00    -0.203 F 
ATOM     51  F   UNL     1       9.671   5.926   6.855  1.00  0.00    -0.200 F 
ATOM     52  C   UNL     1       8.372   7.874   7.156  1.00  0.00     0.200 A 
ATOM     53  F   UNL     1       7.028   9.798   7.407  1.00  0.00    -0.200 F 
ATOM     54  F   UNL     1       8.485   7.761   8.486  1.00  0.00    -0.200 F 
ENDBRANCH  30  44
BRANCH  31  55
ATOM     55  C   UNL     1       6.038   7.924  -5.552  1.00  0.00     0.064 A 
ATOM     56  C   UNL     1       7.052   7.804  -6.511  1.00  0.00     0.173 A 
ATOM     57  C   UNL     1       4.719   8.050  -6.019  1.00  0.00     0.173 A 
ATOM     58  F   UNL     1       8.332   7.702  -6.123  1.00  0.00    -0.203 F 
ATOM     59  C   UNL     1       6.763   7.833  -7.876  1.00  0.00     0.198 A 
ATOM     60  C   UNL     1       4.427   8.045  -7.382  1.00  0.00     0.198 A 
ATOM     61  F   UNL     1       3.705   8.175  -5.150  1.00  0.00    -0.203 F 
ATOM     62  F   UNL     1       7.758   7.770  -8.771  1.00  0.00    -0.200 F 
ATOM     63  C   UNL     1       5.451   7.947  -8.310  1.00  0.00     0.200 A 
ATOM     64  F   UNL     1       3.155   8.143  -7.793  1.00  0.00    -0.200 F 
ATOM     65  F   UNL     1       5.174   7.976  -9.621  1.00  0.00    -0.200 F 
ENDBRANCH  31  55
BRANCH  43  66
ATOM     66  C   UNL     1       9.544  12.257  -1.342  1.00  0.00     0.064 A 
ATOM     67  C   UNL     1       8.885  13.454  -1.650  1.00  0.00     0.173 A 
ATOM     68  C   UNL     1      10.942  12.276  -1.228  1.00  0.00     0.173 A 
ATOM     69  F   UNL     1       7.550  13.477  -1.783  1.00  0.00    -0.203 F 
ATOM     70  C   UNL     1       9.604  14.626  -1.858  1.00  0.00     0.198 A 
ATOM     71  C   UNL     1      11.653  13.457  -1.400  1.00  0.00     0.198 A 
ATOM     72  F   UNL     1      11.612  11.154  -0.924  1.00  0.00    -0.203 F 
ATOM     73  F   UNL     1       8.962  15.752  -2.199  1.00  0.00    -0.200 F 
ATOM     74  C   UNL     1      10.985  14.629  -1.723  1.00  0.00     0.200 A 
ATOM     75  F   UNL     1      12.985  13.462  -1.249  1.00  0.00    -0.200 F 
ATOM     76  F   UNL     1      11.674  15.763  -1.907  1.00  0.00    -0.200 F 
ENDBRANCH  43  66
ENDBRANCH  17  18
ENDBRANCH  10  12
ENDBRANCH   9  10
ENDBRANCH   8   9
ENDBRANCH   7   8
ENDBRANCH   6   7
ENDBRANCH   5   6
ENDBRANCH   4   5
ENDBRANCH   3   4
ENDBRANCH   2   3
ENDBRANCH   1   2
BRANCH   1  77
ATOM     77  O   UNL     1       4.220   0.177  -4.314  1.00  0.00    -0.376 OA
BRANCH  77  78
ATOM     78  C   UNL     1       3.098   0.045  -5.169  1.00  0.00     0.202 C 
BRANCH  78  79
ATOM     79  C   UNL     1       2.894  -1.195  -6.065  1.00  0.00     0.261 C 
BRANCH  79  80
ATOM     80  O   UNL     1       3.204  -2.472  -5.469  1.00  0.00    -0.463 OA
BRANCH  80  81
ATOM     81  C   UNL     1       4.235  -3.158  -5.994  1.00  0.00     0.310 C 
ATOM     82  O   UNL     1       4.788  -2.834  -7.051  1.00  0.00    -0.252 OA
BRANCH  81  83
ATOM     83  C   UNL     1       4.845  -4.274  -5.136  1.00  0.00     0.119 C 
ATOM     84  C   UNL     1       4.889  -5.550  -5.999  1.00  0.00     0.100 C 
ATOM     85  C   UNL     1       4.420  -4.870  -3.756  1.00  0.00     0.027 C 
ATOM     86  C   UNL     1       4.474  -6.691  -5.030  1.00  0.00     0.025 C 
ATOM     87  C   UNL     1       3.007  -5.371  -3.822  1.00  0.00    -0.027 C 
ATOM     88  C   UNL     1       5.102  -6.253  -3.723  1.00  0.00     0.017 C 
ATOM     89  C   UNL     1       3.032  -6.467  -4.598  1.00  0.00    -0.027 C 
BRANCH  84  90
ATOM     90  C   UNL     1       6.200  -5.767  -6.734  1.00  0.00     0.224 C 
ATOM     91  O   UNL     1       6.165  -6.272  -7.862  1.00  0.00    -0.275 OA
ATOM     92  N   UNL     1       7.429  -5.495  -6.234  1.00  0.00    -0.352 N 
ATOM     93  H   UNL     1       8.151  -5.794  -6.833  1.00  0.00     0.163 HD
BRANCH  92  94
ATOM     94  C   UNL     1       7.939  -4.865  -5.024  1.00  0.00     0.155 C 
BRANCH  94  95
ATOM     95  C   UNL     1       9.106  -5.570  -4.404  1.00  0.00     0.013 A 
ATOM     96  C   UNL     1       8.985  -6.986  -4.361  1.00  0.00     0.009 A 
ATOM     97  C   UNL     1      10.175  -4.964  -3.727  1.00  0.00     0.124 A 
ATOM     98  C   UNL     1       9.877  -7.787  -3.663  1.00  0.00     0.001 A 
ATOM     99  C   UNL     1      11.065  -5.800  -3.022  1.00  0.00     0.047 A 
ATOM    100  C   UNL     1      10.918  -7.188  -2.980  1.00  0.00     0.004 A 
BRANCH  97 101
ATOM    101  O   UNL     1      10.560  -3.659  -3.602  1.00  0.00    -0.489 OA
BRANCH 101 102
ATOM    102  C   UNL     1       9.892  -2.510  -4.126  1.00  0.00     0.265 C 
BRANCH 102 103
ATOM    103  C   UNL     1       9.913  -2.385  -5.635  1.00  0.00    -0.011 A 
ATOM    104  C   UNL     1       8.812  -1.807  -6.296  1.00  0.00     0.007 A 
ATOM    105  C   UNL     1      10.937  -2.961  -6.395  1.00  0.00     0.007 A 
ATOM    106  C   UNL     1       8.653  -1.977  -7.670  1.00  0.00     0.000 A 
ATOM    107  C   UNL     1      10.791  -3.094  -7.775  1.00  0.00     0.000 A 
ATOM    108  C   UNL     1       9.633  -2.639  -8.405  1.00  0.00     0.000 A 
ENDBRANCH 102 103
ENDBRANCH 101 102
ENDBRANCH  97 101
ENDBRANCH  94  95
ENDBRANCH  92  94
ENDBRANCH  84  90
ENDBRANCH  81  83
ENDBRANCH  80  81
ENDBRANCH  79  80
ENDBRANCH  78  79
ENDBRANCH  77  78
ENDBRANCH   1  77
TORSDOF 26
