REMARK SMILES O=C(OCCOCCOCCOCCOC(=O)c1noc(-c2ccccc2C(F)(F)F)n1)c1ccc(-c2c3nc(c(-c4c(F)c(F)c(F)c(F)c4F)c4ccc([nH]4)c(-c4c(F)c(F)c(F)c(F)c4F)c4nc(c(-c5c(F)c(F)c(F)c(F)c5F)c5ccc2[nH]5)C=C4)C=C3)cc1
REMARK SMILES IDX 9 1 8 2 7 3 6 4 5 5 4 6 3 7 2 8 1 9 33 10 34 11 95 12 35 13
REMARK SMILES IDX 94 14 36 15 37 16 38 17 88 18 39 19 93 20 87 21 89 22 40 23
REMARK SMILES IDX 92 24 86 25 85 26 41 28 73 29 53 30 72 31 54 32 57 33 71 34
REMARK SMILES IDX 90 35 55 36 56 37 70 39 91 40 58 41 42 42 43 43 51 44 44 45
REMARK SMILES IDX 45 46 49 47 52 48 46 49 47 50 50 51 48 52 74 53 75 54 83 55
REMARK SMILES IDX 76 56 77 57 81 58 84 59 78 60 79 61 82 62 80 63 59 64 60 65
REMARK SMILES IDX 68 66 61 67 62 68 66 69 69 70 63 71 64 72 67 73 65 74 10 75
REMARK SMILES IDX 11 76 12 77 13 78 14 79 15 80 16 81 17 82 18 83 19 84 32 85
REMARK SMILES IDX 20 86 21 87 22 88 23 89 27 90 24 91 26 92 25 93 28 94 29 95
REMARK SMILES IDX 30 96 31 97
REMARK H PARENT 89 27 57 38
REMARK Flexibility Score: inf
ROOT
ATOM      1  O   UNL     1       2.629   2.714  -3.029  1.00  0.00    -0.377 OA
ENDROOT
BRANCH   1   2
ATOM      2  C   UNL     1       1.841   2.098  -2.006  1.00  0.00     0.188 C 
BRANCH   2   3
ATOM      3  C   UNL     1       2.226   0.653  -1.678  1.00  0.00     0.188 C 
BRANCH   3   4
ATOM      4  O   UNL     1       3.510   0.608  -1.042  1.00  0.00    -0.376 OA
BRANCH   4   5
ATOM      5  C   UNL     1       4.298  -0.535  -1.377  1.00  0.00     0.202 C 
BRANCH   5   6
ATOM      6  C   UNL     1       4.087  -1.720  -0.434  1.00  0.00     0.261 C 
BRANCH   6   7
ATOM      7  O   UNL     1       2.712  -1.846  -0.041  1.00  0.00    -0.460 OA
BRANCH   7   8
ATOM      8  C   UNL     1       2.114  -1.324   1.060  1.00  0.00     0.338 C 
ATOM      9  O   UNL     1       0.911  -1.524   1.225  1.00  0.00    -0.246 OA
BRANCH   8  10
ATOM     10  C   UNL     1       2.848  -0.582   2.132  1.00  0.00     0.060 A 
ATOM     11  C   UNL     1       3.988   0.200   1.942  1.00  0.00     0.016 A 
ATOM     12  C   UNL     1       2.309  -0.650   3.430  1.00  0.00     0.016 A 
ATOM     13  C   UNL     1       4.655   0.782   3.013  1.00  0.00     0.010 A 
ATOM     14  C   UNL     1       2.943  -0.025   4.508  1.00  0.00     0.010 A 
ATOM     15  C   UNL     1       4.151   0.650   4.305  1.00  0.00    -0.014 A 
BRANCH  15  16
ATOM     16  C   UNL     1       5.006   1.074   5.430  1.00  0.00     0.031 A 
ATOM     17  C   UNL     1       5.737   0.012   6.197  1.00  0.00     0.074 A 
ATOM     18  C   UNL     1       5.238   2.380   5.650  1.00  0.00     0.049 A 
ATOM     19  N   UNL     1       6.536   0.126   7.224  1.00  0.00    -0.248 NA
ATOM     20  C   UNL     1       5.555  -1.373   5.727  1.00  0.00     0.031 C 
ATOM     21  C   UNL     1       4.671   3.478   4.866  1.00  0.00     0.029 A 
ATOM     22  N   UNL     1       6.041   3.002   6.568  1.00  0.00    -0.354 N 
ATOM     23  C   UNL     1       6.927  -1.169   7.538  1.00  0.00     0.074 A 
ATOM     24  C   UNL     1       6.279  -2.055   6.599  1.00  0.00     0.031 C 
ATOM     25  C   UNL     1       5.172   4.640   5.317  1.00  0.00     0.029 A 
ATOM     26  C   UNL     1       6.042   4.370   6.458  1.00  0.00     0.049 A 
ATOM     27  H   UNL     1       6.567   2.514   7.243  1.00  0.00     0.167 HD
ATOM     28  C   UNL     1       7.751  -1.577   8.530  1.00  0.00     0.037 A 
ATOM     29  C   UNL     1       6.663   5.293   7.216  1.00  0.00     0.037 A 
ATOM     30  C   UNL     1       8.387  -0.674   9.449  1.00  0.00     0.049 A 
ATOM     31  C   UNL     1       7.504   4.813   8.370  1.00  0.00     0.074 A 
ATOM     32  C   UNL     1       9.176  -0.962  10.546  1.00  0.00     0.029 A 
ATOM     33  N   UNL     1       8.301   0.710   9.363  1.00  0.00    -0.354 N 
ATOM     34  N   UNL     1       7.803   3.584   8.721  1.00  0.00    -0.248 NA
ATOM     35  C   UNL     1       8.075   5.843   9.246  1.00  0.00     0.031 C 
ATOM     36  C   UNL     1       9.541   0.250  11.145  1.00  0.00     0.029 A 
ATOM     37  C   UNL     1       9.014   1.293  10.395  1.00  0.00     0.049 A 
ATOM     38  H   UNL     1       7.806   1.203   8.670  1.00  0.00     0.167 HD
ATOM     39  C   UNL     1       8.604   3.691   9.848  1.00  0.00     0.074 A 
ATOM     40  C   UNL     1       8.764   5.108  10.109  1.00  0.00     0.031 C 
ATOM     41  C   UNL     1       9.153   2.711  10.609  1.00  0.00     0.037 A 
BRANCH  28  42
ATOM     42  C   UNL     1       7.931  -3.056   8.696  1.00  0.00     0.064 A 
ATOM     43  C   UNL     1       8.684  -3.819   7.791  1.00  0.00     0.173 A 
ATOM     44  C   UNL     1       7.286  -3.728   9.745  1.00  0.00     0.173 A 
ATOM     45  F   UNL     1       9.293  -3.228   6.752  1.00  0.00    -0.203 F 
ATOM     46  C   UNL     1       8.756  -5.205   7.911  1.00  0.00     0.198 A 
ATOM     47  C   UNL     1       7.381  -5.111   9.876  1.00  0.00     0.198 A 
ATOM     48  F   UNL     1       6.546  -3.046  10.631  1.00  0.00    -0.203 F 
ATOM     49  F   UNL     1       9.426  -5.922   6.997  1.00  0.00    -0.200 F 
ATOM     50  C   UNL     1       8.106  -5.850   8.953  1.00  0.00     0.200 A 
ATOM     51  F   UNL     1       6.751  -5.732  10.883  1.00  0.00    -0.200 F 
ATOM     52  F   UNL     1       8.162  -7.185   9.057  1.00  0.00    -0.200 F 
ENDBRANCH  28  42
BRANCH  29  53
ATOM     53  C   UNL     1       6.484   6.743   6.936  1.00  0.00     0.064 A 
ATOM     54  C   UNL     1       7.560   7.544   6.527  1.00  0.00     0.173 A 
ATOM     55  C   UNL     1       5.233   7.364   7.080  1.00  0.00     0.173 A 
ATOM     56  F   UNL     1       8.782   7.008   6.398  1.00  0.00    -0.203 F 
ATOM     57  C   UNL     1       7.394   8.908   6.286  1.00  0.00     0.198 A 
ATOM     58  C   UNL     1       5.062   8.720   6.810  1.00  0.00     0.198 A 
ATOM     59  F   UNL     1       4.170   6.648   7.476  1.00  0.00    -0.203 F 
ATOM     60  F   UNL     1       8.449   9.658   5.939  1.00  0.00    -0.200 F 
ATOM     61  C   UNL     1       6.144   9.493   6.420  1.00  0.00     0.200 A 
ATOM     62  F   UNL     1       3.849   9.277   6.930  1.00  0.00    -0.200 F 
ATOM     63  F   UNL     1       5.984  10.802   6.184  1.00  0.00    -0.200 F 
ENDBRANCH  29  53
BRANCH  41  64
ATOM     64  C   UNL     1       9.990   3.147  11.772  1.00  0.00     0.064 A 
ATOM     65  C   UNL     1       9.407   3.656  12.941  1.00  0.00     0.173 A 
ATOM     66  C   UNL     1      11.385   3.009  11.730  1.00  0.00     0.173 A 
ATOM     67  F   UNL     1       8.078   3.818  13.017  1.00  0.00    -0.203 F 
ATOM     68  C   UNL     1      10.196   4.030  14.024  1.00  0.00     0.198 A 
ATOM     69  C   UNL     1      12.168   3.361  12.825  1.00  0.00     0.198 A 
ATOM     70  F   UNL     1      11.984   2.521  10.634  1.00  0.00    -0.203 F 
ATOM     71  F   UNL     1       9.624   4.550  15.118  1.00  0.00    -0.200 F 
ATOM     72  C   UNL     1      11.574   3.876  13.968  1.00  0.00     0.200 A 
ATOM     73  F   UNL     1      13.497   3.201  12.774  1.00  0.00    -0.200 F 
ATOM     74  F   UNL     1      12.331   4.229  15.015  1.00  0.00    -0.200 F 
ENDBRANCH  41  64
ENDBRANCH  15  16
ENDBRANCH   8  10
ENDBRANCH   7   8
ENDBRANCH   6   7
ENDBRANCH   5   6
ENDBRANCH   4   5
ENDBRANCH   3   4
ENDBRANCH   2   3
ENDBRANCH   1   2
BRANCH   1  75
ATOM     75  C   UNL     1       4.042   2.651  -2.871  1.00  0.00     0.188 C 
BRANCH  75  76
ATOM     76  C   UNL     1       4.674   3.370  -1.661  1.00  0.00     0.188 C 
BRANCH  76  77
ATOM     77  O   UNL     1       3.745   3.823  -0.683  1.00  0.00    -0.376 OA
BRANCH  77  78
ATOM     78  C   UNL     1       3.661   5.238  -0.529  1.00  0.00     0.202 C 
BRANCH  78  79
ATOM     79  C   UNL     1       2.819   5.959  -1.596  1.00  0.00     0.261 C 
BRANCH  79  80
ATOM     80  O   UNL     1       3.204   5.700  -2.955  1.00  0.00    -0.457 OA
BRANCH  80  81
ATOM     81  C   UNL     1       4.414   6.178  -3.359  1.00  0.00     0.380 C 
ATOM     82  O   UNL     1       5.118   6.915  -2.674  1.00  0.00    -0.242 OA
BRANCH  81  83
ATOM     83  C   UNL     1       4.843   5.556  -4.614  1.00  0.00     0.281 A 
ATOM     84  N   UNL     1       6.053   4.972  -4.726  1.00  0.00    -0.049 NA
ATOM     85  N   UNL     1       4.033   5.381  -5.726  1.00  0.00    -0.181 NA
ATOM     86  O   UNL     1       6.020   4.385  -5.990  1.00  0.00    -0.333 OA
ATOM     87  C   UNL     1       4.808   4.695  -6.532  1.00  0.00     0.259 A 
BRANCH  87  88
ATOM     88  C   UNL     1       4.704   4.484  -7.965  1.00  0.00     0.052 A 
ATOM     89  C   UNL     1       4.322   3.236  -8.480  1.00  0.00     0.014 A 
ATOM     90  C   UNL     1       5.016   5.540  -8.848  1.00  0.00     0.068 A 
ATOM     91  C   UNL     1       4.246   3.037  -9.862  1.00  0.00     0.001 A 
ATOM     92  C   UNL     1       4.928   5.321 -10.234  1.00  0.00     0.014 A 
ATOM     93  C   UNL     1       4.550   4.077 -10.736  1.00  0.00     0.001 A 
BRANCH  90  94
ATOM     94  C   UNL     1       5.412   6.906  -8.332  1.00  0.00     0.417 C 
ATOM     95  F   UNL     1       6.060   7.656  -9.269  1.00  0.00    -0.166 F 
ATOM     96  F   UNL     1       4.340   7.645  -7.942  1.00  0.00    -0.166 F 
ATOM     97  F   UNL     1       6.259   6.868  -7.267  1.00  0.00    -0.166 F 
ENDBRANCH  90  94
ENDBRANCH  87  88
ENDBRANCH  81  83
ENDBRANCH  80  81
ENDBRANCH  79  80
ENDBRANCH  78  79
ENDBRANCH  77  78
ENDBRANCH  76  77
ENDBRANCH  75  76
ENDBRANCH   1  75
TORSDOF 22
