REMARK SMILES Cc1nc(NC2CCCCCC2)sc1C(=O)OCCOCCOCCOCCOC(=O)c1ccc(-c2c3nc(c(-c4c(F)c(F)c(F)c(F)c4F)c4ccc([nH]4)c(-c4c(F)c(F)c(F)c(F)c4F)c4nc(c(-c5c(F)c(F)c(F)c(F)c5F)c5ccc2[nH]5)C=C4)C=C3)cc1
REMARK SMILES IDX 21 1 20 2 19 3 18 4 17 5 15 6 16 7 14 8 1 9 2 10 3 11 4 12
REMARK SMILES IDX 13 13 5 14 6 16 7 17 8 18 12 20 11 21 10 22 9 23 22 25 23 26
REMARK SMILES IDX 24 27 25 28 26 29 27 30 28 31 29 32 30 33 31 34 32 35 33 36
REMARK SMILES IDX 94 37 34 38 93 39 35 40 36 41 37 42 87 43 38 44 92 45 86 46
REMARK SMILES IDX 88 47 39 48 91 49 85 50 84 51 40 53 72 54 52 55 71 56 53 57
REMARK SMILES IDX 56 58 70 59 89 60 54 61 55 62 69 64 90 65 57 66 41 67 42 68
REMARK SMILES IDX 50 69 43 70 44 71 48 72 51 73 45 74 46 75 49 76 47 77 73 78
REMARK SMILES IDX 74 79 82 80 75 81 76 82 80 83 83 84 77 85 78 86 81 87 79 88
REMARK SMILES IDX 58 89 59 90 67 91 60 92 61 93 65 94 68 95 62 96 63 97 66 98
REMARK SMILES IDX 64 99
REMARK H PARENT 5 15 88 52 56 63
REMARK Flexibility Score: 80.00
ROOT
ATOM      1  C   UNL     1       0.696  -3.637  -1.056  1.00  0.00     0.188 C 
ENDROOT
BRANCH   1   2
ATOM      2  O   UNL     1       0.158  -4.913  -0.701  1.00  0.00    -0.376 OA
BRANCH   2   3
ATOM      3  C   UNL     1      -0.163  -5.103   0.673  1.00  0.00     0.202 C 
BRANCH   3   4
ATOM      4  C   UNL     1      -1.429  -4.388   1.164  1.00  0.00     0.261 C 
BRANCH   4   5
ATOM      5  O   UNL     1      -1.385  -2.957   1.074  1.00  0.00    -0.459 OA
BRANCH   5   6
ATOM      6  C   UNL     1      -0.472  -2.287   1.820  1.00  0.00     0.350 C 
ATOM      7  O   UNL     1       0.245  -2.817   2.660  1.00  0.00    -0.245 OA
BRANCH   6   8
ATOM      8  C   UNL     1      -0.406  -0.918   1.364  1.00  0.00     0.137 A 
ATOM      9  C   UNL     1      -2.744  -0.412   0.337  1.00  0.00     0.069 C 
ATOM     10  C   UNL     1      -1.333  -0.120   0.710  1.00  0.00     0.065 A 
ATOM     11  N   UNL     1      -0.856   1.126   0.351  1.00  0.00    -0.225 NA
ATOM     12  C   UNL     1       0.401   1.279   0.673  1.00  0.00     0.183 A 
ATOM     13  S   UNL     1       1.078  -0.057   1.513  1.00  0.00    -0.090 S 
BRANCH  12  14
ATOM     14  N   UNL     1       1.140   2.373   0.402  1.00  0.00    -0.359 N 
ATOM     15  H   UNL     1       2.114   2.326   0.539  1.00  0.00     0.163 HD
BRANCH  14  16
ATOM     16  C   UNL     1       0.568   3.630  -0.086  1.00  0.00     0.081 C 
BRANCH  16  17
ATOM     17  C   UNL     1      -0.012   3.506  -1.508  1.00  0.00     0.025 C 
BRANCH  17  18
ATOM     18  C   UNL     1      -1.534   3.439  -1.663  1.00  0.00     0.002 CG0
ATOM     19  G   UNL     1      -2.238   4.786  -1.532  1.00  0.00     0.000 G0
ENDBRANCH  17  18
ENDBRANCH  16  17
BRANCH  16  20
ATOM     20  C   UNL     1      -0.313   4.263   0.997  1.00  0.00     0.025 C 
BRANCH  20  21
ATOM     21  C   UNL     1      -1.003   5.557   0.579  1.00  0.00     0.002 C 
BRANCH  21  22
ATOM     22  C   UNL     1      -2.343   5.316  -0.108  1.00  0.00     0.000 C 
BRANCH  22  23
ATOM     23  C   UNL     1      -2.238   4.786  -1.532  1.00  0.00     0.000 CG0
ATOM     24  G   UNL     1      -1.534   3.439  -1.663  1.00  0.00     0.000 G0
ENDBRANCH  22  23
ENDBRANCH  21  22
ENDBRANCH  20  21
ENDBRANCH  16  20
ENDBRANCH  14  16
ENDBRANCH  12  14
ENDBRANCH   6   8
ENDBRANCH   5   6
ENDBRANCH   4   5
ENDBRANCH   3   4
ENDBRANCH   2   3
ENDBRANCH   1   2
BRANCH   1  25
ATOM     25  C   UNL     1      -0.306  -2.751  -1.815  1.00  0.00     0.188 C 
BRANCH  25  26
ATOM     26  O   UNL     1      -1.621  -3.289  -1.802  1.00  0.00    -0.377 OA
BRANCH  26  27
ATOM     27  C   UNL     1      -1.952  -4.216  -2.836  1.00  0.00     0.188 C 
BRANCH  27  28
ATOM     28  C   UNL     1      -0.872  -5.120  -3.469  1.00  0.00     0.188 C 
BRANCH  28  29
ATOM     29  O   UNL     1       0.255  -4.404  -3.974  1.00  0.00    -0.376 OA
BRANCH  29  30
ATOM     30  C   UNL     1       0.377  -4.331  -5.390  1.00  0.00     0.202 C 
BRANCH  30  31
ATOM     31  C   UNL     1      -0.506  -3.245  -6.017  1.00  0.00     0.261 C 
BRANCH  31  32
ATOM     32  O   UNL     1      -1.917  -3.483  -5.894  1.00  0.00    -0.460 OA
BRANCH  32  33
ATOM     33  C   UNL     1      -2.398  -4.605  -6.470  1.00  0.00     0.338 C 
ATOM     34  O   UNL     1      -1.789  -5.412  -7.146  1.00  0.00    -0.246 OA
BRANCH  33  35
ATOM     35  C   UNL     1      -3.781  -4.798  -5.996  1.00  0.00     0.060 A 
ATOM     36  C   UNL     1      -4.126  -6.021  -5.408  1.00  0.00     0.016 A 
ATOM     37  C   UNL     1      -4.732  -3.786  -6.150  1.00  0.00     0.016 A 
ATOM     38  C   UNL     1      -5.442  -6.252  -5.011  1.00  0.00     0.010 A 
ATOM     39  C   UNL     1      -6.051  -4.024  -5.766  1.00  0.00     0.010 A 
ATOM     40  C   UNL     1      -6.418  -5.269  -5.229  1.00  0.00    -0.014 A 
BRANCH  40  41
ATOM     41  C   UNL     1      -7.853  -5.606  -5.082  1.00  0.00     0.031 A 
ATOM     42  C   UNL     1      -8.608  -6.049  -6.303  1.00  0.00     0.074 A 
ATOM     43  C   UNL     1      -8.474  -5.512  -3.895  1.00  0.00     0.049 A 
ATOM     44  N   UNL     1      -9.875  -6.346  -6.437  1.00  0.00    -0.248 NA
ATOM     45  C   UNL     1      -7.825  -6.169  -7.545  1.00  0.00     0.031 C 
ATOM     46  C   UNL     1      -7.842  -5.118  -2.638  1.00  0.00     0.029 A 
ATOM     47  N   UNL     1      -9.786  -5.733  -3.561  1.00  0.00    -0.354 N 
ATOM     48  C   UNL     1     -10.040  -6.690  -7.772  1.00  0.00     0.074 A 
ATOM     49  C   UNL     1      -8.754  -6.534  -8.416  1.00  0.00     0.031 C 
ATOM     50  C   UNL     1      -8.775  -5.108  -1.669  1.00  0.00     0.029 A 
ATOM     51  C   UNL     1     -10.069  -5.470  -2.244  1.00  0.00     0.049 A 
ATOM     52  H   UNL     1     -10.461  -6.049  -4.205  1.00  0.00     0.167 HD
ATOM     53  C   UNL     1     -11.162  -7.107  -8.403  1.00  0.00     0.037 A 
ATOM     54  C   UNL     1     -11.246  -5.501  -1.589  1.00  0.00     0.037 A 
ATOM     55  C   UNL     1     -12.443  -7.248  -7.767  1.00  0.00     0.049 A 
ATOM     56  C   UNL     1     -12.497  -5.901  -2.331  1.00  0.00     0.074 A 
ATOM     57  C   UNL     1     -13.639  -7.673  -8.317  1.00  0.00     0.029 A 
ATOM     58  N   UNL     1     -12.695  -6.955  -6.435  1.00  0.00    -0.354 N 
ATOM     59  N   UNL     1     -12.640  -6.259  -3.584  1.00  0.00    -0.248 NA
ATOM     60  C   UNL     1     -13.751  -5.904  -1.563  1.00  0.00     0.031 C 
ATOM     61  C   UNL     1     -14.626  -7.597  -7.328  1.00  0.00     0.029 A 
ATOM     62  C   UNL     1     -14.034  -7.169  -6.150  1.00  0.00     0.049 A 
ATOM     63  H   UNL     1     -12.023  -6.642  -5.787  1.00  0.00     0.167 HD
ATOM     64  C   UNL     1     -13.987  -6.555  -3.748  1.00  0.00     0.074 A 
ATOM     65  C   UNL     1     -14.619  -6.345  -2.462  1.00  0.00     0.031 C 
ATOM     66  C   UNL     1     -14.643  -6.965  -4.861  1.00  0.00     0.037 A 
BRANCH  53  67
ATOM     67  C   UNL     1     -11.052  -7.420  -9.864  1.00  0.00     0.064 A 
ATOM     68  C   UNL     1     -10.388  -8.569 -10.320  1.00  0.00     0.173 A 
ATOM     69  C   UNL     1     -11.633  -6.573 -10.819  1.00  0.00     0.173 A 
ATOM     70  F   UNL     1      -9.800  -9.400  -9.446  1.00  0.00    -0.203 F 
ATOM     71  C   UNL     1     -10.291  -8.847 -11.681  1.00  0.00     0.198 A 
ATOM     72  C   UNL     1     -11.556  -6.867 -12.178  1.00  0.00     0.198 A 
ATOM     73  F   UNL     1     -12.277  -5.462 -10.434  1.00  0.00    -0.203 F 
ATOM     74  F   UNL     1      -9.614  -9.927 -12.096  1.00  0.00    -0.200 F 
ATOM     75  C   UNL     1     -10.880  -8.000 -12.607  1.00  0.00     0.200 A 
ATOM     76  F   UNL     1     -12.132  -6.052 -13.072  1.00  0.00    -0.200 F 
ATOM     77  F   UNL     1     -10.789  -8.270 -13.917  1.00  0.00    -0.200 F 
ENDBRANCH  53  67
BRANCH  54  78
ATOM     78  C   UNL     1     -11.306  -5.133  -0.151  1.00  0.00     0.064 A 
ATOM     79  C   UNL     1     -11.580  -6.095   0.830  1.00  0.00     0.173 A 
ATOM     80  C   UNL     1     -11.118  -3.808   0.267  1.00  0.00     0.173 A 
ATOM     81  F   UNL     1     -11.796  -7.370   0.475  1.00  0.00    -0.203 F 
ATOM     82  C   UNL     1     -11.681  -5.743   2.175  1.00  0.00     0.198 A 
ATOM     83  C   UNL     1     -11.193  -3.461   1.615  1.00  0.00     0.198 A 
ATOM     84  F   UNL     1     -10.858  -2.849  -0.633  1.00  0.00    -0.203 F 
ATOM     85  F   UNL     1     -11.991  -6.674   3.087  1.00  0.00    -0.200 F 
ATOM     86  C   UNL     1     -11.482  -4.427   2.566  1.00  0.00     0.200 A 
ATOM     87  F   UNL     1     -10.993  -2.190   1.990  1.00  0.00    -0.200 F 
ATOM     88  F   UNL     1     -11.581  -4.089   3.859  1.00  0.00    -0.200 F 
ENDBRANCH  54  78
BRANCH  66  89
ATOM     89  C   UNL     1     -16.111  -7.249  -4.735  1.00  0.00     0.064 A 
ATOM     90  C   UNL     1     -17.052  -6.217  -4.608  1.00  0.00     0.173 A 
ATOM     91  C   UNL     1     -16.585  -8.569  -4.793  1.00  0.00     0.173 A 
ATOM     92  F   UNL     1     -16.648  -4.940  -4.534  1.00  0.00    -0.203 F 
ATOM     93  C   UNL     1     -18.413  -6.498  -4.524  1.00  0.00     0.198 A 
ATOM     94  C   UNL     1     -17.948  -8.844  -4.736  1.00  0.00     0.198 A 
ATOM     95  F   UNL     1     -15.726  -9.591  -4.922  1.00  0.00    -0.203 F 
ATOM     96  F   UNL     1     -19.293  -5.499  -4.362  1.00  0.00    -0.200 F 
ATOM     97  C   UNL     1     -18.861  -7.809  -4.595  1.00  0.00     0.200 A 
ATOM     98  F   UNL     1     -18.379 -10.110  -4.819  1.00  0.00    -0.200 F 
ATOM     99  F   UNL     1     -20.172  -8.076  -4.523  1.00  0.00    -0.200 F 
ENDBRANCH  66  89
ENDBRANCH  40  41
ENDBRANCH  33  35
ENDBRANCH  32  33
ENDBRANCH  31  32
ENDBRANCH  30  31
ENDBRANCH  29  30
ENDBRANCH  28  29
ENDBRANCH  27  28
ENDBRANCH  26  27
ENDBRANCH  25  26
ENDBRANCH   1  25
TORSDOF 22
