REMARK SMILES Cn1c(=O)c2c(nc(Nc3cccc(Cl)c3Cl)n2CC(=O)OCCOCCOCCOCCOC(=O)c2ccc(-c3c4nc(c(-c5c(F)c(F)c(F)c(F)c5F)c5ccc([nH]5)c(-c5c(F)c(F)c(F)c(F)c5F)c5nc(c(-c6c(F)c(F)c(F)c(F)c6F)c6ccc3[nH]6)C=C5)C=C4)cc2)n(C)c1=O
REMARK SMILES IDX 27 1 26 2 25 3 24 4 23 5 22 6 20 7 21 8 19 9 18 10 1 11 2 12
REMARK SMILES IDX 3 13 102 14 4 15 5 16 100 17 103 18 6 19 101 20 7 21 8 22
REMARK SMILES IDX 9 23 10 25 11 26 16 27 12 28 14 29 17 30 13 31 15 32 28 33
REMARK SMILES IDX 29 34 30 35 31 36 32 37 33 38 34 39 35 40 36 41 37 42 38 43
REMARK SMILES IDX 99 44 39 45 98 46 40 47 41 48 42 49 92 50 43 51 97 52 91 53
REMARK SMILES IDX 93 54 44 55 96 56 90 57 89 58 45 60 77 61 57 62 76 63 58 64
REMARK SMILES IDX 61 65 75 66 94 67 59 68 60 69 74 71 95 72 62 73 46 74 47 75
REMARK SMILES IDX 55 76 48 77 49 78 53 79 56 80 50 81 51 82 54 83 52 84 78 85
REMARK SMILES IDX 79 86 87 87 80 88 81 89 85 90 88 91 82 92 83 93 86 94 84 95
REMARK SMILES IDX 63 96 64 97 72 98 65 99 66 100 70 101 73 102 67 103 68 104
REMARK SMILES IDX 71 105 69 106
REMARK H PARENT 9 24 93 59 61 70
REMARK Flexibility Score: inf
ROOT
ATOM      1  C   UNL     1      -0.221   3.734   1.238  1.00  0.00     0.188 C 
ENDROOT
BRANCH   1   2
ATOM      2  C   UNL     1       0.811   4.158   2.307  1.00  0.00     0.188 C 
BRANCH   2   3
ATOM      3  O   UNL     1       0.417   4.999   3.384  1.00  0.00    -0.376 OA
BRANCH   3   4
ATOM      4  C   UNL     1      -0.546   6.015   3.139  1.00  0.00     0.202 C 
BRANCH   4   5
ATOM      5  C   UNL     1      -0.299   6.995   1.969  1.00  0.00     0.261 C 
BRANCH   5   6
ATOM      6  O   UNL     1       0.070   6.369   0.712  1.00  0.00    -0.462 OA
BRANCH   6   7
ATOM      7  C   UNL     1       1.179   6.827   0.081  1.00  0.00     0.326 C 
ATOM      8  O   UNL     1       1.734   7.880   0.387  1.00  0.00    -0.250 OA
BRANCH   7   9
ATOM      9  C   UNL     1       1.837   5.837  -0.867  1.00  0.00     0.248 C 
BRANCH   9  10
ATOM     10  N   UNL     1       1.056   5.061  -1.834  1.00  0.00    -0.293 N 
ATOM     11  C   UNL     1       2.147   0.268  -0.926  1.00  0.00     0.159 C 
ATOM     12  N   UNL     1       1.455   1.349  -1.611  1.00  0.00    -0.261 N 
ATOM     13  C   UNL     1       1.818   2.652  -1.245  1.00  0.00     0.282 A 
ATOM     14  C   UNL     1       0.455   1.012  -2.539  1.00  0.00     0.332 A 
ATOM     15  O   UNL     1       2.645   2.888  -0.369  1.00  0.00    -0.267 OA
ATOM     16  C   UNL     1       1.101   3.671  -1.948  1.00  0.00     0.154 A 
ATOM     17  N   UNL     1      -0.151   2.064  -3.223  1.00  0.00    -0.279 N 
ATOM     18  O   UNL     1       0.118  -0.160  -2.729  1.00  0.00    -0.247 OA
ATOM     19  C   UNL     1       0.192   3.360  -2.911  1.00  0.00     0.170 A 
ATOM     20  C   UNL     1      -1.140   1.794  -4.253  1.00  0.00     0.157 C 
ATOM     21  N   UNL     1      -0.314   4.467  -3.494  1.00  0.00    -0.194 NA
ATOM     22  C   UNL     1       0.275   5.490  -2.902  1.00  0.00     0.210 A 
BRANCH  22  23
ATOM     23  N   UNL     1       0.056   6.748  -3.334  1.00  0.00    -0.324 N 
ATOM     24  H   UNL     1      -0.574   6.809  -4.088  1.00  0.00     0.170 HD
BRANCH  23  25
ATOM     25  C   UNL     1       0.559   7.983  -2.907  1.00  0.00     0.061 A 
ATOM     26  C   UNL     1      -0.379   8.900  -2.407  1.00  0.00     0.028 A 
ATOM     27  C   UNL     1       1.912   8.366  -2.984  1.00  0.00     0.083 A 
ATOM     28  C   UNL     1       0.026  10.119  -1.872  1.00  0.00     0.004 A 
ATOM     29  C   UNL     1       2.324   9.567  -2.387  1.00  0.00     0.061 A 
ATOM     30  Cl  UNL     1       3.044   7.375  -3.860  1.00  0.00    -0.080 Cl
ATOM     31  C   UNL     1       1.381  10.432  -1.825  1.00  0.00     0.022 A 
ATOM     32  Cl  UNL     1       3.989  10.021  -2.275  1.00  0.00    -0.083 Cl
ENDBRANCH  23  25
ENDBRANCH  22  23
ENDBRANCH   9  10
ENDBRANCH   7   9
ENDBRANCH   6   7
ENDBRANCH   5   6
ENDBRANCH   4   5
ENDBRANCH   3   4
ENDBRANCH   2   3
ENDBRANCH   1   2
BRANCH   1  33
ATOM     33  O   UNL     1      -1.538   4.226   1.384  1.00  0.00    -0.377 OA
BRANCH  33  34
ATOM     34  C   UNL     1      -2.505   3.333   1.907  1.00  0.00     0.188 C 
BRANCH  34  35
ATOM     35  C   UNL     1      -2.095   2.461   3.109  1.00  0.00     0.188 C 
BRANCH  35  36
ATOM     36  O   UNL     1      -0.783   1.909   3.035  1.00  0.00    -0.376 OA
BRANCH  36  37
ATOM     37  C   UNL     1      -0.610   0.553   2.652  1.00  0.00     0.202 C 
BRANCH  37  38
ATOM     38  C   UNL     1      -0.835   0.220   1.179  1.00  0.00     0.261 C 
BRANCH  38  39
ATOM     39  O   UNL     1      -2.048   0.688   0.627  1.00  0.00    -0.460 OA
BRANCH  39  40
ATOM     40  C   UNL     1      -3.149   0.117   1.143  1.00  0.00     0.338 C 
ATOM     41  O   UNL     1      -3.253  -0.486   2.192  1.00  0.00    -0.246 OA
BRANCH  40  42
ATOM     42  C   UNL     1      -4.201   0.185   0.131  1.00  0.00     0.060 A 
ATOM     43  C   UNL     1      -5.453  -0.256   0.542  1.00  0.00     0.016 A 
ATOM     44  C   UNL     1      -3.866   0.366  -1.224  1.00  0.00     0.016 A 
ATOM     45  C   UNL     1      -6.301  -0.731  -0.422  1.00  0.00     0.010 A 
ATOM     46  C   UNL     1      -4.724  -0.102  -2.190  1.00  0.00     0.010 A 
ATOM     47  C   UNL     1      -5.893  -0.718  -1.768  1.00  0.00    -0.014 A 
BRANCH  47  48
ATOM     48  C   UNL     1      -6.833  -1.262  -2.718  1.00  0.00     0.031 A 
ATOM     49  C   UNL     1      -8.071  -0.464  -2.762  1.00  0.00     0.074 A 
ATOM     50  C   UNL     1      -6.630  -2.385  -3.426  1.00  0.00     0.049 A 
ATOM     51  N   UNL     1      -9.200  -0.780  -2.225  1.00  0.00    -0.248 NA
ATOM     52  C   UNL     1      -7.986   0.922  -3.241  1.00  0.00     0.031 C 
ATOM     53  C   UNL     1      -5.386  -3.123  -3.641  1.00  0.00     0.029 A 
ATOM     54  N   UNL     1      -7.538  -3.076  -4.167  1.00  0.00    -0.354 N 
ATOM     55  C   UNL     1     -10.038   0.296  -2.469  1.00  0.00     0.074 A 
ATOM     56  C   UNL     1      -9.203   1.373  -2.934  1.00  0.00     0.031 C 
ATOM     57  C   UNL     1      -5.576  -4.030  -4.628  1.00  0.00     0.029 A 
ATOM     58  C   UNL     1      -6.981  -4.033  -5.002  1.00  0.00     0.049 A 
ATOM     59  H   UNL     1      -8.507  -2.912  -4.114  1.00  0.00     0.167 HD
ATOM     60  C   UNL     1     -11.378   0.098  -2.540  1.00  0.00     0.037 A 
ATOM     61  C   UNL     1      -7.642  -4.723  -5.962  1.00  0.00     0.037 A 
ATOM     62  C   UNL     1     -11.756  -1.129  -1.883  1.00  0.00     0.049 A 
ATOM     63  C   UNL     1      -9.081  -4.706  -5.601  1.00  0.00     0.074 A 
ATOM     64  C   UNL     1     -11.717  -1.604  -0.588  1.00  0.00     0.029 A 
ATOM     65  N   UNL     1     -11.909  -2.224  -2.693  1.00  0.00    -0.354 N 
ATOM     66  N   UNL     1      -9.582  -5.339  -4.577  1.00  0.00    -0.248 NA
ATOM     67  C   UNL     1      -9.925  -3.658  -6.157  1.00  0.00     0.031 C 
ATOM     68  C   UNL     1     -11.476  -3.006  -0.702  1.00  0.00     0.029 A 
ATOM     69  C   UNL     1     -11.421  -3.333  -2.058  1.00  0.00     0.049 A 
ATOM     70  H   UNL     1     -12.309  -2.214  -3.593  1.00  0.00     0.167 HD
ATOM     71  C   UNL     1     -10.572  -4.498  -4.096  1.00  0.00     0.074 A 
ATOM     72  C   UNL     1     -10.836  -3.564  -5.185  1.00  0.00     0.031 C 
ATOM     73  C   UNL     1     -10.865  -4.468  -2.763  1.00  0.00     0.037 A 
BRANCH  60  74
ATOM     74  C   UNL     1     -12.233   0.730  -3.613  1.00  0.00     0.064 A 
ATOM     75  C   UNL     1     -13.624   0.519  -3.580  1.00  0.00     0.173 A 
ATOM     76  C   UNL     1     -11.722   1.238  -4.829  1.00  0.00     0.173 A 
ATOM     77  F   UNL     1     -14.211   0.007  -2.487  1.00  0.00    -0.203 F 
ATOM     78  C   UNL     1     -14.425   0.725  -4.706  1.00  0.00     0.198 A 
ATOM     79  C   UNL     1     -12.532   1.493  -5.931  1.00  0.00     0.198 A 
ATOM     80  F   UNL     1     -10.412   1.392  -5.052  1.00  0.00    -0.203 F 
ATOM     81  F   UNL     1     -15.720   0.382  -4.671  1.00  0.00    -0.200 F 
ATOM     82  C   UNL     1     -13.878   1.207  -5.881  1.00  0.00     0.200 A 
ATOM     83  F   UNL     1     -11.975   1.933  -7.068  1.00  0.00    -0.200 F 
ATOM     84  F   UNL     1     -14.631   1.344  -6.979  1.00  0.00    -0.200 F 
ENDBRANCH  60  74
BRANCH  61  85
ATOM     85  C   UNL     1      -7.170  -5.114  -7.311  1.00  0.00     0.064 A 
ATOM     86  C   UNL     1      -7.906  -6.018  -8.097  1.00  0.00     0.173 A 
ATOM     87  C   UNL     1      -6.162  -4.388  -7.973  1.00  0.00     0.173 A 
ATOM     88  F   UNL     1      -8.914  -6.718  -7.556  1.00  0.00    -0.203 F 
ATOM     89  C   UNL     1      -7.675  -6.155  -9.470  1.00  0.00     0.198 A 
ATOM     90  C   UNL     1      -5.928  -4.531  -9.342  1.00  0.00     0.198 A 
ATOM     91  F   UNL     1      -5.453  -3.450  -7.330  1.00  0.00    -0.203 F 
ATOM     92  F   UNL     1      -8.449  -6.971 -10.199  1.00  0.00    -0.200 F 
ATOM     93  C   UNL     1      -6.695  -5.402 -10.093  1.00  0.00     0.200 A 
ATOM     94  F   UNL     1      -5.002  -3.769  -9.940  1.00  0.00    -0.200 F 
ATOM     95  F   UNL     1      -6.519  -5.481 -11.419  1.00  0.00    -0.200 F 
ENDBRANCH  61  85
BRANCH  73  96
ATOM     96  C   UNL     1     -10.392  -5.621  -1.924  1.00  0.00     0.064 A 
ATOM     97  C   UNL     1      -9.043  -5.933  -1.686  1.00  0.00     0.173 A 
ATOM     98  C   UNL     1     -11.360  -6.362  -1.230  1.00  0.00     0.173 A 
ATOM     99  F   UNL     1      -8.058  -5.216  -2.245  1.00  0.00    -0.203 F 
ATOM    100  C   UNL     1      -8.686  -6.965  -0.818  1.00  0.00     0.198 A 
ATOM    101  C   UNL     1     -10.999  -7.363  -0.334  1.00  0.00     0.198 A 
ATOM    102  F   UNL     1     -12.662  -6.077  -1.385  1.00  0.00    -0.203 F 
ATOM    103  F   UNL     1      -7.392  -7.256  -0.614  1.00  0.00    -0.200 F 
ATOM    104  C   UNL     1      -9.664  -7.671  -0.135  1.00  0.00     0.200 A 
ATOM    105  F   UNL     1     -11.947  -8.010   0.357  1.00  0.00    -0.200 F 
ATOM    106  F   UNL     1      -9.319  -8.630   0.735  1.00  0.00    -0.200 F 
ENDBRANCH  73  96
ENDBRANCH  47  48
ENDBRANCH  40  42
ENDBRANCH  39  40
ENDBRANCH  38  39
ENDBRANCH  37  38
ENDBRANCH  36  37
ENDBRANCH  35  36
ENDBRANCH  34  35
ENDBRANCH  33  34
ENDBRANCH   1  33
TORSDOF 23
