REMARK SMILES O=C(C[C@@H](NC(=O)C1CCC1)c1ccc(Cl)cc1)OCCOCCOCCOCCOC(=O)c1ccc(-c2c3nc(c(-c4c(F)c(F)c(F)c(F)c4F)c4ccc([nH]4)c(-c4c(F)c(F)c(F)c(F)c4F)c4nc(c(-c5c(F)c(F)c(F)c(F)c5F)c5ccc2[nH]5)C=C4)C=C3)cc1
REMARK SMILES IDX 24 1 23 2 22 3 21 4 20 5 19 6 2 7 1 8 3 9 4 10 5 11 6 12
REMARK SMILES IDX 7 14 8 15 9 16 11 17 10 18 12 19 13 20 18 21 14 22 17 23
REMARK SMILES IDX 15 24 16 25 25 26 26 27 27 28 28 29 29 30 30 31 31 32 32 33
REMARK SMILES IDX 33 34 34 35 35 36 96 37 36 38 95 39 37 40 38 41 39 42 89 43
REMARK SMILES IDX 40 44 94 45 88 46 90 47 41 48 93 49 87 50 86 51 42 53 74 54
REMARK SMILES IDX 54 55 73 56 55 57 58 58 72 59 91 60 56 61 57 62 71 64 92 65
REMARK SMILES IDX 59 66 43 67 44 68 52 69 45 70 46 71 50 72 53 73 47 74 48 75
REMARK SMILES IDX 51 76 49 77 75 78 76 79 84 80 77 81 78 82 82 83 85 84 79 85
REMARK SMILES IDX 80 86 83 87 81 88 60 89 61 90 69 91 62 92 63 93 67 94 70 95
REMARK SMILES IDX 64 96 65 97 68 98 66 99
REMARK H PARENT 5 13 90 52 58 63
REMARK Flexibility Score: inf
ROOT
ATOM      1  C   UNL     1       1.875  -1.575   1.922  1.00  0.00     0.188 C 
ENDROOT
BRANCH   1   2
ATOM      2  C   UNL     1       2.329  -1.548   0.461  1.00  0.00     0.188 C 
BRANCH   2   3
ATOM      3  O   UNL     1       3.717  -1.412   0.212  1.00  0.00    -0.376 OA
BRANCH   3   4
ATOM      4  C   UNL     1       4.449  -0.213   0.360  1.00  0.00     0.202 C 
BRANCH   4   5
ATOM      5  C   UNL     1       3.789   1.071   0.820  1.00  0.00     0.261 C 
BRANCH   5   6
ATOM      6  O   UNL     1       2.597   1.539   0.148  1.00  0.00    -0.463 OA
BRANCH   6   7
ATOM      7  C   UNL     1       2.317   1.667  -1.162  1.00  0.00     0.308 C 
ATOM      8  O   UNL     1       1.470   2.482  -1.524  1.00  0.00    -0.252 OA
BRANCH   7   9
ATOM      9  C   UNL     1       2.932   0.736  -2.161  1.00  0.00     0.152 C 
BRANCH   9  10
ATOM     10  C   UNL     1       4.046   1.352  -3.010  1.00  0.00     0.123 C 
BRANCH  10  11
ATOM     11  N   UNL     1       5.170   1.867  -2.201  1.00  0.00    -0.348 N 
ATOM     12  C   UNL     1       6.428   1.418  -1.853  1.00  0.00     0.223 C 
ATOM     13  H   UNL     1       4.973   2.750  -1.813  1.00  0.00     0.164 HD
ATOM     14  O   UNL     1       6.933   2.000  -0.882  1.00  0.00    -0.275 OA
BRANCH  12  15
ATOM     15  C   UNL     1       7.157   0.301  -2.632  1.00  0.00     0.078 C 
ATOM     16  C   UNL     1       8.702   0.166  -2.435  1.00  0.00     0.013 C 
ATOM     17  C   UNL     1       7.103  -1.172  -2.125  1.00  0.00     0.013 C 
ATOM     18  C   UNL     1       8.514  -1.338  -2.726  1.00  0.00     0.002 C 
ENDBRANCH  12  15
ENDBRANCH  10  11
BRANCH  10  19
ATOM     19  C   UNL     1       4.460   0.450  -4.163  1.00  0.00    -0.025 A 
ATOM     20  C   UNL     1       4.296  -0.950  -4.136  1.00  0.00     0.007 A 
ATOM     21  C   UNL     1       5.091   1.022  -5.280  1.00  0.00     0.007 A 
ATOM     22  C   UNL     1       4.809  -1.755  -5.155  1.00  0.00     0.021 A 
ATOM     23  C   UNL     1       5.615   0.215  -6.293  1.00  0.00     0.021 A 
ATOM     24  C   UNL     1       5.487  -1.170  -6.218  1.00  0.00     0.041 A 
ATOM     25  Cl  UNL     1       6.201  -2.166  -7.423  1.00  0.00    -0.084 Cl
ENDBRANCH  10  19
ENDBRANCH   9  10
ENDBRANCH   7   9
ENDBRANCH   6   7
ENDBRANCH   5   6
ENDBRANCH   4   5
ENDBRANCH   3   4
ENDBRANCH   2   3
ENDBRANCH   1   2
BRANCH   1  26
ATOM     26  O   UNL     1       2.544  -2.488   2.784  1.00  0.00    -0.377 OA
BRANCH  26  27
ATOM     27  C   UNL     1       3.949  -2.292   2.889  1.00  0.00     0.188 C 
BRANCH  27  28
ATOM     28  C   UNL     1       4.768  -3.278   2.031  1.00  0.00     0.188 C 
BRANCH  28  29
ATOM     29  O   UNL     1       3.963  -4.064   1.154  1.00  0.00    -0.376 OA
BRANCH  29  30
ATOM     30  C   UNL     1       3.737  -5.407   1.572  1.00  0.00     0.202 C 
BRANCH  30  31
ATOM     31  C   UNL     1       2.814  -5.578   2.790  1.00  0.00     0.261 C 
BRANCH  31  32
ATOM     32  O   UNL     1       3.287  -4.992   4.018  1.00  0.00    -0.460 OA
BRANCH  32  33
ATOM     33  C   UNL     1       4.483  -5.391   4.495  1.00  0.00     0.338 C 
ATOM     34  O   UNL     1       5.183  -6.295   4.073  1.00  0.00    -0.246 OA
BRANCH  33  35
ATOM     35  C   UNL     1       4.933  -4.386   5.488  1.00  0.00     0.060 A 
ATOM     36  C   UNL     1       6.234  -3.875   5.376  1.00  0.00     0.016 A 
ATOM     37  C   UNL     1       4.072  -3.903   6.480  1.00  0.00     0.016 A 
ATOM     38  C   UNL     1       6.698  -2.930   6.291  1.00  0.00     0.010 A 
ATOM     39  C   UNL     1       4.542  -2.972   7.411  1.00  0.00     0.010 A 
ATOM     40  C   UNL     1       5.874  -2.523   7.350  1.00  0.00    -0.014 A 
BRANCH  40  41
ATOM     41  C   UNL     1       6.504  -1.906   8.543  1.00  0.00     0.031 A 
ATOM     42  C   UNL     1       6.958  -2.838   9.637  1.00  0.00     0.074 A 
ATOM     43  C   UNL     1       6.720  -0.584   8.649  1.00  0.00     0.049 A 
ATOM     44  N   UNL     1       7.571  -2.574  10.762  1.00  0.00    -0.248 NA
ATOM     45  C   UNL     1       6.679  -4.269   9.427  1.00  0.00     0.031 C 
ATOM     46  C   UNL     1       6.363   0.419   7.650  1.00  0.00     0.029 A 
ATOM     47  N   UNL     1       7.305   0.139   9.660  1.00  0.00    -0.354 N 
ATOM     48  C   UNL     1       7.750  -3.802  11.386  1.00  0.00     0.074 A 
ATOM     49  C   UNL     1       7.148  -4.807  10.540  1.00  0.00     0.031 C 
ATOM     50  C   UNL     1       6.740   1.631   8.097  1.00  0.00     0.029 A 
ATOM     51  C   UNL     1       7.346   1.490   9.422  1.00  0.00     0.049 A 
ATOM     52  H   UNL     1       7.662  -0.274  10.479  1.00  0.00     0.167 HD
ATOM     53  C   UNL     1       8.372  -4.075  12.556  1.00  0.00     0.037 A 
ATOM     54  C   UNL     1       7.818   2.492  10.192  1.00  0.00     0.037 A 
ATOM     55  C   UNL     1       8.966  -3.080  13.404  1.00  0.00     0.049 A 
ATOM     56  C   UNL     1       8.442   2.169  11.529  1.00  0.00     0.074 A 
ATOM     57  C   UNL     1       9.636  -3.255  14.601  1.00  0.00     0.029 A 
ATOM     58  N   UNL     1       8.947  -1.718  13.148  1.00  0.00    -0.354 N 
ATOM     59  N   UNL     1       8.651   1.002  12.090  1.00  0.00    -0.248 NA
ATOM     60  C   UNL     1       8.904   3.309  12.335  1.00  0.00     0.031 C 
ATOM     61  C   UNL     1       9.976  -1.992  15.097  1.00  0.00     0.029 A 
ATOM     62  C   UNL     1       9.570  -1.036  14.180  1.00  0.00     0.049 A 
ATOM     63  H   UNL     1       8.550  -1.298  12.351  1.00  0.00     0.167 HD
ATOM     64  C   UNL     1       9.302   1.264  13.291  1.00  0.00     0.074 A 
ATOM     65  C   UNL     1       9.461   2.700  13.373  1.00  0.00     0.031 C 
ATOM     66  C   UNL     1       9.734   0.394  14.238  1.00  0.00     0.037 A 
BRANCH  53  67
ATOM     67  C   UNL     1       8.404  -5.509  12.996  1.00  0.00     0.064 A 
ATOM     68  C   UNL     1       9.189  -6.468  12.336  1.00  0.00     0.173 A 
ATOM     69  C   UNL     1       7.636  -5.930  14.091  1.00  0.00     0.173 A 
ATOM     70  F   UNL     1       9.923  -6.121  11.268  1.00  0.00    -0.203 F 
ATOM     71  C   UNL     1       9.178  -7.801  12.738  1.00  0.00     0.198 A 
ATOM     72  C   UNL     1       7.652  -7.257  14.510  1.00  0.00     0.198 A 
ATOM     73  F   UNL     1       6.866  -5.053  14.754  1.00  0.00    -0.203 F 
ATOM     74  F   UNL     1       9.889  -8.710  12.057  1.00  0.00    -0.200 F 
ATOM     75  C   UNL     1       8.415  -8.193  13.828  1.00  0.00     0.200 A 
ATOM     76  F   UNL     1       6.921  -7.632  15.568  1.00  0.00    -0.200 F 
ATOM     77  F   UNL     1       8.406  -9.476  14.215  1.00  0.00    -0.200 F 
ENDBRANCH  53  67
BRANCH  54  78
ATOM     78  C   UNL     1       7.736   3.902   9.724  1.00  0.00     0.064 A 
ATOM     79  C   UNL     1       8.894   4.629   9.412  1.00  0.00     0.173 A 
ATOM     80  C   UNL     1       6.504   4.565   9.621  1.00  0.00     0.173 A 
ATOM     81  F   UNL     1      10.098   4.049   9.524  1.00  0.00    -0.203 F 
ATOM     82  C   UNL     1       8.825   5.969   9.036  1.00  0.00     0.198 A 
ATOM     83  C   UNL     1       6.434   5.897   9.219  1.00  0.00     0.198 A 
ATOM     84  F   UNL     1       5.367   3.919   9.916  1.00  0.00    -0.203 F 
ATOM     85  F   UNL     1       9.951   6.654   8.796  1.00  0.00    -0.200 F 
ATOM     86  C   UNL     1       7.595   6.601   8.934  1.00  0.00     0.200 A 
ATOM     87  F   UNL     1       5.243   6.503   9.116  1.00  0.00    -0.200 F 
ATOM     88  F   UNL     1       7.529   7.891   8.576  1.00  0.00    -0.200 F 
ENDBRANCH  54  78
BRANCH  66  89
ATOM     89  C   UNL     1      10.468   0.962  15.420  1.00  0.00     0.064 A 
ATOM     90  C   UNL     1       9.814   1.710  16.410  1.00  0.00     0.173 A 
ATOM     91  C   UNL     1      11.841   0.717  15.583  1.00  0.00     0.173 A 
ATOM     92  F   UNL     1       8.505   1.982  16.296  1.00  0.00    -0.203 F 
ATOM     93  C   UNL     1      10.513   2.217  17.502  1.00  0.00     0.198 A 
ATOM     94  C   UNL     1      12.529   1.197  16.693  1.00  0.00     0.198 A 
ATOM     95  F   UNL     1      12.512  -0.003  14.671  1.00  0.00    -0.203 F 
ATOM     96  F   UNL     1       9.879   2.974  18.408  1.00  0.00    -0.200 F 
ATOM     97  C   UNL     1      11.867   1.955  17.647  1.00  0.00     0.200 A 
ATOM     98  F   UNL     1      13.834   0.927  16.840  1.00  0.00    -0.200 F 
ATOM     99  F   UNL     1      12.537   2.438  18.702  1.00  0.00    -0.200 F 
ENDBRANCH  66  89
ENDBRANCH  40  41
ENDBRANCH  33  35
ENDBRANCH  32  33
ENDBRANCH  31  32
ENDBRANCH  30  31
ENDBRANCH  29  30
ENDBRANCH  28  29
ENDBRANCH  27  28
ENDBRANCH  26  27
ENDBRANCH   1  26
TORSDOF 24
