REMARK SMILES COc1cc2c(CC(=O)OCCOCCOCCOCCOC(=O)c3ccc(-c4c5nc(c(-c6c(F)c(F)c(F)c(F)c6F)c6ccc([nH]6)c(-c6c(F)c(F)c(F)c(F)c6F)c6nc(c(-c7c(F)c(F)c(F)c(F)c7F)c7ccc4[nH]7)C=C6)C=C5)cc3)c(C)n(C(=O)c3ccc(Cl)cc3)c2cc1Cl
REMARK SMILES IDX 15 1 14 2 13 3 12 4 11 5 10 6 8 7 9 8 7 9 6 10 3 11 4 12
REMARK SMILES IDX 102 13 5 14 101 15 103 16 100 17 88 18 90 19 89 20 2 21 1 22
REMARK SMILES IDX 91 23 92 24 93 25 94 26 99 27 95 28 98 29 96 30 97 31 16 32
REMARK SMILES IDX 17 33 18 34 19 35 20 36 21 37 22 38 23 39 24 40 25 41 26 42
REMARK SMILES IDX 87 43 27 44 86 45 28 46 29 47 30 48 80 49 31 50 85 51 79 52
REMARK SMILES IDX 81 53 32 54 84 55 78 56 77 57 33 59 65 60 45 61 64 62 46 63
REMARK SMILES IDX 49 64 63 65 82 66 47 67 48 68 62 70 83 71 50 72 34 73 35 74
REMARK SMILES IDX 43 75 36 76 37 77 41 78 44 79 38 80 39 81 42 82 40 83 66 84
REMARK SMILES IDX 67 85 75 86 68 87 69 88 73 89 76 90 70 91 71 92 74 93 72 94
REMARK SMILES IDX 51 95 52 96 60 97 53 98 54 99 58 100 61 101 55 102 56 103
REMARK SMILES IDX 59 104 57 105
REMARK H PARENT 81 58 49 69
REMARK Flexibility Score: inf
ROOT
ATOM      1  C   UNL     1      -1.381  -3.939   0.116  1.00  0.00     0.188 C 
ENDROOT
BRANCH   1   2
ATOM      2  C   UNL     1      -2.773  -4.005   0.733  1.00  0.00     0.188 C 
BRANCH   2   3
ATOM      3  O   UNL     1      -2.987  -5.140   1.550  1.00  0.00    -0.376 OA
BRANCH   3   4
ATOM      4  C   UNL     1      -3.666  -6.254   0.996  1.00  0.00     0.202 C 
BRANCH   4   5
ATOM      5  C   UNL     1      -3.020  -7.064  -0.149  1.00  0.00     0.261 C 
BRANCH   5   6
ATOM      6  O   UNL     1      -2.367  -6.342  -1.215  1.00  0.00    -0.463 OA
BRANCH   6   7
ATOM      7  C   UNL     1      -3.132  -5.859  -2.222  1.00  0.00     0.310 C 
ATOM      8  O   UNL     1      -4.355  -5.977  -2.239  1.00  0.00    -0.252 OA
BRANCH   7   9
ATOM      9  C   UNL     1      -2.392  -5.088  -3.319  1.00  0.00     0.160 C 
BRANCH   9  10
ATOM     10  C   UNL     1      -0.873  -4.960  -3.309  1.00  0.00    -0.008 A 
ATOM     11  C   UNL     1       0.473  -1.559  -2.047  1.00  0.00     0.138 A 
ATOM     12  C   UNL     1      -0.476  -2.480  -2.539  1.00  0.00     0.058 A 
ATOM     13  C   UNL     1       1.817  -1.893  -2.134  1.00  0.00     0.085 A 
ATOM     14  C   UNL     1      -0.118  -3.786  -2.969  1.00  0.00     0.008 A 
ATOM     15  C   UNL     1       2.198  -3.138  -2.658  1.00  0.00     0.051 A 
ATOM     16  Cl  UNL     1       3.136  -0.865  -1.684  1.00  0.00    -0.080 Cl
ATOM     17  C   UNL     1       1.239  -4.101  -3.047  1.00  0.00     0.058 A 
ATOM     18  C   UNL     1       0.054  -5.910  -3.730  1.00  0.00     0.028 A 
ATOM     19  N   UNL     1       1.359  -5.410  -3.546  1.00  0.00    -0.280 N 
ATOM     20  C   UNL     1      -0.260  -7.263  -4.288  1.00  0.00     0.065 C 
BRANCH  11  21
ATOM     21  O   UNL     1      -0.113  -0.434  -1.531  1.00  0.00    -0.495 OA
ATOM     22  C   UNL     1       0.604   0.368  -0.601  1.00  0.00     0.278 C 
ENDBRANCH  11  21
BRANCH  19  23
ATOM     23  C   UNL     1       2.588  -6.093  -3.819  1.00  0.00     0.262 C 
ATOM     24  O   UNL     1       2.559  -7.237  -4.267  1.00  0.00    -0.268 OA
BRANCH  23  25
ATOM     25  C   UNL     1       3.935  -5.533  -3.602  1.00  0.00     0.040 A 
ATOM     26  C   UNL     1       4.508  -5.592  -2.326  1.00  0.00     0.015 A 
ATOM     27  C   UNL     1       4.603  -4.902  -4.659  1.00  0.00     0.015 A 
ATOM     28  C   UNL     1       5.730  -4.955  -2.092  1.00  0.00     0.021 A 
ATOM     29  C   UNL     1       5.829  -4.273  -4.418  1.00  0.00     0.021 A 
ATOM     30  C   UNL     1       6.378  -4.289  -3.134  1.00  0.00     0.041 A 
ATOM     31  Cl  UNL     1       7.857  -3.464  -2.829  1.00  0.00    -0.084 Cl
ENDBRANCH  23  25
ENDBRANCH  19  23
ENDBRANCH   9  10
ENDBRANCH   7   9
ENDBRANCH   6   7
ENDBRANCH   5   6
ENDBRANCH   4   5
ENDBRANCH   3   4
ENDBRANCH   2   3
ENDBRANCH   1   2
BRANCH   1  32
ATOM     32  O   UNL     1      -0.215  -4.407   0.749  1.00  0.00    -0.377 OA
BRANCH  32  33
ATOM     33  C   UNL     1      -0.339  -5.065   1.979  1.00  0.00     0.188 C 
BRANCH  33  34
ATOM     34  C   UNL     1      -0.601  -4.151   3.181  1.00  0.00     0.188 C 
BRANCH  34  35
ATOM     35  O   UNL     1      -0.165  -2.795   3.215  1.00  0.00    -0.376 OA
BRANCH  35  36
ATOM     36  C   UNL     1       0.833  -2.322   2.325  1.00  0.00     0.202 C 
BRANCH  36  37
ATOM     37  C   UNL     1       2.268  -2.878   2.414  1.00  0.00     0.261 C 
BRANCH  37  38
ATOM     38  O   UNL     1       2.337  -4.280   2.674  1.00  0.00    -0.460 OA
BRANCH  38  39
ATOM     39  C   UNL     1       2.974  -4.689   3.804  1.00  0.00     0.338 C 
ATOM     40  O   UNL     1       3.722  -4.062   4.511  1.00  0.00    -0.246 OA
BRANCH  39  41
ATOM     41  C   UNL     1       2.298  -5.954   4.175  1.00  0.00     0.060 A 
ATOM     42  C   UNL     1       2.178  -6.997   3.252  1.00  0.00     0.016 A 
ATOM     43  C   UNL     1       1.485  -5.901   5.316  1.00  0.00     0.016 A 
ATOM     44  C   UNL     1       1.122  -7.894   3.394  1.00  0.00     0.010 A 
ATOM     45  C   UNL     1       0.421  -6.791   5.444  1.00  0.00     0.010 A 
ATOM     46  C   UNL     1       0.207  -7.756   4.457  1.00  0.00    -0.014 A 
BRANCH  46  47
ATOM     47  C   UNL     1      -0.759  -8.844   4.659  1.00  0.00     0.031 A 
ATOM     48  C   UNL     1      -0.061 -10.119   4.970  1.00  0.00     0.074 A 
ATOM     49  C   UNL     1      -2.103  -8.765   4.766  1.00  0.00     0.049 A 
ATOM     50  N   UNL     1      -0.152 -11.257   4.364  1.00  0.00    -0.248 NA
ATOM     51  C   UNL     1       0.972 -10.066   6.023  1.00  0.00     0.031 C 
ATOM     52  C   UNL     1      -2.915  -7.550   4.819  1.00  0.00     0.029 A 
ATOM     53  N   UNL     1      -3.027  -9.766   4.970  1.00  0.00    -0.354 N 
ATOM     54  C   UNL     1       0.699 -12.103   5.066  1.00  0.00     0.074 A 
ATOM     55  C   UNL     1       1.480 -11.292   5.960  1.00  0.00     0.031 C 
ATOM     56  C   UNL     1      -4.158  -7.866   5.249  1.00  0.00     0.029 A 
ATOM     57  C   UNL     1      -4.266  -9.310   5.406  1.00  0.00     0.049 A 
ATOM     58  H   UNL     1      -2.828 -10.719   4.820  1.00  0.00     0.167 HD
ATOM     59  C   UNL     1       0.512 -13.445   5.087  1.00  0.00     0.037 A 
ATOM     60  C   UNL     1      -5.283 -10.044   5.928  1.00  0.00     0.037 A 
ATOM     61  C   UNL     1      -0.348 -13.911   4.043  1.00  0.00     0.049 A 
ATOM     62  C   UNL     1      -5.118 -11.461   5.523  1.00  0.00     0.074 A 
ATOM     63  C   UNL     1      -0.216 -14.276   2.723  1.00  0.00     0.029 A 
ATOM     64  N   UNL     1      -1.679 -13.741   4.290  1.00  0.00    -0.354 N 
ATOM     65  N   UNL     1      -5.266 -11.901   4.306  1.00  0.00    -0.248 NA
ATOM     66  C   UNL     1      -4.553 -12.421   6.471  1.00  0.00     0.031 C 
ATOM     67  C   UNL     1      -1.525 -14.234   2.156  1.00  0.00     0.029 A 
ATOM     68  C   UNL     1      -2.421 -13.840   3.143  1.00  0.00     0.049 A 
ATOM     69  H   UNL     1      -2.059 -13.570   5.182  1.00  0.00     0.167 HD
ATOM     70  C   UNL     1      -4.454 -13.013   4.248  1.00  0.00     0.074 A 
ATOM     71  C   UNL     1      -4.194 -13.389   5.627  1.00  0.00     0.031 C 
ATOM     72  C   UNL     1      -3.764 -13.313   3.115  1.00  0.00     0.037 A 
BRANCH  59  73
ATOM     73  C   UNL     1       0.746 -14.248   6.332  1.00  0.00     0.064 A 
ATOM     74  C   UNL     1       0.950 -15.632   6.257  1.00  0.00     0.173 A 
ATOM     75  C   UNL     1       0.507 -13.721   7.623  1.00  0.00     0.173 A 
ATOM     76  F   UNL     1       1.111 -16.231   5.068  1.00  0.00    -0.203 F 
ATOM     77  C   UNL     1       0.930 -16.433   7.403  1.00  0.00     0.198 A 
ATOM     78  C   UNL     1       0.549 -14.509   8.767  1.00  0.00     0.198 A 
ATOM     79  F   UNL     1       0.125 -12.447   7.800  1.00  0.00    -0.203 F 
ATOM     80  F   UNL     1       1.046 -17.762   7.287  1.00  0.00    -0.200 F 
ATOM     81  C   UNL     1       0.744 -15.870   8.656  1.00  0.00     0.200 A 
ATOM     82  F   UNL     1       0.332 -13.948   9.965  1.00  0.00    -0.200 F 
ATOM     83  F   UNL     1       0.702 -16.641   9.750  1.00  0.00    -0.200 F 
ENDBRANCH  59  73
BRANCH  60  84
ATOM     84  C   UNL     1      -6.319  -9.656   6.926  1.00  0.00     0.064 A 
ATOM     85  C   UNL     1      -7.449 -10.467   7.151  1.00  0.00     0.173 A 
ATOM     86  C   UNL     1      -6.093  -8.639   7.871  1.00  0.00     0.173 A 
ATOM     87  F   UNL     1      -7.730 -11.485   6.325  1.00  0.00    -0.203 F 
ATOM     88  C   UNL     1      -8.269 -10.297   8.272  1.00  0.00     0.198 A 
ATOM     89  C   UNL     1      -6.924  -8.458   8.979  1.00  0.00     0.198 A 
ATOM     90  F   UNL     1      -5.007  -7.857   7.798  1.00  0.00    -0.203 F 
ATOM     91  F   UNL     1      -9.286 -11.144   8.491  1.00  0.00    -0.200 F 
ATOM     92  C   UNL     1      -7.999  -9.299   9.191  1.00  0.00     0.200 A 
ATOM     93  F   UNL     1      -6.634  -7.504   9.875  1.00  0.00    -0.200 F 
ATOM     94  F   UNL     1      -8.744  -9.175  10.297  1.00  0.00    -0.200 F 
ENDBRANCH  60  84
BRANCH  72  95
ATOM     95  C   UNL     1      -4.351 -12.884   1.813  1.00  0.00     0.064 A 
ATOM     96  C   UNL     1      -4.496 -11.548   1.412  1.00  0.00     0.173 A 
ATOM     97  C   UNL     1      -4.732 -13.885   0.908  1.00  0.00     0.173 A 
ATOM     98  F   UNL     1      -4.085 -10.542   2.197  1.00  0.00    -0.203 F 
ATOM     99  C   UNL     1      -5.035 -11.233   0.167  1.00  0.00     0.198 A 
ATOM    100  C   UNL     1      -5.237 -13.567  -0.347  1.00  0.00     0.198 A 
ATOM    101  F   UNL     1      -4.582 -15.179   1.233  1.00  0.00    -0.203 F 
ATOM    102  F   UNL     1      -5.182  -9.949  -0.193  1.00  0.00    -0.200 F 
ATOM    103  C   UNL     1      -5.398 -12.241  -0.714  1.00  0.00     0.200 A 
ATOM    104  F   UNL     1      -5.549 -14.546  -1.208  1.00  0.00    -0.200 F 
ATOM    105  F   UNL     1      -5.884 -11.936  -1.925  1.00  0.00    -0.200 F 
ENDBRANCH  72  95
ENDBRANCH  46  47
ENDBRANCH  39  41
ENDBRANCH  38  39
ENDBRANCH  37  38
ENDBRANCH  36  37
ENDBRANCH  35  36
ENDBRANCH  34  35
ENDBRANCH  33  34
ENDBRANCH  32  33
ENDBRANCH   1  32
TORSDOF 24
