REMARK SMILES CC[NH2+][C@@]1(C(=O)OCCOCCOCCOCCOC(=O)c2ccc(-c3c4nc(c(-c5c(F)c(F)c(F)c(F)c5F)c5ccc([nH]5)c(-c5c(F)c(F)c(F)c(F)c5F)c5nc(c(-c6c(F)c(F)c(F)c(F)c6F)c6ccc3[nH]6)C=C5)C=C4)cc2)CCC[C@H]1CCN1C(=O)CCC1=O
REMARK SMILES IDX 12 1 11 2 10 3 9 4 8 5 7 6 5 7 6 8 4 9 85 10 88 11 86 12
REMARK SMILES IDX 87 13 3 14 2 17 1 18 89 19 90 20 91 21 92 22 96 23 93 24
REMARK SMILES IDX 94 25 95 26 97 27 13 28 14 29 15 30 16 31 17 32 18 33 19 34
REMARK SMILES IDX 20 35 21 36 22 37 23 38 84 39 24 40 83 41 25 42 26 43 27 44
REMARK SMILES IDX 77 45 28 46 82 47 76 48 78 49 29 50 81 51 75 52 74 53 30 55
REMARK SMILES IDX 62 56 42 57 61 58 43 59 46 60 60 61 79 62 44 63 45 64 59 66
REMARK SMILES IDX 80 67 47 68 31 69 32 70 40 71 33 72 34 73 38 74 41 75 35 76
REMARK SMILES IDX 36 77 39 78 37 79 63 80 64 81 72 82 65 83 66 84 70 85 73 86
REMARK SMILES IDX 67 87 68 88 71 89 69 90 48 91 49 92 57 93 50 94 51 95 55 96
REMARK SMILES IDX 58 97 52 98 53 99 56 100 54 101
REMARK H PARENT 3 15 3 16 78 54 46 65
REMARK Flexibility Score: inf
ROOT
ATOM      1  C   UNL     1       3.583  -0.490   4.266  1.00  0.00     0.188 C 
ENDROOT
BRANCH   1   2
ATOM      2  C   UNL     1       3.952   0.983   4.464  1.00  0.00     0.188 C 
BRANCH   2   3
ATOM      3  O   UNL     1       4.253   1.304   5.807  1.00  0.00    -0.376 OA
BRANCH   3   4
ATOM      4  C   UNL     1       3.317   2.131   6.472  1.00  0.00     0.202 C 
BRANCH   4   5
ATOM      5  C   UNL     1       1.868   1.626   6.647  1.00  0.00     0.261 C 
BRANCH   5   6
ATOM      6  O   UNL     1       1.328   0.767   5.618  1.00  0.00    -0.459 OA
BRANCH   6   7
ATOM      7  C   UNL     1       0.632   1.373   4.623  1.00  0.00     0.368 C 
ATOM      8  O   UNL     1       0.511   2.596   4.565  1.00  0.00    -0.245 OA
BRANCH   7   9
ATOM      9  C   UNL     1      -0.021   0.372   3.546  1.00  0.00     0.197 C 
ATOM     10  C   UNL     1      -1.533   0.584   3.768  1.00  0.00     0.081 C 
ATOM     11  C   UNL     1       0.121  -1.184   3.797  1.00  0.00     0.064 C 
ATOM     12  C   UNL     1      -1.811  -0.220   5.036  1.00  0.00     0.008 C 
ATOM     13  C   UNL     1      -0.900  -1.440   4.949  1.00  0.00     0.011 C 
BRANCH   9  14
ATOM     14  N   UNL     1       0.539   0.847   2.275  1.00  0.00    -0.332 N 
ATOM     15  H   UNL     1       0.774   1.830   2.408  1.00  0.00     0.347 HD
ATOM     16  H   UNL     1       1.305   0.196   2.103  1.00  0.00     0.347 HD
BRANCH  14  17
ATOM     17  C   UNL     1      -0.238   0.766   1.059  1.00  0.00     0.257 C 
ATOM     18  C   UNL     1       0.631   1.196  -0.121  1.00  0.00     0.071 C 
ENDBRANCH  14  17
ENDBRANCH   9  14
BRANCH  11  19
ATOM     19  C   UNL     1      -0.232  -2.230   2.681  1.00  0.00     0.033 C 
BRANCH  19  20
ATOM     20  C   UNL     1       0.637  -2.545   1.447  1.00  0.00     0.129 C 
BRANCH  20  21
ATOM     21  N   UNL     1       2.008  -2.987   1.610  1.00  0.00    -0.283 N 
ATOM     22  C   UNL     1       2.380  -4.302   1.666  1.00  0.00     0.229 C 
ATOM     23  C   UNL     1       3.064  -2.168   1.339  1.00  0.00     0.229 C 
ATOM     24  O   UNL     1       1.644  -5.271   1.777  1.00  0.00    -0.274 OA
ATOM     25  C   UNL     1       3.868  -4.404   1.486  1.00  0.00     0.110 C 
ATOM     26  C   UNL     1       4.316  -2.982   1.222  1.00  0.00     0.110 C 
ATOM     27  O   UNL     1       3.023  -0.959   1.160  1.00  0.00    -0.274 OA
ENDBRANCH  20  21
ENDBRANCH  19  20
ENDBRANCH  11  19
ENDBRANCH   7   9
ENDBRANCH   6   7
ENDBRANCH   5   6
ENDBRANCH   4   5
ENDBRANCH   3   4
ENDBRANCH   2   3
ENDBRANCH   1   2
BRANCH   1  28
ATOM     28  O   UNL     1       3.166  -1.308   5.356  1.00  0.00    -0.377 OA
BRANCH  28  29
ATOM     29  C   UNL     1       3.887  -1.289   6.583  1.00  0.00     0.188 C 
BRANCH  29  30
ATOM     30  C   UNL     1       5.415  -1.111   6.552  1.00  0.00     0.188 C 
BRANCH  30  31
ATOM     31  O   UNL     1       5.992  -1.143   5.261  1.00  0.00    -0.376 OA
BRANCH  31  32
ATOM     32  C   UNL     1       6.411  -2.396   4.742  1.00  0.00     0.202 C 
BRANCH  32  33
ATOM     33  C   UNL     1       5.457  -3.600   4.830  1.00  0.00     0.261 C 
BRANCH  33  34
ATOM     34  O   UNL     1       5.052  -4.001   6.145  1.00  0.00    -0.460 OA
BRANCH  34  35
ATOM     35  C   UNL     1       6.017  -4.310   7.030  1.00  0.00     0.338 C 
ATOM     36  O   UNL     1       7.221  -4.373   6.831  1.00  0.00    -0.246 OA
BRANCH  35  37
ATOM     37  C   UNL     1       5.383  -4.349   8.356  1.00  0.00     0.060 A 
ATOM     38  C   UNL     1       5.814  -3.441   9.331  1.00  0.00     0.016 A 
ATOM     39  C   UNL     1       4.362  -5.263   8.628  1.00  0.00     0.016 A 
ATOM     40  C   UNL     1       5.252  -3.472  10.600  1.00  0.00     0.010 A 
ATOM     41  C   UNL     1       3.818  -5.314   9.912  1.00  0.00     0.010 A 
ATOM     42  C   UNL     1       4.295  -4.448  10.910  1.00  0.00    -0.014 A 
BRANCH  42  43
ATOM     43  C   UNL     1       4.006  -4.707  12.336  1.00  0.00     0.031 A 
ATOM     44  C   UNL     1       4.779  -5.801  13.018  1.00  0.00     0.074 A 
ATOM     45  C   UNL     1       3.155  -3.928  13.024  1.00  0.00     0.049 A 
ATOM     46  N   UNL     1       4.747  -6.192  14.265  1.00  0.00    -0.248 NA
ATOM     47  C   UNL     1       5.725  -6.554  12.176  1.00  0.00     0.031 C 
ATOM     48  C   UNL     1       2.400  -2.808  12.469  1.00  0.00     0.029 A 
ATOM     49  N   UNL     1       2.795  -3.960  14.347  1.00  0.00    -0.354 N 
ATOM     50  C   UNL     1       5.663  -7.233  14.354  1.00  0.00     0.074 A 
ATOM     51  C   UNL     1       6.207  -7.440  13.031  1.00  0.00     0.031 C 
ATOM     52  C   UNL     1       1.662  -2.255  13.448  1.00  0.00     0.029 A 
ATOM     53  C   UNL     1       1.872  -3.003  14.686  1.00  0.00     0.049 A 
ATOM     54  H   UNL     1       3.164  -4.607  14.991  1.00  0.00     0.167 HD
ATOM     55  C   UNL     1       6.026  -7.942  15.447  1.00  0.00     0.037 A 
ATOM     56  C   UNL     1       1.260  -2.776  15.864  1.00  0.00     0.037 A 
ATOM     57  C   UNL     1       5.472  -7.728  16.757  1.00  0.00     0.049 A 
ATOM     58  C   UNL     1       1.626  -3.633  17.050  1.00  0.00     0.074 A 
ATOM     59  C   UNL     1       5.766  -8.386  17.937  1.00  0.00     0.029 A 
ATOM     60  N   UNL     1       4.499  -6.784  17.055  1.00  0.00    -0.354 N 
ATOM     61  N   UNL     1       2.505  -4.604  17.135  1.00  0.00    -0.248 NA
ATOM     62  C   UNL     1       0.919  -3.356  18.308  1.00  0.00     0.031 C 
ATOM     63  C   UNL     1       4.923  -7.886  18.935  1.00  0.00     0.029 A 
ATOM     64  C   UNL     1       4.158  -6.863  18.395  1.00  0.00     0.049 A 
ATOM     65  H   UNL     1       4.108  -6.152  16.409  1.00  0.00     0.167 HD
ATOM     66  C   UNL     1       2.480  -5.031  18.457  1.00  0.00     0.074 A 
ATOM     67  C   UNL     1       1.512  -4.198  19.141  1.00  0.00     0.031 C 
ATOM     68  C   UNL     1       3.192  -6.020  19.054  1.00  0.00     0.037 A 
BRANCH  55  69
ATOM     69  C   UNL     1       7.034  -9.040  15.258  1.00  0.00     0.064 A 
ATOM     70  C   UNL     1       8.377  -8.772  14.949  1.00  0.00     0.173 A 
ATOM     71  C   UNL     1       6.652 -10.382  15.402  1.00  0.00     0.173 A 
ATOM     72  F   UNL     1       8.792  -7.507  14.779  1.00  0.00    -0.203 F 
ATOM     73  C   UNL     1       9.290  -9.807  14.762  1.00  0.00     0.198 A 
ATOM     74  C   UNL     1       7.575 -11.412  15.249  1.00  0.00     0.198 A 
ATOM     75  F   UNL     1       5.381 -10.695  15.694  1.00  0.00    -0.203 F 
ATOM     76  F   UNL     1      10.553  -9.529  14.410  1.00  0.00    -0.200 F 
ATOM     77  C   UNL     1       8.891 -11.125  14.920  1.00  0.00     0.200 A 
ATOM     78  F   UNL     1       7.189 -12.685  15.414  1.00  0.00    -0.200 F 
ATOM     79  F   UNL     1       9.772 -12.120  14.747  1.00  0.00    -0.200 F 
ENDBRANCH  55  69
BRANCH  56  80
ATOM     80  C   UNL     1       0.235  -1.704  15.979  1.00  0.00     0.064 A 
ATOM     81  C   UNL     1       0.444  -0.577  16.786  1.00  0.00     0.173 A 
ATOM     82  C   UNL     1      -0.989  -1.798  15.300  1.00  0.00     0.173 A 
ATOM     83  F   UNL     1       1.587  -0.449  17.476  1.00  0.00    -0.203 F 
ATOM     84  C   UNL     1      -0.540   0.400  16.928  1.00  0.00     0.198 A 
ATOM     85  C   UNL     1      -1.958  -0.804  15.416  1.00  0.00     0.198 A 
ATOM     86  F   UNL     1      -1.243  -2.856  14.515  1.00  0.00    -0.203 F 
ATOM     87  F   UNL     1      -0.335   1.439  17.749  1.00  0.00    -0.200 F 
ATOM     88  C   UNL     1      -1.737   0.289  16.238  1.00  0.00     0.200 A 
ATOM     89  F   UNL     1      -3.107  -0.909  14.734  1.00  0.00    -0.200 F 
ATOM     90  F   UNL     1      -2.681   1.231  16.372  1.00  0.00    -0.200 F 
ENDBRANCH  56  80
BRANCH  68  91
ATOM     91  C   UNL     1       2.981  -6.224  20.529  1.00  0.00     0.064 A 
ATOM     92  C   UNL     1       1.777  -6.727  21.043  1.00  0.00     0.173 A 
ATOM     93  C   UNL     1       4.011  -5.934  21.437  1.00  0.00     0.173 A 
ATOM     94  F   UNL     1       0.756  -7.011  20.220  1.00  0.00    -0.203 F 
ATOM     95  C   UNL     1       1.598  -6.891  22.415  1.00  0.00     0.198 A 
ATOM     96  C   UNL     1       3.843  -6.138  22.803  1.00  0.00     0.198 A 
ATOM     97  F   UNL     1       5.189  -5.463  20.998  1.00  0.00    -0.203 F 
ATOM     98  F   UNL     1       0.415  -7.308  22.888  1.00  0.00    -0.200 F 
ATOM     99  C   UNL     1       2.632  -6.603  23.292  1.00  0.00     0.200 A 
ATOM    100  F   UNL     1       4.851  -5.879  23.647  1.00  0.00    -0.200 F 
ATOM    101  F   UNL     1       2.459  -6.765  24.611  1.00  0.00    -0.200 F 
ENDBRANCH  68  91
ENDBRANCH  42  43
ENDBRANCH  35  37
ENDBRANCH  34  35
ENDBRANCH  33  34
ENDBRANCH  32  33
ENDBRANCH  31  32
ENDBRANCH  30  31
ENDBRANCH  29  30
ENDBRANCH  28  29
ENDBRANCH   1  28
TORSDOF 25
