REMARK SMILES C[C@H](NC(=O)N1CC[C@@H](C(=O)OCCOCCOCCOCCOC(=O)c2ccc(-c3c4nc(c(-c5c(F)c(F)c(F)c(F)c5F)c5ccc([nH]5)c(-c5c(F)c(F)c(F)c(F)c5F)c5nc(c(-c6c(F)c(F)c(F)c(F)c6F)c6ccc3[nH]6)C=C5)C=C4)cc2)[C@H]1C)c1ccc(Cl)cc1
REMARK SMILES IDX 17 1 16 2 15 3 14 4 13 5 12 6 10 7 11 8 9 9 6 10 7 11 90 12
REMARK SMILES IDX 8 13 91 14 4 15 3 16 5 18 2 19 1 20 92 21 93 22 98 23 94 24
REMARK SMILES IDX 97 25 95 26 96 27 18 28 19 29 20 30 21 31 22 32 23 33 24 34
REMARK SMILES IDX 25 35 26 36 27 37 28 38 89 39 29 40 88 41 30 42 31 43 32 44
REMARK SMILES IDX 82 45 33 46 87 47 81 48 83 49 34 50 86 51 80 52 79 53 35 55
REMARK SMILES IDX 67 56 47 57 66 58 48 59 51 60 65 61 84 62 49 63 50 64 64 66
REMARK SMILES IDX 85 67 52 68 36 69 37 70 45 71 38 72 39 73 43 74 46 75 40 76
REMARK SMILES IDX 41 77 44 78 42 79 68 80 69 81 77 82 70 83 71 84 75 85 78 86
REMARK SMILES IDX 72 87 73 88 76 89 74 90 53 91 54 92 62 93 55 94 56 95 60 96
REMARK SMILES IDX 63 97 57 98 58 99 61 100 59 101
REMARK H PARENT 3 17 83 54 51 65
REMARK Flexibility Score: inf
ROOT
ATOM      1  C   UNL     1      -0.235  -5.049  -2.455  1.00  0.00     0.188 C 
ENDROOT
BRANCH   1   2
ATOM      2  C   UNL     1       0.397  -6.293  -3.107  1.00  0.00     0.188 C 
BRANCH   2   3
ATOM      3  O   UNL     1       0.016  -7.520  -2.525  1.00  0.00    -0.376 OA
BRANCH   3   4
ATOM      4  C   UNL     1       0.840  -8.170  -1.575  1.00  0.00     0.202 C 
BRANCH   4   5
ATOM      5  C   UNL     1       1.972  -7.487  -0.793  1.00  0.00     0.261 C 
BRANCH   5   6
ATOM      6  O   UNL     1       2.014  -6.059  -0.848  1.00  0.00    -0.463 OA
BRANCH   6   7
ATOM      7  C   UNL     1       3.189  -5.514  -1.245  1.00  0.00     0.311 C 
ATOM      8  O   UNL     1       4.154  -6.164  -1.632  1.00  0.00    -0.252 OA
BRANCH   7   9
ATOM      9  C   UNL     1       3.179  -4.003  -1.260  1.00  0.00     0.123 C 
ATOM     10  N   UNL     1       2.902  -1.843  -0.362  1.00  0.00    -0.321 N 
ATOM     11  C   UNL     1       4.305  -1.986  -0.739  1.00  0.00     0.122 C 
ATOM     12  C   UNL     1       2.252  -3.191  -0.330  1.00  0.00     0.098 C 
ATOM     13  C   UNL     1       4.553  -3.474  -0.851  1.00  0.00     0.039 C 
ATOM     14  C   UNL     1       2.189  -3.763   1.100  1.00  0.00     0.032 C 
BRANCH  10  15
ATOM     15  C   UNL     1       2.376  -0.581  -0.472  1.00  0.00     0.318 C 
ATOM     16  N   UNL     1       1.145  -0.271  -0.019  1.00  0.00    -0.331 N 
ATOM     17  H   UNL     1       0.698   0.482  -0.469  1.00  0.00     0.165 HD
ATOM     18  O   UNL     1       3.017   0.348  -0.973  1.00  0.00    -0.249 OA
BRANCH  16  19
ATOM     19  C   UNL     1       0.401  -0.901   1.038  1.00  0.00     0.111 C 
ATOM     20  C   UNL     1       0.974  -0.580   2.417  1.00  0.00     0.036 C 
BRANCH  19  21
ATOM     21  C   UNL     1      -1.088  -0.663   0.972  1.00  0.00    -0.026 A 
ATOM     22  C   UNL     1      -1.678   0.609   0.932  1.00  0.00     0.007 A 
ATOM     23  C   UNL     1      -1.918  -1.793   1.006  1.00  0.00     0.007 A 
ATOM     24  C   UNL     1      -3.073   0.740   0.936  1.00  0.00     0.021 A 
ATOM     25  C   UNL     1      -3.297  -1.654   1.007  1.00  0.00     0.021 A 
ATOM     26  C   UNL     1      -3.877  -0.394   0.980  1.00  0.00     0.041 A 
ATOM     27  Cl  UNL     1      -5.590  -0.256   1.010  1.00  0.00    -0.084 Cl
ENDBRANCH  19  21
ENDBRANCH  16  19
ENDBRANCH  10  15
ENDBRANCH   7   9
ENDBRANCH   6   7
ENDBRANCH   5   6
ENDBRANCH   4   5
ENDBRANCH   3   4
ENDBRANCH   2   3
ENDBRANCH   1   2
BRANCH   1  28
ATOM     28  O   UNL     1      -0.571  -5.117  -1.076  1.00  0.00    -0.377 OA
BRANCH  28  29
ATOM     29  C   UNL     1      -1.602  -6.002  -0.637  1.00  0.00     0.188 C 
BRANCH  29  30
ATOM     30  C   UNL     1      -2.562  -6.715  -1.616  1.00  0.00     0.188 C 
BRANCH  30  31
ATOM     31  O   UNL     1      -2.755  -6.053  -2.854  1.00  0.00    -0.376 OA
BRANCH  31  32
ATOM     32  C   UNL     1      -3.960  -5.318  -3.018  1.00  0.00     0.202 C 
BRANCH  32  33
ATOM     33  C   UNL     1      -4.123  -4.119  -2.082  1.00  0.00     0.261 C 
BRANCH  33  34
ATOM     34  O   UNL     1      -4.259  -4.447  -0.689  1.00  0.00    -0.460 OA
BRANCH  34  35
ATOM     35  C   UNL     1      -5.280  -5.240  -0.299  1.00  0.00     0.338 C 
ATOM     36  O   UNL     1      -6.144  -5.753  -0.982  1.00  0.00    -0.246 OA
BRANCH  35  37
ATOM     37  C   UNL     1      -5.092  -5.450   1.145  1.00  0.00     0.060 A 
ATOM     38  C   UNL     1      -4.595  -6.662   1.638  1.00  0.00     0.016 A 
ATOM     39  C   UNL     1      -5.365  -4.390   2.006  1.00  0.00     0.016 A 
ATOM     40  C   UNL     1      -4.374  -6.812   3.011  1.00  0.00     0.010 A 
ATOM     41  C   UNL     1      -5.091  -4.518   3.362  1.00  0.00     0.010 A 
ATOM     42  C   UNL     1      -4.638  -5.745   3.882  1.00  0.00    -0.014 A 
BRANCH  42  43
ATOM     43  C   UNL     1      -4.711  -5.932   5.353  1.00  0.00     0.031 A 
ATOM     44  C   UNL     1      -6.082  -5.912   5.975  1.00  0.00     0.074 A 
ATOM     45  C   UNL     1      -3.618  -6.059   6.126  1.00  0.00     0.049 A 
ATOM     46  N   UNL     1      -6.431  -5.801   7.229  1.00  0.00    -0.248 NA
ATOM     47  C   UNL     1      -7.218  -5.995   5.039  1.00  0.00     0.031 C 
ATOM     48  C   UNL     1      -2.239  -6.144   5.650  1.00  0.00     0.029 A 
ATOM     49  N   UNL     1      -3.505  -6.114   7.495  1.00  0.00    -0.354 N 
ATOM     50  C   UNL     1      -7.819  -5.766   7.226  1.00  0.00     0.074 A 
ATOM     51  C   UNL     1      -8.250  -5.821   5.848  1.00  0.00     0.031 C 
ATOM     52  C   UNL     1      -1.416  -6.230   6.712  1.00  0.00     0.029 A 
ATOM     53  C   UNL     1      -2.206  -6.152   7.941  1.00  0.00     0.049 A 
ATOM     54  H   UNL     1      -4.282  -6.124   8.098  1.00  0.00     0.167 HD
ATOM     55  C   UNL     1      -8.665  -5.713   8.280  1.00  0.00     0.037 A 
ATOM     56  C   UNL     1      -1.720  -6.095   9.198  1.00  0.00     0.037 A 
ATOM     57  C   UNL     1      -8.236  -5.690   9.650  1.00  0.00     0.049 A 
ATOM     58  C   UNL     1      -2.682  -5.963  10.358  1.00  0.00     0.074 A 
ATOM     59  C   UNL     1      -9.009  -5.627  10.794  1.00  0.00     0.029 A 
ATOM     60  N   UNL     1      -6.913  -5.745  10.056  1.00  0.00    -0.354 N 
ATOM     61  N   UNL     1      -3.993  -5.920  10.350  1.00  0.00    -0.248 NA
ATOM     62  C   UNL     1      -2.095  -5.867  11.704  1.00  0.00     0.031 C 
ATOM     63  C   UNL     1      -8.150  -5.613  11.896  1.00  0.00     0.029 A 
ATOM     64  C   UNL     1      -6.847  -5.719  11.438  1.00  0.00     0.049 A 
ATOM     65  H   UNL     1      -6.136  -5.794   9.453  1.00  0.00     0.167 HD
ATOM     66  C   UNL     1      -4.383  -5.846  11.682  1.00  0.00     0.074 A 
ATOM     67  C   UNL     1      -3.174  -5.847  12.474  1.00  0.00     0.031 C 
ATOM     68  C   UNL     1      -5.632  -5.785  12.205  1.00  0.00     0.037 A 
BRANCH  55  69
ATOM     69  C   UNL     1     -10.135  -5.681   7.989  1.00  0.00     0.064 A 
ATOM     70  C   UNL     1     -10.805  -6.805   7.484  1.00  0.00     0.173 A 
ATOM     71  C   UNL     1     -10.888  -4.527   8.248  1.00  0.00     0.173 A 
ATOM     72  F   UNL     1     -10.125  -7.926   7.200  1.00  0.00    -0.203 F 
ATOM     73  C   UNL     1     -12.172  -6.766   7.226  1.00  0.00     0.198 A 
ATOM     74  C   UNL     1     -12.260  -4.503   8.020  1.00  0.00     0.198 A 
ATOM     75  F   UNL     1     -10.294  -3.425   8.732  1.00  0.00    -0.203 F 
ATOM     76  F   UNL     1     -12.782  -7.836   6.697  1.00  0.00    -0.200 F 
ATOM     77  C   UNL     1     -12.900  -5.619   7.504  1.00  0.00     0.200 A 
ATOM     78  F   UNL     1     -12.965  -3.398   8.301  1.00  0.00    -0.200 F 
ATOM     79  F   UNL     1     -14.219  -5.588   7.267  1.00  0.00    -0.200 F 
ENDBRANCH  55  69
BRANCH  56  80
ATOM     80  C   UNL     1      -0.253  -6.140   9.452  1.00  0.00     0.064 A 
ATOM     81  C   UNL     1       0.323  -7.211  10.153  1.00  0.00     0.173 A 
ATOM     82  C   UNL     1       0.592  -5.088   9.069  1.00  0.00     0.173 A 
ATOM     83  F   UNL     1      -0.446  -8.230  10.566  1.00  0.00    -0.203 F 
ATOM     84  C   UNL     1       1.674  -7.210  10.493  1.00  0.00     0.198 A 
ATOM     85  C   UNL     1       1.951  -5.104   9.381  1.00  0.00     0.198 A 
ATOM     86  F   UNL     1       0.097  -4.038   8.399  1.00  0.00    -0.203 F 
ATOM     87  F   UNL     1       2.179  -8.213  11.225  1.00  0.00    -0.200 F 
ATOM     88  C   UNL     1       2.488  -6.157  10.106  1.00  0.00     0.200 A 
ATOM     89  F   UNL     1       2.737  -4.090   8.994  1.00  0.00    -0.200 F 
ATOM     90  F   UNL     1       3.785  -6.150  10.443  1.00  0.00    -0.200 F 
ENDBRANCH  56  80
BRANCH  68  91
ATOM     91  C   UNL     1      -5.776  -5.814  13.698  1.00  0.00     0.064 A 
ATOM     92  C   UNL     1      -5.478  -4.700  14.494  1.00  0.00     0.173 A 
ATOM     93  C   UNL     1      -6.323  -6.945  14.325  1.00  0.00     0.173 A 
ATOM     94  F   UNL     1      -4.944  -3.600  13.943  1.00  0.00    -0.203 F 
ATOM     95  C   UNL     1      -5.717  -4.719  15.866  1.00  0.00     0.198 A 
ATOM     96  C   UNL     1      -6.587  -6.950  15.691  1.00  0.00     0.198 A 
ATOM     97  F   UNL     1      -6.635  -8.033  13.603  1.00  0.00    -0.203 F 
ATOM     98  F   UNL     1      -5.403  -3.652  16.613  1.00  0.00    -0.200 F 
ATOM     99  C   UNL     1      -6.282  -5.839  16.460  1.00  0.00     0.200 A 
ATOM    100  F   UNL     1      -7.150  -8.026  16.259  1.00  0.00    -0.200 F 
ATOM    101  F   UNL     1      -6.534  -5.845  17.776  1.00  0.00    -0.200 F 
ENDBRANCH  68  91
ENDBRANCH  42  43
ENDBRANCH  35  37
ENDBRANCH  34  35
ENDBRANCH  33  34
ENDBRANCH  32  33
ENDBRANCH  31  32
ENDBRANCH  30  31
ENDBRANCH  29  30
ENDBRANCH  28  29
ENDBRANCH   1  28
TORSDOF 23
