REMARK SMILES O=C(OCCOCCOCCOCCOC(=O)c1ccc(-c2c3nc(c(-c4c(F)c(F)c(F)c(F)c4F)c4ccc([nH]4)c(-c4c(F)c(F)c(F)c(F)c4F)c4nc(c(-c5c(F)c(F)c(F)c(F)c5F)c5ccc2[nH]5)C=C4)C=C3)cc1)C1=NN(c2ccc([N+](=O)[O-])cc2)[C@H](c2ccccc2)C1
REMARK SMILES IDX 9 1 8 2 7 3 6 4 5 5 4 6 3 7 2 8 1 9 81 10 82 11 100 12 83 13
REMARK SMILES IDX 93 14 84 15 85 16 92 17 86 18 91 19 87 20 88 21 89 22 90 23
REMARK SMILES IDX 94 24 95 25 99 26 96 27 98 28 97 29 10 30 11 31 12 32 13 33
REMARK SMILES IDX 14 34 15 35 16 36 17 37 18 38 19 39 80 40 20 41 79 42 21 43
REMARK SMILES IDX 22 44 23 45 73 46 24 47 78 48 72 49 74 50 25 51 77 52 71 53
REMARK SMILES IDX 70 54 26 56 58 57 38 58 57 59 39 60 42 61 56 62 75 63 40 64
REMARK SMILES IDX 41 65 55 67 76 68 43 69 27 70 28 71 36 72 29 73 30 74 34 75
REMARK SMILES IDX 37 76 31 77 32 78 35 79 33 80 59 81 60 82 68 83 61 84 62 85
REMARK SMILES IDX 66 86 69 87 63 88 64 89 67 90 65 91 44 92 45 93 53 94 46 95
REMARK SMILES IDX 47 96 51 97 54 98 48 99 49 100 52 101 50 102
REMARK H PARENT 74 55 42 66
REMARK Flexibility Score: inf
ROOT
ATOM      1  O   UNL     1       2.700  -0.808   3.536  1.00  0.00    -0.377 OA
ENDROOT
BRANCH   1   2
ATOM      2  C   UNL     1       2.174  -0.429   2.271  1.00  0.00     0.188 C 
BRANCH   2   3
ATOM      3  C   UNL     1       2.753  -1.115   1.035  1.00  0.00     0.188 C 
BRANCH   3   4
ATOM      4  O   UNL     1       4.139  -1.036   0.757  1.00  0.00    -0.376 OA
BRANCH   4   5
ATOM      5  C   UNL     1       4.908   0.136   0.578  1.00  0.00     0.202 C 
BRANCH   5   6
ATOM      6  C   UNL     1       4.412   1.309  -0.262  1.00  0.00     0.261 C 
BRANCH   6   7
ATOM      7  O   UNL     1       3.055   1.261  -0.702  1.00  0.00    -0.459 OA
BRANCH   7   8
ATOM      8  C   UNL     1       2.741   0.665  -1.863  1.00  0.00     0.354 C 
ATOM      9  O   UNL     1       1.792   1.013  -2.552  1.00  0.00    -0.245 OA
BRANCH   8  10
ATOM     10  C   UNL     1       3.431  -0.636  -2.203  1.00  0.00     0.148 C 
ATOM     11  N   UNL     1       4.670  -0.923  -1.934  1.00  0.00    -0.169 NA
ATOM     12  C   UNL     1       2.639  -1.743  -2.848  1.00  0.00     0.098 C 
ATOM     13  N   UNL     1       4.804  -2.216  -2.314  1.00  0.00    -0.257 N 
ATOM     14  C   UNL     1       3.829  -2.572  -3.347  1.00  0.00     0.144 C 
BRANCH  13  15
ATOM     15  C   UNL     1       5.859  -2.992  -1.875  1.00  0.00     0.061 A 
ATOM     16  C   UNL     1       5.657  -4.032  -0.956  1.00  0.00     0.035 A 
ATOM     17  C   UNL     1       7.159  -2.757  -2.339  1.00  0.00     0.035 A 
ATOM     18  C   UNL     1       6.717  -4.849  -0.541  1.00  0.00     0.088 A 
ATOM     19  C   UNL     1       8.223  -3.579  -1.962  1.00  0.00     0.088 A 
ATOM     20  C   UNL     1       7.995  -4.631  -1.068  1.00  0.00     0.269 A 
BRANCH  20  21
ATOM     21  N   UNL     1       9.103  -5.517  -0.694  1.00  0.00     0.062 N 
ATOM     22  O   UNL     1       8.910  -6.331   0.221  1.00  0.00    -0.258 OA
ATOM     23  O   UNL     1      10.165  -5.407  -1.324  1.00  0.00    -0.258 OA
ENDBRANCH  20  21
ENDBRANCH  13  15
BRANCH  14  24
ATOM     24  C   UNL     1       4.431  -2.114  -4.683  1.00  0.00    -0.023 A 
ATOM     25  C   UNL     1       4.186  -0.840  -5.230  1.00  0.00     0.006 A 
ATOM     26  C   UNL     1       5.457  -2.890  -5.248  1.00  0.00     0.006 A 
ATOM     27  C   UNL     1       5.009  -0.317  -6.226  1.00  0.00     0.000 A 
ATOM     28  C   UNL     1       6.281  -2.363  -6.243  1.00  0.00     0.000 A 
ATOM     29  C   UNL     1       6.071  -1.069  -6.714  1.00  0.00     0.000 A 
ENDBRANCH  14  24
ENDBRANCH   8  10
ENDBRANCH   7   8
ENDBRANCH   6   7
ENDBRANCH   5   6
ENDBRANCH   4   5
ENDBRANCH   3   4
ENDBRANCH   2   3
ENDBRANCH   1   2
BRANCH   1  30
ATOM     30  C   UNL     1       4.090  -0.561   3.684  1.00  0.00     0.188 C 
BRANCH  30  31
ATOM     31  C   UNL     1       4.965  -1.795   3.382  1.00  0.00     0.188 C 
BRANCH  31  32
ATOM     32  O   UNL     1       4.212  -2.889   2.872  1.00  0.00    -0.376 OA
BRANCH  32  33
ATOM     33  C   UNL     1       3.824  -3.891   3.803  1.00  0.00     0.202 C 
BRANCH  33  34
ATOM     34  C   UNL     1       2.930  -3.483   4.989  1.00  0.00     0.261 C 
BRANCH  34  35
ATOM     35  O   UNL     1       3.414  -2.421   5.831  1.00  0.00    -0.460 OA
BRANCH  35  36
ATOM     36  C   UNL     1       4.590  -2.587   6.470  1.00  0.00     0.338 C 
ATOM     37  O   UNL     1       5.271  -3.597   6.509  1.00  0.00    -0.246 OA
BRANCH  36  38
ATOM     38  C   UNL     1       5.047  -1.247   6.918  1.00  0.00     0.060 A 
ATOM     39  C   UNL     1       6.352  -0.846   6.594  1.00  0.00     0.016 A 
ATOM     40  C   UNL     1       4.185  -0.361   7.575  1.00  0.00     0.016 A 
ATOM     41  C   UNL     1       6.819   0.408   6.988  1.00  0.00     0.010 A 
ATOM     42  C   UNL     1       4.660   0.888   7.992  1.00  0.00     0.010 A 
ATOM     43  C   UNL     1       5.998   1.249   7.752  1.00  0.00    -0.014 A 
BRANCH  43  44
ATOM     44  C   UNL     1       6.647   2.300   8.574  1.00  0.00     0.031 A 
ATOM     45  C   UNL     1       7.073   1.907   9.966  1.00  0.00     0.074 A 
ATOM     46  C   UNL     1       6.925   3.526   8.099  1.00  0.00     0.049 A 
ATOM     47  N   UNL     1       7.712   2.598  10.874  1.00  0.00    -0.248 NA
ATOM     48  C   UNL     1       6.731   0.537  10.387  1.00  0.00     0.031 C 
ATOM     49  C   UNL     1       6.605   4.013   6.760  1.00  0.00     0.029 A 
ATOM     50  N   UNL     1       7.558   4.586   8.702  1.00  0.00    -0.354 N 
ATOM     51  C   UNL     1       7.846   1.747  11.964  1.00  0.00     0.074 A 
ATOM     52  C   UNL     1       7.190   0.506  11.626  1.00  0.00     0.031 C 
ATOM     53  C   UNL     1       7.046   5.279   6.641  1.00  0.00     0.029 A 
ATOM     54  C   UNL     1       7.662   5.696   7.901  1.00  0.00     0.049 A 
ATOM     55  H   UNL     1       7.904   4.553   9.623  1.00  0.00     0.167 HD
ATOM     56  C   UNL     1       8.473   1.972  13.142  1.00  0.00     0.037 A 
ATOM     57  C   UNL     1       8.194   6.907   8.165  1.00  0.00     0.037 A 
ATOM     58  C   UNL     1       9.121   3.207  13.483  1.00  0.00     0.049 A 
ATOM     59  C   UNL     1       8.830   7.156   9.512  1.00  0.00     0.074 A 
ATOM     60  C   UNL     1       9.790   3.539  14.646  1.00  0.00     0.029 A 
ATOM     61  N   UNL     1       9.171   4.321  12.657  1.00  0.00    -0.354 N 
ATOM     62  N   UNL     1       8.984   6.337  10.525  1.00  0.00    -0.248 NA
ATOM     63  C   UNL     1       9.379   8.500   9.746  1.00  0.00     0.031 C 
ATOM     64  C   UNL     1      10.196   4.873  14.548  1.00  0.00     0.029 A 
ATOM     65  C   UNL     1       9.840   5.350  13.296  1.00  0.00     0.049 A 
ATOM     66  H   UNL     1       8.787   4.371  11.752  1.00  0.00     0.167 HD
ATOM     67  C   UNL     1       9.685   7.047  11.492  1.00  0.00     0.074 A 
ATOM     68  C   UNL     1       9.932   8.364  10.942  1.00  0.00     0.031 C 
ATOM     69  C   UNL     1      10.095   6.647  12.722  1.00  0.00     0.037 A 
BRANCH  56  70
ATOM     70  C   UNL     1       8.447   0.865  14.156  1.00  0.00     0.064 A 
ATOM     71  C   UNL     1       9.166  -0.326  13.973  1.00  0.00     0.173 A 
ATOM     72  C   UNL     1       7.688   1.000  15.328  1.00  0.00     0.173 A 
ATOM     73  F   UNL     1       9.888  -0.515  12.858  1.00  0.00    -0.203 F 
ATOM     74  C   UNL     1       9.103  -1.352  14.912  1.00  0.00     0.198 A 
ATOM     75  C   UNL     1       7.653  -0.015  16.280  1.00  0.00     0.198 A 
ATOM     76  F   UNL     1       6.978   2.116  15.549  1.00  0.00    -0.203 F 
ATOM     77  F   UNL     1       9.750  -2.504  14.689  1.00  0.00    -0.200 F 
ATOM     78  C   UNL     1       8.352  -1.193  16.067  1.00  0.00     0.200 A 
ATOM     79  F   UNL     1       6.935   0.145  17.400  1.00  0.00    -0.200 F 
ATOM     80  F   UNL     1       8.295  -2.180  16.972  1.00  0.00    -0.200 F 
ENDBRANCH  56  70
BRANCH  57  81
ATOM     81  C   UNL     1       8.167   7.981   7.135  1.00  0.00     0.064 A 
ATOM     82  C   UNL     1       9.350   8.457   6.550  1.00  0.00     0.173 A 
ATOM     83  C   UNL     1       6.962   8.585   6.745  1.00  0.00     0.173 A 
ATOM     84  F   UNL     1      10.531   7.933   6.909  1.00  0.00    -0.203 F 
ATOM     85  C   UNL     1       9.331   9.508   5.636  1.00  0.00     0.198 A 
ATOM     86  C   UNL     1       6.942   9.616   5.808  1.00  0.00     0.198 A 
ATOM     87  F   UNL     1       5.802   8.173   7.277  1.00  0.00    -0.203 F 
ATOM     88  F   UNL     1      10.482   9.979   5.135  1.00  0.00    -0.200 F 
ATOM     89  C   UNL     1       8.127  10.084   5.262  1.00  0.00     0.200 A 
ATOM     90  F   UNL     1       5.774  10.163   5.442  1.00  0.00    -0.200 F 
ATOM     91  F   UNL     1       8.109  11.096   4.383  1.00  0.00    -0.200 F 
ENDBRANCH  57  81
BRANCH  69  92
ATOM     92  C   UNL     1      10.913   7.615  13.531  1.00  0.00     0.064 A 
ATOM     93  C   UNL     1      10.360   8.780  14.082  1.00  0.00     0.173 A 
ATOM     94  C   UNL     1      12.268   7.348  13.785  1.00  0.00     0.173 A 
ATOM     95  F   UNL     1       9.073   9.086  13.862  1.00  0.00    -0.203 F 
ATOM     96  C   UNL     1      11.143   9.661  14.824  1.00  0.00     0.198 A 
ATOM     97  C   UNL     1      13.038   8.213  14.559  1.00  0.00     0.198 A 
ATOM     98  F   UNL     1      12.845   6.241  13.293  1.00  0.00    -0.203 F 
ATOM     99  F   UNL     1      10.608  10.798  15.290  1.00  0.00    -0.200 F 
ATOM    100  C   UNL     1      12.478   9.374  15.067  1.00  0.00     0.200 A 
ATOM    101  F   UNL     1      14.322   7.923  14.808  1.00  0.00    -0.200 F 
ATOM    102  F   UNL     1      13.227  10.221  15.785  1.00  0.00    -0.200 F 
ENDBRANCH  69  92
ENDBRANCH  43  44
ENDBRANCH  36  38
ENDBRANCH  35  36
ENDBRANCH  34  35
ENDBRANCH  33  34
ENDBRANCH  32  33
ENDBRANCH  31  32
ENDBRANCH  30  31
ENDBRANCH   1  30
TORSDOF 23
