REMARK SMILES COc1ccc(F)cc1[C@@H](C(=O)OCCOCCOCCOCCOC(=O)c1ccc(-c2c3nc(c(-c4c(F)c(F)c(F)c(F)c4F)c4ccc([nH]4)c(-c4c(F)c(F)c(F)c(F)c4F)c4nc(c(-c5c(F)c(F)c(F)c(F)c5F)c5ccc2[nH]5)C=C4)C=C3)cc1)[N@@H+](C)CCn1ccnc1C
REMARK SMILES IDX 18 1 17 2 16 3 15 4 14 5 13 6 11 7 12 8 10 9 9 10 3 11 4 12
REMARK SMILES IDX 5 13 8 14 6 15 7 16 2 17 1 18 91 19 92 20 93 22 94 23 95 24
REMARK SMILES IDX 96 25 99 26 97 27 98 28 100 29 19 30 20 31 21 32 22 33 23 34
REMARK SMILES IDX 24 35 25 36 26 37 27 38 28 39 29 40 90 41 30 42 89 43 31 44
REMARK SMILES IDX 32 45 33 46 83 47 34 48 88 49 82 50 84 51 35 52 87 53 81 54
REMARK SMILES IDX 80 55 36 57 68 58 48 59 67 60 49 61 52 62 66 63 85 64 50 65
REMARK SMILES IDX 51 66 65 68 86 69 53 70 37 71 38 72 46 73 39 74 40 75 44 76
REMARK SMILES IDX 47 77 41 78 42 79 45 80 43 81 69 82 70 83 78 84 71 85 72 86
REMARK SMILES IDX 76 87 79 88 73 89 74 90 77 91 75 92 54 93 55 94 63 95 56 96
REMARK SMILES IDX 57 97 61 98 64 99 58 100 59 101 62 102 60 103
REMARK H PARENT 91 21 84 56 52 67
REMARK Flexibility Score: inf
ROOT
ATOM      1  C   UNL     1      -1.423  -5.987  -0.057  1.00  0.00     0.188 C 
ENDROOT
BRANCH   1   2
ATOM      2  C   UNL     1      -3.372  -4.833   0.071  1.00  0.00     0.188 C 
BRANCH   2   3
ATOM      3  O   UNL     1      -4.343  -4.401  -1.037  1.00  0.00    -0.376 OA
BRANCH   3   4
ATOM      4  C   UNL     1      -4.180  -3.126  -1.662  1.00  0.00     0.202 C 
BRANCH   4   5
ATOM      5  C   UNL     1      -3.785  -1.836  -0.854  1.00  0.00     0.261 C 
BRANCH   5   6
ATOM      6  O   UNL     1      -2.555  -1.848  -0.031  1.00  0.00    -0.459 OA
BRANCH   6   7
ATOM      7  C   UNL     1      -2.601  -1.279   1.228  1.00  0.00     0.370 C 
ATOM      8  O   UNL     1      -3.558  -0.560   1.534  1.00  0.00    -0.245 OA
BRANCH   7   9
ATOM      9  C   UNL     1      -1.461  -1.732   2.391  1.00  0.00     0.330 C 
BRANCH   9  10
ATOM     10  C   UNL     1       0.048  -2.130   1.984  1.00  0.00     0.066 A 
ATOM     11  C   UNL     1       0.859  -1.323   1.167  1.00  0.00     0.128 A 
ATOM     12  C   UNL     1       2.148  -1.770   0.750  1.00  0.00     0.050 A 
ATOM     13  C   UNL     1       2.647  -3.029   1.082  1.00  0.00     0.043 A 
ATOM     14  C   UNL     1       0.632  -3.386   2.321  1.00  0.00     0.053 A 
ATOM     15  C   UNL     1       1.870  -3.836   1.865  1.00  0.00     0.124 A 
ATOM     16  F   UNL     1       2.273  -5.079   2.168  1.00  0.00    -0.207 F 
BRANCH  11  17
ATOM     17  O   UNL     1       0.348  -0.104   0.806  1.00  0.00    -0.496 OA
ATOM     18  C   UNL     1       0.972   0.504  -0.324  1.00  0.00     0.278 C 
ENDBRANCH  11  17
ENDBRANCH   9  10
BRANCH   9  19
ATOM     19  N   UNL     1      -2.143  -2.572   3.489  1.00  0.00    -0.320 N 
ATOM     20  C   UNL     1      -3.416  -2.015   3.946  1.00  0.00     0.333 C 
ATOM     21  H   UNL     1      -1.253  -2.446   3.971  1.00  0.00     0.348 HD
BRANCH  19  22
ATOM     22  C   UNL     1      -2.077  -4.024   3.774  1.00  0.00     0.285 C 
BRANCH  22  23
ATOM     23  C   UNL     1      -2.715  -5.213   2.969  1.00  0.00     0.184 C 
BRANCH  23  24
ATOM     24  N   UNL     1      -2.334  -5.477   1.587  1.00  0.00    -0.330 N 
ATOM     25  C   UNL     1      -1.593  -4.161   0.540  1.00  0.00     0.107 A 
ATOM     26  C   UNL     1      -3.142  -6.716   0.493  1.00  0.00     0.105 A 
ATOM     27  C   UNL     1      -1.922  -4.485  -1.109  1.00  0.00     0.131 A 
ATOM     28  N   UNL     1      -2.896  -6.144  -1.091  1.00  0.00    -0.242 NA
ATOM     29  C   UNL     1      -3.779  -7.977   0.908  1.00  0.00     0.087 C 
ENDBRANCH  23  24
ENDBRANCH  22  23
ENDBRANCH  19  22
ENDBRANCH   9  19
ENDBRANCH   7   9
ENDBRANCH   6   7
ENDBRANCH   5   6
ENDBRANCH   4   5
ENDBRANCH   3   4
ENDBRANCH   2   3
ENDBRANCH   1   2
BRANCH   1  30
ATOM     30  O   UNL     1      -0.376  -6.034  -1.198  1.00  0.00    -0.377 OA
BRANCH  30  31
ATOM     31  C   UNL     1      -0.750  -6.809  -2.322  1.00  0.00     0.188 C 
BRANCH  31  32
ATOM     32  C   UNL     1      -1.168  -8.268  -2.068  1.00  0.00     0.188 C 
BRANCH  32  33
ATOM     33  O   UNL     1      -1.102  -8.855  -0.785  1.00  0.00    -0.376 OA
BRANCH  33  34
ATOM     34  C   UNL     1       0.064  -9.043  -0.009  1.00  0.00     0.202 C 
BRANCH  34  35
ATOM     35  C   UNL     1       1.493  -8.604  -0.344  1.00  0.00     0.261 C 
BRANCH  35  36
ATOM     36  O   UNL     1       1.772  -8.147  -1.654  1.00  0.00    -0.460 OA
BRANCH  36  37
ATOM     37  C   UNL     1       1.794  -9.059  -2.647  1.00  0.00     0.338 C 
ATOM     38  O   UNL     1       1.600 -10.255  -2.576  1.00  0.00    -0.246 OA
BRANCH  37  39
ATOM     39  C   UNL     1       1.890  -8.254  -3.880  1.00  0.00     0.060 A 
ATOM     40  C   UNL     1       0.834  -8.285  -4.806  1.00  0.00     0.016 A 
ATOM     41  C   UNL     1       2.932  -7.331  -4.009  1.00  0.00     0.016 A 
ATOM     42  C   UNL     1       0.790  -7.356  -5.838  1.00  0.00     0.010 A 
ATOM     43  C   UNL     1       2.939  -6.466  -5.094  1.00  0.00     0.010 A 
ATOM     44  C   UNL     1       1.882  -6.500  -6.021  1.00  0.00    -0.014 A 
BRANCH  44  45
ATOM     45  C   UNL     1       2.134  -5.950  -7.363  1.00  0.00     0.031 A 
ATOM     46  C   UNL     1       2.868  -6.858  -8.305  1.00  0.00     0.074 A 
ATOM     47  C   UNL     1       1.787  -4.701  -7.705  1.00  0.00     0.049 A 
ATOM     48  N   UNL     1       3.397  -6.596  -9.468  1.00  0.00    -0.248 NA
ATOM     49  C   UNL     1       3.046  -8.256  -7.864  1.00  0.00     0.031 C 
ATOM     50  C   UNL     1       1.011  -3.777  -6.883  1.00  0.00     0.029 A 
ATOM     51  N   UNL     1       2.071  -3.992  -8.843  1.00  0.00    -0.354 N 
ATOM     52  C   UNL     1       3.969  -7.788  -9.885  1.00  0.00     0.074 A 
ATOM     53  C   UNL     1       3.756  -8.769  -8.852  1.00  0.00     0.031 C 
ATOM     54  C   UNL     1       0.902  -2.606  -7.537  1.00  0.00     0.029 A 
ATOM     55  C   UNL     1       1.643  -2.690  -8.797  1.00  0.00     0.049 A 
ATOM     56  H   UNL     1       2.538  -4.380  -9.618  1.00  0.00     0.167 HD
ATOM     57  C   UNL     1       4.616  -8.039 -11.041  1.00  0.00     0.037 A 
ATOM     58  C   UNL     1       1.865  -1.683  -9.665  1.00  0.00     0.037 A 
ATOM     59  C   UNL     1       4.841  -7.044 -12.046  1.00  0.00     0.049 A 
ATOM     60  C   UNL     1       2.694  -1.957 -10.899  1.00  0.00     0.074 A 
ATOM     61  C   UNL     1       5.499  -7.177 -13.252  1.00  0.00     0.029 A 
ATOM     62  N   UNL     1       4.420  -5.725 -11.951  1.00  0.00    -0.354 N 
ATOM     63  N   UNL     1       3.237  -3.083 -11.299  1.00  0.00    -0.248 NA
ATOM     64  C   UNL     1       2.949  -0.823 -11.799  1.00  0.00     0.031 C 
ATOM     65  C   UNL     1       5.533  -5.923 -13.860  1.00  0.00     0.029 A 
ATOM     66  C   UNL     1       4.827  -5.026 -13.071  1.00  0.00     0.049 A 
ATOM     67  H   UNL     1       3.908  -5.346 -11.200  1.00  0.00     0.167 HD
ATOM     68  C   UNL     1       3.858  -2.805 -12.510  1.00  0.00     0.074 A 
ATOM     69  C   UNL     1       3.628  -1.401 -12.781  1.00  0.00     0.031 C 
ATOM     70  C   UNL     1       4.554  -3.634 -13.326  1.00  0.00     0.037 A 
BRANCH  57  71
ATOM     71  C   UNL     1       5.140  -9.424 -11.263  1.00  0.00     0.064 A 
ATOM     72  C   UNL     1       6.521  -9.660 -11.303  1.00  0.00     0.173 A 
ATOM     73  C   UNL     1       4.278 -10.507 -11.490  1.00  0.00     0.173 A 
ATOM     74  F   UNL     1       7.386  -8.660 -11.076  1.00  0.00    -0.203 F 
ATOM     75  C   UNL     1       7.021 -10.924 -11.597  1.00  0.00     0.198 A 
ATOM     76  C   UNL     1       4.782 -11.778 -11.750  1.00  0.00     0.198 A 
ATOM     77  F   UNL     1       2.948 -10.338 -11.430  1.00  0.00    -0.203 F 
ATOM     78  F   UNL     1       8.345 -11.117 -11.675  1.00  0.00    -0.200 F 
ATOM     79  C   UNL     1       6.152 -11.982 -11.819  1.00  0.00     0.200 A 
ATOM     80  F   UNL     1       3.941 -12.805 -11.931  1.00  0.00    -0.200 F 
ATOM     81  F   UNL     1       6.635 -13.200 -12.099  1.00  0.00    -0.200 F 
ENDBRANCH  57  71
BRANCH  58  82
ATOM     82  C   UNL     1       1.299  -0.334  -9.402  1.00  0.00     0.064 A 
ATOM     83  C   UNL     1       1.724   0.446  -8.315  1.00  0.00     0.173 A 
ATOM     84  C   UNL     1       0.305   0.200 -10.234  1.00  0.00     0.173 A 
ATOM     85  F   UNL     1       2.675  -0.013  -7.488  1.00  0.00    -0.203 F 
ATOM     86  C   UNL     1       1.161   1.695  -8.059  1.00  0.00     0.198 A 
ATOM     87  C   UNL     1      -0.234   1.463  -9.996  1.00  0.00     0.198 A 
ATOM     88  F   UNL     1      -0.118  -0.493 -11.301  1.00  0.00    -0.203 F 
ATOM     89  F   UNL     1       1.560   2.402  -6.993  1.00  0.00    -0.200 F 
ATOM     90  C   UNL     1       0.186   2.205  -8.903  1.00  0.00     0.200 A 
ATOM     91  F   UNL     1      -1.155   1.964 -10.831  1.00  0.00    -0.200 F 
ATOM     92  F   UNL     1      -0.343   3.413  -8.666  1.00  0.00    -0.200 F 
ENDBRANCH  58  82
BRANCH  70  93
ATOM     93  C   UNL     1       5.082  -3.085 -14.620  1.00  0.00     0.064 A 
ATOM     94  C   UNL     1       4.568  -3.554 -15.840  1.00  0.00     0.173 A 
ATOM     95  C   UNL     1       6.189  -2.229 -14.657  1.00  0.00     0.173 A 
ATOM     96  F   UNL     1       3.518  -4.391 -15.855  1.00  0.00    -0.203 F 
ATOM     97  C   UNL     1       5.170  -3.217 -17.047  1.00  0.00     0.198 A 
ATOM     98  C   UNL     1       6.767  -1.865 -15.870  1.00  0.00     0.198 A 
ATOM     99  F   UNL     1       6.712  -1.749 -13.518  1.00  0.00    -0.203 F 
ATOM    100  F   UNL     1       4.704  -3.733 -18.193  1.00  0.00    -0.200 F 
ATOM    101  C   UNL     1       6.269  -2.373 -17.061  1.00  0.00     0.200 A 
ATOM    102  F   UNL     1       7.817  -1.032 -15.886  1.00  0.00    -0.200 F 
ATOM    103  F   UNL     1       6.854  -2.054 -18.224  1.00  0.00    -0.200 F 
ENDBRANCH  70  93
ENDBRANCH  44  45
ENDBRANCH  37  39
ENDBRANCH  36  37
ENDBRANCH  35  36
ENDBRANCH  34  35
ENDBRANCH  33  34
ENDBRANCH  32  33
ENDBRANCH  31  32
ENDBRANCH  30  31
ENDBRANCH   1  30
TORSDOF 26
