REMARK SMILES CCC[NH+]1CCN(C(=O)N[C@H]2C=C[C@@H](C(=O)OCCOCCOCCOCCOC(=O)c3ccc(-c4c5nc(c(-c6c(F)c(F)c(F)c(F)c6F)c6ccc([nH]6)c(-c6c(F)c(F)c(F)c(F)c6F)c6nc(c(-c7c(F)c(F)c(F)c(F)c7F)c7ccc4[nH]7)C=C6)C=C5)cc3)C2)CC1
REMARK SMILES IDX 22 1 21 2 20 3 19 4 18 5 17 6 15 7 16 8 14 9 11 10 12 11
REMARK SMILES IDX 95 12 13 13 10 14 4 15 5 16 97 17 6 19 96 20 7 21 8 22 9 23
REMARK SMILES IDX 3 25 2 26 1 27 23 28 24 29 25 30 26 31 27 32 28 33 29 34
REMARK SMILES IDX 30 35 31 36 32 37 33 38 94 39 34 40 93 41 35 42 36 43 37 44
REMARK SMILES IDX 87 45 38 46 92 47 86 48 88 49 39 50 91 51 85 52 84 53 40 55
REMARK SMILES IDX 72 56 52 57 71 58 53 59 56 60 70 61 89 62 54 63 55 64 69 66
REMARK SMILES IDX 90 67 57 68 41 69 42 70 50 71 43 72 44 73 48 74 51 75 45 76
REMARK SMILES IDX 46 77 49 78 47 79 73 80 74 81 82 82 75 83 76 84 80 85 83 86
REMARK SMILES IDX 77 87 78 88 81 89 79 90 58 91 59 92 67 93 60 94 61 95 65 96
REMARK SMILES IDX 68 97 62 98 63 99 66 100 64 101
REMARK H PARENT 4 18 10 24 88 54 56 65
REMARK Flexibility Score: inf
ROOT
ATOM      1  C   UNL     1       0.042   3.463   2.369  1.00  0.00     0.188 C 
ENDROOT
BRANCH   1   2
ATOM      2  C   UNL     1      -0.275   4.928   2.697  1.00  0.00     0.188 C 
BRANCH   2   3
ATOM      3  O   UNL     1      -0.056   5.260   4.051  1.00  0.00    -0.376 OA
BRANCH   3   4
ATOM      4  C   UNL     1      -1.032   5.136   5.064  1.00  0.00     0.202 C 
BRANCH   4   5
ATOM      5  C   UNL     1      -2.162   4.089   5.113  1.00  0.00     0.261 C 
BRANCH   5   6
ATOM      6  O   UNL     1      -2.373   3.262   3.969  1.00  0.00    -0.463 OA
BRANCH   6   7
ATOM      7  C   UNL     1      -3.366   3.619   3.121  1.00  0.00     0.312 C 
ATOM      8  O   UNL     1      -4.048   4.629   3.255  1.00  0.00    -0.252 OA
BRANCH   7   9
ATOM      9  C   UNL     1      -3.570   2.634   1.969  1.00  0.00     0.124 C 
ATOM     10  C   UNL     1      -3.304   0.387   1.072  1.00  0.00     0.107 C 
ATOM     11  C   UNL     1      -4.631   0.546   1.744  1.00  0.00    -0.006 C 
ATOM     12  C   UNL     1      -2.525   1.542   1.700  1.00  0.00     0.048 C 
ATOM     13  C   UNL     1      -4.795   1.796   2.202  1.00  0.00    -0.014 C 
BRANCH  10  14
ATOM     14  N   UNL     1      -2.720  -0.901   1.356  1.00  0.00    -0.332 N 
ATOM     15  N   UNL     1       0.544  -0.651  -2.727  1.00  0.00    -0.332 N 
ATOM     16  C   UNL     1       0.756  -1.931  -2.066  1.00  0.00     0.284 C 
ATOM     17  C   UNL     1      -0.853  -0.263  -2.682  1.00  0.00     0.284 C 
ATOM     18  H   UNL     1       0.756  -0.825  -3.710  1.00  0.00     0.348 HD
ATOM     19  C   UNL     1       0.035  -2.191  -0.728  1.00  0.00     0.183 C 
ATOM     20  C   UNL     1      -1.500  -0.280  -1.292  1.00  0.00     0.183 C 
ATOM     21  N   UNL     1      -1.139  -1.366  -0.389  1.00  0.00    -0.314 N 
ATOM     22  C   UNL     1      -1.734  -1.650   0.816  1.00  0.00     0.318 C 
ATOM     23  O   UNL     1      -1.383  -2.624   1.491  1.00  0.00    -0.249 OA
ATOM     24  H   UNL     1      -3.142  -1.340   2.130  1.00  0.00     0.165 HD
BRANCH  15  25
ATOM     25  C   UNL     1       1.548   0.393  -2.567  1.00  0.00     0.262 C 
BRANCH  25  26
ATOM     26  C   UNL     1       1.478   1.363  -1.383  1.00  0.00     0.058 C 
ATOM     27  C   UNL     1       1.894   0.764  -0.056  1.00  0.00     0.010 C 
ENDBRANCH  25  26
ENDBRANCH  15  25
ENDBRANCH  10  14
ENDBRANCH   7   9
ENDBRANCH   6   7
ENDBRANCH   5   6
ENDBRANCH   4   5
ENDBRANCH   3   4
ENDBRANCH   2   3
ENDBRANCH   1   2
BRANCH   1  28
ATOM     28  O   UNL     1       1.295   2.942   2.763  1.00  0.00    -0.377 OA
BRANCH  28  29
ATOM     29  C   UNL     1       1.578   3.039   4.146  1.00  0.00     0.188 C 
BRANCH  29  30
ATOM     30  C   UNL     1       2.597   4.146   4.462  1.00  0.00     0.188 C 
BRANCH  30  31
ATOM     31  O   UNL     1       3.188   4.922   3.428  1.00  0.00    -0.376 OA
BRANCH  31  32
ATOM     32  C   UNL     1       3.461   4.364   2.153  1.00  0.00     0.202 C 
BRANCH  32  33
ATOM     33  C   UNL     1       4.204   3.021   1.988  1.00  0.00     0.261 C 
BRANCH  33  34
ATOM     34  O   UNL     1       3.997   2.018   2.991  1.00  0.00    -0.460 OA
BRANCH  34  35
ATOM     35  C   UNL     1       4.939   1.961   3.955  1.00  0.00     0.338 C 
ATOM     36  O   UNL     1       5.949   2.649   4.045  1.00  0.00    -0.246 OA
BRANCH  35  37
ATOM     37  C   UNL     1       4.509   1.040   5.024  1.00  0.00     0.060 A 
ATOM     38  C   UNL     1       4.359   1.560   6.317  1.00  0.00     0.016 A 
ATOM     39  C   UNL     1       4.321  -0.324   4.787  1.00  0.00     0.016 A 
ATOM     40  C   UNL     1       4.063   0.719   7.383  1.00  0.00     0.010 A 
ATOM     41  C   UNL     1       4.055  -1.176   5.866  1.00  0.00     0.010 A 
ATOM     42  C   UNL     1       3.969  -0.662   7.174  1.00  0.00    -0.014 A 
BRANCH  42  43
ATOM     43  C   UNL     1       4.007  -1.556   8.356  1.00  0.00     0.031 A 
ATOM     44  C   UNL     1       5.330  -2.151   8.759  1.00  0.00     0.074 A 
ATOM     45  C   UNL     1       2.913  -1.768   9.107  1.00  0.00     0.049 A 
ATOM     46  N   UNL     1       5.620  -2.934   9.767  1.00  0.00    -0.248 NA
ATOM     47  C   UNL     1       6.483  -1.813   7.910  1.00  0.00     0.031 C 
ATOM     48  C   UNL     1       1.591  -1.203   8.849  1.00  0.00     0.029 A 
ATOM     49  N   UNL     1       2.747  -2.515  10.246  1.00  0.00    -0.354 N 
ATOM     50  C   UNL     1       6.983  -3.183   9.669  1.00  0.00     0.074 A 
ATOM     51  C   UNL     1       7.456  -2.501   8.486  1.00  0.00     0.031 C 
ATOM     52  C   UNL     1       0.743  -1.631   9.801  1.00  0.00     0.029 A 
ATOM     53  C   UNL     1       1.457  -2.521  10.716  1.00  0.00     0.049 A 
ATOM     54  H   UNL     1       3.482  -3.001  10.684  1.00  0.00     0.167 HD
ATOM     55  C   UNL     1       7.771  -3.907  10.499  1.00  0.00     0.037 A 
ATOM     56  C   UNL     1       0.916  -3.185  11.756  1.00  0.00     0.037 A 
ATOM     57  C   UNL     1       7.295  -4.590  11.674  1.00  0.00     0.049 A 
ATOM     58  C   UNL     1       1.802  -4.049  12.620  1.00  0.00     0.074 A 
ATOM     59  C   UNL     1       8.013  -5.346  12.583  1.00  0.00     0.029 A 
ATOM     60  N   UNL     1       5.973  -4.607  12.095  1.00  0.00    -0.354 N 
ATOM     61  N   UNL     1       3.093  -4.263  12.536  1.00  0.00    -0.248 NA
ATOM     62  C   UNL     1       1.152  -4.754  13.734  1.00  0.00     0.031 C 
ATOM     63  C   UNL     1       7.116  -5.873  13.518  1.00  0.00     0.029 A 
ATOM     64  C   UNL     1       5.851  -5.383  13.237  1.00  0.00     0.049 A 
ATOM     65  H   UNL     1       5.231  -4.138  11.648  1.00  0.00     0.167 HD
ATOM     66  C   UNL     1       3.416  -5.090  13.605  1.00  0.00     0.074 A 
ATOM     67  C   UNL     1       2.186  -5.330  14.330  1.00  0.00     0.031 C 
ATOM     68  C   UNL     1       4.622  -5.601  13.958  1.00  0.00     0.037 A 
BRANCH  55  69
ATOM     69  C   UNL     1       9.226  -4.028  10.144  1.00  0.00     0.064 A 
ATOM     70  C   UNL     1      10.102  -2.934  10.221  1.00  0.00     0.173 A 
ATOM     71  C   UNL     1       9.757  -5.264   9.745  1.00  0.00     0.173 A 
ATOM     72  F   UNL     1       9.645  -1.726  10.582  1.00  0.00    -0.203 F 
ATOM     73  C   UNL     1      11.447  -3.068   9.884  1.00  0.00     0.198 A 
ATOM     74  C   UNL     1      11.109  -5.402   9.443  1.00  0.00     0.198 A 
ATOM     75  F   UNL     1       8.965  -6.344   9.657  1.00  0.00    -0.203 F 
ATOM     76  F   UNL     1      12.254  -1.998   9.914  1.00  0.00    -0.200 F 
ATOM     77  C   UNL     1      11.951  -4.303   9.504  1.00  0.00     0.200 A 
ATOM     78  F   UNL     1      11.596  -6.600   9.091  1.00  0.00    -0.200 F 
ATOM     79  F   UNL     1      13.247  -4.432   9.189  1.00  0.00    -0.200 F 
ENDBRANCH  55  69
BRANCH  56  80
ATOM     80  C   UNL     1      -0.539  -3.069  12.040  1.00  0.00     0.064 A 
ATOM     81  C   UNL     1      -1.005  -2.457  13.212  1.00  0.00     0.173 A 
ATOM     82  C   UNL     1      -1.494  -3.597  11.158  1.00  0.00     0.173 A 
ATOM     83  F   UNL     1      -0.132  -1.958  14.100  1.00  0.00    -0.203 F 
ATOM     84  C   UNL     1      -2.367  -2.399  13.503  1.00  0.00     0.198 A 
ATOM     85  C   UNL     1      -2.857  -3.509  11.434  1.00  0.00     0.198 A 
ATOM     86  F   UNL     1      -1.104  -4.195  10.023  1.00  0.00    -0.203 F 
ATOM     87  F   UNL     1      -2.781  -1.859  14.657  1.00  0.00    -0.200 F 
ATOM     88  C   UNL     1      -3.292  -2.920  12.611  1.00  0.00     0.200 A 
ATOM     89  F   UNL     1      -3.748  -4.000  10.562  1.00  0.00    -0.200 F 
ATOM     90  F   UNL     1      -4.601  -2.862  12.890  1.00  0.00    -0.200 F 
ENDBRANCH  56  80
BRANCH  68  91
ATOM     91  C   UNL     1       4.687  -6.418  15.220  1.00  0.00     0.064 A 
ATOM     92  C   UNL     1       4.087  -7.682  15.323  1.00  0.00     0.173 A 
ATOM     93  C   UNL     1       5.387  -5.934  16.337  1.00  0.00     0.173 A 
ATOM     94  F   UNL     1       3.397  -8.189  14.291  1.00  0.00    -0.203 F 
ATOM     95  C   UNL     1       4.150  -8.411  16.509  1.00  0.00     0.198 A 
ATOM     96  C   UNL     1       5.481  -6.682  17.507  1.00  0.00     0.198 A 
ATOM     97  F   UNL     1       5.990  -4.737  16.291  1.00  0.00    -0.203 F 
ATOM     98  F   UNL     1       3.513  -9.586  16.605  1.00  0.00    -0.200 F 
ATOM     99  C   UNL     1       4.852  -7.914  17.597  1.00  0.00     0.200 A 
ATOM    100  F   UNL     1       6.178  -6.208  18.549  1.00  0.00    -0.200 F 
ATOM    101  F   UNL     1       4.915  -8.618  18.735  1.00  0.00    -0.200 F 
ENDBRANCH  68  91
ENDBRANCH  42  43
ENDBRANCH  35  37
ENDBRANCH  34  35
ENDBRANCH  33  34
ENDBRANCH  32  33
ENDBRANCH  31  32
ENDBRANCH  30  31
ENDBRANCH  29  30
ENDBRANCH  28  29
ENDBRANCH   1  28
TORSDOF 23
