REMARK SMILES Cc1ccccc1OCC(=O)N[C@@H](Cc1c[nH]c2ccccc12)C(=O)OCCOCCOCCOCCOC(=O)c1ccc(-c2c3nc(c(-c4c(F)c(F)c(F)c(F)c4F)c4ccc([nH]4)c(-c4c(F)c(F)c(F)c(F)c4F)c4nc(c(-c5c(F)c(F)c(F)c(F)c5F)c5ccc2[nH]5)C=C4)C=C3)cc1
REMARK SMILES IDX 31 1 30 2 29 3 28 4 27 5 26 6 24 7 25 8 13 9 12 10 10 11
REMARK SMILES IDX 11 12 9 14 8 15 7 16 1 17 2 18 3 19 4 20 6 21 5 22 14 23
REMARK SMILES IDX 15 24 16 25 23 26 17 27 18 28 22 29 19 31 21 32 20 33 32 34
REMARK SMILES IDX 33 35 34 36 35 37 36 38 37 39 38 40 39 41 40 42 41 43 42 44
REMARK SMILES IDX 103 45 43 46 102 47 44 48 45 49 46 50 96 51 47 52 101 53
REMARK SMILES IDX 95 54 97 55 48 56 100 57 94 58 93 59 49 61 81 62 61 63 80 64
REMARK SMILES IDX 62 65 65 66 79 67 98 68 63 69 64 70 78 72 99 73 66 74 50 75
REMARK SMILES IDX 51 76 59 77 52 78 53 79 57 80 60 81 54 82 55 83 58 84 56 85
REMARK SMILES IDX 82 86 83 87 91 88 84 89 85 90 89 91 92 92 86 93 87 94 90 95
REMARK SMILES IDX 88 96 67 97 68 98 76 99 69 100 70 101 74 102 77 103 71 104
REMARK SMILES IDX 72 105 75 106 73 107
REMARK H PARENT 12 13 17 30 97 60 65 71
REMARK Flexibility Score: inf
ROOT
ATOM      1  C   UNL     1       4.576   3.420   0.951  1.00  0.00     0.188 C 
ENDROOT
BRANCH   1   2
ATOM      2  C   UNL     1       3.535   4.498   1.178  1.00  0.00     0.188 C 
BRANCH   2   3
ATOM      3  O   UNL     1       3.942   5.564   2.026  1.00  0.00    -0.376 OA
BRANCH   3   4
ATOM      4  C   UNL     1       2.982   6.622   2.038  1.00  0.00     0.202 C 
BRANCH   4   5
ATOM      5  C   UNL     1       1.608   6.347   2.680  1.00  0.00     0.261 C 
BRANCH   5   6
ATOM      6  O   UNL     1       1.245   4.963   2.811  1.00  0.00    -0.462 OA
BRANCH   6   7
ATOM      7  C   UNL     1       0.163   4.541   2.124  1.00  0.00     0.329 C 
ATOM      8  O   UNL     1      -0.589   5.288   1.500  1.00  0.00    -0.250 OA
BRANCH   7   9
ATOM      9  C   UNL     1      -0.063   3.020   2.200  1.00  0.00     0.196 C 
BRANCH   9  10
ATOM     10  N   UNL     1       1.107   2.153   2.336  1.00  0.00    -0.339 N 
ATOM     11  C   UNL     1       1.805   1.534   1.339  1.00  0.00     0.258 C 
ATOM     12  O   UNL     1       2.594   0.636   1.632  1.00  0.00    -0.271 OA
ATOM     13  H   UNL     1       1.429   1.998   3.253  1.00  0.00     0.164 HD
BRANCH  11  14
ATOM     14  C   UNL     1       1.645   2.036  -0.123  1.00  0.00     0.329 C 
BRANCH  14  15
ATOM     15  O   UNL     1       0.636   1.648  -1.026  1.00  0.00    -0.484 OA
BRANCH  15  16
ATOM     16  C   UNL     1      -0.010   0.508  -0.661  1.00  0.00     0.122 A 
ATOM     17  C   UNL     1       2.035  -1.031  -0.901  1.00  0.00     0.048 C 
ATOM     18  C   UNL     1       0.594  -0.751  -0.573  1.00  0.00    -0.009 A 
ATOM     19  C   UNL     1      -0.200  -1.825  -0.148  1.00  0.00     0.007 A 
ATOM     20  C   UNL     1      -1.556  -1.650   0.139  1.00  0.00     0.001 A 
ATOM     21  C   UNL     1      -1.375   0.677  -0.416  1.00  0.00     0.047 A 
ATOM     22  C   UNL     1      -2.148  -0.399  -0.003  1.00  0.00     0.004 A 
ENDBRANCH  15  16
ENDBRANCH  14  15
ENDBRANCH  11  14
ENDBRANCH   9  10
BRANCH   9  23
ATOM     23  C   UNL     1      -1.172   2.665   3.204  1.00  0.00     0.074 C 
BRANCH  23  24
ATOM     24  C   UNL     1      -0.751   2.199   4.574  1.00  0.00    -0.020 A 
ATOM     25  C   UNL     1      -0.692   2.975   5.709  1.00  0.00     0.087 A 
ATOM     26  C   UNL     1      -0.406   0.866   4.989  1.00  0.00     0.003 A 
ATOM     27  N   UNL     1      -0.393   2.185   6.782  1.00  0.00    -0.361 N 
ATOM     28  C   UNL     1      -0.225   0.886   6.375  1.00  0.00     0.046 A 
ATOM     29  C   UNL     1      -0.241  -0.364   4.319  1.00  0.00     0.010 A 
ATOM     30  H   UNL     1      -0.310   2.501   7.710  1.00  0.00     0.166 HD
ATOM     31  C   UNL     1       0.066  -0.259   7.127  1.00  0.00     0.026 A 
ATOM     32  C   UNL     1       0.076  -1.515   5.052  1.00  0.00     0.001 A 
ATOM     33  C   UNL     1       0.212  -1.464   6.437  1.00  0.00     0.002 A 
ENDBRANCH  23  24
ENDBRANCH   9  23
ENDBRANCH   7   9
ENDBRANCH   6   7
ENDBRANCH   5   6
ENDBRANCH   4   5
ENDBRANCH   3   4
ENDBRANCH   2   3
ENDBRANCH   1   2
BRANCH   1  34
ATOM     34  O   UNL     1       4.792   2.612   2.101  1.00  0.00    -0.377 OA
BRANCH  34  35
ATOM     35  C   UNL     1       5.772   3.111   2.999  1.00  0.00     0.188 C 
BRANCH  35  36
ATOM     36  C   UNL     1       7.153   3.081   2.364  1.00  0.00     0.188 C 
BRANCH  36  37
ATOM     37  O   UNL     1       7.302   4.261   1.574  1.00  0.00    -0.376 OA
BRANCH  37  38
ATOM     38  C   UNL     1       8.166   4.135   0.451  1.00  0.00     0.202 C 
BRANCH  38  39
ATOM     39  C   UNL     1       9.608   3.871   0.876  1.00  0.00     0.261 C 
BRANCH  39  40
ATOM     40  O   UNL     1      10.097   5.047   1.557  1.00  0.00    -0.460 OA
BRANCH  40  41
ATOM     41  C   UNL     1      10.280   4.893   2.897  1.00  0.00     0.338 C 
ATOM     42  O   UNL     1      11.068   4.115   3.401  1.00  0.00    -0.246 OA
BRANCH  41  43
ATOM     43  C   UNL     1       9.256   5.665   3.666  1.00  0.00     0.060 A 
ATOM     44  C   UNL     1       9.072   5.397   5.032  1.00  0.00     0.016 A 
ATOM     45  C   UNL     1       8.322   6.452   2.993  1.00  0.00     0.016 A 
ATOM     46  C   UNL     1       7.897   5.807   5.683  1.00  0.00     0.010 A 
ATOM     47  C   UNL     1       7.118   6.754   3.610  1.00  0.00     0.010 A 
ATOM     48  C   UNL     1       6.876   6.418   4.951  1.00  0.00    -0.014 A 
BRANCH  48  49
ATOM     49  C   UNL     1       5.470   6.519   5.389  1.00  0.00     0.031 A 
ATOM     50  C   UNL     1       4.664   7.771   5.182  1.00  0.00     0.074 A 
ATOM     51  C   UNL     1       4.821   5.355   5.626  1.00  0.00     0.049 A 
ATOM     52  N   UNL     1       3.404   7.910   5.460  1.00  0.00    -0.248 NA
ATOM     53  C   UNL     1       5.246   9.021   4.692  1.00  0.00     0.031 C 
ATOM     54  C   UNL     1       3.446   5.077   5.251  1.00  0.00     0.029 A 
ATOM     55  N   UNL     1       5.264   4.124   6.097  1.00  0.00    -0.354 N 
ATOM     56  C   UNL     1       2.958   9.109   4.934  1.00  0.00     0.074 A 
ATOM     57  C   UNL     1       4.167   9.805   4.575  1.00  0.00     0.031 C 
ATOM     58  C   UNL     1       3.105   3.822   5.549  1.00  0.00     0.029 A 
ATOM     59  C   UNL     1       4.151   3.310   6.385  1.00  0.00     0.049 A 
ATOM     60  H   UNL     1       6.207   3.863   6.212  1.00  0.00     0.167 HD
ATOM     61  C   UNL     1       1.616   9.321   4.754  1.00  0.00     0.037 A 
ATOM     62  C   UNL     1       3.910   2.890   7.660  1.00  0.00     0.037 A 
ATOM     63  C   UNL     1       0.790   8.306   5.444  1.00  0.00     0.049 A 
ATOM     64  C   UNL     1       2.739   3.610   8.319  1.00  0.00     0.074 A 
ATOM     65  C   UNL     1      -0.323   7.559   5.094  1.00  0.00     0.029 A 
ATOM     66  N   UNL     1       1.168   7.834   6.710  1.00  0.00    -0.354 N 
ATOM     67  N   UNL     1       2.164   4.691   7.838  1.00  0.00    -0.248 NA
ATOM     68  C   UNL     1       2.081   3.149   9.539  1.00  0.00     0.031 C 
ATOM     69  C   UNL     1      -0.584   6.633   6.134  1.00  0.00     0.029 A 
ATOM     70  C   UNL     1       0.367   6.794   7.127  1.00  0.00     0.049 A 
ATOM     71  H   UNL     1       1.915   8.202   7.236  1.00  0.00     0.167 HD
ATOM     72  C   UNL     1       1.161   5.108   8.671  1.00  0.00     0.074 A 
ATOM     73  C   UNL     1       1.124   4.081   9.699  1.00  0.00     0.031 C 
ATOM     74  C   UNL     1       0.450   6.265   8.484  1.00  0.00     0.037 A 
BRANCH  61  75
ATOM     75  C   UNL     1       0.995  10.354   3.784  1.00  0.00     0.064 A 
ATOM     76  C   UNL     1      -0.409  10.550   3.723  1.00  0.00     0.173 A 
ATOM     77  C   UNL     1       1.700  11.078   2.794  1.00  0.00     0.173 A 
ATOM     78  F   UNL     1      -1.230   9.993   4.623  1.00  0.00    -0.203 F 
ATOM     79  C   UNL     1      -1.040  11.323   2.734  1.00  0.00     0.198 A 
ATOM     80  C   UNL     1       1.074  11.918   1.857  1.00  0.00     0.198 A 
ATOM     81  F   UNL     1       3.021  10.966   2.636  1.00  0.00    -0.203 F 
ATOM     82  F   UNL     1      -2.380  11.376   2.681  1.00  0.00    -0.200 F 
ATOM     83  C   UNL     1      -0.297  12.018   1.806  1.00  0.00     0.200 A 
ATOM     84  F   UNL     1       1.822  12.603   0.979  1.00  0.00    -0.200 F 
ATOM     85  F   UNL     1      -0.894  12.766   0.868  1.00  0.00    -0.200 F 
ENDBRANCH  61  75
BRANCH  62  86
ATOM     86  C   UNL     1       5.146   2.255   8.224  1.00  0.00     0.064 A 
ATOM     87  C   UNL     1       5.529   1.095   7.506  1.00  0.00     0.173 A 
ATOM     88  C   UNL     1       6.180   3.078   8.701  1.00  0.00     0.173 A 
ATOM     89  F   UNL     1       4.584   0.245   7.074  1.00  0.00    -0.203 F 
ATOM     90  C   UNL     1       6.820   0.963   6.996  1.00  0.00     0.198 A 
ATOM     91  C   UNL     1       7.486   2.916   8.219  1.00  0.00     0.198 A 
ATOM     92  F   UNL     1       5.893   4.165   9.432  1.00  0.00    -0.203 F 
ATOM     93  F   UNL     1       7.085   0.018   6.082  1.00  0.00    -0.200 F 
ATOM     94  C   UNL     1       7.782   1.907   7.309  1.00  0.00     0.200 A 
ATOM     95  F   UNL     1       8.423   3.831   8.506  1.00  0.00    -0.200 F 
ATOM     96  F   UNL     1       8.960   1.901   6.669  1.00  0.00    -0.200 F 
ENDBRANCH  62  86
BRANCH  74  97
ATOM     97  C   UNL     1      -0.328   7.006   9.562  1.00  0.00     0.064 A 
ATOM     98  C   UNL     1      -0.103   6.841  10.939  1.00  0.00     0.173 A 
ATOM     99  C   UNL     1      -1.212   8.069   9.230  1.00  0.00     0.173 A 
ATOM    100  F   UNL     1       0.815   5.984  11.403  1.00  0.00    -0.203 F 
ATOM    101  C   UNL     1      -0.766   7.608  11.900  1.00  0.00     0.198 A 
ATOM    102  C   UNL     1      -1.827   8.870  10.190  1.00  0.00     0.198 A 
ATOM    103  F   UNL     1      -1.484   8.404   7.962  1.00  0.00    -0.203 F 
ATOM    104  F   UNL     1      -0.541   7.372  13.200  1.00  0.00    -0.200 F 
ATOM    105  C   UNL     1      -1.620   8.627  11.527  1.00  0.00     0.200 A 
ATOM    106  F   UNL     1      -2.601   9.895   9.803  1.00  0.00    -0.200 F 
ATOM    107  F   UNL     1      -2.214   9.390  12.453  1.00  0.00    -0.200 F 
ENDBRANCH  74  97
ENDBRANCH  48  49
ENDBRANCH  41  43
ENDBRANCH  40  41
ENDBRANCH  39  40
ENDBRANCH  38  39
ENDBRANCH  37  38
ENDBRANCH  36  37
ENDBRANCH  35  36
ENDBRANCH  34  35
ENDBRANCH   1  34
TORSDOF 26
