REMARK SMILES CC(=O)c1cc2c(cc1NC(=O)/C=C/C(=O)OCCOCCOCCOCCOC(=O)c1ccc(-c3c4nc(c(-c5c(F)c(F)c(F)c(F)c5F)c5ccc([nH]5)c(-c5c(F)c(F)c(F)c(F)c5F)c5nc(c(-c6c(F)c(F)c(F)c(F)c6F)c6ccc3[nH]6)C=C5)C=C4)cc1)OCO2
REMARK SMILES IDX 22 1 21 2 20 3 19 4 18 5 17 6 15 7 16 8 14 9 13 10 11 11
REMARK SMILES IDX 10 12 12 14 9 15 4 16 5 17 6 18 8 19 7 20 97 21 95 22 96 23
REMARK SMILES IDX 2 24 1 25 3 26 23 27 24 28 25 29 26 30 27 31 28 32 29 33
REMARK SMILES IDX 30 34 31 35 32 36 33 37 94 38 34 39 93 40 35 41 36 42 37 43
REMARK SMILES IDX 87 44 38 45 92 46 86 47 88 48 39 49 91 50 85 51 84 52 40 54
REMARK SMILES IDX 72 55 52 56 71 57 53 58 56 59 70 60 89 61 54 62 55 63 69 65
REMARK SMILES IDX 90 66 57 67 41 68 42 69 50 70 43 71 44 72 48 73 51 74 45 75
REMARK SMILES IDX 46 76 49 77 47 78 73 79 74 80 82 81 75 82 76 83 80 84 83 85
REMARK SMILES IDX 77 86 78 87 81 88 79 89 58 90 59 91 67 92 60 93 61 94 65 95
REMARK SMILES IDX 68 96 62 97 63 98 66 99 64 100
REMARK H PARENT 10 13 88 53 56 64
REMARK Flexibility Score: inf
ROOT
ATOM      1  C   UNL     1      -1.450   7.469  -0.645  1.00  0.00     0.188 C 
ENDROOT
BRANCH   1   2
ATOM      2  C   UNL     1      -0.170   7.989  -1.346  1.00  0.00     0.188 C 
BRANCH   2   3
ATOM      3  O   UNL     1      -0.253   9.308  -1.857  1.00  0.00    -0.376 OA
BRANCH   3   4
ATOM      4  C   UNL     1      -0.205   9.450  -3.266  1.00  0.00     0.202 C 
BRANCH   4   5
ATOM      5  C   UNL     1      -1.427   8.903  -4.015  1.00  0.00     0.261 C 
BRANCH   5   6
ATOM      6  O   UNL     1      -1.708   7.511  -3.770  1.00  0.00    -0.460 OA
BRANCH   6   7
ATOM      7  C   UNL     1      -0.968   6.611  -4.457  1.00  0.00     0.331 C 
ATOM      8  O   UNL     1      -0.084   6.877  -5.255  1.00  0.00    -0.247 OA
BRANCH   7   9
ATOM      9  C   UNL     1      -1.258   5.220  -4.035  1.00  0.00     0.099 C 
ATOM     10  C   UNL     1      -2.229   4.869  -3.176  1.00  0.00     0.079 C 
BRANCH  10  11
ATOM     11  C   UNL     1      -2.414   3.486  -2.678  1.00  0.00     0.248 C 
ATOM     12  N   UNL     1      -1.399   2.758  -2.116  1.00  0.00    -0.322 N 
ATOM     13  H   UNL     1      -1.637   1.813  -1.974  1.00  0.00     0.170 HD
ATOM     14  O   UNL     1      -3.538   2.993  -2.774  1.00  0.00    -0.270 OA
BRANCH  12  15
ATOM     15  C   UNL     1      -0.082   3.065  -1.694  1.00  0.00     0.056 A 
ATOM     16  C   UNL     1       0.843   2.027  -1.391  1.00  0.00     0.045 A 
ATOM     17  C   UNL     1       2.206   2.309  -1.168  1.00  0.00     0.064 A 
ATOM     18  C   UNL     1       2.601   3.626  -1.179  1.00  0.00     0.166 A 
ATOM     19  C   UNL     1       0.355   4.377  -1.544  1.00  0.00     0.077 A 
ATOM     20  C   UNL     1       1.690   4.633  -1.327  1.00  0.00     0.167 A 
ATOM     21  O   UNL     1       3.866   4.096  -1.023  1.00  0.00    -0.454 OA
ATOM     22  O   UNL     1       2.254   5.866  -1.257  1.00  0.00    -0.454 OA
ATOM     23  C   UNL     1       3.650   5.519  -1.166  1.00  0.00     0.468 C 
BRANCH  16  24
ATOM     24  C   UNL     1       0.374   0.623  -1.251  1.00  0.00     0.162 C 
ATOM     25  C   UNL     1       0.927  -0.188  -0.105  1.00  0.00     0.093 C 
ATOM     26  O   UNL     1      -0.513   0.198  -1.986  1.00  0.00    -0.294 OA
ENDBRANCH  16  24
ENDBRANCH  12  15
ENDBRANCH  10  11
ENDBRANCH   7   9
ENDBRANCH   6   7
ENDBRANCH   5   6
ENDBRANCH   4   5
ENDBRANCH   3   4
ENDBRANCH   2   3
ENDBRANCH   1   2
BRANCH   1  27
ATOM     27  O   UNL     1      -2.580   8.293  -0.402  1.00  0.00    -0.377 OA
BRANCH  27  28
ATOM     28  C   UNL     1      -2.409   9.698  -0.343  1.00  0.00     0.188 C 
BRANCH  28  29
ATOM     29  C   UNL     1      -1.302  10.251   0.577  1.00  0.00     0.188 C 
BRANCH  29  30
ATOM     30  O   UNL     1      -0.504   9.239   1.174  1.00  0.00    -0.376 OA
BRANCH  30  31
ATOM     31  C   UNL     1      -0.696   8.998   2.558  1.00  0.00     0.202 C 
BRANCH  31  32
ATOM     32  C   UNL     1      -2.070   8.480   3.013  1.00  0.00     0.261 C 
BRANCH  32  33
ATOM     33  O   UNL     1      -3.219   9.197   2.537  1.00  0.00    -0.460 OA
BRANCH  33  34
ATOM     34  C   UNL     1      -3.427  10.445   3.004  1.00  0.00     0.338 C 
ATOM     35  O   UNL     1      -2.740  11.062   3.800  1.00  0.00    -0.246 OA
BRANCH  34  36
ATOM     36  C   UNL     1      -4.541  11.023   2.221  1.00  0.00     0.060 A 
ATOM     37  C   UNL     1      -4.308  12.159   1.432  1.00  0.00     0.016 A 
ATOM     38  C   UNL     1      -5.796  10.409   2.223  1.00  0.00     0.016 A 
ATOM     39  C   UNL     1      -5.336  12.689   0.649  1.00  0.00     0.010 A 
ATOM     40  C   UNL     1      -6.832  10.959   1.464  1.00  0.00     0.010 A 
ATOM     41  C   UNL     1      -6.613  12.115   0.694  1.00  0.00    -0.014 A 
BRANCH  41  42
ATOM     42  C   UNL     1      -7.767  12.836   0.106  1.00  0.00     0.031 A 
ATOM     43  C   UNL     1      -8.599  13.696   1.014  1.00  0.00     0.074 A 
ATOM     44  C   UNL     1      -8.072  12.737  -1.199  1.00  0.00     0.049 A 
ATOM     45  N   UNL     1      -9.682  14.383   0.756  1.00  0.00    -0.248 NA
ATOM     46  C   UNL     1      -8.146  13.788   2.411  1.00  0.00     0.031 C 
ATOM     47  C   UNL     1      -7.319  11.970  -2.187  1.00  0.00     0.029 A 
ATOM     48  N   UNL     1      -9.111  13.284  -1.911  1.00  0.00    -0.354 N 
ATOM     49  C   UNL     1     -10.044  14.977   1.957  1.00  0.00     0.074 A 
ATOM     50  C   UNL     1      -9.086  14.546   2.951  1.00  0.00     0.031 C 
ATOM     51  C   UNL     1      -7.926  12.089  -3.382  1.00  0.00     0.029 A 
ATOM     52  C   UNL     1      -9.127  12.910  -3.232  1.00  0.00     0.049 A 
ATOM     53  H   UNL     1      -9.779  13.887  -1.513  1.00  0.00     0.167 HD
ATOM     54  C   UNL     1     -11.080  15.812   2.208  1.00  0.00     0.037 A 
ATOM     55  C   UNL     1     -10.025  13.184  -4.199  1.00  0.00     0.037 A 
ATOM     56  C   UNL     1     -12.037  16.228   1.217  1.00  0.00     0.049 A 
ATOM     57  C   UNL     1     -11.222  14.043  -3.876  1.00  0.00     0.074 A 
ATOM     58  C   UNL     1     -13.107  17.093   1.361  1.00  0.00     0.029 A 
ATOM     59  N   UNL     1     -12.051  15.790  -0.100  1.00  0.00    -0.354 N 
ATOM     60  N   UNL     1     -11.541  14.635  -2.750  1.00  0.00    -0.248 NA
ATOM     61  C   UNL     1     -12.186  14.271  -4.963  1.00  0.00     0.031 C 
ATOM     62  C   UNL     1     -13.808  17.125   0.150  1.00  0.00     0.029 A 
ATOM     63  C   UNL     1     -13.134  16.336  -0.769  1.00  0.00     0.049 A 
ATOM     64  H   UNL     1     -11.388  15.182  -0.499  1.00  0.00     0.167 HD
ATOM     65  C   UNL     1     -12.720  15.328  -2.999  1.00  0.00     0.074 A 
ATOM     66  C   UNL     1     -13.054  15.092  -4.388  1.00  0.00     0.031 C 
ATOM     67  C   UNL     1     -13.456  16.093  -2.154  1.00  0.00     0.037 A 
BRANCH  54  68
ATOM     68  C   UNL     1     -11.253  16.287   3.623  1.00  0.00     0.064 A 
ATOM     69  C   UNL     1     -10.337  17.158   4.233  1.00  0.00     0.173 A 
ATOM     70  C   UNL     1     -12.351  15.856   4.383  1.00  0.00     0.173 A 
ATOM     71  F   UNL     1      -9.261  17.588   3.557  1.00  0.00    -0.203 F 
ATOM     72  C   UNL     1     -10.492  17.546   5.561  1.00  0.00     0.198 A 
ATOM     73  C   UNL     1     -12.523  16.275   5.699  1.00  0.00     0.198 A 
ATOM     74  F   UNL     1     -13.259  15.025   3.849  1.00  0.00    -0.203 F 
ATOM     75  F   UNL     1      -9.568  18.323   6.143  1.00  0.00    -0.200 F 
ATOM     76  C   UNL     1     -11.587  17.109   6.291  1.00  0.00     0.200 A 
ATOM     77  F   UNL     1     -13.589  15.863   6.398  1.00  0.00    -0.200 F 
ATOM     78  F   UNL     1     -11.734  17.482   7.570  1.00  0.00    -0.200 F 
ENDBRANCH  54  68
BRANCH  55  79
ATOM     79  C   UNL     1      -9.828  12.641  -5.569  1.00  0.00     0.064 A 
ATOM     80  C   UNL     1      -9.532  13.491  -6.644  1.00  0.00     0.173 A 
ATOM     81  C   UNL     1      -9.934  11.268  -5.834  1.00  0.00     0.173 A 
ATOM     82  F   UNL     1      -9.449  14.815  -6.448  1.00  0.00    -0.203 F 
ATOM     83  C   UNL     1      -9.358  12.989  -7.933  1.00  0.00     0.198 A 
ATOM     84  C   UNL     1      -9.732  10.764  -7.117  1.00  0.00     0.198 A 
ATOM     85  F   UNL     1     -10.222  10.413  -4.842  1.00  0.00    -0.203 F 
ATOM     86  F   UNL     1      -9.115  13.828  -8.949  1.00  0.00    -0.200 F 
ATOM     87  C   UNL     1      -9.450  11.625  -8.167  1.00  0.00     0.200 A 
ATOM     88  F   UNL     1      -9.810   9.444  -7.337  1.00  0.00    -0.200 F 
ATOM     89  F   UNL     1      -9.273  11.142  -9.404  1.00  0.00    -0.200 F 
ENDBRANCH  55  79
BRANCH  67  90
ATOM     90  C   UNL     1     -14.679  16.766  -2.714  1.00  0.00     0.064 A 
ATOM     91  C   UNL     1     -15.826  16.041  -3.072  1.00  0.00     0.173 A 
ATOM     92  C   UNL     1     -14.720  18.163  -2.850  1.00  0.00     0.173 A 
ATOM     93  F   UNL     1     -15.837  14.703  -2.974  1.00  0.00    -0.203 F 
ATOM     94  C   UNL     1     -16.955  16.686  -3.571  1.00  0.00     0.198 A 
ATOM     95  C   UNL     1     -15.863  18.808  -3.315  1.00  0.00     0.198 A 
ATOM     96  F   UNL     1     -13.655  18.907  -2.515  1.00  0.00    -0.203 F 
ATOM     97  F   UNL     1     -18.020  15.968  -3.955  1.00  0.00    -0.200 F 
ATOM     98  C   UNL     1     -16.976  18.069  -3.683  1.00  0.00     0.200 A 
ATOM     99  F   UNL     1     -15.887  20.145  -3.405  1.00  0.00    -0.200 F 
ATOM    100  F   UNL     1     -18.068  18.688  -4.153  1.00  0.00    -0.200 F 
ENDBRANCH  67  90
ENDBRANCH  41  42
ENDBRANCH  34  36
ENDBRANCH  33  34
ENDBRANCH  32  33
ENDBRANCH  31  32
ENDBRANCH  30  31
ENDBRANCH  29  30
ENDBRANCH  28  29
ENDBRANCH  27  28
ENDBRANCH   1  27
TORSDOF 23
