REMARK SMILES C/C(=N\[NH+]=C1\NC(=O)[C@H](CC(=O)OCCOCCOCCOCCOC(=O)c2ccc(-c3c4nc(c(-c5c(F)c(F)c(F)c(F)c5F)c5ccc([nH]5)c(-c5c(F)c(F)c(F)c(F)c5F)c5nc(c(-c6c(F)c(F)c(F)c(F)c6F)c6ccc3[nH]6)C=C5)C=C4)cc2)S1)c1ccc([N+](=O)[O-])cc1
REMARK SMILES IDX 18 1 17 2 16 3 15 4 14 5 13 6 11 7 12 8 10 9 9 10 4 11 5 12
REMARK SMILES IDX 6 14 91 15 7 16 8 18 3 19 1 20 2 21 92 22 93 23 100 24 94 25
REMARK SMILES IDX 99 26 95 27 96 28 97 29 98 30 19 31 20 32 21 33 22 34 23 35
REMARK SMILES IDX 24 36 25 37 26 38 27 39 28 40 29 41 90 42 30 43 89 44 31 45
REMARK SMILES IDX 32 46 33 47 83 48 34 49 88 50 82 51 84 52 35 53 87 54 81 55
REMARK SMILES IDX 80 56 36 58 68 59 48 60 67 61 49 62 52 63 66 64 85 65 50 66
REMARK SMILES IDX 51 67 65 69 86 70 53 71 37 72 38 73 46 74 39 75 40 76 44 77
REMARK SMILES IDX 47 78 41 79 42 80 45 81 43 82 69 83 70 84 78 85 71 86 72 87
REMARK SMILES IDX 76 88 79 89 73 90 74 91 77 92 75 93 54 94 55 95 63 96 56 97
REMARK SMILES IDX 57 98 61 99 64 100 58 101 59 102 62 103 60 104
REMARK H PARENT 4 13 6 17 84 57 52 68
REMARK Flexibility Score: inf
ROOT
ATOM      1  C   UNL     1      -1.366   1.857   4.917  1.00  0.00     0.188 C 
ENDROOT
BRANCH   1   2
ATOM      2  C   UNL     1      -2.483   2.812   5.365  1.00  0.00     0.188 C 
BRANCH   2   3
ATOM      3  O   UNL     1      -3.007   2.500   6.636  1.00  0.00    -0.376 OA
BRANCH   3   4
ATOM      4  C   UNL     1      -4.266   1.862   6.753  1.00  0.00     0.202 C 
BRANCH   4   5
ATOM      5  C   UNL     1      -4.769   0.791   5.767  1.00  0.00     0.261 C 
BRANCH   5   6
ATOM      6  O   UNL     1      -4.076   0.674   4.519  1.00  0.00    -0.463 OA
BRANCH   6   7
ATOM      7  C   UNL     1      -4.733   1.103   3.425  1.00  0.00     0.307 C 
ATOM      8  O   UNL     1      -5.795   1.717   3.454  1.00  0.00    -0.252 OA
BRANCH   7   9
ATOM      9  C   UNL     1      -4.005   0.871   2.127  1.00  0.00     0.150 C 
BRANCH   9  10
ATOM     10  C   UNL     1      -2.780  -0.015   2.078  1.00  0.00     0.184 C 
ATOM     11  N   UNL     1      -0.529  -2.336   0.055  1.00  0.00    -0.142 N 
ATOM     12  C   UNL     1      -1.447  -1.726   0.727  1.00  0.00     0.337 C 
ATOM     13  H   UNL     1      -0.058  -3.125   0.408  1.00  0.00     0.343 HD
ATOM     14  N   UNL     1      -1.881  -2.194   1.925  1.00  0.00    -0.202 N 
ATOM     15  S   UNL     1      -2.272  -0.244   0.328  1.00  0.00    -0.020 SA
ATOM     16  C   UNL     1      -2.793  -1.435   2.618  1.00  0.00     0.322 C 
ATOM     17  H   UNL     1      -1.554  -3.050   2.285  1.00  0.00     0.316 HD
ATOM     18  O   UNL     1      -3.449  -1.860   3.556  1.00  0.00    -0.246 OA
BRANCH  11  19
ATOM     19  N   UNL     1      -0.244  -1.804  -1.206  1.00  0.00    -0.090 NA
ATOM     20  C   UNL     1       1.370  -0.257  -0.080  1.00  0.00     0.071 C 
ATOM     21  C   UNL     1       0.666  -0.874  -1.274  1.00  0.00     0.088 C 
BRANCH  21  22
ATOM     22  C   UNL     1       0.997  -0.314  -2.621  1.00  0.00    -0.000 A 
ATOM     23  C   UNL     1      -0.010  -0.222  -3.594  1.00  0.00     0.017 A 
ATOM     24  C   UNL     1       2.298   0.104  -2.930  1.00  0.00     0.017 A 
ATOM     25  C   UNL     1       0.276   0.295  -4.864  1.00  0.00     0.086 A 
ATOM     26  C   UNL     1       2.594   0.613  -4.199  1.00  0.00     0.086 A 
ATOM     27  C   UNL     1       1.581   0.709  -5.162  1.00  0.00     0.269 A 
BRANCH  27  28
ATOM     28  N   UNL     1       1.894   1.243  -6.494  1.00  0.00     0.062 N 
ATOM     29  O   UNL     1       0.975   1.308  -7.321  1.00  0.00    -0.258 OA
ATOM     30  O   UNL     1       3.061   1.601  -6.709  1.00  0.00    -0.258 OA
ENDBRANCH  27  28
ENDBRANCH  21  22
ENDBRANCH  11  19
ENDBRANCH   9  10
ENDBRANCH   7   9
ENDBRANCH   6   7
ENDBRANCH   5   6
ENDBRANCH   4   5
ENDBRANCH   3   4
ENDBRANCH   2   3
ENDBRANCH   1   2
BRANCH   1  31
ATOM     31  O   UNL     1      -1.412   0.507   5.357  1.00  0.00    -0.377 OA
BRANCH  31  32
ATOM     32  C   UNL     1      -1.314   0.217   6.755  1.00  0.00     0.188 C 
BRANCH  32  33
ATOM     33  C   UNL     1      -0.789   1.256   7.776  1.00  0.00     0.188 C 
BRANCH  33  34
ATOM     34  O   UNL     1      -0.046   2.327   7.221  1.00  0.00    -0.376 OA
BRANCH  34  35
ATOM     35  C   UNL     1       1.369   2.256   7.296  1.00  0.00     0.202 C 
BRANCH  35  36
ATOM     36  C   UNL     1       2.036   1.085   6.559  1.00  0.00     0.261 C 
BRANCH  36  37
ATOM     37  O   UNL     1       1.673  -0.227   7.024  1.00  0.00    -0.460 OA
BRANCH  37  38
ATOM     38  C   UNL     1       1.949  -0.517   8.309  1.00  0.00     0.338 C 
ATOM     39  O   UNL     1       2.533   0.190   9.121  1.00  0.00    -0.246 OA
BRANCH  38  40
ATOM     40  C   UNL     1       1.270  -1.776   8.659  1.00  0.00     0.060 A 
ATOM     41  C   UNL     1       0.321  -1.765   9.689  1.00  0.00     0.016 A 
ATOM     42  C   UNL     1       1.601  -2.967   8.008  1.00  0.00     0.016 A 
ATOM     43  C   UNL     1      -0.253  -2.959  10.116  1.00  0.00     0.010 A 
ATOM     44  C   UNL     1       1.036  -4.167   8.450  1.00  0.00     0.010 A 
ATOM     45  C   UNL     1       0.147  -4.172   9.540  1.00  0.00    -0.014 A 
BRANCH  45  46
ATOM     46  C   UNL     1      -0.183  -5.438  10.240  1.00  0.00     0.031 A 
ATOM     47  C   UNL     1       0.863  -6.049  11.135  1.00  0.00     0.074 A 
ATOM     48  C   UNL     1      -1.401  -5.996  10.144  1.00  0.00     0.049 A 
ATOM     49  N   UNL     1       0.806  -7.133  11.867  1.00  0.00    -0.248 NA
ATOM     50  C   UNL     1       2.149  -5.337  11.215  1.00  0.00     0.031 C 
ATOM     51  C   UNL     1      -2.509  -5.477   9.347  1.00  0.00     0.029 A 
ATOM     52  N   UNL     1      -1.908  -7.128  10.733  1.00  0.00    -0.354 N 
ATOM     53  C   UNL     1       2.045  -7.232  12.488  1.00  0.00     0.074 A 
ATOM     54  C   UNL     1       2.847  -6.125  12.017  1.00  0.00     0.031 C 
ATOM     55  C   UNL     1      -3.569  -6.291   9.494  1.00  0.00     0.029 A 
ATOM     56  C   UNL     1      -3.204  -7.402  10.373  1.00  0.00     0.049 A 
ATOM     57  H   UNL     1      -1.391  -7.690  11.354  1.00  0.00     0.167 HD
ATOM     58  C   UNL     1       2.472  -8.154  13.384  1.00  0.00     0.037 A 
ATOM     59  C   UNL     1      -3.995  -8.440  10.707  1.00  0.00     0.037 A 
ATOM     60  C   UNL     1       1.673  -9.256  13.851  1.00  0.00     0.049 A 
ATOM     61  C   UNL     1      -3.471  -9.494  11.651  1.00  0.00     0.074 A 
ATOM     62  C   UNL     1       2.008 -10.240  14.764  1.00  0.00     0.029 A 
ATOM     63  N   UNL     1       0.378  -9.525  13.431  1.00  0.00    -0.354 N 
ATOM     64  N   UNL     1      -2.310  -9.567  12.256  1.00  0.00    -0.248 NA
ATOM     65  C   UNL     1      -4.379 -10.606  11.967  1.00  0.00     0.031 C 
ATOM     66  C   UNL     1       0.940 -11.139  14.850  1.00  0.00     0.029 A 
ATOM     67  C   UNL     1      -0.089 -10.677  14.045  1.00  0.00     0.049 A 
ATOM     68  H   UNL     1      -0.133  -8.979  12.790  1.00  0.00     0.167 HD
ATOM     69  C   UNL     1      -2.358 -10.711  13.045  1.00  0.00     0.074 A 
ATOM     70  C   UNL     1      -3.674 -11.286  12.859  1.00  0.00     0.031 C 
ATOM     71  C   UNL     1      -1.403 -11.238  13.851  1.00  0.00     0.037 A 
BRANCH  58  72
ATOM     72  C   UNL     1       3.880  -8.026  13.891  1.00  0.00     0.064 A 
ATOM     73  C   UNL     1       4.272  -6.977  14.738  1.00  0.00     0.173 A 
ATOM     74  C   UNL     1       4.849  -8.978  13.539  1.00  0.00     0.173 A 
ATOM     75  F   UNL     1       3.390  -6.029  15.092  1.00  0.00    -0.203 F 
ATOM     76  C   UNL     1       5.586  -6.871  15.188  1.00  0.00     0.198 A 
ATOM     77  C   UNL     1       6.153  -8.888  14.018  1.00  0.00     0.198 A 
ATOM     78  F   UNL     1       4.529 -10.001  12.732  1.00  0.00    -0.203 F 
ATOM     79  F   UNL     1       5.949  -5.830  15.949  1.00  0.00    -0.200 F 
ATOM     80  C   UNL     1       6.523  -7.830  14.834  1.00  0.00     0.200 A 
ATOM     81  F   UNL     1       7.053  -9.823  13.685  1.00  0.00    -0.200 F 
ATOM     82  F   UNL     1       7.785  -7.730  15.273  1.00  0.00    -0.200 F 
ENDBRANCH  58  72
BRANCH  59  83
ATOM     83  C   UNL     1      -5.369  -8.544  10.144  1.00  0.00     0.064 A 
ATOM     84  C   UNL     1      -6.501  -8.445  10.964  1.00  0.00     0.173 A 
ATOM     85  C   UNL     1      -5.575  -8.783   8.777  1.00  0.00     0.173 A 
ATOM     86  F   UNL     1      -6.358  -8.245  12.283  1.00  0.00    -0.203 F 
ATOM     87  C   UNL     1      -7.784  -8.607  10.444  1.00  0.00     0.198 A 
ATOM     88  C   UNL     1      -6.859  -8.911   8.252  1.00  0.00     0.198 A 
ATOM     89  F   UNL     1      -4.526  -8.891   7.948  1.00  0.00    -0.203 F 
ATOM     90  F   UNL     1      -8.845  -8.568  11.262  1.00  0.00    -0.200 F 
ATOM     91  C   UNL     1      -7.963  -8.834   9.088  1.00  0.00     0.200 A 
ATOM     92  F   UNL     1      -7.027  -9.118   6.939  1.00  0.00    -0.200 F 
ATOM     93  F   UNL     1      -9.196  -8.990   8.589  1.00  0.00    -0.200 F 
ENDBRANCH  59  83
BRANCH  71  94
ATOM     94  C   UNL     1      -1.761 -12.478  14.625  1.00  0.00     0.064 A 
ATOM     95  C   UNL     1      -1.979 -13.711  13.993  1.00  0.00     0.173 A 
ATOM     96  C   UNL     1      -1.878 -12.431  16.024  1.00  0.00     0.173 A 
ATOM     97  F   UNL     1      -1.890 -13.811  12.658  1.00  0.00    -0.203 F 
ATOM     98  C   UNL     1      -2.347 -14.838  14.725  1.00  0.00     0.198 A 
ATOM     99  C   UNL     1      -2.206 -13.569  16.756  1.00  0.00     0.198 A 
ATOM    100  F   UNL     1      -1.668 -11.282  16.683  1.00  0.00    -0.203 F 
ATOM    101  F   UNL     1      -2.620 -15.987  14.091  1.00  0.00    -0.200 F 
ATOM    102  C   UNL     1      -2.454 -14.768  16.105  1.00  0.00     0.200 A 
ATOM    103  F   UNL     1      -2.290 -13.503  18.092  1.00  0.00    -0.200 F 
ATOM    104  F   UNL     1      -2.809 -15.852  16.808  1.00  0.00    -0.200 F 
ENDBRANCH  71  94
ENDBRANCH  45  46
ENDBRANCH  38  40
ENDBRANCH  37  38
ENDBRANCH  36  37
ENDBRANCH  35  36
ENDBRANCH  34  35
ENDBRANCH  33  34
ENDBRANCH  32  33
ENDBRANCH  31  32
ENDBRANCH   1  31
TORSDOF 24
