REMARK SMILES COc1ccc(Br)c([C@H]2[NH2+][C@H](C(=O)OCCOCCOCCOCCOC(=O)c3ccc(-c4c5nc(c(-c6c(F)c(F)c(F)c(F)c6F)c6ccc([nH]6)c(-c6c(F)c(F)c(F)c(F)c6F)c6nc(c(-c7c(F)c(F)c(F)c(F)c7F)c7ccc4[nH]7)C=C6)C=C5)cc3)CS2)c1O
REMARK SMILES IDX 20 1 19 2 18 3 17 4 16 5 15 6 14 7 12 8 13 9 11 10 9 11
REMARK SMILES IDX 10 12 93 13 92 16 8 17 3 18 4 19 94 20 5 21 6 22 7 23 2 24
REMARK SMILES IDX 1 25 95 26 21 28 22 29 23 30 24 31 25 32 26 33 27 34 28 35
REMARK SMILES IDX 29 36 30 37 91 38 31 39 90 40 32 41 33 42 34 43 84 44 35 45
REMARK SMILES IDX 89 46 83 47 85 48 36 49 88 50 82 51 81 52 37 54 69 55 49 56
REMARK SMILES IDX 68 57 50 58 53 59 67 60 86 61 51 62 52 63 66 65 87 66 54 67
REMARK SMILES IDX 38 68 39 69 47 70 40 71 41 72 45 73 48 74 42 75 43 76 46 77
REMARK SMILES IDX 44 78 70 79 71 80 79 81 72 82 73 83 77 84 80 85 74 86 75 87
REMARK SMILES IDX 78 88 76 89 55 90 56 91 64 92 57 93 58 94 62 95 65 96 59 97
REMARK SMILES IDX 60 98 63 99 61 100
REMARK H PARENT 10 14 10 15 95 27 85 53 53 64
REMARK Flexibility Score: inf
ROOT
ATOM      1  O   UNL     1       2.840   3.419   3.146  1.00  0.00    -0.377 OA
ENDROOT
BRANCH   1   2
ATOM      2  C   UNL     1       4.251   3.332   3.196  1.00  0.00     0.188 C 
BRANCH   2   3
ATOM      3  C   UNL     1       4.958   3.609   1.857  1.00  0.00     0.188 C 
BRANCH   3   4
ATOM      4  O   UNL     1       4.235   4.044   0.710  1.00  0.00    -0.376 OA
BRANCH   4   5
ATOM      5  C   UNL     1       2.902   3.613   0.486  1.00  0.00     0.202 C 
BRANCH   5   6
ATOM      6  C   UNL     1       2.547   2.114   0.480  1.00  0.00     0.261 C 
BRANCH   6   7
ATOM      7  O   UNL     1       3.158   1.285   1.491  1.00  0.00    -0.459 OA
BRANCH   7   8
ATOM      8  C   UNL     1       4.217   0.551   1.078  1.00  0.00     0.365 C 
ATOM      9  O   UNL     1       4.633   0.554  -0.081  1.00  0.00    -0.245 OA
BRANCH   8  10
ATOM     10  C   UNL     1       4.865  -0.363   2.125  1.00  0.00     0.304 C 
ATOM     11  C   UNL     1       3.646  -0.574   4.212  1.00  0.00     0.279 C 
ATOM     12  N   UNL     1       4.831   0.014   3.566  1.00  0.00    -0.319 N 
ATOM     13  S   UNL     1       3.143  -2.037   3.254  1.00  0.00    -0.087 SA
ATOM     14  H   UNL     1       5.673  -0.332   4.026  1.00  0.00     0.348 HD
ATOM     15  H   UNL     1       4.786   1.030   3.645  1.00  0.00     0.348 HD
ATOM     16  C   UNL     1       4.362  -1.781   1.943  1.00  0.00     0.153 C 
BRANCH  11  17
ATOM     17  C   UNL     1       3.852  -0.766   5.726  1.00  0.00     0.080 A 
ATOM     18  C   UNL     1       4.537  -2.097   7.701  1.00  0.00     0.161 A 
ATOM     19  C   UNL     1       4.175  -1.073   8.563  1.00  0.00     0.051 A 
ATOM     20  C   UNL     1       4.417  -1.927   6.304  1.00  0.00     0.169 A 
ATOM     21  C   UNL     1       3.667   0.104   8.036  1.00  0.00     0.020 A 
ATOM     22  C   UNL     1       3.477   0.243   6.648  1.00  0.00     0.032 A 
ATOM     23  Br  UNL     1       2.599   1.849   6.155  1.00  0.00    -0.050 Br
BRANCH  18  24
ATOM     24  O   UNL     1       4.831  -3.297   8.296  1.00  0.00    -0.493 OA
ATOM     25  C   UNL     1       6.146  -3.780   8.045  1.00  0.00     0.278 C 
ENDBRANCH  18  24
BRANCH  20  26
ATOM     26  O   UNL     1       4.825  -2.956   5.500  1.00  0.00    -0.504 OA
ATOM     27  H   UNL     1       5.200  -3.727   5.879  1.00  0.00     0.293 HD
ENDBRANCH  20  26
ENDBRANCH  11  17
ENDBRANCH   8  10
ENDBRANCH   7   8
ENDBRANCH   6   7
ENDBRANCH   5   6
ENDBRANCH   4   5
ENDBRANCH   3   4
ENDBRANCH   2   3
ENDBRANCH   1   2
BRANCH   1  28
ATOM     28  C   UNL     1       2.255   4.582   3.706  1.00  0.00     0.188 C 
BRANCH  28  29
ATOM     29  C   UNL     1       2.903   5.931   3.361  1.00  0.00     0.188 C 
BRANCH  29  30
ATOM     30  O   UNL     1       4.295   5.977   3.645  1.00  0.00    -0.376 OA
BRANCH  30  31
ATOM     31  C   UNL     1       4.720   6.575   4.862  1.00  0.00     0.202 C 
BRANCH  31  32
ATOM     32  C   UNL     1       4.388   5.856   6.183  1.00  0.00     0.261 C 
BRANCH  32  33
ATOM     33  O   UNL     1       3.004   5.581   6.452  1.00  0.00    -0.460 OA
BRANCH  33  34
ATOM     34  C   UNL     1       2.141   6.614   6.502  1.00  0.00     0.338 C 
ATOM     35  O   UNL     1       2.407   7.800   6.404  1.00  0.00    -0.246 OA
BRANCH  34  36
ATOM     36  C   UNL     1       0.767   6.061   6.496  1.00  0.00     0.060 A 
ATOM     37  C   UNL     1      -0.108   6.441   5.469  1.00  0.00     0.016 A 
ATOM     38  C   UNL     1       0.342   5.173   7.487  1.00  0.00     0.016 A 
ATOM     39  C   UNL     1      -1.422   5.969   5.456  1.00  0.00     0.010 A 
ATOM     40  C   UNL     1      -0.982   4.719   7.486  1.00  0.00     0.010 A 
ATOM     41  C   UNL     1      -1.881   5.146   6.492  1.00  0.00    -0.014 A 
BRANCH  41  42
ATOM     42  C   UNL     1      -3.339   4.910   6.651  1.00  0.00     0.031 A 
ATOM     43  C   UNL     1      -4.095   5.761   7.635  1.00  0.00     0.074 A 
ATOM     44  C   UNL     1      -3.991   3.987   5.921  1.00  0.00     0.049 A 
ATOM     45  N   UNL     1      -5.356   5.717   7.985  1.00  0.00    -0.248 NA
ATOM     46  C   UNL     1      -3.318   6.807   8.321  1.00  0.00     0.031 C 
ATOM     47  C   UNL     1      -3.387   3.133   4.903  1.00  0.00     0.029 A 
ATOM     48  N   UNL     1      -5.313   3.613   5.937  1.00  0.00    -0.354 N 
ATOM     49  C   UNL     1      -5.519   6.720   8.932  1.00  0.00     0.074 A 
ATOM     50  C   UNL     1      -4.224   7.333   9.130  1.00  0.00     0.031 C 
ATOM     51  C   UNL     1      -4.333   2.321   4.400  1.00  0.00     0.029 A 
ATOM     52  C   UNL     1      -5.601   2.575   5.085  1.00  0.00     0.049 A 
ATOM     53  H   UNL     1      -5.989   4.048   6.505  1.00  0.00     0.167 HD
ATOM     54  C   UNL     1      -6.649   7.103   9.573  1.00  0.00     0.037 A 
ATOM     55  C   UNL     1      -6.750   1.894   4.902  1.00  0.00     0.037 A 
ATOM     56  C   UNL     1      -7.936   6.489   9.379  1.00  0.00     0.049 A 
ATOM     57  C   UNL     1      -7.977   2.282   5.691  1.00  0.00     0.074 A 
ATOM     58  C   UNL     1      -9.144   6.813   9.971  1.00  0.00     0.029 A 
ATOM     59  N   UNL     1      -8.180   5.417   8.533  1.00  0.00    -0.354 N 
ATOM     60  N   UNL     1      -8.131   3.245   6.568  1.00  0.00    -0.248 NA
ATOM     61  C   UNL     1      -9.193   1.488   5.461  1.00  0.00     0.031 C 
ATOM     62  C   UNL     1     -10.105   5.896   9.534  1.00  0.00     0.029 A 
ATOM     63  C   UNL     1      -9.513   5.046   8.613  1.00  0.00     0.049 A 
ATOM     64  H   UNL     1      -7.506   4.983   7.962  1.00  0.00     0.167 HD
ATOM     65  C   UNL     1      -9.462   3.195   6.965  1.00  0.00     0.074 A 
ATOM     66  C   UNL     1     -10.076   2.114   6.224  1.00  0.00     0.031 C 
ATOM     67  C   UNL     1     -10.117   3.974   7.862  1.00  0.00     0.037 A 
BRANCH  54  68
ATOM     68  C   UNL     1      -6.535   8.219  10.571  1.00  0.00     0.064 A 
ATOM     69  C   UNL     1      -6.280   9.542  10.179  1.00  0.00     0.173 A 
ATOM     70  C   UNL     1      -6.713   7.965  11.940  1.00  0.00     0.173 A 
ATOM     71  F   UNL     1      -6.087   9.837   8.884  1.00  0.00    -0.203 F 
ATOM     72  C   UNL     1      -6.176  10.562  11.121  1.00  0.00     0.198 A 
ATOM     73  C   UNL     1      -6.643   8.993  12.876  1.00  0.00     0.198 A 
ATOM     74  F   UNL     1      -6.962   6.719  12.371  1.00  0.00    -0.203 F 
ATOM     75  F   UNL     1      -5.877  11.808  10.728  1.00  0.00    -0.200 F 
ATOM     76  C   UNL     1      -6.366  10.288  12.468  1.00  0.00     0.200 A 
ATOM     77  F   UNL     1      -6.841   8.729  14.175  1.00  0.00    -0.200 F 
ATOM     78  F   UNL     1      -6.274  11.272  13.373  1.00  0.00    -0.200 F 
ENDBRANCH  54  68
BRANCH  55  79
ATOM     79  C   UNL     1      -6.797   0.756   3.944  1.00  0.00     0.064 A 
ATOM     80  C   UNL     1      -7.576   0.817   2.780  1.00  0.00     0.173 A 
ATOM     81  C   UNL     1      -6.090  -0.431   4.190  1.00  0.00     0.173 A 
ATOM     82  F   UNL     1      -8.296   1.917   2.513  1.00  0.00    -0.203 F 
ATOM     83  C   UNL     1      -7.663  -0.270   1.912  1.00  0.00     0.198 A 
ATOM     84  C   UNL     1      -6.151  -1.505   3.305  1.00  0.00     0.198 A 
ATOM     85  F   UNL     1      -5.335  -0.547   5.293  1.00  0.00    -0.203 F 
ATOM     86  F   UNL     1      -8.460  -0.203   0.837  1.00  0.00    -0.200 F 
ATOM     87  C   UNL     1      -6.945  -1.427   2.171  1.00  0.00     0.200 A 
ATOM     88  F   UNL     1      -5.447  -2.618   3.555  1.00  0.00    -0.200 F 
ATOM     89  F   UNL     1      -7.028  -2.472   1.336  1.00  0.00    -0.200 F 
ENDBRANCH  55  79
BRANCH  67  90
ATOM     90  C   UNL     1     -11.586   3.724   8.061  1.00  0.00     0.064 A 
ATOM     91  C   UNL     1     -12.064   2.570   8.700  1.00  0.00     0.173 A 
ATOM     92  C   UNL     1     -12.529   4.679   7.646  1.00  0.00     0.173 A 
ATOM     93  F   UNL     1     -11.208   1.620   9.106  1.00  0.00    -0.203 F 
ATOM     94  C   UNL     1     -13.429   2.368   8.888  1.00  0.00     0.198 A 
ATOM     95  C   UNL     1     -13.890   4.491   7.869  1.00  0.00     0.198 A 
ATOM     96  F   UNL     1     -12.128   5.807   7.040  1.00  0.00    -0.203 F 
ATOM     97  F   UNL     1     -13.865   1.233   9.453  1.00  0.00    -0.200 F 
ATOM     98  C   UNL     1     -14.340   3.331   8.481  1.00  0.00     0.200 A 
ATOM     99  F   UNL     1     -14.766   5.432   7.492  1.00  0.00    -0.200 F 
ATOM    100  F   UNL     1     -15.652   3.139   8.673  1.00  0.00    -0.200 F 
ENDBRANCH  67  90
ENDBRANCH  41  42
ENDBRANCH  34  36
ENDBRANCH  33  34
ENDBRANCH  32  33
ENDBRANCH  31  32
ENDBRANCH  30  31
ENDBRANCH  29  30
ENDBRANCH  28  29
ENDBRANCH   1  28
TORSDOF 23
