REMARK SMILES O=C(OCCOCCOCCOCCOC(=O)[C@@H]1CCN(C(=O)c2c(F)cc(Br)cc2F)C1)c1ccc(-c2c3nc(c(-c4c(F)c(F)c(F)c(F)c4F)c4ccc([nH]4)c(-c4c(F)c(F)c(F)c(F)c4F)c4nc(c(-c5c(F)c(F)c(F)c(F)c5F)c5ccc2[nH]5)C=C4)C=C3)cc1
REMARK SMILES IDX 9 1 8 2 7 3 6 4 5 5 4 6 3 7 2 8 1 9 34 10 35 11 96 12 36 13
REMARK SMILES IDX 95 14 37 15 38 16 39 17 89 18 40 19 94 20 88 21 90 22 41 23
REMARK SMILES IDX 93 24 87 25 86 26 42 28 74 29 54 30 73 31 55 32 58 33 72 34
REMARK SMILES IDX 91 35 56 36 57 37 71 39 92 40 59 41 43 42 44 43 52 44 45 45
REMARK SMILES IDX 46 46 50 47 53 48 47 49 48 50 51 51 49 52 75 53 76 54 84 55
REMARK SMILES IDX 77 56 78 57 82 58 85 59 79 60 80 61 83 62 81 63 60 64 61 65
REMARK SMILES IDX 69 66 62 67 63 68 67 69 70 70 64 71 65 72 68 73 66 74 10 75
REMARK SMILES IDX 11 76 12 77 13 78 14 79 15 80 16 81 17 82 18 83 19 84 33 85
REMARK SMILES IDX 20 86 21 87 22 88 23 89 24 90 25 91 31 92 26 93 27 94 30 95
REMARK SMILES IDX 32 96 28 97 29 98
REMARK H PARENT 90 27 58 38
REMARK Flexibility Score: inf
ROOT
ATOM      1  O   UNL     1       2.334  -0.279  -3.827  1.00  0.00    -0.377 OA
ENDROOT
BRANCH   1   2
ATOM      2  C   UNL     1       1.683   0.102  -2.626  1.00  0.00     0.188 C 
BRANCH   2   3
ATOM      3  C   UNL     1       2.228  -0.477  -1.328  1.00  0.00     0.188 C 
BRANCH   3   4
ATOM      4  O   UNL     1       3.563  -0.033  -1.104  1.00  0.00    -0.376 OA
BRANCH   4   5
ATOM      5  C   UNL     1       4.468  -0.981  -0.531  1.00  0.00     0.202 C 
BRANCH   5   6
ATOM      6  C   UNL     1       4.158  -1.420   0.899  1.00  0.00     0.261 C 
BRANCH   6   7
ATOM      7  O   UNL     1       2.804  -1.192   1.325  1.00  0.00    -0.460 OA
BRANCH   7   8
ATOM      8  C   UNL     1       2.210  -0.072   1.807  1.00  0.00     0.338 C 
ATOM      9  O   UNL     1       1.038  -0.144   2.163  1.00  0.00    -0.246 OA
BRANCH   8  10
ATOM     10  C   UNL     1       2.879   1.260   1.915  1.00  0.00     0.060 A 
ATOM     11  C   UNL     1       3.985   1.667   1.177  1.00  0.00     0.016 A 
ATOM     12  C   UNL     1       2.307   2.197   2.792  1.00  0.00     0.016 A 
ATOM     13  C   UNL     1       4.574   2.901   1.342  1.00  0.00     0.010 A 
ATOM     14  C   UNL     1       2.886   3.457   2.973  1.00  0.00     0.010 A 
ATOM     15  C   UNL     1       4.056   3.780   2.279  1.00  0.00    -0.014 A 
BRANCH  15  16
ATOM     16  C   UNL     1       4.963   4.853   2.703  1.00  0.00     0.031 A 
ATOM     17  C   UNL     1       5.700   4.637   3.989  1.00  0.00     0.074 A 
ATOM     18  C   UNL     1       5.286   5.835   1.846  1.00  0.00     0.049 A 
ATOM     19  N   UNL     1       6.507   5.432   4.632  1.00  0.00    -0.248 NA
ATOM     20  C   UNL     1       5.511   3.324   4.636  1.00  0.00     0.031 C 
ATOM     21  C   UNL     1       4.776   5.964   0.478  1.00  0.00     0.029 A 
ATOM     22  N   UNL     1       6.162   6.874   1.976  1.00  0.00    -0.354 N 
ATOM     23  C   UNL     1       6.860   4.745   5.787  1.00  0.00     0.074 A 
ATOM     24  C   UNL     1       6.199   3.464   5.755  1.00  0.00     0.031 C 
ATOM     25  C   UNL     1       5.372   7.011  -0.114  1.00  0.00     0.029 A 
ATOM     26  C   UNL     1       6.225   7.674   0.863  1.00  0.00     0.049 A 
ATOM     27  H   UNL     1       6.695   7.034   2.788  1.00  0.00     0.167 HD
ATOM     28  C   UNL     1       7.655   5.177   6.790  1.00  0.00     0.037 A 
ATOM     29  C   UNL     1       6.872   8.840   0.695  1.00  0.00     0.037 A 
ATOM     30  C   UNL     1       8.309   6.455   6.750  1.00  0.00     0.049 A 
ATOM     31  C   UNL     1       7.657   9.360   1.869  1.00  0.00     0.074 A 
ATOM     32  C   UNL     1       9.074   7.075   7.716  1.00  0.00     0.029 A 
ATOM     33  N   UNL     1       8.268   7.310   5.652  1.00  0.00    -0.354 N 
ATOM     34  N   UNL     1       7.885   8.788   3.031  1.00  0.00    -0.248 NA
ATOM     35  C   UNL     1       8.255  10.690   1.726  1.00  0.00     0.031 C 
ATOM     36  C   UNL     1       9.448   8.330   7.222  1.00  0.00     0.029 A 
ATOM     37  C   UNL     1       8.977   8.463   5.922  1.00  0.00     0.049 A 
ATOM     38  H   UNL     1       7.800   7.119   4.807  1.00  0.00     0.167 HD
ATOM     39  C   UNL     1       8.674   9.672   3.748  1.00  0.00     0.074 A 
ATOM     40  C   UNL     1       8.894  10.816   2.880  1.00  0.00     0.031 C 
ATOM     41  C   UNL     1       9.175   9.560   5.005  1.00  0.00     0.037 A 
BRANCH  28  42
ATOM     42  C   UNL     1       7.726   4.317   8.018  1.00  0.00     0.064 A 
ATOM     43  C   UNL     1       8.351   3.060   8.030  1.00  0.00     0.173 A 
ATOM     44  C   UNL     1       7.063   4.725   9.187  1.00  0.00     0.173 A 
ATOM     45  F   UNL     1       8.965   2.600   6.929  1.00  0.00    -0.203 F 
ATOM     46  C   UNL     1       8.268   2.227   9.146  1.00  0.00     0.198 A 
ATOM     47  C   UNL     1       7.011   3.905  10.311  1.00  0.00     0.198 A 
ATOM     48  F   UNL     1       6.435   5.909   9.229  1.00  0.00    -0.203 F 
ATOM     49  F   UNL     1       8.796   0.995   9.102  1.00  0.00    -0.200 F 
ATOM     50  C   UNL     1       7.600   2.651  10.284  1.00  0.00     0.200 A 
ATOM     51  F   UNL     1       6.364   4.318  11.409  1.00  0.00    -0.200 F 
ATOM     52  F   UNL     1       7.503   1.841  11.348  1.00  0.00    -0.200 F 
ENDBRANCH  28  42
BRANCH  29  53
ATOM     53  C   UNL     1       6.750   9.598  -0.579  1.00  0.00     0.064 A 
ATOM     54  C   UNL     1       7.865   9.843  -1.391  1.00  0.00     0.173 A 
ATOM     55  C   UNL     1       5.511  10.098  -1.016  1.00  0.00     0.173 A 
ATOM     56  F   UNL     1       9.076   9.406  -1.015  1.00  0.00    -0.203 F 
ATOM     57  C   UNL     1       7.750  10.569  -2.577  1.00  0.00     0.198 A 
ATOM     58  C   UNL     1       5.391  10.794  -2.216  1.00  0.00     0.198 A 
ATOM     59  F   UNL     1       4.407   9.898  -0.279  1.00  0.00    -0.203 F 
ATOM     60  F   UNL     1       8.842  10.827  -3.310  1.00  0.00    -0.200 F 
ATOM     61  C   UNL     1       6.513  11.037  -2.992  1.00  0.00     0.200 A 
ATOM     62  F   UNL     1       4.190  11.231  -2.619  1.00  0.00    -0.200 F 
ATOM     63  F   UNL     1       6.403  11.731  -4.133  1.00  0.00    -0.200 F 
ENDBRANCH  29  53
BRANCH  41  64
ATOM     64  C   UNL     1      10.060  10.674   5.473  1.00  0.00     0.064 A 
ATOM     65  C   UNL     1       9.550  11.937   5.801  1.00  0.00     0.173 A 
ATOM     66  C   UNL     1      11.434  10.447   5.641  1.00  0.00     0.173 A 
ATOM     67  F   UNL     1       8.244  12.201   5.641  1.00  0.00    -0.203 F 
ATOM     68  C   UNL     1      10.392  12.947   6.252  1.00  0.00     0.198 A 
ATOM     69  C   UNL     1      12.266  11.447   6.129  1.00  0.00     0.198 A 
ATOM     70  F   UNL     1      11.963   9.249   5.350  1.00  0.00    -0.203 F 
ATOM     71  F   UNL     1       9.897  14.165   6.507  1.00  0.00    -0.200 F 
ATOM     72  C   UNL     1      11.747  12.698   6.425  1.00  0.00     0.200 A 
ATOM     73  F   UNL     1      13.570  11.199   6.314  1.00  0.00    -0.200 F 
ATOM     74  F   UNL     1      12.555  13.669   6.872  1.00  0.00    -0.200 F 
ENDBRANCH  41  64
ENDBRANCH  15  16
ENDBRANCH   8  10
ENDBRANCH   7   8
ENDBRANCH   6   7
ENDBRANCH   5   6
ENDBRANCH   4   5
ENDBRANCH   3   4
ENDBRANCH   2   3
ENDBRANCH   1   2
BRANCH   1  75
ATOM     75  C   UNL     1       3.703  -0.625  -3.736  1.00  0.00     0.188 C 
BRANCH  75  76
ATOM     76  C   UNL     1       4.790   0.468  -3.653  1.00  0.00     0.188 C 
BRANCH  76  77
ATOM     77  O   UNL     1       4.453   1.837  -3.634  1.00  0.00    -0.376 OA
BRANCH  77  78
ATOM     78  C   UNL     1       3.487   2.343  -4.530  1.00  0.00     0.202 C 
BRANCH  78  79
ATOM     79  C   UNL     1       3.308   1.843  -5.979  1.00  0.00     0.261 C 
BRANCH  79  80
ATOM     80  O   UNL     1       3.634   0.479  -6.300  1.00  0.00    -0.463 OA
BRANCH  80  81
ATOM     81  C   UNL     1       4.855   0.245  -6.843  1.00  0.00     0.310 C 
ATOM     82  O   UNL     1       5.716   1.109  -6.994  1.00  0.00    -0.252 OA
BRANCH  81  83
ATOM     83  C   UNL     1       5.085  -1.211  -7.230  1.00  0.00     0.120 C 
ATOM     84  C   UNL     1       3.849  -1.964  -7.730  1.00  0.00     0.039 C 
ATOM     85  C   UNL     1       5.680  -2.106  -6.139  1.00  0.00     0.135 C 
ATOM     86  C   UNL     1       3.450  -2.896  -6.601  1.00  0.00     0.121 C 
ATOM     87  N   UNL     1       4.681  -3.136  -5.864  1.00  0.00    -0.338 N 
BRANCH  87  88
ATOM     88  C   UNL     1       4.883  -4.122  -4.913  1.00  0.00     0.259 C 
ATOM     89  O   UNL     1       5.735  -4.036  -4.021  1.00  0.00    -0.269 OA
BRANCH  88  90
ATOM     90  C   UNL     1       4.108  -5.367  -5.034  1.00  0.00     0.111 A 
ATOM     91  C   UNL     1       4.162  -6.075  -6.236  1.00  0.00     0.140 A 
ATOM     92  C   UNL     1       3.384  -5.901  -3.972  1.00  0.00     0.140 A 
ATOM     93  F   UNL     1       4.891  -5.620  -7.266  1.00  0.00    -0.206 F 
ATOM     94  C   UNL     1       3.452  -7.259  -6.410  1.00  0.00     0.056 A 
ATOM     95  C   UNL     1       2.673  -7.095  -4.126  1.00  0.00     0.056 A 
ATOM     96  F   UNL     1       3.324  -5.271  -2.790  1.00  0.00    -0.206 F 
ATOM     97  C   UNL     1       2.703  -7.762  -5.351  1.00  0.00     0.023 A 
ATOM     98  Br  UNL     1       1.718  -9.357  -5.587  1.00  0.00    -0.051 Br
ENDBRANCH  88  90
ENDBRANCH  87  88
ENDBRANCH  81  83
ENDBRANCH  80  81
ENDBRANCH  79  80
ENDBRANCH  78  79
ENDBRANCH  77  78
ENDBRANCH  76  77
ENDBRANCH  75  76
ENDBRANCH   1  75
TORSDOF 22
