REMARK SMILES C[NH+](C)CC[NH2+][C@@H](C(=O)OCCOCCOCCOCCOC(=O)c1ccc(-c2c3nc(c(-c4c(F)c(F)c(F)c(F)c4F)c4ccc([nH]4)c(-c4c(F)c(F)c(F)c(F)c4F)c4nc(c(-c5c(F)c(F)c(F)c(F)c5F)c5ccc2[nH]5)C=C4)C=C3)cc1)c1cccc(C2CC2)c1
REMARK SMILES IDX 15 1 14 2 13 3 12 4 11 5 10 6 8 7 9 8 7 9 6 10 5 13 4 14
REMARK SMILES IDX 2 15 1 16 3 17 88 19 89 20 96 21 90 22 92 23 91 24 93 25
REMARK SMILES IDX 94 26 95 27 16 28 17 29 18 30 19 31 20 32 21 33 22 34 23 35
REMARK SMILES IDX 24 36 25 37 26 38 87 39 27 40 86 41 28 42 29 43 30 44 80 45
REMARK SMILES IDX 31 46 85 47 79 48 81 49 32 50 84 51 78 52 77 53 33 55 65 56
REMARK SMILES IDX 45 57 64 58 46 59 49 60 63 61 82 62 47 63 48 64 62 66 83 67
REMARK SMILES IDX 50 68 34 69 35 70 43 71 36 72 37 73 41 74 44 75 38 76 39 77
REMARK SMILES IDX 42 78 40 79 66 80 67 81 75 82 68 83 69 84 73 85 76 86 70 87
REMARK SMILES IDX 71 88 74 89 72 90 51 91 52 92 60 93 53 94 54 95 58 96 61 97
REMARK SMILES IDX 55 98 56 99 59 100 57 101
REMARK H PARENT 6 11 6 12 2 18 81 54 49 65
REMARK Flexibility Score: inf
ROOT
ATOM      1  C   UNL     1      -1.691  -1.306  -1.273  1.00  0.00     0.188 C 
ENDROOT
BRANCH   1   2
ATOM      2  C   UNL     1      -2.207  -1.838  -2.624  1.00  0.00     0.188 C 
BRANCH   2   3
ATOM      3  O   UNL     1      -3.426  -2.565  -2.686  1.00  0.00    -0.376 OA
BRANCH   3   4
ATOM      4  C   UNL     1      -3.763  -3.477  -1.652  1.00  0.00     0.202 C 
BRANCH   4   5
ATOM      5  C   UNL     1      -2.739  -4.504  -1.123  1.00  0.00     0.261 C 
BRANCH   5   6
ATOM      6  O   UNL     1      -1.385  -4.041  -0.921  1.00  0.00    -0.459 OA
BRANCH   6   7
ATOM      7  C   UNL     1      -0.445  -4.517  -1.775  1.00  0.00     0.369 C 
ATOM      8  O   UNL     1      -0.709  -5.355  -2.639  1.00  0.00    -0.245 OA
BRANCH   7   9
ATOM      9  C   UNL     1       0.997  -3.937  -1.627  1.00  0.00     0.324 C 
BRANCH   9  10
ATOM     10  N   UNL     1       1.369  -2.989  -0.553  1.00  0.00    -0.326 N 
ATOM     11  H   UNL     1       2.387  -3.011  -0.497  1.00  0.00     0.347 HD
ATOM     12  H   UNL     1       0.900  -2.136  -0.857  1.00  0.00     0.347 HD
BRANCH  10  13
ATOM     13  C   UNL     1       0.887  -3.122   0.809  1.00  0.00     0.323 C 
BRANCH  13  14
ATOM     14  C   UNL     1       1.602  -2.093   1.755  1.00  0.00     0.323 C 
BRANCH  14  15
ATOM     15  N   UNL     1       1.282  -0.652   1.707  1.00  0.00    -0.335 N 
ATOM     16  C   UNL     1       1.637   0.050   0.486  1.00  0.00     0.332 C 
ATOM     17  C   UNL     1      -0.062  -0.340   2.164  1.00  0.00     0.332 C 
ATOM     18  H   UNL     1       1.928  -0.265   2.395  1.00  0.00     0.347 HD
ENDBRANCH  14  15
ENDBRANCH  13  14
ENDBRANCH  10  13
ENDBRANCH   9  10
BRANCH   9  19
ATOM     19  C   UNL     1       1.447  -3.361  -2.990  1.00  0.00     0.021 A 
ATOM     20  C   UNL     1       1.948  -4.230  -3.965  1.00  0.00     0.010 A 
ATOM     21  C   UNL     1       1.307  -1.994  -3.339  1.00  0.00     0.014 A 
ATOM     22  C   UNL     1       2.317  -3.748  -5.219  1.00  0.00     0.001 A 
ATOM     23  C   UNL     1       1.663  -1.473  -4.598  1.00  0.00    -0.044 A 
ATOM     24  C   UNL     1       2.183  -2.390  -5.522  1.00  0.00     0.004 A 
BRANCH  23  25
ATOM     25  C   UNL     1       1.494  -0.015  -4.997  1.00  0.00     0.019 C 
ATOM     26  C   UNL     1       0.749   1.007  -4.171  1.00  0.00     0.009 C 
ATOM     27  C   UNL     1       2.247   1.060  -4.247  1.00  0.00     0.009 C 
ENDBRANCH  23  25
ENDBRANCH   9  19
ENDBRANCH   7   9
ENDBRANCH   6   7
ENDBRANCH   5   6
ENDBRANCH   4   5
ENDBRANCH   3   4
ENDBRANCH   2   3
ENDBRANCH   1   2
BRANCH   1  28
ATOM     28  O   UNL     1      -2.488  -1.642  -0.154  1.00  0.00    -0.377 OA
BRANCH  28  29
ATOM     29  C   UNL     1      -3.366  -0.638   0.323  1.00  0.00     0.188 C 
BRANCH  29  30
ATOM     30  C   UNL     1      -4.113   0.200  -0.725  1.00  0.00     0.188 C 
BRANCH  30  31
ATOM     31  O   UNL     1      -3.244   0.784  -1.688  1.00  0.00    -0.376 OA
BRANCH  31  32
ATOM     32  C   UNL     1      -2.878   2.147  -1.554  1.00  0.00     0.202 C 
BRANCH  32  33
ATOM     33  C   UNL     1      -1.968   2.554  -0.382  1.00  0.00     0.261 C 
BRANCH  33  34
ATOM     34  O   UNL     1      -2.369   2.142   0.931  1.00  0.00    -0.460 OA
BRANCH  34  35
ATOM     35  C   UNL     1      -3.523   2.632   1.425  1.00  0.00     0.338 C 
ATOM     36  O   UNL     1      -4.274   3.426   0.883  1.00  0.00    -0.246 OA
BRANCH  35  37
ATOM     37  C   UNL     1      -3.838   1.890   2.666  1.00  0.00     0.060 A 
ATOM     38  C   UNL     1      -5.051   1.195   2.743  1.00  0.00     0.016 A 
ATOM     39  C   UNL     1      -2.947   1.871   3.744  1.00  0.00     0.016 A 
ATOM     40  C   UNL     1      -5.404   0.530   3.918  1.00  0.00     0.010 A 
ATOM     41  C   UNL     1      -3.310   1.218   4.929  1.00  0.00     0.010 A 
ATOM     42  C   UNL     1      -4.562   0.586   5.036  1.00  0.00    -0.014 A 
BRANCH  42  43
ATOM     43  C   UNL     1      -5.105   0.198   6.364  1.00  0.00     0.031 A 
ATOM     44  C   UNL     1      -5.610   1.289   7.272  1.00  0.00     0.074 A 
ATOM     45  C   UNL     1      -5.220  -1.090   6.735  1.00  0.00     0.049 A 
ATOM     46  N   UNL     1      -6.150   1.205   8.461  1.00  0.00    -0.248 NA
ATOM     47  C   UNL     1      -5.490   2.665   6.764  1.00  0.00     0.031 C 
ATOM     48  C   UNL     1      -4.816  -2.241   5.933  1.00  0.00     0.029 A 
ATOM     49  N   UNL     1      -5.720  -1.641   7.890  1.00  0.00    -0.354 N 
ATOM     50  C   UNL     1      -6.430   2.512   8.841  1.00  0.00     0.074 A 
ATOM     51  C   UNL     1      -5.962   3.373   7.777  1.00  0.00     0.031 C 
ATOM     52  C   UNL     1      -5.087  -3.366   6.619  1.00  0.00     0.029 A 
ATOM     53  C   UNL     1      -5.654  -3.013   7.921  1.00  0.00     0.049 A 
ATOM     54  H   UNL     1      -6.092  -1.104   8.626  1.00  0.00     0.167 HD
ATOM     55  C   UNL     1      -7.037   2.957   9.966  1.00  0.00     0.037 A 
ATOM     56  C   UNL     1      -5.999  -3.878   8.895  1.00  0.00     0.037 A 
ATOM     57  C   UNL     1      -7.502   2.102  11.026  1.00  0.00     0.049 A 
ATOM     58  C   UNL     1      -6.592  -3.351  10.180  1.00  0.00     0.074 A 
ATOM     59  C   UNL     1      -8.140   2.455  12.202  1.00  0.00     0.029 A 
ATOM     60  N   UNL     1      -7.366   0.722  11.044  1.00  0.00    -0.354 N 
ATOM     61  N   UNL     1      -6.881  -2.117  10.518  1.00  0.00    -0.248 NA
ATOM     62  C   UNL     1      -6.913  -4.343  11.216  1.00  0.00     0.031 C 
ATOM     63  C   UNL     1      -8.330   1.296  12.961  1.00  0.00     0.029 A 
ATOM     64  C   UNL     1      -7.879   0.212  12.226  1.00  0.00     0.049 A 
ATOM     65  H   UNL     1      -6.964   0.184  10.324  1.00  0.00     0.167 HD
ATOM     66  C   UNL     1      -7.451  -2.189  11.784  1.00  0.00     0.074 A 
ATOM     67  C   UNL     1      -7.480  -3.590  12.148  1.00  0.00     0.031 C 
ATOM     68  C   UNL     1      -7.912  -1.187  12.574  1.00  0.00     0.037 A 
BRANCH  55  69
ATOM     69  C   UNL     1      -7.200   4.443  10.123  1.00  0.00     0.064 A 
ATOM     70  C   UNL     1      -8.077   5.183   9.315  1.00  0.00     0.173 A 
ATOM     71  C   UNL     1      -6.481   5.133  11.111  1.00  0.00     0.173 A 
ATOM     72  F   UNL     1      -8.777   4.576   8.344  1.00  0.00    -0.203 F 
ATOM     73  C   UNL     1      -8.202   6.562   9.468  1.00  0.00     0.198 A 
ATOM     74  C   UNL     1      -6.636   6.505  11.285  1.00  0.00     0.198 A 
ATOM     75  F   UNL     1      -5.631   4.475  11.913  1.00  0.00    -0.203 F 
ATOM     76  F   UNL     1      -9.000   7.256   8.645  1.00  0.00    -0.200 F 
ATOM     77  C   UNL     1      -7.487   7.220  10.457  1.00  0.00     0.200 A 
ATOM     78  F   UNL     1      -5.955   7.137  12.252  1.00  0.00    -0.200 F 
ATOM     79  F   UNL     1      -7.613   8.546  10.607  1.00  0.00    -0.200 F 
ENDBRANCH  55  69
BRANCH  56  80
ATOM     80  C   UNL     1      -5.790  -5.340   8.707  1.00  0.00     0.064 A 
ATOM     81  C   UNL     1      -6.875  -6.226   8.641  1.00  0.00     0.173 A 
ATOM     82  C   UNL     1      -4.500  -5.886   8.628  1.00  0.00     0.173 A 
ATOM     83  F   UNL     1      -8.128  -5.759   8.740  1.00  0.00    -0.203 F 
ATOM     84  C   UNL     1      -6.677  -7.602   8.529  1.00  0.00     0.198 A 
ATOM     85  C   UNL     1      -4.304  -7.257   8.482  1.00  0.00     0.198 A 
ATOM     86  F   UNL     1      -3.426  -5.084   8.691  1.00  0.00    -0.203 F 
ATOM     87  F   UNL     1      -7.730  -8.430   8.528  1.00  0.00    -0.200 F 
ATOM     88  C   UNL     1      -5.392  -8.116   8.444  1.00  0.00     0.200 A 
ATOM     89  F   UNL     1      -3.060  -7.748   8.388  1.00  0.00    -0.200 F 
ATOM     90  F   UNL     1      -5.202  -9.438   8.336  1.00  0.00    -0.200 F 
ENDBRANCH  56  80
BRANCH  68  91
ATOM     91  C   UNL     1      -8.537  -1.567  13.888  1.00  0.00     0.064 A 
ATOM     92  C   UNL     1      -7.781  -2.091  14.948  1.00  0.00     0.173 A 
ATOM     93  C   UNL     1      -9.911  -1.370  14.102  1.00  0.00     0.173 A 
ATOM     94  F   UNL     1      -6.466  -2.309  14.796  1.00  0.00    -0.203 F 
ATOM     95  C   UNL     1      -8.383  -2.436  16.156  1.00  0.00     0.198 A 
ATOM     96  C   UNL     1     -10.502  -1.680  15.323  1.00  0.00     0.198 A 
ATOM     97  F   UNL     1     -10.681  -0.862  13.128  1.00  0.00    -0.203 F 
ATOM     98  F   UNL     1      -7.651  -2.991  17.132  1.00  0.00    -0.200 F 
ATOM     99  C   UNL     1      -9.740  -2.224  16.346  1.00  0.00     0.200 A 
ATOM    100  F   UNL     1     -11.810  -1.455  15.510  1.00  0.00    -0.200 F 
ATOM    101  F   UNL     1     -10.315  -2.551  17.511  1.00  0.00    -0.200 F 
ENDBRANCH  68  91
ENDBRANCH  42  43
ENDBRANCH  35  37
ENDBRANCH  34  35
ENDBRANCH  33  34
ENDBRANCH  32  33
ENDBRANCH  31  32
ENDBRANCH  30  31
ENDBRANCH  29  30
ENDBRANCH  28  29
ENDBRANCH   1  28
TORSDOF 26
