REMARK SMILES CCc1ccsc1C(=O)N(CC(=O)OCCOCCOCCOCCOC(=O)c1ccc(-c2c3nc(c(-c4c(F)c(F)c(F)c(F)c4F)c4ccc([nH]4)c(-c4c(F)c(F)c(F)c(F)c4F)c4nc(c(-c5c(F)c(F)c(F)c(F)c5F)c5ccc2[nH]5)C=C4)C=C3)cc1)c1ccccc1N
REMARK SMILES IDX 19 1 18 2 17 3 16 4 15 5 14 6 12 7 13 8 11 9 10 10 8 11 9 12
REMARK SMILES IDX 7 13 3 14 4 15 5 16 6 17 2 18 1 19 92 20 93 21 97 22 94 23
REMARK SMILES IDX 96 24 95 25 98 26 20 29 21 30 22 31 23 32 24 33 25 34 26 35
REMARK SMILES IDX 27 36 28 37 29 38 30 39 91 40 31 41 90 42 32 43 33 44 34 45
REMARK SMILES IDX 84 46 35 47 89 48 83 49 85 50 36 51 88 52 82 53 81 54 37 56
REMARK SMILES IDX 69 57 49 58 68 59 50 60 53 61 67 62 86 63 51 64 52 65 66 67
REMARK SMILES IDX 87 68 54 69 38 70 39 71 47 72 40 73 41 74 45 75 48 76 42 77
REMARK SMILES IDX 43 78 46 79 44 80 70 81 71 82 79 83 72 84 73 85 77 86 80 87
REMARK SMILES IDX 74 88 75 89 78 90 76 91 55 92 56 93 64 94 57 95 58 96 62 97
REMARK SMILES IDX 65 98 59 99 60 100 63 101 61 102
REMARK H PARENT 98 27 98 28 85 55 53 66
REMARK Flexibility Score: inf
ROOT
ATOM      1  C   UNL     1       0.057   2.790   2.103  1.00  0.00     0.188 C 
ENDROOT
BRANCH   1   2
ATOM      2  C   UNL     1      -0.385   3.374   0.736  1.00  0.00     0.188 C 
BRANCH   2   3
ATOM      3  O   UNL     1      -1.790   3.432   0.569  1.00  0.00    -0.376 OA
BRANCH   3   4
ATOM      4  C   UNL     1      -2.426   2.379  -0.135  1.00  0.00     0.202 C 
BRANCH   4   5
ATOM      5  C   UNL     1      -2.094   0.930   0.260  1.00  0.00     0.261 C 
BRANCH   5   6
ATOM      6  O   UNL     1      -0.687   0.591   0.354  1.00  0.00    -0.462 OA
BRANCH   6   7
ATOM      7  C   UNL     1       0.077   0.673  -0.762  1.00  0.00     0.326 C 
ATOM      8  O   UNL     1      -0.392   0.879  -1.877  1.00  0.00    -0.250 OA
BRANCH   7   9
ATOM      9  C   UNL     1       1.592   0.454  -0.517  1.00  0.00     0.248 C 
BRANCH   9  10
ATOM     10  N   UNL     1       2.135   0.366   0.831  1.00  0.00    -0.294 N 
BRANCH  10  11
ATOM     11  C   UNL     1       1.792  -0.724   1.669  1.00  0.00     0.269 C 
ATOM     12  O   UNL     1       1.831  -0.521   2.893  1.00  0.00    -0.268 OA
BRANCH  11  13
ATOM     13  C   UNL     1       1.462  -2.108   1.190  1.00  0.00     0.096 A 
ATOM     14  C   UNL     1       0.831  -2.803   0.136  1.00  0.00    -0.025 A 
ATOM     15  C   UNL     1       0.784  -4.233   0.408  1.00  0.00     0.016 A 
ATOM     16  C   UNL     1       1.343  -4.609   1.594  1.00  0.00     0.066 A 
ATOM     17  S   UNL     1       2.031  -3.293   2.385  1.00  0.00    -0.138 S 
BRANCH  14  18
ATOM     18  C   UNL     1       0.099  -2.385  -1.124  1.00  0.00     0.034 C 
ATOM     19  C   UNL     1       0.956  -2.185  -2.371  1.00  0.00     0.009 C 
ENDBRANCH  14  18
ENDBRANCH  11  13
ENDBRANCH  10  11
BRANCH  10  20
ATOM     20  C   UNL     1       3.101   1.407   1.280  1.00  0.00     0.068 A 
ATOM     21  C   UNL     1       3.085   2.689   0.674  1.00  0.00     0.028 A 
ATOM     22  C   UNL     1       4.090   1.220   2.294  1.00  0.00     0.056 A 
ATOM     23  C   UNL     1       3.911   3.747   1.091  1.00  0.00     0.002 A 
ATOM     24  C   UNL     1       4.940   2.290   2.671  1.00  0.00     0.028 A 
ATOM     25  C   UNL     1       4.830   3.553   2.104  1.00  0.00     0.002 A 
BRANCH  22  26
ATOM     26  N   UNL     1       4.425  -0.029   2.843  1.00  0.00    -0.397 N 
ATOM     27  H   UNL     1       3.883  -0.822   2.629  1.00  0.00     0.156 HD
ATOM     28  H   UNL     1       5.203  -0.111   3.441  1.00  0.00     0.156 HD
ENDBRANCH  22  26
ENDBRANCH  10  20
ENDBRANCH   9  10
ENDBRANCH   7   9
ENDBRANCH   6   7
ENDBRANCH   5   6
ENDBRANCH   4   5
ENDBRANCH   3   4
ENDBRANCH   2   3
ENDBRANCH   1   2
BRANCH   1  29
ATOM     29  O   UNL     1      -0.532   3.186   3.336  1.00  0.00    -0.377 OA
BRANCH  29  30
ATOM     30  C   UNL     1      -1.737   3.912   3.284  1.00  0.00     0.188 C 
BRANCH  30  31
ATOM     31  C   UNL     1      -1.532   5.405   2.976  1.00  0.00     0.188 C 
BRANCH  31  32
ATOM     32  O   UNL     1      -0.399   5.673   2.171  1.00  0.00    -0.376 OA
BRANCH  32  33
ATOM     33  C   UNL     1       0.811   6.159   2.730  1.00  0.00     0.202 C 
BRANCH  33  34
ATOM     34  C   UNL     1       1.538   5.478   3.905  1.00  0.00     0.261 C 
BRANCH  34  35
ATOM     35  O   UNL     1       0.743   4.936   4.954  1.00  0.00    -0.460 OA
BRANCH  35  36
ATOM     36  C   UNL     1       0.086   5.803   5.750  1.00  0.00     0.338 C 
ATOM     37  O   UNL     1       0.113   7.007   5.721  1.00  0.00    -0.246 OA
BRANCH  36  38
ATOM     38  C   UNL     1      -0.870   4.981   6.523  1.00  0.00     0.060 A 
ATOM     39  C   UNL     1      -2.232   5.288   6.416  1.00  0.00     0.016 A 
ATOM     40  C   UNL     1      -0.436   3.886   7.278  1.00  0.00     0.016 A 
ATOM     41  C   UNL     1      -3.168   4.500   7.068  1.00  0.00     0.010 A 
ATOM     42  C   UNL     1      -1.371   3.130   7.983  1.00  0.00     0.010 A 
ATOM     43  C   UNL     1      -2.732   3.464   7.902  1.00  0.00    -0.014 A 
BRANCH  43  44
ATOM     44  C   UNL     1      -3.685   2.972   8.911  1.00  0.00     0.031 A 
ATOM     45  C   UNL     1      -3.738   3.718  10.211  1.00  0.00     0.074 A 
ATOM     46  C   UNL     1      -4.529   1.966   8.642  1.00  0.00     0.049 A 
ATOM     47  N   UNL     1      -4.527   3.552  11.238  1.00  0.00    -0.248 NA
ATOM     48  C   UNL     1      -2.765   4.814  10.368  1.00  0.00     0.031 C 
ATOM     49  C   UNL     1      -4.577   1.216   7.390  1.00  0.00     0.029 A 
ATOM     50  N   UNL     1      -5.513   1.410   9.415  1.00  0.00    -0.354 N 
ATOM     51  C   UNL     1      -4.147   4.521  12.156  1.00  0.00     0.074 A 
ATOM     52  C   UNL     1      -3.039   5.250  11.585  1.00  0.00     0.031 C 
ATOM     53  C   UNL     1      -5.535   0.277   7.487  1.00  0.00     0.029 A 
ATOM     54  C   UNL     1      -6.145   0.353   8.814  1.00  0.00     0.049 A 
ATOM     55  H   UNL     1      -5.744   1.737  10.314  1.00  0.00     0.167 HD
ATOM     56  C   UNL     1      -4.684   4.781  13.370  1.00  0.00     0.037 A 
ATOM     57  C   UNL     1      -7.093  -0.469   9.303  1.00  0.00     0.037 A 
ATOM     58  C   UNL     1      -5.770   4.024  13.929  1.00  0.00     0.049 A 
ATOM     59  C   UNL     1      -7.633  -0.207  10.684  1.00  0.00     0.074 A 
ATOM     60  C   UNL     1      -6.407   4.194  15.143  1.00  0.00     0.029 A 
ATOM     61  N   UNL     1      -6.364   2.931  13.310  1.00  0.00    -0.354 N 
ATOM     62  N   UNL     1      -7.303   0.732  11.540  1.00  0.00    -0.248 NA
ATOM     63  C   UNL     1      -8.688  -1.109  11.164  1.00  0.00     0.031 C 
ATOM     64  C   UNL     1      -7.338   3.160  15.290  1.00  0.00     0.029 A 
ATOM     65  C   UNL     1      -7.336   2.391  14.134  1.00  0.00     0.049 A 
ATOM     66  H   UNL     1      -6.128   2.591  12.417  1.00  0.00     0.167 HD
ATOM     67  C   UNL     1      -8.118   0.549  12.649  1.00  0.00     0.074 A 
ATOM     68  C   UNL     1      -8.972  -0.583  12.347  1.00  0.00     0.031 C 
ATOM     69  C   UNL     1      -8.163   1.253  13.809  1.00  0.00     0.037 A 
BRANCH  56  70
ATOM     70  C   UNL     1      -4.047   5.875  14.177  1.00  0.00     0.064 A 
ATOM     71  C   UNL     1      -4.111   7.224  13.791  1.00  0.00     0.173 A 
ATOM     72  C   UNL     1      -3.322   5.561  15.336  1.00  0.00     0.173 A 
ATOM     73  F   UNL     1      -4.770   7.577  12.677  1.00  0.00    -0.203 F 
ATOM     74  C   UNL     1      -3.434   8.208  14.508  1.00  0.00     0.198 A 
ATOM     75  C   UNL     1      -2.678   6.553  16.071  1.00  0.00     0.198 A 
ATOM     76  F   UNL     1      -3.224   4.289  15.749  1.00  0.00    -0.203 F 
ATOM     77  F   UNL     1      -3.445   9.477  14.075  1.00  0.00    -0.200 F 
ATOM     78  C   UNL     1      -2.722   7.872  15.649  1.00  0.00     0.200 A 
ATOM     79  F   UNL     1      -1.999   6.227  17.180  1.00  0.00    -0.200 F 
ATOM     80  F   UNL     1      -2.066   8.819  16.334  1.00  0.00    -0.200 F 
ENDBRANCH  56  70
BRANCH  57  81
ATOM     81  C   UNL     1      -7.562  -1.611   8.479  1.00  0.00     0.064 A 
ATOM     82  C   UNL     1      -8.853  -1.645   7.938  1.00  0.00     0.173 A 
ATOM     83  C   UNL     1      -6.704  -2.684   8.187  1.00  0.00     0.173 A 
ATOM     84  F   UNL     1      -9.717  -0.655   8.204  1.00  0.00    -0.203 F 
ATOM     85  C   UNL     1      -9.270  -2.710   7.139  1.00  0.00     0.198 A 
ATOM     86  C   UNL     1      -7.112  -3.733   7.367  1.00  0.00     0.198 A 
ATOM     87  F   UNL     1      -5.457  -2.700   8.682  1.00  0.00    -0.203 F 
ATOM     88  F   UNL     1     -10.520  -2.733   6.657  1.00  0.00    -0.200 F 
ATOM     89  C   UNL     1      -8.397  -3.747   6.846  1.00  0.00     0.200 A 
ATOM     90  F   UNL     1      -6.259  -4.724   7.074  1.00  0.00    -0.200 F 
ATOM     91  F   UNL     1      -8.793  -4.760   6.064  1.00  0.00    -0.200 F 
ENDBRANCH  57  81
BRANCH  69  92
ATOM     92  C   UNL     1      -9.185   0.834  14.827  1.00  0.00     0.064 A 
ATOM     93  C   UNL     1      -9.070  -0.368  15.540  1.00  0.00     0.173 A 
ATOM     94  C   UNL     1     -10.271   1.672  15.124  1.00  0.00     0.173 A 
ATOM     95  F   UNL     1      -8.056  -1.210  15.286  1.00  0.00    -0.203 F 
ATOM     96  C   UNL     1     -10.021  -0.731  16.489  1.00  0.00     0.198 A 
ATOM     97  C   UNL     1     -11.200   1.324  16.100  1.00  0.00     0.198 A 
ATOM     98  F   UNL     1     -10.423   2.839  14.479  1.00  0.00    -0.203 F 
ATOM     99  F   UNL     1      -9.922  -1.910  17.118  1.00  0.00    -0.200 F 
ATOM    100  C   UNL     1     -11.080   0.119  16.774  1.00  0.00     0.200 A 
ATOM    101  F   UNL     1     -12.210   2.156  16.388  1.00  0.00    -0.200 F 
ATOM    102  F   UNL     1     -11.990  -0.228  17.695  1.00  0.00    -0.200 F 
ENDBRANCH  69  92
ENDBRANCH  43  44
ENDBRANCH  36  38
ENDBRANCH  35  36
ENDBRANCH  34  35
ENDBRANCH  33  34
ENDBRANCH  32  33
ENDBRANCH  31  32
ENDBRANCH  30  31
ENDBRANCH  29  30
ENDBRANCH   1  29
TORSDOF 26
