REMARK SMILES CCS(=O)(=O)N[C@H]1C=C[C@@H](C(=O)OCCOCCOCCOCCOC(=O)c2ccc(-c3c4nc(c(-c5c(F)c(F)c(F)c(F)c5F)c5ccc([nH]5)c(-c5c(F)c(F)c(F)c(F)c5F)c5nc(c(-c6c(F)c(F)c(F)c(F)c6F)c6ccc3[nH]6)C=C5)C=C4)cc2)C1
REMARK SMILES IDX 18 1 17 2 16 3 15 4 14 5 13 6 11 7 12 8 10 9 7 10 8 11 91 12
REMARK SMILES IDX 9 13 6 14 3 16 4 17 5 18 2 19 1 20 19 21 20 22 21 23 22 24
REMARK SMILES IDX 23 25 24 26 25 27 26 28 27 29 28 30 29 31 90 32 30 33 89 34
REMARK SMILES IDX 31 35 32 36 33 37 83 38 34 39 88 40 82 41 84 42 35 43 87 44
REMARK SMILES IDX 81 45 80 46 36 48 68 49 48 50 67 51 49 52 52 53 66 54 85 55
REMARK SMILES IDX 50 56 51 57 65 59 86 60 53 61 37 62 38 63 46 64 39 65 40 66
REMARK SMILES IDX 44 67 47 68 41 69 42 70 45 71 43 72 69 73 70 74 78 75 71 76
REMARK SMILES IDX 72 77 76 78 79 79 73 80 74 81 77 82 75 83 54 84 55 85 63 86
REMARK SMILES IDX 56 87 57 88 61 89 64 90 58 91 59 92 62 93 60 94
REMARK H PARENT 6 15 84 47 52 58
REMARK Flexibility Score: inf
ROOT
ATOM      1  C   UNL     1       1.371  -3.372  -0.034  1.00  0.00     0.188 C 
ENDROOT
BRANCH   1   2
ATOM      2  C   UNL     1       2.195  -4.088   1.038  1.00  0.00     0.188 C 
BRANCH   2   3
ATOM      3  O   UNL     1       1.511  -4.149   2.270  1.00  0.00    -0.376 OA
BRANCH   3   4
ATOM      4  C   UNL     1       1.872  -3.240   3.299  1.00  0.00     0.202 C 
BRANCH   4   5
ATOM      5  C   UNL     1       2.676  -1.929   3.099  1.00  0.00     0.261 C 
BRANCH   5   6
ATOM      6  O   UNL     1       2.835  -1.396   1.770  1.00  0.00    -0.463 OA
BRANCH   6   7
ATOM      7  C   UNL     1       4.117  -1.264   1.340  1.00  0.00     0.312 C 
ATOM      8  O   UNL     1       5.087  -1.640   2.000  1.00  0.00    -0.252 OA
BRANCH   7   9
ATOM      9  C   UNL     1       4.302  -0.721  -0.081  1.00  0.00     0.123 C 
ATOM     10  C   UNL     1       3.575   1.433  -1.109  1.00  0.00     0.093 C 
ATOM     11  C   UNL     1       4.968   1.494  -0.574  1.00  0.00    -0.011 C 
ATOM     12  C   UNL     1       3.175  -0.034  -0.867  1.00  0.00     0.043 C 
ATOM     13  C   UNL     1       5.364   0.339  -0.033  1.00  0.00    -0.015 C 
BRANCH  10  14
ATOM     14  N   UNL     1       2.786   2.400  -0.333  1.00  0.00    -0.208 NA
ATOM     15  H   UNL     1       2.674   2.020   0.607  1.00  0.00     0.141 HD
BRANCH  14  16
ATOM     16  S   UNL     1       1.248   2.781  -0.914  1.00  0.00     0.211 S 
ATOM     17  O   UNL     1       0.896   1.871  -1.976  1.00  0.00    -0.212 OA
ATOM     18  O   UNL     1       1.270   4.216  -1.121  1.00  0.00    -0.212 OA
BRANCH  16  19
ATOM     19  C   UNL     1       0.231   2.460   0.522  1.00  0.00     0.150 C 
ATOM     20  C   UNL     1       0.324   1.029   0.986  1.00  0.00     0.022 C 
ENDBRANCH  16  19
ENDBRANCH  14  16
ENDBRANCH  10  14
ENDBRANCH   7   9
ENDBRANCH   6   7
ENDBRANCH   5   6
ENDBRANCH   4   5
ENDBRANCH   3   4
ENDBRANCH   2   3
ENDBRANCH   1   2
BRANCH   1  21
ATOM     21  O   UNL     1       0.697  -2.186   0.373  1.00  0.00    -0.377 OA
BRANCH  21  22
ATOM     22  C   UNL     1      -0.512  -2.307   1.124  1.00  0.00     0.188 C 
BRANCH  22  23
ATOM     23  C   UNL     1      -1.398  -3.531   0.891  1.00  0.00     0.188 C 
BRANCH  23  24
ATOM     24  O   UNL     1      -1.758  -3.864  -0.450  1.00  0.00    -0.376 OA
BRANCH  24  25
ATOM     25  C   UNL     1      -1.709  -2.860  -1.458  1.00  0.00     0.202 C 
BRANCH  25  26
ATOM     26  C   UNL     1      -2.981  -2.031  -1.608  1.00  0.00     0.261 C 
BRANCH  26  27
ATOM     27  O   UNL     1      -3.188  -1.149  -0.493  1.00  0.00    -0.460 OA
BRANCH  27  28
ATOM     28  C   UNL     1      -4.056  -1.613   0.432  1.00  0.00     0.338 C 
ATOM     29  O   UNL     1      -4.668  -2.667   0.416  1.00  0.00    -0.246 OA
BRANCH  28  30
ATOM     30  C   UNL     1      -4.116  -0.692   1.579  1.00  0.00     0.060 A 
ATOM     31  C   UNL     1      -4.088  -1.257   2.858  1.00  0.00     0.016 A 
ATOM     32  C   UNL     1      -4.342   0.676   1.405  1.00  0.00     0.016 A 
ATOM     33  C   UNL     1      -4.378  -0.470   3.966  1.00  0.00     0.010 A 
ATOM     34  C   UNL     1      -4.628   1.467   2.522  1.00  0.00     0.010 A 
ATOM     35  C   UNL     1      -4.703   0.883   3.798  1.00  0.00    -0.014 A 
BRANCH  35  36
ATOM     36  C   UNL     1      -5.272   1.625   4.947  1.00  0.00     0.031 A 
ATOM     37  C   UNL     1      -6.756   1.866   5.007  1.00  0.00     0.074 A 
ATOM     38  C   UNL     1      -4.477   2.003   5.963  1.00  0.00     0.049 A 
ATOM     39  N   UNL     1      -7.467   2.446   5.940  1.00  0.00    -0.248 NA
ATOM     40  C   UNL     1      -7.546   1.390   3.860  1.00  0.00     0.031 C 
ATOM     41  C   UNL     1      -3.033   1.788   6.024  1.00  0.00     0.029 A 
ATOM     42  N   UNL     1      -4.776   2.637   7.141  1.00  0.00    -0.354 N 
ATOM     43  C   UNL     1      -8.783   2.407   5.494  1.00  0.00     0.074 A 
ATOM     44  C   UNL     1      -8.767   1.784   4.188  1.00  0.00     0.031 C 
ATOM     45  C   UNL     1      -2.570   2.276   7.187  1.00  0.00     0.029 A 
ATOM     46  C   UNL     1      -3.679   2.865   7.933  1.00  0.00     0.049 A 
ATOM     47  H   UNL     1      -5.690   2.903   7.394  1.00  0.00     0.167 HD
ATOM     48  C   UNL     1      -9.902   2.840   6.123  1.00  0.00     0.037 A 
ATOM     49  C   UNL     1      -3.584   3.490   9.121  1.00  0.00     0.037 A 
ATOM     50  C   UNL     1      -9.905   3.460   7.424  1.00  0.00     0.049 A 
ATOM     51  C   UNL     1      -4.838   4.014   9.772  1.00  0.00     0.074 A 
ATOM     52  C   UNL     1     -10.982   3.920   8.160  1.00  0.00     0.029 A 
ATOM     53  N   UNL     1      -8.769   3.715   8.180  1.00  0.00    -0.354 N 
ATOM     54  N   UNL     1      -6.080   3.947   9.357  1.00  0.00    -0.248 NA
ATOM     55  C   UNL     1      -4.673   4.691  11.065  1.00  0.00     0.031 C 
ATOM     56  C   UNL     1     -10.493   4.512   9.330  1.00  0.00     0.029 A 
ATOM     57  C   UNL     1      -9.117   4.354   9.360  1.00  0.00     0.049 A 
ATOM     58  H   UNL     1      -7.850   3.477   7.917  1.00  0.00     0.167 HD
ATOM     59  C   UNL     1      -6.848   4.546  10.348  1.00  0.00     0.074 A 
ATOM     60  C   UNL     1      -5.930   4.944  11.396  1.00  0.00     0.031 C 
ATOM     61  C   UNL     1      -8.188   4.751  10.390  1.00  0.00     0.037 A 
BRANCH  48  62
ATOM     62  C   UNL     1     -11.212   2.688   5.402  1.00  0.00     0.064 A 
ATOM     63  C   UNL     1     -11.793   1.431   5.170  1.00  0.00     0.173 A 
ATOM     64  C   UNL     1     -11.915   3.821   4.964  1.00  0.00     0.173 A 
ATOM     65  F   UNL     1     -11.160   0.313   5.556  1.00  0.00    -0.203 F 
ATOM     66  C   UNL     1     -13.011   1.314   4.504  1.00  0.00     0.198 A 
ATOM     67  C   UNL     1     -13.149   3.703   4.329  1.00  0.00     0.198 A 
ATOM     68  F   UNL     1     -11.410   5.049   5.160  1.00  0.00    -0.203 F 
ATOM     69  F   UNL     1     -13.520   0.101   4.249  1.00  0.00    -0.200 F 
ATOM     70  C   UNL     1     -13.692   2.450   4.091  1.00  0.00     0.200 A 
ATOM     71  F   UNL     1     -13.812   4.803   3.945  1.00  0.00    -0.200 F 
ATOM     72  F   UNL     1     -14.868   2.336   3.459  1.00  0.00    -0.200 F 
ENDBRANCH  48  62
BRANCH  49  73
ATOM     73  C   UNL     1      -2.257   3.657   9.769  1.00  0.00     0.064 A 
ATOM     74  C   UNL     1      -1.950   3.014  10.976  1.00  0.00     0.173 A 
ATOM     75  C   UNL     1      -1.270   4.476   9.199  1.00  0.00     0.173 A 
ATOM     76  F   UNL     1      -2.865   2.235  11.572  1.00  0.00    -0.203 F 
ATOM     77  C   UNL     1      -0.719   3.205  11.601  1.00  0.00     0.198 A 
ATOM     78  C   UNL     1      -0.028   4.638   9.806  1.00  0.00     0.198 A 
ATOM     79  F   UNL     1      -1.510   5.111   8.042  1.00  0.00    -0.203 F 
ATOM     80  F   UNL     1      -0.472   2.621  12.781  1.00  0.00    -0.200 F 
ATOM     81  C   UNL     1       0.244   4.011  11.012  1.00  0.00     0.200 A 
ATOM     82  F   UNL     1       0.906   5.402   9.223  1.00  0.00    -0.200 F 
ATOM     83  F   UNL     1       1.429   4.189  11.610  1.00  0.00    -0.200 F 
ENDBRANCH  49  73
BRANCH  61  84
ATOM     84  C   UNL     1      -8.740   5.406  11.627  1.00  0.00     0.064 A 
ATOM     85  C   UNL     1      -8.459   6.743  11.946  1.00  0.00     0.173 A 
ATOM     86  C   UNL     1      -9.558   4.682  12.508  1.00  0.00     0.173 A 
ATOM     87  F   UNL     1      -7.673   7.478  11.144  1.00  0.00    -0.203 F 
ATOM     88  C   UNL     1      -8.930   7.313  13.126  1.00  0.00     0.198 A 
ATOM     89  C   UNL     1     -10.062   5.268  13.666  1.00  0.00     0.198 A 
ATOM     90  F   UNL     1      -9.871   3.403  12.248  1.00  0.00    -0.203 F 
ATOM     91  F   UNL     1      -8.580   8.566  13.448  1.00  0.00    -0.200 F 
ATOM     92  C   UNL     1      -9.734   6.577  13.983  1.00  0.00     0.200 A 
ATOM     93  F   UNL     1     -10.856   4.561  14.482  1.00  0.00    -0.200 F 
ATOM     94  F   UNL     1     -10.182   7.125  15.120  1.00  0.00    -0.200 F 
ENDBRANCH  61  84
ENDBRANCH  35  36
ENDBRANCH  28  30
ENDBRANCH  27  28
ENDBRANCH  26  27
ENDBRANCH  25  26
ENDBRANCH  24  25
ENDBRANCH  23  24
ENDBRANCH  22  23
ENDBRANCH  21  22
ENDBRANCH   1  21
TORSDOF 23
