REMARK SMILES Cc1c(CC(=O)N[C@H](CO)C(=O)OCCOCCOCCOCCOC(=O)c2ccc(-c3c4nc(c(-c5c(F)c(F)c(F)c(F)c5F)c5ccc([nH]5)c(-c5c(F)c(F)c(F)c(F)c5F)c5nc(c(-c6c(F)c(F)c(F)c(F)c6F)c6ccc3[nH]6)C=C5)C=C4)cc2)cc(-c2ccc(S(C)(=O)=O)cc2)n1-c1ccc(F)cc1
REMARK SMILES IDX 17 1 16 2 15 3 14 4 13 5 11 6 12 7 8 8 7 9 5 10 6 11 4 13
REMARK SMILES IDX 3 14 1 15 2 16 103 17 91 18 92 19 104 20 105 21 110 22
REMARK SMILES IDX 106 23 109 24 107 25 108 26 93 27 94 28 102 29 95 30 101 31
REMARK SMILES IDX 96 32 97 33 98 34 99 35 100 36 9 37 10 38 18 40 19 41 20 42
REMARK SMILES IDX 21 43 22 44 23 45 24 46 25 47 26 48 27 49 28 50 29 51 90 52
REMARK SMILES IDX 30 53 89 54 31 55 32 56 33 57 83 58 34 59 88 60 82 61 84 62
REMARK SMILES IDX 35 63 87 64 81 65 80 66 36 68 68 69 48 70 67 71 49 72 52 73
REMARK SMILES IDX 66 74 85 75 50 76 51 77 65 79 86 80 53 81 37 82 38 83 46 84
REMARK SMILES IDX 39 85 40 86 44 87 47 88 41 89 42 90 45 91 43 92 69 93 70 94
REMARK SMILES IDX 78 95 71 96 72 97 76 98 79 99 73 100 74 101 77 102 75 103
REMARK SMILES IDX 54 104 55 105 63 106 56 107 57 108 61 109 64 110 58 111
REMARK SMILES IDX 59 112 62 113 60 114
REMARK H PARENT 7 12 10 39 84 67 52 78
REMARK Flexibility Score: inf
ROOT
ATOM      1  C   UNL     1       3.429  -6.047  -2.444  1.00  0.00     0.188 C 
ENDROOT
BRANCH   1   2
ATOM      2  O   UNL     1       4.214  -6.902  -3.696  1.00  0.00    -0.376 OA
BRANCH   2   3
ATOM      3  C   UNL     1       5.756  -6.635  -4.372  1.00  0.00     0.202 C 
BRANCH   3   4
ATOM      4  C   UNL     1       6.514  -4.875  -4.324  1.00  0.00     0.261 C 
BRANCH   4   5
ATOM      5  O   UNL     1       5.296  -3.527  -3.198  1.00  0.00    -0.462 OA
BRANCH   5   6
ATOM      6  C   UNL     1       3.841  -2.981  -3.227  1.00  0.00     0.331 C 
ATOM      7  O   UNL     1       2.853  -3.474  -3.804  1.00  0.00    -0.250 OA
BRANCH   6   8
ATOM      8  C   UNL     1       3.599  -1.590  -2.774  1.00  0.00     0.218 C 
BRANCH   8   9
ATOM      9  N   UNL     1       4.258  -0.625  -3.636  1.00  0.00    -0.341 N 
ATOM     10  C   UNL     1       4.652  -0.729  -4.949  1.00  0.00     0.225 C 
ATOM     11  O   UNL     1       4.857   0.354  -5.513  1.00  0.00    -0.275 OA
ATOM     12  H   UNL     1       4.453   0.242  -3.212  1.00  0.00     0.164 HD
BRANCH  10  13
ATOM     13  C   UNL     1       4.857  -2.056  -5.745  1.00  0.00     0.137 C 
BRANCH  13  14
ATOM     14  C   UNL     1       5.561  -3.149  -4.970  1.00  0.00    -0.017 A 
ATOM     15  C   UNL     1       7.631  -1.507  -3.733  1.00  0.00     0.065 C 
ATOM     16  C   UNL     1       6.906  -2.808  -3.913  1.00  0.00     0.024 A 
ATOM     17  N   UNL     1       6.952  -3.956  -2.535  1.00  0.00    -0.314 N 
ATOM     18  C   UNL     1       4.679  -4.777  -4.268  1.00  0.00     0.033 A 
ATOM     19  C   UNL     1       5.628  -5.284  -2.674  1.00  0.00     0.053 A 
BRANCH  17  20
ATOM     20  C   UNL     1       8.007  -3.679  -1.561  1.00  0.00     0.046 A 
ATOM     21  C   UNL     1       9.224  -4.385  -1.593  1.00  0.00     0.029 A 
ATOM     22  C   UNL     1       7.775  -2.742  -0.540  1.00  0.00     0.029 A 
ATOM     23  C   UNL     1      10.105  -4.293  -0.506  1.00  0.00     0.041 A 
ATOM     24  C   UNL     1       8.686  -2.622   0.518  1.00  0.00     0.041 A 
ATOM     25  C   UNL     1       9.824  -3.422   0.542  1.00  0.00     0.123 A 
ATOM     26  F   UNL     1      10.648  -3.372   1.598  1.00  0.00    -0.207 F 
ENDBRANCH  17  20
BRANCH  19  27
ATOM     27  C   UNL     1       5.346  -6.736  -1.452  1.00  0.00    -0.001 A 
ATOM     28  C   UNL     1       5.424  -6.537   0.459  1.00  0.00     0.011 A 
ATOM     29  C   UNL     1       5.306  -8.433  -2.016  1.00  0.00     0.011 A 
ATOM     30  C   UNL     1       5.682  -8.021   1.523  1.00  0.00     0.021 A 
ATOM     31  C   UNL     1       5.460  -9.789  -0.917  1.00  0.00     0.021 A 
ATOM     32  C   UNL     1       5.637  -9.585   0.781  1.00  0.00     0.067 A 
BRANCH  32  33
ATOM     33  S   UNL     1       5.446 -10.914   1.911  1.00  0.00     0.175 S 
ATOM     34  C   UNL     1       6.728 -10.554   3.088  1.00  0.00     0.163 C 
ATOM     35  O   UNL     1       4.167 -10.730   2.572  1.00  0.00    -0.224 OA
ATOM     36  O   UNL     1       5.784 -12.143   1.222  1.00  0.00    -0.224 OA
ENDBRANCH  32  33
ENDBRANCH  19  27
ENDBRANCH  13  14
ENDBRANCH  10  13
ENDBRANCH   8   9
BRANCH   8  37
ATOM     37  C   UNL     1       3.699  -1.437  -1.259  1.00  0.00     0.193 C 
BRANCH  37  38
ATOM     38  O   UNL     1       2.547  -1.961  -0.565  1.00  0.00    -0.394 OA
ATOM     39  H   UNL     1       1.755  -1.472  -0.838  1.00  0.00     0.210 HD
ENDBRANCH  37  38
ENDBRANCH   8  37
ENDBRANCH   6   8
ENDBRANCH   5   6
ENDBRANCH   4   5
ENDBRANCH   3   4
ENDBRANCH   2   3
ENDBRANCH   1   2
BRANCH   1  40
ATOM     40  C   UNL     1       4.125  -4.955  -1.053  1.00  0.00     0.188 C 
BRANCH  40  41
ATOM     41  O   UNL     1       5.822  -4.720  -0.567  1.00  0.00    -0.377 OA
BRANCH  41  42
ATOM     42  C   UNL     1       7.136  -5.990  -0.532  1.00  0.00     0.188 C 
BRANCH  42  43
ATOM     43  C   UNL     1       6.664  -7.803  -0.324  1.00  0.00     0.188 C 
BRANCH  43  44
ATOM     44  O   UNL     1       4.667  -8.083  -0.133  1.00  0.00    -0.376 OA
BRANCH  44  45
ATOM     45  C   UNL     1       3.565  -7.428   1.099  1.00  0.00     0.202 C 
BRANCH  45  46
ATOM     46  C   UNL     1       4.008  -6.384   2.568  1.00  0.00     0.261 C 
BRANCH  46  47
ATOM     47  O   UNL     1       5.414  -5.736   3.316  1.00  0.00    -0.460 OA
BRANCH  47  48
ATOM     48  C   UNL     1       6.825  -5.802   3.404  1.00  0.00     0.338 C 
ATOM     49  O   UNL     1       7.492  -6.558   2.694  1.00  0.00    -0.246 OA
BRANCH  48  50
ATOM     50  C   UNL     1       7.736  -4.921   4.443  1.00  0.00     0.060 A 
ATOM     51  C   UNL     1       9.107  -4.745   4.216  1.00  0.00     0.016 A 
ATOM     52  C   UNL     1       7.435  -4.399   5.719  1.00  0.00     0.016 A 
ATOM     53  C   UNL     1      10.024  -3.977   5.138  1.00  0.00     0.010 A 
ATOM     54  C   UNL     1       8.427  -3.678   6.711  1.00  0.00     0.010 A 
ATOM     55  C   UNL     1       9.775  -3.341   6.456  1.00  0.00    -0.014 A 
BRANCH  55  56
ATOM     56  C   UNL     1      11.091  -2.528   7.418  1.00  0.00     0.031 A 
ATOM     57  C   UNL     1      12.244  -3.081   6.627  1.00  0.00     0.074 A 
ATOM     58  C   UNL     1      11.541  -1.792   8.658  1.00  0.00     0.049 A 
ATOM     59  N   UNL     1      12.355  -4.374   6.736  1.00  0.00    -0.248 NA
ATOM     60  C   UNL     1      12.905  -2.562   5.420  1.00  0.00     0.031 C 
ATOM     61  C   UNL     1      10.772  -1.427   9.897  1.00  0.00     0.029 A 
ATOM     62  N   UNL     1      12.882  -1.216   9.201  1.00  0.00    -0.354 N 
ATOM     63  C   UNL     1      13.265  -4.838   5.824  1.00  0.00     0.074 A 
ATOM     64  C   UNL     1      13.509  -3.679   4.962  1.00  0.00     0.031 C 
ATOM     65  C   UNL     1      11.440  -0.648  10.832  1.00  0.00     0.029 A 
ATOM     66  C   UNL     1      12.853  -0.364  10.509  1.00  0.00     0.049 A 
ATOM     67  H   UNL     1      13.730  -1.385   8.730  1.00  0.00     0.167 HD
ATOM     68  C   UNL     1      14.128  -5.707   6.421  1.00  0.00     0.037 A 
ATOM     69  C   UNL     1      13.871   0.335  11.316  1.00  0.00     0.037 A 
ATOM     70  C   UNL     1      15.110  -4.933   7.138  1.00  0.00     0.049 A 
ATOM     71  C   UNL     1      15.075  -0.469  11.164  1.00  0.00     0.074 A 
ATOM     72  C   UNL     1      15.765  -3.761   6.781  1.00  0.00     0.029 A 
ATOM     73  N   UNL     1      15.036  -4.940   8.509  1.00  0.00    -0.354 N 
ATOM     74  N   UNL     1      15.252  -1.603  11.758  1.00  0.00    -0.248 NA
ATOM     75  C   UNL     1      16.089  -0.033  10.231  1.00  0.00     0.031 C 
ATOM     76  C   UNL     1      15.479  -2.899   7.851  1.00  0.00     0.029 A 
ATOM     77  C   UNL     1      15.355  -3.695   8.976  1.00  0.00     0.049 A 
ATOM     78  H   UNL     1      14.794  -5.716   9.065  1.00  0.00     0.167 HD
ATOM     79  C   UNL     1      15.886  -2.265  10.759  1.00  0.00     0.074 A 
ATOM     80  C   UNL     1      16.555  -1.245   9.946  1.00  0.00     0.031 C 
ATOM     81  C   UNL     1      15.323  -3.435  10.373  1.00  0.00     0.037 A 
BRANCH  68  82
ATOM     82  C   UNL     1      13.334  -6.874   7.012  1.00  0.00     0.064 A 
ATOM     83  C   UNL     1      13.413  -8.113   6.373  1.00  0.00     0.173 A 
ATOM     84  C   UNL     1      12.330  -6.740   8.011  1.00  0.00     0.173 A 
ATOM     85  F   UNL     1      14.366  -8.334   5.456  1.00  0.00    -0.203 F 
ATOM     86  C   UNL     1      12.492  -9.128   6.652  1.00  0.00     0.198 A 
ATOM     87  C   UNL     1      11.358  -7.715   8.212  1.00  0.00     0.198 A 
ATOM     88  F   UNL     1      12.264  -5.652   8.799  1.00  0.00    -0.203 F 
ATOM     89  F   UNL     1      12.600 -10.310   6.031  1.00  0.00    -0.200 F 
ATOM     90  C   UNL     1      11.442  -8.912   7.533  1.00  0.00     0.200 A 
ATOM     91  F   UNL     1      10.335  -7.480   9.048  1.00  0.00    -0.200 F 
ATOM     92  F   UNL     1      10.520  -9.863   7.737  1.00  0.00    -0.200 F 
ENDBRANCH  68  82
BRANCH  69  93
ATOM     93  C   UNL     1      14.398   1.460  12.471  1.00  0.00     0.064 A 
ATOM     94  C   UNL     1      15.610   1.321  13.303  1.00  0.00     0.173 A 
ATOM     95  C   UNL     1      14.084   2.823  12.309  1.00  0.00     0.173 A 
ATOM     96  F   UNL     1      16.133   0.115  13.578  1.00  0.00    -0.203 F 
ATOM     97  C   UNL     1      16.393   2.406  13.827  1.00  0.00     0.198 A 
ATOM     98  C   UNL     1      14.872   3.907  12.839  1.00  0.00     0.198 A 
ATOM     99  F   UNL     1      13.052   3.157  11.529  1.00  0.00    -0.203 F 
ATOM    100  F   UNL     1      17.538   2.182  14.503  1.00  0.00    -0.200 F 
ATOM    101  C   UNL     1      16.030   3.705  13.572  1.00  0.00     0.200 A 
ATOM    102  F   UNL     1      14.531   5.174  12.552  1.00  0.00    -0.200 F 
ATOM    103  F   UNL     1      16.796   4.736  13.977  1.00  0.00    -0.200 F 
ENDBRANCH  69  93
BRANCH  81 104
ATOM    104  C   UNL     1      14.663  -4.293  11.426  1.00  0.00     0.064 A 
ATOM    105  C   UNL     1      13.597  -3.915  12.269  1.00  0.00     0.173 A 
ATOM    106  C   UNL     1      15.206  -5.562  11.654  1.00  0.00     0.173 A 
ATOM    107  F   UNL     1      12.886  -2.806  12.037  1.00  0.00    -0.203 F 
ATOM    108  C   UNL     1      13.209  -4.696  13.362  1.00  0.00     0.198 A 
ATOM    109  C   UNL     1      14.780  -6.368  12.706  1.00  0.00     0.198 A 
ATOM    110  F   UNL     1      16.145  -6.043  10.825  1.00  0.00    -0.203 F 
ATOM    111  F   UNL     1      12.235  -4.274  14.183  1.00  0.00    -0.200 F 
ATOM    112  C   UNL     1      13.819  -5.915  13.591  1.00  0.00     0.200 A 
ATOM    113  F   UNL     1      15.299  -7.595  12.847  1.00  0.00    -0.200 F 
ATOM    114  F   UNL     1      13.460  -6.668  14.640  1.00  0.00    -0.200 F 
ENDBRANCH  81 104
ENDBRANCH  55  56
ENDBRANCH  48  50
ENDBRANCH  47  48
ENDBRANCH  46  47
ENDBRANCH  45  46
ENDBRANCH  44  45
ENDBRANCH  43  44
ENDBRANCH  42  43
ENDBRANCH  41  42
ENDBRANCH  40  41
ENDBRANCH   1  40
TORSDOF 28
