REMARK SMILES Cc1ccc([C@@]23C[C@@H]4C[C@@H](C[C@@](C(=O)N5CCC(C(=O)OCCOCCOCCOCCOC(=O)c6ccc(-c7c8nc(c(-c9c(F)c(F)c(F)c(F)c9F)c9ccc([nH]9)c(-c9c(F)c(F)c(F)c(F)c9F)c9nc(c(-c%10c(F)c(F)c(F)c(F)c%10F)c%10ccc7[nH]%10)C=C9)C=C8)cc6)CC5)(C4)C2)C3)cc1
REMARK SMILES IDX 27 1 26 2 25 3 24 4 23 5 22 6 21 7 19 8 20 9 18 10 13 11
REMARK SMILES IDX 14 12 15 13 16 14 100 15 17 16 99 17 12 18 6 19 7 20 102 21
REMARK SMILES IDX 103 22 8 23 10 24 9 25 101 26 11 27 5 28 1 29 2 30 3 31
REMARK SMILES IDX 105 32 4 33 104 34 28 35 29 36 30 37 31 38 32 39 33 40 34 41
REMARK SMILES IDX 35 42 36 43 37 44 98 45 38 46 97 47 39 48 40 49 41 50 91 51
REMARK SMILES IDX 42 52 96 53 90 54 92 55 43 56 95 57 89 58 88 59 44 61 76 62
REMARK SMILES IDX 56 63 75 64 57 65 60 66 74 67 93 68 58 69 59 70 73 72 94 73
REMARK SMILES IDX 61 74 45 75 46 76 54 77 47 78 48 79 52 80 55 81 49 82 50 83
REMARK SMILES IDX 53 84 51 85 77 86 78 87 86 88 79 89 80 90 84 91 87 92 81 93
REMARK SMILES IDX 82 94 85 95 83 96 62 97 63 98 71 99 64 100 65 101 69 102
REMARK SMILES IDX 72 103 66 104 67 105 70 106 68 107
REMARK H PARENT 92 60 60 71
REMARK Flexibility Score: inf
ROOT
ATOM      1  O   UNL     1      -5.898  -2.093  -5.544  1.00  0.00    -0.377 OA
ENDROOT
BRANCH   1   2
ATOM      2  C   UNL     1      -4.700  -2.384  -6.255  1.00  0.00     0.188 C 
BRANCH   2   3
ATOM      3  C   UNL     1      -4.363  -3.851  -6.586  1.00  0.00     0.188 C 
BRANCH   3   4
ATOM      4  O   UNL     1      -5.288  -4.592  -7.361  1.00  0.00    -0.376 OA
BRANCH   4   5
ATOM      5  C   UNL     1      -6.394  -5.087  -6.629  1.00  0.00     0.202 C 
BRANCH   5   6
ATOM      6  C   UNL     1      -6.163  -6.289  -5.732  1.00  0.00     0.261 C 
BRANCH   6   7
ATOM      7  O   UNL     1      -5.964  -5.856  -4.389  1.00  0.00    -0.463 OA
BRANCH   7   8
ATOM      8  C   UNL     1      -4.757  -6.088  -3.859  1.00  0.00     0.309 C 
ATOM      9  O   UNL     1      -3.864  -6.763  -4.372  1.00  0.00    -0.252 OA
BRANCH   8  10
ATOM     10  C   UNL     1      -4.566  -5.249  -2.638  1.00  0.00     0.103 C 
ATOM     11  C   UNL     1      -5.793  -2.370   0.172  1.00  0.00     0.228 C 
ATOM     12  O   UNL     1      -6.657  -2.756   0.962  1.00  0.00    -0.274 OA
ATOM     13  N   UNL     1      -5.107  -3.272  -0.648  1.00  0.00    -0.342 N 
ATOM     14  C   UNL     1      -5.087  -4.692  -0.282  1.00  0.00     0.120 C 
ATOM     15  C   UNL     1      -4.309  -2.949  -1.835  1.00  0.00     0.120 C 
ATOM     16  C   UNL     1      -5.484  -5.579  -1.463  1.00  0.00     0.037 C 
ATOM     17  C   UNL     1      -4.751  -3.779  -3.002  1.00  0.00     0.037 C 
BRANCH  11  18
ATOM     18  C   UNL     1      -5.369  -0.883   0.149  1.00  0.00     0.051 C 
ATOM     19  C   UNL     1      -3.201   0.517   0.201  1.00  0.00    -0.003 C 
ATOM     20  C   UNL     1      -3.710   1.149  -1.129  1.00  0.00     0.015 C 
ATOM     21  C   UNL     1      -3.840  -0.867   0.317  1.00  0.00     0.028 C 
ATOM     22  C   UNL     1      -3.758   1.321   1.401  1.00  0.00     0.015 C 
ATOM     23  C   UNL     1      -5.248   1.268  -1.156  1.00  0.00    -0.009 C 
ATOM     24  C   UNL     1      -5.306   1.358   1.355  1.00  0.00    -0.009 C 
ATOM     25  C   UNL     1      -5.726   2.074   0.060  1.00  0.00     0.007 C 
ATOM     26  C   UNL     1      -5.885  -0.127  -1.094  1.00  0.00     0.020 C 
ATOM     27  C   UNL     1      -5.899  -0.077   1.368  1.00  0.00     0.020 C 
BRANCH  19  28
ATOM     28  C   UNL     1      -1.662   0.399   0.191  1.00  0.00    -0.042 A 
ATOM     29  C   UNL     1       2.668   0.075  -0.030  1.00  0.00     0.044 C 
ATOM     30  C   UNL     1       1.177   0.205   0.045  1.00  0.00    -0.051 A 
ATOM     31  C   UNL     1       0.397  -0.945   0.109  1.00  0.00     0.004 A 
ATOM     32  C   UNL     1       0.540   1.449   0.056  1.00  0.00     0.004 A 
ATOM     33  C   UNL     1      -0.992  -0.846   0.192  1.00  0.00     0.004 A 
ATOM     34  C   UNL     1      -0.859   1.544   0.125  1.00  0.00     0.004 A 
ENDBRANCH  19  28
ENDBRANCH  11  18
ENDBRANCH   8  10
ENDBRANCH   7   8
ENDBRANCH   6   7
ENDBRANCH   5   6
ENDBRANCH   4   5
ENDBRANCH   3   4
ENDBRANCH   2   3
ENDBRANCH   1   2
BRANCH   1  35
ATOM     35  C   UNL     1      -7.035  -1.661  -6.295  1.00  0.00     0.188 C 
BRANCH  35  36
ATOM     36  C   UNL     1      -6.782  -0.780  -7.509  1.00  0.00     0.188 C 
BRANCH  36  37
ATOM     37  O   UNL     1      -6.343  -1.629  -8.569  1.00  0.00    -0.376 OA
BRANCH  37  38
ATOM     38  C   UNL     1      -5.630  -0.985  -9.618  1.00  0.00     0.202 C 
BRANCH  38  39
ATOM     39  C   UNL     1      -6.422   0.144 -10.285  1.00  0.00     0.261 C 
BRANCH  39  40
ATOM     40  O   UNL     1      -7.470  -0.428 -11.105  1.00  0.00    -0.460 OA
BRANCH  40  41
ATOM     41  C   UNL     1      -8.749  -0.260 -10.670  1.00  0.00     0.338 C 
ATOM     42  O   UNL     1      -9.375   0.782 -10.757  1.00  0.00    -0.246 OA
BRANCH  41  43
ATOM     43  C   UNL     1      -9.275  -1.494 -10.012  1.00  0.00     0.060 A 
ATOM     44  C   UNL     1     -10.442  -1.454  -9.231  1.00  0.00     0.016 A 
ATOM     45  C   UNL     1      -8.514  -2.654 -10.016  1.00  0.00     0.016 A 
ATOM     46  C   UNL     1     -10.746  -2.506  -8.343  1.00  0.00     0.010 A 
ATOM     47  C   UNL     1      -8.760  -3.632  -9.065  1.00  0.00     0.010 A 
ATOM     48  C   UNL     1      -9.853  -3.565  -8.185  1.00  0.00    -0.014 A 
BRANCH  48  49
ATOM     49  C   UNL     1      -9.858  -4.539  -7.060  1.00  0.00     0.031 A 
ATOM     50  C   UNL     1      -9.643  -6.002  -7.338  1.00  0.00     0.074 A 
ATOM     51  C   UNL     1      -9.664  -4.053  -5.804  1.00  0.00     0.049 A 
ATOM     52  N   UNL     1      -9.475  -6.919  -6.443  1.00  0.00    -0.248 NA
ATOM     53  C   UNL     1      -9.579  -6.561  -8.690  1.00  0.00     0.031 C 
ATOM     54  C   UNL     1      -8.928  -4.690  -4.710  1.00  0.00     0.029 A 
ATOM     55  N   UNL     1      -9.975  -2.806  -5.264  1.00  0.00    -0.354 N 
ATOM     56  C   UNL     1      -8.940  -8.044  -7.054  1.00  0.00     0.074 A 
ATOM     57  C   UNL     1      -9.144  -7.807  -8.460  1.00  0.00     0.031 C 
ATOM     58  C   UNL     1      -8.824  -3.862  -3.659  1.00  0.00     0.029 A 
ATOM     59  C   UNL     1      -9.819  -2.849  -3.859  1.00  0.00     0.049 A 
ATOM     60  H   UNL     1     -10.259  -2.018  -5.780  1.00  0.00     0.167 HD
ATOM     61  C   UNL     1      -8.248  -8.963  -6.300  1.00  0.00     0.037 A 
ATOM     62  C   UNL     1     -10.942  -2.806  -3.071  1.00  0.00     0.037 A 
ATOM     63  C   UNL     1      -8.394  -8.715  -4.838  1.00  0.00     0.049 A 
ATOM     64  C   UNL     1     -11.386  -4.201  -2.576  1.00  0.00     0.074 A 
ATOM     65  C   UNL     1      -7.558  -8.702  -3.730  1.00  0.00     0.029 A 
ATOM     66  N   UNL     1      -9.616  -8.249  -4.354  1.00  0.00    -0.354 N 
ATOM     67  N   UNL     1     -10.653  -5.292  -2.658  1.00  0.00    -0.248 NA
ATOM     68  C   UNL     1     -12.695  -4.500  -2.003  1.00  0.00     0.031 C 
ATOM     69  C   UNL     1      -8.290  -8.186  -2.607  1.00  0.00     0.029 A 
ATOM     70  C   UNL     1      -9.589  -7.939  -3.010  1.00  0.00     0.049 A 
ATOM     71  H   UNL     1     -10.419  -8.150  -4.916  1.00  0.00     0.167 HD
ATOM     72  C   UNL     1     -11.357  -6.401  -2.276  1.00  0.00     0.074 A 
ATOM     73  C   UNL     1     -12.638  -5.839  -1.865  1.00  0.00     0.031 C 
ATOM     74  C   UNL     1     -10.870  -7.688  -2.354  1.00  0.00     0.037 A 
BRANCH  61  75
ATOM     75  C   UNL     1      -7.250  -9.998  -6.864  1.00  0.00     0.064 A 
ATOM     76  C   UNL     1      -6.731 -11.026  -6.039  1.00  0.00     0.173 A 
ATOM     77  C   UNL     1      -6.670  -9.967  -8.156  1.00  0.00     0.173 A 
ATOM     78  F   UNL     1      -7.193 -11.213  -4.795  1.00  0.00    -0.203 F 
ATOM     79  C   UNL     1      -5.714 -11.906  -6.452  1.00  0.00     0.198 A 
ATOM     80  C   UNL     1      -5.703 -10.892  -8.591  1.00  0.00     0.198 A 
ATOM     81  F   UNL     1      -6.962  -9.008  -9.041  1.00  0.00    -0.203 F 
ATOM     82  F   UNL     1      -5.221 -12.809  -5.590  1.00  0.00    -0.200 F 
ATOM     83  C   UNL     1      -5.210 -11.848  -7.733  1.00  0.00     0.200 A 
ATOM     84  F   UNL     1      -5.237 -10.826  -9.848  1.00  0.00    -0.200 F 
ATOM     85  F   UNL     1      -4.252 -12.697  -8.134  1.00  0.00    -0.200 F 
ENDBRANCH  61  75
BRANCH  62  86
ATOM     86  C   UNL     1     -11.717  -1.565  -3.442  1.00  0.00     0.064 A 
ATOM     87  C   UNL     1     -10.970  -0.373  -3.240  1.00  0.00     0.173 A 
ATOM     88  C   UNL     1     -12.557  -1.597  -4.567  1.00  0.00     0.173 A 
ATOM     89  F   UNL     1     -10.195  -0.252  -2.150  1.00  0.00    -0.203 F 
ATOM     90  C   UNL     1     -10.778   0.536  -4.282  1.00  0.00     0.198 A 
ATOM     91  C   UNL     1     -12.404  -0.646  -5.587  1.00  0.00     0.198 A 
ATOM     92  F   UNL     1     -13.335  -2.664  -4.795  1.00  0.00    -0.203 F 
ATOM     93  F   UNL     1      -9.822   1.472  -4.187  1.00  0.00    -0.200 F 
ATOM     94  C   UNL     1     -11.452   0.361  -5.477  1.00  0.00     0.200 A 
ATOM     95  F   UNL     1     -13.057  -0.800  -6.748  1.00  0.00    -0.200 F 
ATOM     96  F   UNL     1     -11.114   1.092  -6.551  1.00  0.00    -0.200 F 
ENDBRANCH  62  86
BRANCH  74  97
ATOM     97  C   UNL     1     -11.644  -8.921  -1.924  1.00  0.00     0.064 A 
ATOM     98  C   UNL     1     -12.561  -8.914  -0.869  1.00  0.00     0.173 A 
ATOM     99  C   UNL     1     -11.448 -10.186  -2.541  1.00  0.00     0.173 A 
ATOM    100  F   UNL     1     -12.659  -7.859  -0.049  1.00  0.00    -0.203 F 
ATOM    101  C   UNL     1     -13.379 -10.013  -0.601  1.00  0.00     0.198 A 
ATOM    102  C   UNL     1     -12.226 -11.298  -2.236  1.00  0.00     0.198 A 
ATOM    103  F   UNL     1     -10.500 -10.404  -3.460  1.00  0.00    -0.203 F 
ATOM    104  F   UNL     1     -14.325  -9.915   0.342  1.00  0.00    -0.200 F 
ATOM    105  C   UNL     1     -13.229 -11.195  -1.302  1.00  0.00     0.200 A 
ATOM    106  F   UNL     1     -12.003 -12.459  -2.870  1.00  0.00    -0.200 F 
ATOM    107  F   UNL     1     -14.035 -12.238  -1.064  1.00  0.00    -0.200 F 
ENDBRANCH  74  97
ENDBRANCH  48  49
ENDBRANCH  41  43
ENDBRANCH  40  41
ENDBRANCH  39  40
ENDBRANCH  38  39
ENDBRANCH  37  38
ENDBRANCH  36  37
ENDBRANCH  35  36
ENDBRANCH   1  35
TORSDOF 22
