REMARK SMILES Cc1ccc(NC(=O)C[C@H]2SC[C@H](C(=O)OCCOCCOCCOCCOC(=O)c3ccc(-c4c5nc(c(-c6c(F)c(F)c(F)c(F)c6F)c6ccc([nH]6)c(-c6c(F)c(F)c(F)c(F)c6F)c6nc(c(-c7c(F)c(F)c(F)c(F)c7F)c7ccc4[nH]7)C=C6)C=C5)cc3)NC2=O)cc1
REMARK SMILES IDX 21 1 20 2 19 3 18 4 17 5 16 6 14 7 15 8 13 9 10 10 11 11
REMARK SMILES IDX 95 12 12 13 94 14 96 15 9 17 7 18 6 19 8 21 5 22 1 23 2 24
REMARK SMILES IDX 3 25 98 26 4 27 97 28 22 29 23 30 24 31 25 32 26 33 27 34
REMARK SMILES IDX 28 35 29 36 30 37 31 38 32 39 93 40 33 41 92 42 34 43 35 44
REMARK SMILES IDX 36 45 86 46 37 47 91 48 85 49 87 50 38 51 90 52 84 53 83 54
REMARK SMILES IDX 39 56 71 57 51 58 70 59 52 60 55 61 69 62 88 63 53 64 54 65
REMARK SMILES IDX 68 67 89 68 56 69 40 70 41 71 49 72 42 73 43 74 47 75 50 76
REMARK SMILES IDX 44 77 45 78 48 79 46 80 72 81 73 82 81 83 74 84 75 85 79 86
REMARK SMILES IDX 82 87 76 88 77 89 80 90 78 91 57 92 58 93 66 94 59 95 60 96
REMARK SMILES IDX 64 97 67 98 61 99 62 100 65 101 63 102
REMARK H PARENT 94 16 6 20 87 55 55 66
REMARK Flexibility Score: inf
ROOT
ATOM      1  C   UNL     1      -5.097  -1.054  -5.731  1.00  0.00     0.188 C 
ENDROOT
BRANCH   1   2
ATOM      2  C   UNL     1      -4.646  -2.216  -6.618  1.00  0.00     0.188 C 
BRANCH   2   3
ATOM      3  O   UNL     1      -5.672  -3.086  -7.084  1.00  0.00    -0.376 OA
BRANCH   3   4
ATOM      4  C   UNL     1      -6.096  -4.110  -6.186  1.00  0.00     0.202 C 
BRANCH   4   5
ATOM      5  C   UNL     1      -5.011  -5.100  -5.792  1.00  0.00     0.261 C 
BRANCH   5   6
ATOM      6  O   UNL     1      -4.313  -4.550  -4.663  1.00  0.00    -0.462 OA
BRANCH   6   7
ATOM      7  C   UNL     1      -2.970  -4.567  -4.754  1.00  0.00     0.329 C 
ATOM      8  O   UNL     1      -2.333  -5.194  -5.595  1.00  0.00    -0.250 OA
BRANCH   7   9
ATOM      9  C   UNL     1      -2.300  -3.795  -3.637  1.00  0.00     0.202 C 
ATOM     10  C   UNL     1      -1.081  -2.993  -1.033  1.00  0.00     0.145 C 
ATOM     11  S   UNL     1      -1.847  -1.629  -2.025  1.00  0.00    -0.145 SA
ATOM     12  C   UNL     1      -0.867  -4.306  -1.815  1.00  0.00     0.234 C 
ATOM     13  C   UNL     1      -3.012  -2.587  -3.064  1.00  0.00     0.107 C 
ATOM     14  N   UNL     1      -1.883  -4.724  -2.621  1.00  0.00    -0.341 N 
ATOM     15  O   UNL     1       0.091  -5.066  -1.722  1.00  0.00    -0.274 OA
ATOM     16  H   UNL     1      -2.305  -5.607  -2.514  1.00  0.00     0.164 HD
BRANCH  10  17
ATOM     17  C   UNL     1       0.166  -2.430  -0.338  1.00  0.00     0.124 C 
BRANCH  17  18
ATOM     18  C   UNL     1       1.227  -3.428   0.085  1.00  0.00     0.226 C 
ATOM     19  N   UNL     1       0.915  -4.564   0.773  1.00  0.00    -0.326 N 
ATOM     20  H   UNL     1       1.657  -5.204   0.869  1.00  0.00     0.169 HD
ATOM     21  O   UNL     1       2.404  -3.243  -0.243  1.00  0.00    -0.275 OA
BRANCH  19  22
ATOM     22  C   UNL     1      -0.285  -4.970   1.366  1.00  0.00     0.041 A 
ATOM     23  C   UNL     1      -3.996  -6.380   3.030  1.00  0.00     0.044 C 
ATOM     24  C   UNL     1      -2.695  -5.900   2.463  1.00  0.00    -0.051 A 
ATOM     25  C   UNL     1      -2.321  -4.557   2.599  1.00  0.00     0.005 A 
ATOM     26  C   UNL     1      -1.857  -6.772   1.762  1.00  0.00     0.005 A 
ATOM     27  C   UNL     1      -1.117  -4.097   2.062  1.00  0.00     0.026 A 
ATOM     28  C   UNL     1      -0.648  -6.315   1.238  1.00  0.00     0.026 A 
ENDBRANCH  19  22
ENDBRANCH  17  18
ENDBRANCH  10  17
ENDBRANCH   7   9
ENDBRANCH   6   7
ENDBRANCH   5   6
ENDBRANCH   4   5
ENDBRANCH   3   4
ENDBRANCH   2   3
ENDBRANCH   1   2
BRANCH   1  29
ATOM     29  O   UNL     1      -5.559  -1.417  -4.435  1.00  0.00    -0.377 OA
BRANCH  29  30
ATOM     30  C   UNL     1      -6.931  -1.188  -4.098  1.00  0.00     0.188 C 
BRANCH  30  31
ATOM     31  C   UNL     1      -7.635   0.003  -4.750  1.00  0.00     0.188 C 
BRANCH  31  32
ATOM     32  O   UNL     1      -7.985  -0.391  -6.078  1.00  0.00    -0.376 OA
BRANCH  32  33
ATOM     33  C   UNL     1      -8.129   0.672  -7.018  1.00  0.00     0.202 C 
BRANCH  33  34
ATOM     34  C   UNL     1      -9.463   1.401  -6.865  1.00  0.00     0.261 C 
BRANCH  34  35
ATOM     35  O   UNL     1     -10.522   0.458  -7.119  1.00  0.00    -0.460 OA
BRANCH  35  36
ATOM     36  C   UNL     1     -11.232   0.108  -6.023  1.00  0.00     0.338 C 
ATOM     37  O   UNL     1     -11.772   0.904  -5.250  1.00  0.00    -0.246 OA
BRANCH  36  38
ATOM     38  C   UNL     1     -11.063  -1.339  -5.731  1.00  0.00     0.060 A 
ATOM     39  C   UNL     1     -11.459  -1.844  -4.483  1.00  0.00     0.016 A 
ATOM     40  C   UNL     1     -10.293  -2.136  -6.577  1.00  0.00     0.016 A 
ATOM     41  C   UNL     1     -10.976  -3.081  -4.032  1.00  0.00     0.010 A 
ATOM     42  C   UNL     1      -9.759  -3.323  -6.095  1.00  0.00     0.010 A 
ATOM     43  C   UNL     1     -10.055  -3.795  -4.806  1.00  0.00    -0.014 A 
BRANCH  43  44
ATOM     44  C   UNL     1      -9.191  -4.878  -4.288  1.00  0.00     0.031 A 
ATOM     45  C   UNL     1      -8.928  -6.134  -5.069  1.00  0.00     0.074 A 
ATOM     46  C   UNL     1      -8.362  -4.602  -3.247  1.00  0.00     0.049 A 
ATOM     47  N   UNL     1      -8.153  -7.088  -4.657  1.00  0.00    -0.248 NA
ATOM     48  C   UNL     1      -9.525  -6.452  -6.367  1.00  0.00     0.031 C 
ATOM     49  C   UNL     1      -7.032  -5.177  -3.042  1.00  0.00     0.029 A 
ATOM     50  N   UNL     1      -8.470  -3.703  -2.189  1.00  0.00    -0.354 N 
ATOM     51  C   UNL     1      -7.845  -7.886  -5.733  1.00  0.00     0.074 A 
ATOM     52  C   UNL     1      -8.845  -7.554  -6.717  1.00  0.00     0.031 C 
ATOM     53  C   UNL     1      -6.469  -4.684  -1.935  1.00  0.00     0.029 A 
ATOM     54  C   UNL     1      -7.516  -4.023  -1.204  1.00  0.00     0.049 A 
ATOM     55  H   UNL     1      -9.113  -2.960  -2.137  1.00  0.00     0.167 HD
ATOM     56  C   UNL     1      -6.685  -8.610  -5.721  1.00  0.00     0.037 A 
ATOM     57  C   UNL     1      -7.891  -4.442   0.044  1.00  0.00     0.037 A 
ATOM     58  C   UNL     1      -6.036  -8.624  -4.397  1.00  0.00     0.049 A 
ATOM     59  C   UNL     1      -7.578  -5.898   0.348  1.00  0.00     0.074 A 
ATOM     60  C   UNL     1      -4.760  -8.341  -3.936  1.00  0.00     0.029 A 
ATOM     61  N   UNL     1      -6.802  -8.873  -3.256  1.00  0.00    -0.354 N 
ATOM     62  N   UNL     1      -7.104  -6.730  -0.542  1.00  0.00    -0.248 NA
ATOM     63  C   UNL     1      -7.768  -6.551   1.640  1.00  0.00     0.031 C 
ATOM     64  C   UNL     1      -4.785  -8.358  -2.512  1.00  0.00     0.029 A 
ATOM     65  C   UNL     1      -6.059  -8.718  -2.105  1.00  0.00     0.049 A 
ATOM     66  H   UNL     1      -7.754  -9.126  -3.272  1.00  0.00     0.167 HD
ATOM     67  C   UNL     1      -6.994  -7.986  -0.021  1.00  0.00     0.074 A 
ATOM     68  C   UNL     1      -7.380  -7.813   1.367  1.00  0.00     0.031 C 
ATOM     69  C   UNL     1      -6.636  -9.050  -0.803  1.00  0.00     0.037 A 
BRANCH  56  70
ATOM     70  C   UNL     1      -6.000  -9.183  -6.960  1.00  0.00     0.064 A 
ATOM     71  C   UNL     1      -4.931 -10.101  -6.832  1.00  0.00     0.173 A 
ATOM     72  C   UNL     1      -6.258  -8.779  -8.289  1.00  0.00     0.173 A 
ATOM     73  F   UNL     1      -4.569 -10.577  -5.632  1.00  0.00    -0.203 F 
ATOM     74  C   UNL     1      -4.185 -10.557  -7.929  1.00  0.00     0.198 A 
ATOM     75  C   UNL     1      -5.560  -9.291  -9.391  1.00  0.00     0.198 A 
ATOM     76  F   UNL     1      -7.149  -7.824  -8.577  1.00  0.00    -0.203 F 
ATOM     77  F   UNL     1      -3.139 -11.373  -7.733  1.00  0.00    -0.200 F 
ATOM     78  C   UNL     1      -4.512 -10.166  -9.211  1.00  0.00     0.200 A 
ATOM     79  F   UNL     1      -5.899  -8.902 -10.629  1.00  0.00    -0.200 F 
ATOM     80  F   UNL     1      -3.813 -10.615 -10.263  1.00  0.00    -0.200 F 
ENDBRANCH  56  70
BRANCH  57  81
ATOM     81  C   UNL     1      -8.946  -3.566   0.615  1.00  0.00     0.064 A 
ATOM     82  C   UNL     1      -8.507  -2.265   0.934  1.00  0.00     0.173 A 
ATOM     83  C   UNL     1     -10.281  -3.727   0.218  1.00  0.00     0.173 A 
ATOM     84  F   UNL     1      -7.242  -2.071   1.340  1.00  0.00    -0.203 F 
ATOM     85  C   UNL     1      -9.287  -1.153   0.630  1.00  0.00     0.198 A 
ATOM     86  C   UNL     1     -11.065  -2.606  -0.072  1.00  0.00     0.198 A 
ATOM     87  F   UNL     1     -10.754  -4.944  -0.084  1.00  0.00    -0.203 F 
ATOM     88  F   UNL     1      -8.766   0.077   0.742  1.00  0.00    -0.200 F 
ATOM     89  C   UNL     1     -10.546  -1.326   0.079  1.00  0.00     0.200 A 
ATOM     90  F   UNL     1     -12.271  -2.764  -0.635  1.00  0.00    -0.200 F 
ATOM     91  F   UNL     1     -11.226  -0.265  -0.378  1.00  0.00    -0.200 F 
ENDBRANCH  57  81
BRANCH  69  92
ATOM     92  C   UNL     1      -6.762 -10.518  -0.445  1.00  0.00     0.064 A 
ATOM     93  C   UNL     1      -7.670 -11.023   0.499  1.00  0.00     0.173 A 
ATOM     94  C   UNL     1      -6.071 -11.503  -1.200  1.00  0.00     0.173 A 
ATOM     95  F   UNL     1      -8.471 -10.214   1.203  1.00  0.00    -0.203 F 
ATOM     96  C   UNL     1      -7.840 -12.397   0.706  1.00  0.00     0.198 A 
ATOM     97  C   UNL     1      -6.287 -12.871  -1.032  1.00  0.00     0.198 A 
ATOM     98  F   UNL     1      -5.184 -11.171  -2.149  1.00  0.00    -0.203 F 
ATOM     99  F   UNL     1      -8.698 -12.822   1.644  1.00  0.00    -0.200 F 
ATOM    100  C   UNL     1      -7.163 -13.319  -0.069  1.00  0.00     0.200 A 
ATOM    101  F   UNL     1      -5.659 -13.747  -1.829  1.00  0.00    -0.200 F 
ATOM    102  F   UNL     1      -7.373 -14.631   0.097  1.00  0.00    -0.200 F 
ENDBRANCH  69  92
ENDBRANCH  43  44
ENDBRANCH  36  38
ENDBRANCH  35  36
ENDBRANCH  34  35
ENDBRANCH  33  34
ENDBRANCH  32  33
ENDBRANCH  31  32
ENDBRANCH  30  31
ENDBRANCH  29  30
ENDBRANCH   1  29
TORSDOF 23
