REMARK SMILES CC1(C)Cc2c(-c3ccccc3)c(-c3ccc(Cl)cc3)c(CC(=O)OCCOCCOCCOCCOC(=O)c3ccc(-c4c5nc(c(-c6c(F)c(F)c(F)c(F)c6F)c6ccc([nH]6)c(-c6c(F)c(F)c(F)c(F)c6F)c6nc(c(-c7c(F)c(F)c(F)c(F)c7F)c7ccc4[nH]7)C=C6)C=C5)cc3)n2C1
REMARK SMILES IDX 31 1 30 2 29 3 28 4 27 5 26 6 25 7 23 8 24 9 22 10 21 11
REMARK SMILES IDX 1 12 2 13 3 14 4 15 104 16 5 17 103 18 6 19 13 20 7 21 8 22
REMARK SMILES IDX 12 23 9 24 11 25 10 26 14 27 15 28 20 29 16 30 19 31 17 32
REMARK SMILES IDX 18 33 32 34 33 35 34 36 35 37 36 38 37 39 38 40 39 41 40 42
REMARK SMILES IDX 41 43 102 44 42 45 101 46 43 47 44 48 45 49 95 50 46 51
REMARK SMILES IDX 100 52 94 53 96 54 47 55 99 56 93 57 92 58 48 60 80 61 60 62
REMARK SMILES IDX 79 63 61 64 64 65 78 66 97 67 62 68 63 69 77 71 98 72 65 73
REMARK SMILES IDX 49 74 50 75 58 76 51 77 52 78 56 79 59 80 53 81 54 82 57 83
REMARK SMILES IDX 55 84 81 85 82 86 90 87 83 88 84 89 88 90 91 91 85 92 86 93
REMARK SMILES IDX 89 94 87 95 66 96 67 97 75 98 68 99 69 100 73 101 76 102
REMARK SMILES IDX 70 103 71 104 74 105 72 106
REMARK H PARENT 96 59 64 70
REMARK Flexibility Score: inf
ROOT
ATOM      1  O   UNL     1      -1.307  -4.922   5.746  1.00  0.00    -0.377 OA
ENDROOT
BRANCH   1   2
ATOM      2  C   UNL     1       0.058  -5.276   5.722  1.00  0.00     0.188 C 
BRANCH   2   3
ATOM      3  C   UNL     1       0.712  -5.426   7.102  1.00  0.00     0.188 C 
BRANCH   3   4
ATOM      4  O   UNL     1       0.118  -4.777   8.216  1.00  0.00    -0.376 OA
BRANCH   4   5
ATOM      5  C   UNL     1      -0.458  -3.495   8.008  1.00  0.00     0.202 C 
BRANCH   5   6
ATOM      6  C   UNL     1       0.439  -2.399   7.395  1.00  0.00     0.261 C 
BRANCH   6   7
ATOM      7  O   UNL     1       1.010  -2.707   6.090  1.00  0.00    -0.463 OA
BRANCH   7   8
ATOM      8  C   UNL     1       2.337  -2.484   5.925  1.00  0.00     0.311 C 
ATOM      9  O   UNL     1       3.010  -1.895   6.773  1.00  0.00    -0.252 OA
BRANCH   8  10
ATOM     10  C   UNL     1       3.033  -3.033   4.672  1.00  0.00     0.177 C 
BRANCH  10  11
ATOM     11  C   UNL     1       2.291  -3.627   3.484  1.00  0.00     0.037 A 
ATOM     12  C   UNL     1       1.090  -0.104   0.277  1.00  0.00     0.013 C 
ATOM     13  C   UNL     1       0.570  -1.194   1.221  1.00  0.00    -0.012 C 
ATOM     14  C   UNL     1      -0.863  -0.854   1.656  1.00  0.00     0.013 C 
ATOM     15  C   UNL     1       0.584  -2.575   0.501  1.00  0.00     0.063 C 
ATOM     16  C   UNL     1       1.496  -1.357   2.469  1.00  0.00     0.129 C 
ATOM     17  C   UNL     1       1.195  -3.465   1.506  1.00  0.00     0.027 A 
ATOM     18  N   UNL     1       1.665  -2.800   2.589  1.00  0.00    -0.346 N 
ATOM     19  C   UNL     1       1.446  -4.795   1.664  1.00  0.00     0.011 A 
ATOM     20  C   UNL     1       2.225  -4.927   2.896  1.00  0.00     0.011 A 
BRANCH  19  21
ATOM     21  C   UNL     1       0.917  -5.760   0.712  1.00  0.00    -0.016 A 
ATOM     22  C   UNL     1       1.547  -6.024  -0.510  1.00  0.00     0.009 A 
ATOM     23  C   UNL     1      -0.263  -6.434   1.028  1.00  0.00     0.009 A 
ATOM     24  C   UNL     1       1.008  -6.973  -1.387  1.00  0.00     0.001 A 
ATOM     25  C   UNL     1      -0.799  -7.381   0.154  1.00  0.00     0.001 A 
ATOM     26  C   UNL     1      -0.166  -7.649  -1.056  1.00  0.00     0.000 A 
ENDBRANCH  19  21
BRANCH  20  27
ATOM     27  C   UNL     1       2.781  -6.207   3.414  1.00  0.00    -0.016 A 
ATOM     28  C   UNL     1       2.949  -7.307   2.549  1.00  0.00     0.010 A 
ATOM     29  C   UNL     1       3.040  -6.444   4.765  1.00  0.00     0.010 A 
ATOM     30  C   UNL     1       3.195  -8.603   3.019  1.00  0.00     0.021 A 
ATOM     31  C   UNL     1       3.291  -7.739   5.253  1.00  0.00     0.021 A 
ATOM     32  C   UNL     1       3.331  -8.820   4.380  1.00  0.00     0.041 A 
ATOM     33  Cl  UNL     1       3.496 -10.420   4.982  1.00  0.00    -0.084 Cl
ENDBRANCH  20  27
ENDBRANCH  10  11
ENDBRANCH   8  10
ENDBRANCH   7   8
ENDBRANCH   6   7
ENDBRANCH   5   6
ENDBRANCH   4   5
ENDBRANCH   3   4
ENDBRANCH   2   3
ENDBRANCH   1   2
BRANCH   1  34
ATOM     34  C   UNL     1      -2.229  -5.965   5.516  1.00  0.00     0.188 C 
BRANCH  34  35
ATOM     35  C   UNL     1      -1.979  -7.258   6.291  1.00  0.00     0.188 C 
BRANCH  35  36
ATOM     36  O   UNL     1      -0.880  -8.094   5.907  1.00  0.00    -0.376 OA
BRANCH  36  37
ATOM     37  C   UNL     1      -0.512  -8.258   4.540  1.00  0.00     0.202 C 
BRANCH  37  38
ATOM     38  C   UNL     1      -1.111  -9.456   3.831  1.00  0.00     0.261 C 
BRANCH  38  39
ATOM     39  O   UNL     1      -2.296  -8.999   3.197  1.00  0.00    -0.460 OA
BRANCH  39  40
ATOM     40  C   UNL     1      -3.388  -8.912   3.991  1.00  0.00     0.338 C 
ATOM     41  O   UNL     1      -3.631  -9.519   5.004  1.00  0.00    -0.246 OA
BRANCH  40  42
ATOM     42  C   UNL     1      -4.304  -8.023   3.263  1.00  0.00     0.060 A 
ATOM     43  C   UNL     1      -5.581  -8.539   3.142  1.00  0.00     0.016 A 
ATOM     44  C   UNL     1      -3.769  -7.097   2.349  1.00  0.00     0.016 A 
ATOM     45  C   UNL     1      -6.155  -8.438   1.902  1.00  0.00     0.010 A 
ATOM     46  C   UNL     1      -4.335  -7.005   1.106  1.00  0.00     0.010 A 
ATOM     47  C   UNL     1      -5.455  -7.781   0.875  1.00  0.00    -0.014 A 
BRANCH  47  48
ATOM     48  C   UNL     1      -6.033  -7.850  -0.436  1.00  0.00     0.031 A 
ATOM     49  C   UNL     1      -7.173  -6.940  -0.576  1.00  0.00     0.074 A 
ATOM     50  C   UNL     1      -5.635  -8.685  -1.405  1.00  0.00     0.049 A 
ATOM     51  N   UNL     1      -8.419  -7.265  -0.534  1.00  0.00    -0.248 NA
ATOM     52  C   UNL     1      -6.899  -5.500  -0.559  1.00  0.00     0.031 C 
ATOM     53  C   UNL     1      -4.391  -9.434  -1.559  1.00  0.00     0.029 A 
ATOM     54  N   UNL     1      -6.324  -8.974  -2.537  1.00  0.00    -0.354 N 
ATOM     55  C   UNL     1      -9.108  -6.071  -0.627  1.00  0.00     0.074 A 
ATOM     56  C   UNL     1      -8.137  -5.014  -0.485  1.00  0.00     0.031 C 
ATOM     57  C   UNL     1      -4.335  -9.923  -2.822  1.00  0.00     0.029 A 
ATOM     58  C   UNL     1      -5.591  -9.633  -3.501  1.00  0.00     0.049 A 
ATOM     59  H   UNL     1      -7.271  -8.733  -2.659  1.00  0.00     0.167 HD
ATOM     60  C   UNL     1     -10.403  -6.044  -1.027  1.00  0.00     0.037 A 
ATOM     61  C   UNL     1      -5.993  -9.808  -4.783  1.00  0.00     0.037 A 
ATOM     62  C   UNL     1     -11.027  -7.337  -0.922  1.00  0.00     0.049 A 
ATOM     63  C   UNL     1      -7.479  -9.675  -4.813  1.00  0.00     0.074 A 
ATOM     64  C   UNL     1     -11.277  -8.201   0.129  1.00  0.00     0.029 A 
ATOM     65  N   UNL     1     -11.156  -8.095  -2.062  1.00  0.00    -0.354 N 
ATOM     66  N   UNL     1      -8.302 -10.545  -4.295  1.00  0.00    -0.248 NA
ATOM     67  C   UNL     1      -8.046  -8.351  -5.040  1.00  0.00     0.031 C 
ATOM     68  C   UNL     1     -11.076  -9.509  -0.403  1.00  0.00     0.029 A 
ATOM     69  C   UNL     1     -10.744  -9.367  -1.751  1.00  0.00     0.049 A 
ATOM     70  H   UNL     1     -11.483  -7.784  -2.937  1.00  0.00     0.167 HD
ATOM     71  C   UNL     1      -9.329  -9.787  -3.748  1.00  0.00     0.074 A 
ATOM     72  C   UNL     1      -9.168  -8.456  -4.322  1.00  0.00     0.031 C 
ATOM     73  C   UNL     1     -10.041 -10.231  -2.671  1.00  0.00     0.037 A 
BRANCH  60  74
ATOM     74  C   UNL     1     -10.975  -4.914  -1.822  1.00  0.00     0.064 A 
ATOM     75  C   UNL     1     -12.367  -4.806  -1.966  1.00  0.00     0.173 A 
ATOM     76  C   UNL     1     -10.196  -4.092  -2.666  1.00  0.00     0.173 A 
ATOM     77  F   UNL     1     -13.190  -5.573  -1.236  1.00  0.00    -0.203 F 
ATOM     78  C   UNL     1     -12.936  -3.967  -2.925  1.00  0.00     0.198 A 
ATOM     79  C   UNL     1     -10.767  -3.212  -3.577  1.00  0.00     0.198 A 
ATOM     80  F   UNL     1      -8.861  -4.192  -2.723  1.00  0.00    -0.203 F 
ATOM     81  F   UNL     1     -14.262  -3.978  -3.113  1.00  0.00    -0.200 F 
ATOM     82  C   UNL     1     -12.136  -3.171  -3.728  1.00  0.00     0.200 A 
ATOM     83  F   UNL     1      -9.974  -2.466  -4.359  1.00  0.00    -0.200 F 
ATOM     84  F   UNL     1     -12.679  -2.404  -4.682  1.00  0.00    -0.200 F 
ENDBRANCH  60  74
BRANCH  61  85
ATOM     85  C   UNL     1      -5.161  -9.730  -6.005  1.00  0.00     0.064 A 
ATOM     86  C   UNL     1      -5.674 -10.138  -7.247  1.00  0.00     0.173 A 
ATOM     87  C   UNL     1      -3.955  -9.001  -6.035  1.00  0.00     0.173 A 
ATOM     88  F   UNL     1      -6.839 -10.798  -7.312  1.00  0.00    -0.203 F 
ATOM     89  C   UNL     1      -5.037  -9.807  -8.447  1.00  0.00     0.198 A 
ATOM     90  C   UNL     1      -3.314  -8.683  -7.232  1.00  0.00     0.198 A 
ATOM     91  F   UNL     1      -3.421  -8.496  -4.915  1.00  0.00    -0.203 F 
ATOM     92  F   UNL     1      -5.595 -10.152  -9.616  1.00  0.00    -0.200 F 
ATOM     93  C   UNL     1      -3.864  -9.071  -8.439  1.00  0.00     0.200 A 
ATOM     94  F   UNL     1      -2.197  -7.942  -7.210  1.00  0.00    -0.200 F 
ATOM     95  F   UNL     1      -3.287  -8.701  -9.590  1.00  0.00    -0.200 F 
ENDBRANCH  61  85
BRANCH  73  96
ATOM     96  C   UNL     1      -9.874 -11.669  -2.269  1.00  0.00     0.064 A 
ATOM     97  C   UNL     1      -8.651 -12.230  -1.863  1.00  0.00     0.173 A 
ATOM     98  C   UNL     1     -11.016 -12.477  -2.178  1.00  0.00     0.173 A 
ATOM     99  F   UNL     1      -7.536 -11.490  -1.810  1.00  0.00    -0.203 F 
ATOM    100  C   UNL     1      -8.569 -13.558  -1.447  1.00  0.00     0.198 A 
ATOM    101  C   UNL     1     -10.937 -13.791  -1.724  1.00  0.00     0.198 A 
ATOM    102  F   UNL     1     -12.222 -11.977  -2.493  1.00  0.00    -0.203 F 
ATOM    103  F   UNL     1      -7.385 -14.078  -1.089  1.00  0.00    -0.200 F 
ATOM    104  C   UNL     1      -9.712 -14.336  -1.374  1.00  0.00     0.200 A 
ATOM    105  F   UNL     1     -12.054 -14.523  -1.605  1.00  0.00    -0.200 F 
ATOM    106  F   UNL     1      -9.639 -15.602  -0.942  1.00  0.00    -0.200 F 
ENDBRANCH  73  96
ENDBRANCH  47  48
ENDBRANCH  40  42
ENDBRANCH  39  40
ENDBRANCH  38  39
ENDBRANCH  37  38
ENDBRANCH  36  37
ENDBRANCH  35  36
ENDBRANCH  34  35
ENDBRANCH   1  34
TORSDOF 23
