REMARK SMILES Cc1cscc1-c1ncc(C(=O)OCCOCCOCCOCCOC(=O)c2ccc(-c3c4nc(c(-c5c(F)c(F)c(F)c(F)c5F)c5ccc([nH]5)c(-c5c(F)c(F)c(F)c(F)c5F)c5nc(c(-c6c(F)c(F)c(F)c(F)c6F)c6ccc3[nH]6)C=C5)C=C4)cc2)c(=O)[nH]1
REMARK SMILES IDX 20 1 19 2 18 3 17 4 16 5 15 6 14 7 13 8 11 9 12 10 10 11
REMARK SMILES IDX 7 12 8 13 93 14 9 15 91 16 92 18 6 19 1 20 2 21 3 22 4 23
REMARK SMILES IDX 5 24 21 25 22 26 23 27 24 28 25 29 26 30 27 31 28 32 29 33
REMARK SMILES IDX 90 34 30 35 89 36 31 37 32 38 33 39 83 40 34 41 88 42 82 43
REMARK SMILES IDX 84 44 35 45 87 46 81 47 80 48 36 50 68 51 48 52 67 53 49 54
REMARK SMILES IDX 52 55 66 56 85 57 50 58 51 59 65 61 86 62 53 63 37 64 38 65
REMARK SMILES IDX 46 66 39 67 40 68 44 69 47 70 41 71 42 72 45 73 43 74 69 75
REMARK SMILES IDX 70 76 78 77 71 78 72 79 76 80 79 81 73 82 74 83 77 84 75 85
REMARK SMILES IDX 54 86 55 87 63 88 56 89 57 90 61 91 64 92 58 93 59 94 62 95
REMARK SMILES IDX 60 96
REMARK H PARENT 93 17 84 49 52 60
REMARK Flexibility Score: inf
ROOT
ATOM      1  C   UNL     1       6.004   7.220   2.345  1.00  0.00     0.188 C 
ENDROOT
BRANCH   1   2
ATOM      2  O   UNL     1       5.080   6.161   2.116  1.00  0.00    -0.377 OA
BRANCH   2   3
ATOM      3  C   UNL     1       5.104   5.441   0.891  1.00  0.00     0.188 C 
BRANCH   3   4
ATOM      4  C   UNL     1       5.287   6.194  -0.446  1.00  0.00     0.188 C 
BRANCH   4   5
ATOM      5  O   UNL     1       5.588   7.569  -0.297  1.00  0.00    -0.376 OA
BRANCH   5   6
ATOM      6  C   UNL     1       4.609   8.535  -0.623  1.00  0.00     0.202 C 
BRANCH   6   7
ATOM      7  C   UNL     1       3.258   8.500   0.106  1.00  0.00     0.261 C 
BRANCH   7   8
ATOM      8  O   UNL     1       2.698   7.199   0.317  1.00  0.00    -0.459 OA
BRANCH   8   9
ATOM      9  C   UNL     1       2.102   6.608  -0.740  1.00  0.00     0.345 C 
ATOM     10  O   UNL     1       2.016   7.079  -1.864  1.00  0.00    -0.246 OA
BRANCH   9  11
ATOM     11  C   UNL     1       1.744   5.223  -0.394  1.00  0.00     0.143 A 
ATOM     12  C   UNL     1       1.103   2.600  -0.031  1.00  0.00     0.141 A 
ATOM     13  N   UNL     1       1.769   2.911  -1.094  1.00  0.00    -0.237 NA
ATOM     14  N   UNL     1       0.800   3.488   0.963  1.00  0.00    -0.306 N 
ATOM     15  C   UNL     1       2.071   4.243  -1.252  1.00  0.00     0.135 A 
ATOM     16  C   UNL     1       1.097   4.820   0.867  1.00  0.00     0.265 A 
ATOM     17  H   UNL     1       0.354   3.159   1.776  1.00  0.00     0.171 HD
ATOM     18  O   UNL     1       0.787   5.606   1.753  1.00  0.00    -0.269 OA
BRANCH  12  19
ATOM     19  C   UNL     1       0.534   1.270   0.092  1.00  0.00     0.031 A 
ATOM     20  C   UNL     1       2.683  -0.207  -0.045  1.00  0.00     0.046 C 
ATOM     21  C   UNL     1       1.206  -0.007   0.045  1.00  0.00    -0.029 A 
ATOM     22  C   UNL     1       0.295  -1.049   0.094  1.00  0.00     0.069 A 
ATOM     23  S   UNL     1      -1.322  -0.523   0.216  1.00  0.00    -0.151 S 
ATOM     24  C   UNL     1      -0.839   1.109   0.197  1.00  0.00     0.077 A 
ENDBRANCH  12  19
ENDBRANCH   9  11
ENDBRANCH   8   9
ENDBRANCH   7   8
ENDBRANCH   6   7
ENDBRANCH   5   6
ENDBRANCH   4   5
ENDBRANCH   3   4
ENDBRANCH   2   3
ENDBRANCH   1   2
BRANCH   1  25
ATOM     25  C   UNL     1       7.414   7.202   1.710  1.00  0.00     0.188 C 
BRANCH  25  26
ATOM     26  O   UNL     1       7.717   6.024   0.982  1.00  0.00    -0.376 OA
BRANCH  26  27
ATOM     27  C   UNL     1       8.634   5.112   1.559  1.00  0.00     0.202 C 
BRANCH  27  28
ATOM     28  C   UNL     1       8.216   4.452   2.881  1.00  0.00     0.261 C 
BRANCH  28  29
ATOM     29  O   UNL     1       7.836   5.346   3.939  1.00  0.00    -0.460 OA
BRANCH  29  30
ATOM     30  C   UNL     1       8.801   6.139   4.442  1.00  0.00     0.338 C 
ATOM     31  O   UNL     1       9.978   6.174   4.110  1.00  0.00    -0.246 OA
BRANCH  30  32
ATOM     32  C   UNL     1       8.170   7.115   5.351  1.00  0.00     0.060 A 
ATOM     33  C   UNL     1       8.314   8.481   5.080  1.00  0.00     0.016 A 
ATOM     34  C   UNL     1       7.457   6.685   6.473  1.00  0.00     0.016 A 
ATOM     35  C   UNL     1       7.797   9.424   5.965  1.00  0.00     0.010 A 
ATOM     36  C   UNL     1       6.954   7.632   7.370  1.00  0.00     0.010 A 
ATOM     37  C   UNL     1       7.165   9.004   7.143  1.00  0.00    -0.014 A 
BRANCH  37  38
ATOM     38  C   UNL     1       6.932   9.994   8.223  1.00  0.00     0.031 A 
ATOM     39  C   UNL     1       7.930  10.072   9.346  1.00  0.00     0.074 A 
ATOM     40  C   UNL     1       5.900  10.853   8.174  1.00  0.00     0.049 A 
ATOM     41  N   UNL     1       7.964  10.873  10.380  1.00  0.00    -0.248 NA
ATOM     42  C   UNL     1       9.046   9.113   9.294  1.00  0.00     0.031 C 
ATOM     43  C   UNL     1       4.893  10.903   7.117  1.00  0.00     0.029 A 
ATOM     44  N   UNL     1       5.536  11.856   9.037  1.00  0.00    -0.354 N 
ATOM     45  C   UNL     1       9.099  10.516  11.097  1.00  0.00     0.074 A 
ATOM     46  C   UNL     1       9.703   9.398  10.408  1.00  0.00     0.031 C 
ATOM     47  C   UNL     1       4.023  11.891   7.393  1.00  0.00     0.029 A 
ATOM     48  C   UNL     1       4.397  12.521   8.659  1.00  0.00     0.049 A 
ATOM     49  H   UNL     1       6.045  12.078   9.851  1.00  0.00     0.167 HD
ATOM     50  C   UNL     1       9.601  11.079  12.222  1.00  0.00     0.037 A 
ATOM     51  C   UNL     1       3.729  13.517   9.274  1.00  0.00     0.037 A 
ATOM     52  C   UNL     1       8.993  12.188  12.909  1.00  0.00     0.049 A 
ATOM     53  C   UNL     1       4.266  14.077  10.568  1.00  0.00     0.074 A 
ATOM     54  C   UNL     1       9.424  12.836  14.052  1.00  0.00     0.029 A 
ATOM     55  N   UNL     1       7.813  12.806  12.519  1.00  0.00    -0.354 N 
ATOM     56  N   UNL     1       5.353  13.752  11.226  1.00  0.00    -0.248 NA
ATOM     57  C   UNL     1       3.486  15.151  11.198  1.00  0.00     0.031 C 
ATOM     58  C   UNL     1       8.473  13.804  14.391  1.00  0.00     0.029 A 
ATOM     59  C   UNL     1       7.488  13.812  13.416  1.00  0.00     0.049 A 
ATOM     60  H   UNL     1       7.286  12.566  11.723  1.00  0.00     0.167 HD
ATOM     61  C   UNL     1       5.409  14.607  12.321  1.00  0.00     0.074 A 
ATOM     62  C   UNL     1       4.250  15.470  12.232  1.00  0.00     0.031 C 
ATOM     63  C   UNL     1       6.338  14.674  13.308  1.00  0.00     0.037 A 
BRANCH  50  64
ATOM     64  C   UNL     1      10.855  10.481  12.795  1.00  0.00     0.064 A 
ATOM     65  C   UNL     1      12.093  10.587  12.143  1.00  0.00     0.173 A 
ATOM     66  C   UNL     1      10.820   9.808  14.026  1.00  0.00     0.173 A 
ATOM     67  F   UNL     1      12.181  11.206  10.956  1.00  0.00    -0.203 F 
ATOM     68  C   UNL     1      13.241  10.013  12.685  1.00  0.00     0.198 A 
ATOM     69  C   UNL     1      11.976   9.267  14.582  1.00  0.00     0.198 A 
ATOM     70  F   UNL     1       9.664   9.679  14.694  1.00  0.00    -0.203 F 
ATOM     71  F   UNL     1      14.400  10.077  12.016  1.00  0.00    -0.200 F 
ATOM     72  C   UNL     1      13.183   9.361  13.907  1.00  0.00     0.200 A 
ATOM     73  F   UNL     1      11.920   8.650  15.771  1.00  0.00    -0.200 F 
ATOM     74  F   UNL     1      14.289   8.815  14.431  1.00  0.00    -0.200 F 
ENDBRANCH  50  64
BRANCH  51  75
ATOM     75  C   UNL     1       2.478  14.055   8.675  1.00  0.00     0.064 A 
ATOM     76  C   UNL     1       2.412  15.368   8.187  1.00  0.00     0.173 A 
ATOM     77  C   UNL     1       1.314  13.275   8.601  1.00  0.00     0.173 A 
ATOM     78  F   UNL     1       3.490  16.164   8.260  1.00  0.00    -0.203 F 
ATOM     79  C   UNL     1       1.227  15.886   7.668  1.00  0.00     0.198 A 
ATOM     80  C   UNL     1       0.139  13.783   8.051  1.00  0.00     0.198 A 
ATOM     81  F   UNL     1       1.321  12.014   9.056  1.00  0.00    -0.203 F 
ATOM     82  F   UNL     1       1.179  17.161   7.258  1.00  0.00    -0.200 F 
ATOM     83  C   UNL     1       0.093  15.091   7.594  1.00  0.00     0.200 A 
ATOM     84  F   UNL     1      -0.950  13.007   7.970  1.00  0.00    -0.200 F 
ATOM     85  F   UNL     1      -1.045  15.588   7.092  1.00  0.00    -0.200 F 
ENDBRANCH  51  75
BRANCH  63  86
ATOM     86  C   UNL     1       6.178  15.757  14.339  1.00  0.00     0.064 A 
ATOM     87  C   UNL     1       5.142  15.741  15.285  1.00  0.00     0.173 A 
ATOM     88  C   UNL     1       7.102  16.814  14.400  1.00  0.00     0.173 A 
ATOM     89  F   UNL     1       4.226  14.761  15.266  1.00  0.00    -0.203 F 
ATOM     90  C   UNL     1       5.016  16.759  16.227  1.00  0.00     0.198 A 
ATOM     91  C   UNL     1       6.995  17.808  15.368  1.00  0.00     0.198 A 
ATOM     92  F   UNL     1       8.120  16.874  13.528  1.00  0.00    -0.203 F 
ATOM     93  F   UNL     1       3.982  16.753  17.081  1.00  0.00    -0.200 F 
ATOM     94  C   UNL     1       5.945  17.787  16.273  1.00  0.00     0.200 A 
ATOM     95  F   UNL     1       7.906  18.790  15.422  1.00  0.00    -0.200 F 
ATOM     96  F   UNL     1       5.825  18.762  17.184  1.00  0.00    -0.200 F 
ENDBRANCH  63  86
ENDBRANCH  37  38
ENDBRANCH  30  32
ENDBRANCH  29  30
ENDBRANCH  28  29
ENDBRANCH  27  28
ENDBRANCH  26  27
ENDBRANCH  25  26
ENDBRANCH   1  25
TORSDOF 21
