REMARK SMILES CN1C(=O)C[C@@H](C(=O)OCCOCCOCCOCCOC(=O)c2ccc(-c3c4nc(c(-c5c(F)c(F)c(F)c(F)c5F)c5ccc([nH]5)c(-c5c(F)c(F)c(F)c(F)c5F)c5nc(c(-c6c(F)c(F)c(F)c(F)c6F)c6ccc3[nH]6)C=C5)C=C4)cc2)C12CCN(C(=O)c1ccccc1-n1cccn1)CC2
REMARK SMILES IDX 15 1 14 2 13 3 12 4 11 5 10 6 9 7 7 8 8 9 6 10 1 11 2 12
REMARK SMILES IDX 3 13 87 14 4 15 5 16 88 17 105 18 89 19 104 20 90 21 91 22
REMARK SMILES IDX 92 23 93 24 94 25 98 26 95 27 97 28 96 29 99 30 100 31
REMARK SMILES IDX 103 32 101 33 102 34 16 35 17 36 18 37 19 38 20 39 21 40
REMARK SMILES IDX 22 41 23 42 24 43 25 44 86 45 26 46 85 47 27 48 28 49 29 50
REMARK SMILES IDX 79 51 30 52 84 53 78 54 80 55 31 56 83 57 77 58 76 59 32 61
REMARK SMILES IDX 64 62 44 63 63 64 45 65 48 66 62 67 81 68 46 69 47 70 61 72
REMARK SMILES IDX 82 73 49 74 33 75 34 76 42 77 35 78 36 79 40 80 43 81 37 82
REMARK SMILES IDX 38 83 41 84 39 85 65 86 66 87 74 88 67 89 68 90 72 91 75 92
REMARK SMILES IDX 69 93 70 94 73 95 71 96 50 97 51 98 59 99 52 100 53 101
REMARK SMILES IDX 57 102 60 103 54 104 55 105 58 106 56 107
REMARK H PARENT 80 60 48 71
REMARK Flexibility Score: inf
ROOT
ATOM      1  O   UNL     1      -1.110  -2.039   4.791  1.00  0.00    -0.377 OA
ENDROOT
BRANCH   1   2
ATOM      2  C   UNL     1      -0.598  -1.461   5.973  1.00  0.00     0.188 C 
BRANCH   2   3
ATOM      3  C   UNL     1      -1.597  -0.739   6.869  1.00  0.00     0.188 C 
BRANCH   3   4
ATOM      4  O   UNL     1      -2.974  -1.000   6.708  1.00  0.00    -0.376 OA
BRANCH   4   5
ATOM      5  C   UNL     1      -3.543  -1.003   5.403  1.00  0.00     0.202 C 
BRANCH   5   6
ATOM      6  C   UNL     1      -3.243   0.121   4.381  1.00  0.00     0.261 C 
BRANCH   6   7
ATOM      7  O   UNL     1      -1.915   0.186   3.774  1.00  0.00    -0.463 OA
BRANCH   7   8
ATOM      8  C   UNL     1      -1.127   1.198   4.193  1.00  0.00     0.311 C 
ATOM      9  O   UNL     1      -1.461   1.973   5.091  1.00  0.00    -0.252 OA
BRANCH   8  10
ATOM     10  C   UNL     1       0.183   1.472   3.451  1.00  0.00     0.134 C 
ATOM     11  C   UNL     1       0.756   0.158  -0.034  1.00  0.00     0.147 C 
ATOM     12  N   UNL     1       0.460   0.880   1.192  1.00  0.00    -0.339 N 
ATOM     13  C   UNL     1      -0.264   2.059   1.179  1.00  0.00     0.223 C 
ATOM     14  C   UNL     1       1.040   0.556   2.518  1.00  0.00     0.060 C 
ATOM     15  O   UNL     1      -0.827   2.560   0.220  1.00  0.00    -0.275 OA
ATOM     16  C   UNL     1      -0.178   2.670   2.545  1.00  0.00     0.118 C 
ATOM     17  C   UNL     1       1.048  -0.962   2.753  1.00  0.00     0.051 C 
ATOM     18  C   UNL     1       2.533   1.053   2.525  1.00  0.00     0.051 C 
ATOM     19  C   UNL     1       1.997  -1.499   3.824  1.00  0.00     0.122 C 
ATOM     20  C   UNL     1       3.417   0.473   3.633  1.00  0.00     0.122 C 
ATOM     21  N   UNL     1       3.345  -0.983   3.704  1.00  0.00    -0.338 N 
ATOM     22  C   UNL     1       4.512  -1.696   4.018  1.00  0.00     0.256 C 
ATOM     23  O   UNL     1       5.601  -1.142   4.167  1.00  0.00    -0.269 OA
BRANCH  22  24
ATOM     24  C   UNL     1       4.510  -3.172   4.233  1.00  0.00     0.065 A 
ATOM     25  C   UNL     1       4.963  -3.609   5.495  1.00  0.00     0.016 A 
ATOM     26  C   UNL     1       4.142  -4.141   3.287  1.00  0.00     0.077 A 
ATOM     27  C   UNL     1       5.068  -4.972   5.797  1.00  0.00     0.001 A 
ATOM     28  C   UNL     1       4.245  -5.512   3.599  1.00  0.00     0.029 A 
ATOM     29  C   UNL     1       4.738  -5.924   4.837  1.00  0.00     0.002 A 
BRANCH  26  30
ATOM     30  N   UNL     1       3.624  -3.813   2.018  1.00  0.00    -0.240 N 
ATOM     31  C   UNL     1       4.011  -2.815   1.159  1.00  0.00     0.115 A 
ATOM     32  N   UNL     1       2.552  -4.499   1.537  1.00  0.00    -0.177 NA
ATOM     33  C   UNL     1       3.104  -2.806   0.126  1.00  0.00     0.042 A 
ATOM     34  C   UNL     1       2.201  -3.833   0.437  1.00  0.00     0.135 A 
ENDBRANCH  26  30
ENDBRANCH  22  24
ENDBRANCH   8  10
ENDBRANCH   7   8
ENDBRANCH   6   7
ENDBRANCH   5   6
ENDBRANCH   4   5
ENDBRANCH   3   4
ENDBRANCH   2   3
ENDBRANCH   1   2
BRANCH   1  35
ATOM     35  C   UNL     1      -1.262  -3.443   4.641  1.00  0.00     0.188 C 
BRANCH  35  36
ATOM     36  C   UNL     1      -1.412  -4.287   5.906  1.00  0.00     0.188 C 
BRANCH  36  37
ATOM     37  O   UNL     1      -0.288  -4.304   6.787  1.00  0.00    -0.376 OA
BRANCH  37  38
ATOM     38  C   UNL     1       1.004  -4.431   6.191  1.00  0.00     0.202 C 
BRANCH  38  39
ATOM     39  C   UNL     1       1.280  -5.807   5.622  1.00  0.00     0.261 C 
BRANCH  39  40
ATOM     40  O   UNL     1       0.637  -5.939   4.349  1.00  0.00    -0.460 OA
BRANCH  40  41
ATOM     41  C   UNL     1      -0.038  -7.085   4.180  1.00  0.00     0.338 C 
ATOM     42  O   UNL     1      -0.084  -8.051   4.937  1.00  0.00    -0.246 OA
BRANCH  41  43
ATOM     43  C   UNL     1      -0.909  -6.955   3.014  1.00  0.00     0.060 A 
ATOM     44  C   UNL     1      -2.287  -7.016   3.241  1.00  0.00     0.016 A 
ATOM     45  C   UNL     1      -0.386  -6.901   1.720  1.00  0.00     0.016 A 
ATOM     46  C   UNL     1      -3.155  -7.116   2.165  1.00  0.00     0.010 A 
ATOM     47  C   UNL     1      -1.259  -7.013   0.637  1.00  0.00     0.010 A 
ATOM     48  C   UNL     1      -2.637  -7.182   0.865  1.00  0.00    -0.014 A 
BRANCH  48  49
ATOM     49  C   UNL     1      -3.522  -7.673  -0.213  1.00  0.00     0.031 A 
ATOM     50  C   UNL     1      -3.453  -9.130  -0.578  1.00  0.00     0.074 A 
ATOM     51  C   UNL     1      -4.420  -6.856  -0.785  1.00  0.00     0.049 A 
ATOM     52  N   UNL     1      -4.123  -9.794  -1.482  1.00  0.00    -0.248 NA
ATOM     53  C   UNL     1      -2.499  -9.952   0.187  1.00  0.00     0.031 C 
ATOM     54  C   UNL     1      -4.612  -5.447  -0.449  1.00  0.00     0.029 A 
ATOM     55  N   UNL     1      -5.343  -7.101  -1.768  1.00  0.00    -0.354 N 
ATOM     56  C   UNL     1      -3.670 -11.104  -1.398  1.00  0.00     0.074 A 
ATOM     57  C   UNL     1      -2.644 -11.139  -0.381  1.00  0.00     0.031 C 
ATOM     58  C   UNL     1      -5.590  -4.946  -1.222  1.00  0.00     0.029 A 
ATOM     59  C   UNL     1      -6.063  -5.990  -2.129  1.00  0.00     0.049 A 
ATOM     60  H   UNL     1      -5.476  -7.987  -2.175  1.00  0.00     0.167 HD
ATOM     61  C   UNL     1      -4.083 -12.183  -2.104  1.00  0.00     0.037 A 
ATOM     62  C   UNL     1      -6.980  -5.838  -3.103  1.00  0.00     0.037 A 
ATOM     63  C   UNL     1      -5.105 -12.129  -3.114  1.00  0.00     0.049 A 
ATOM     64  C   UNL     1      -7.355  -7.035  -3.941  1.00  0.00     0.074 A 
ATOM     65  C   UNL     1      -5.605 -13.157  -3.893  1.00  0.00     0.029 A 
ATOM     66  N   UNL     1      -5.777 -10.975  -3.491  1.00  0.00    -0.354 N 
ATOM     67  N   UNL     1      -6.932  -8.273  -3.853  1.00  0.00    -0.248 NA
ATOM     68  C   UNL     1      -8.337  -6.813  -5.011  1.00  0.00     0.031 C 
ATOM     69  C   UNL     1      -6.533 -12.613  -4.784  1.00  0.00     0.029 A 
ATOM     70  C   UNL     1      -6.666 -11.259  -4.513  1.00  0.00     0.049 A 
ATOM     71  H   UNL     1      -5.643 -10.086  -3.090  1.00  0.00     0.167 HD
ATOM     72  C   UNL     1      -7.619  -8.984  -4.828  1.00  0.00     0.074 A 
ATOM     73  C   UNL     1      -8.492  -8.039  -5.492  1.00  0.00     0.031 C 
ATOM     74  C   UNL     1      -7.539 -10.301  -5.145  1.00  0.00     0.037 A 
BRANCH  61  75
ATOM     75  C   UNL     1      -3.401 -13.494  -1.837  1.00  0.00     0.064 A 
ATOM     76  C   UNL     1      -3.575 -14.191  -0.632  1.00  0.00     0.173 A 
ATOM     77  C   UNL     1      -2.575 -14.072  -2.813  1.00  0.00     0.173 A 
ATOM     78  F   UNL     1      -4.341 -13.676   0.342  1.00  0.00    -0.203 F 
ATOM     79  C   UNL     1      -2.926 -15.403  -0.404  1.00  0.00     0.198 A 
ATOM     80  C   UNL     1      -1.955 -15.299  -2.595  1.00  0.00     0.198 A 
ATOM     81  F   UNL     1      -2.374 -13.450  -3.985  1.00  0.00    -0.203 F 
ATOM     82  F   UNL     1      -3.065 -16.024   0.776  1.00  0.00    -0.200 F 
ATOM     83  C   UNL     1      -2.123 -15.959  -1.388  1.00  0.00     0.200 A 
ATOM     84  F   UNL     1      -1.190 -15.841  -3.553  1.00  0.00    -0.200 F 
ATOM     85  F   UNL     1      -1.505 -17.128  -1.169  1.00  0.00    -0.200 F 
ENDBRANCH  61  75
BRANCH  62  86
ATOM     86  C   UNL     1      -7.588  -4.504  -3.350  1.00  0.00     0.064 A 
ATOM     87  C   UNL     1      -8.951  -4.272  -3.123  1.00  0.00     0.173 A 
ATOM     88  C   UNL     1      -6.817  -3.435  -3.831  1.00  0.00     0.173 A 
ATOM     89  F   UNL     1      -9.735  -5.268  -2.682  1.00  0.00    -0.203 F 
ATOM     90  C   UNL     1      -9.524  -3.030  -3.387  1.00  0.00     0.198 A 
ATOM     91  C   UNL     1      -7.384  -2.184  -4.065  1.00  0.00     0.198 A 
ATOM     92  F   UNL     1      -5.507  -3.602  -4.065  1.00  0.00    -0.203 F 
ATOM     93  F   UNL     1     -10.840  -2.850  -3.208  1.00  0.00    -0.200 F 
ATOM     94  C   UNL     1      -8.739  -1.985  -3.852  1.00  0.00     0.200 A 
ATOM     95  F   UNL     1      -6.618  -1.174  -4.500  1.00  0.00    -0.200 F 
ATOM     96  F   UNL     1      -9.291  -0.790  -4.103  1.00  0.00    -0.200 F 
ENDBRANCH  62  86
BRANCH  74  97
ATOM     97  C   UNL     1      -8.454 -10.813  -6.219  1.00  0.00     0.064 A 
ATOM     98  C   UNL     1      -8.258 -10.497  -7.571  1.00  0.00     0.173 A 
ATOM     99  C   UNL     1      -9.498 -11.694  -5.893  1.00  0.00     0.173 A 
ATOM    100  F   UNL     1      -7.283  -9.650  -7.933  1.00  0.00    -0.203 F 
ATOM    101  C   UNL     1      -9.087 -11.030  -8.555  1.00  0.00     0.198 A 
ATOM    102  C   UNL     1     -10.301 -12.251  -6.883  1.00  0.00     0.198 A 
ATOM    103  F   UNL     1      -9.720 -12.035  -4.615  1.00  0.00    -0.203 F 
ATOM    104  F   UNL     1      -8.908 -10.682  -9.837  1.00  0.00    -0.200 F 
ATOM    105  C   UNL     1     -10.099 -11.914  -8.212  1.00  0.00     0.200 A 
ATOM    106  F   UNL     1     -11.265 -13.120  -6.550  1.00  0.00    -0.200 F 
ATOM    107  F   UNL     1     -10.882 -12.440  -9.164  1.00  0.00    -0.200 F 
ENDBRANCH  74  97
ENDBRANCH  48  49
ENDBRANCH  41  43
ENDBRANCH  40  41
ENDBRANCH  39  40
ENDBRANCH  38  39
ENDBRANCH  37  38
ENDBRANCH  36  37
ENDBRANCH  35  36
ENDBRANCH   1  35
TORSDOF 22
