REMARK SMILES CC(C)[C@@H](NC(=O)C1=Cc2cc(Br)ccc2OC1)C(=O)OCCOCCOCCOCCOC(=O)c1ccc(-c2c3nc(c(-c4c(F)c(F)c(F)c(F)c4F)c4ccc([nH]4)c(-c4c(F)c(F)c(F)c(F)c4F)c4nc(c(-c5c(F)c(F)c(F)c(F)c5F)c5ccc2[nH]5)C=C4)C=C3)cc1
REMARK SMILES IDX 27 1 26 2 25 3 24 4 23 5 22 6 21 7 19 8 20 9 4 10 2 11 1 12
REMARK SMILES IDX 3 13 5 14 6 15 7 17 8 18 9 19 18 20 10 21 17 22 11 23 16 24
REMARK SMILES IDX 12 25 15 26 13 27 14 28 28 29 29 30 30 31 31 32 32 33 33 34
REMARK SMILES IDX 34 35 35 36 36 37 37 38 98 39 38 40 97 41 39 42 40 43 41 44
REMARK SMILES IDX 91 45 42 46 96 47 90 48 92 49 43 50 95 51 89 52 88 53 44 55
REMARK SMILES IDX 76 56 56 57 75 58 57 59 60 60 74 61 93 62 58 63 59 64 73 66
REMARK SMILES IDX 94 67 61 68 45 69 46 70 54 71 47 72 48 73 52 74 55 75 49 76
REMARK SMILES IDX 50 77 53 78 51 79 77 80 78 81 86 82 79 83 80 84 84 85 87 86
REMARK SMILES IDX 81 87 82 88 85 89 83 90 62 91 63 92 71 93 64 94 65 95 69 96
REMARK SMILES IDX 72 97 66 98 67 99 70 100 68 101
REMARK H PARENT 5 16 92 54 60 65
REMARK Flexibility Score: inf
ROOT
ATOM      1  O   UNL     1       0.214  -1.668  -4.377  1.00  0.00    -0.377 OA
ENDROOT
BRANCH   1   2
ATOM      2  C   UNL     1      -0.816  -2.645  -4.431  1.00  0.00     0.188 C 
BRANCH   2   3
ATOM      3  C   UNL     1      -2.113  -2.235  -5.134  1.00  0.00     0.188 C 
BRANCH   3   4
ATOM      4  O   UNL     1      -1.889  -1.484  -6.310  1.00  0.00    -0.376 OA
BRANCH   4   5
ATOM      5  C   UNL     1      -1.923  -0.067  -6.226  1.00  0.00     0.202 C 
BRANCH   5   6
ATOM      6  C   UNL     1      -2.032   0.701  -4.901  1.00  0.00     0.261 C 
BRANCH   6   7
ATOM      7  O   UNL     1      -1.054   0.649  -3.847  1.00  0.00    -0.462 OA
BRANCH   7   8
ATOM      8  C   UNL     1      -1.542   0.165  -2.668  1.00  0.00     0.328 C 
ATOM      9  O   UNL     1      -2.473  -0.634  -2.581  1.00  0.00    -0.250 OA
BRANCH   8  10
ATOM     10  C   UNL     1      -1.032   0.860  -1.398  1.00  0.00     0.195 C 
BRANCH  10  11
ATOM     11  C   UNL     1       0.499   0.785  -1.135  1.00  0.00     0.017 C 
ATOM     12  C   UNL     1       0.794   0.883   0.374  1.00  0.00     0.010 C 
ATOM     13  C   UNL     1       1.167  -0.495  -1.642  1.00  0.00     0.010 C 
ENDBRANCH  10  11
BRANCH  10  14
ATOM     14  N   UNL     1      -1.543   2.250  -1.226  1.00  0.00    -0.339 N 
ATOM     15  C   UNL     1      -2.868   2.618  -1.244  1.00  0.00     0.251 C 
ATOM     16  H   UNL     1      -0.878   2.963  -1.089  1.00  0.00     0.164 HD
ATOM     17  O   UNL     1      -3.392   3.120  -0.257  1.00  0.00    -0.270 OA
BRANCH  15  18
ATOM     18  C   UNL     1      -3.567   2.622  -2.547  1.00  0.00     0.055 C 
ATOM     19  C   UNL     1      -3.177   3.524  -3.459  1.00  0.00     0.025 C 
ATOM     20  C   UNL     1      -4.742   1.716  -2.746  1.00  0.00     0.271 C 
ATOM     21  C   UNL     1      -3.795   3.460  -4.780  1.00  0.00     0.018 A 
ATOM     22  O   UNL     1      -5.308   1.681  -4.076  1.00  0.00    -0.488 OA
ATOM     23  C   UNL     1      -3.267   4.210  -5.839  1.00  0.00     0.027 A 
ATOM     24  C   UNL     1      -4.773   2.492  -5.039  1.00  0.00     0.127 A 
ATOM     25  C   UNL     1      -3.664   3.938  -7.149  1.00  0.00     0.018 A 
ATOM     26  C   UNL     1      -5.174   2.235  -6.354  1.00  0.00     0.048 A 
ATOM     27  Br  UNL     1      -2.856   4.874  -8.580  1.00  0.00    -0.051 Br
ATOM     28  C   UNL     1      -4.603   2.943  -7.414  1.00  0.00     0.019 A 
ENDBRANCH  15  18
ENDBRANCH  10  14
ENDBRANCH   8  10
ENDBRANCH   7   8
ENDBRANCH   6   7
ENDBRANCH   5   6
ENDBRANCH   4   5
ENDBRANCH   3   4
ENDBRANCH   2   3
ENDBRANCH   1   2
BRANCH   1  29
ATOM     29  C   UNL     1       0.935  -1.351  -5.568  1.00  0.00     0.188 C 
BRANCH  29  30
ATOM     30  C   UNL     1       1.035  -2.430  -6.651  1.00  0.00     0.188 C 
BRANCH  30  31
ATOM     31  O   UNL     1       1.597  -3.683  -6.264  1.00  0.00    -0.376 OA
BRANCH  31  32
ATOM     32  C   UNL     1       2.542  -3.694  -5.201  1.00  0.00     0.202 C 
BRANCH  32  33
ATOM     33  C   UNL     1       3.965  -3.309  -5.606  1.00  0.00     0.261 C 
BRANCH  33  34
ATOM     34  O   UNL     1       4.086  -1.920  -5.955  1.00  0.00    -0.460 OA
BRANCH  34  35
ATOM     35  C   UNL     1       4.100  -1.640  -7.284  1.00  0.00     0.338 C 
ATOM     36  O   UNL     1       4.027  -2.418  -8.208  1.00  0.00    -0.246 OA
BRANCH  35  37
ATOM     37  C   UNL     1       4.096  -0.170  -7.452  1.00  0.00     0.060 A 
ATOM     38  C   UNL     1       5.006   0.621  -6.748  1.00  0.00     0.016 A 
ATOM     39  C   UNL     1       3.214   0.410  -8.374  1.00  0.00     0.016 A 
ATOM     40  C   UNL     1       5.055   1.992  -6.993  1.00  0.00     0.010 A 
ATOM     41  C   UNL     1       3.264   1.785  -8.617  1.00  0.00     0.010 A 
ATOM     42  C   UNL     1       4.204   2.579  -7.946  1.00  0.00    -0.014 A 
BRANCH  42  43
ATOM     43  C   UNL     1       4.433   3.990  -8.338  1.00  0.00     0.031 A 
ATOM     44  C   UNL     1       3.580   5.101  -7.813  1.00  0.00     0.074 A 
ATOM     45  C   UNL     1       5.471   4.255  -9.155  1.00  0.00     0.049 A 
ATOM     46  N   UNL     1       3.748   6.393  -7.942  1.00  0.00    -0.248 NA
ATOM     47  C   UNL     1       2.386   4.720  -7.047  1.00  0.00     0.031 C 
ATOM     48  C   UNL     1       6.346   3.242  -9.746  1.00  0.00     0.029 A 
ATOM     49  N   UNL     1       5.979   5.444  -9.610  1.00  0.00    -0.354 N 
ATOM     50  C   UNL     1       2.701   6.983  -7.250  1.00  0.00     0.074 A 
ATOM     51  C   UNL     1       1.872   5.907  -6.745  1.00  0.00     0.031 C 
ATOM     52  C   UNL     1       7.306   3.854 -10.457  1.00  0.00     0.029 A 
ATOM     53  C   UNL     1       7.101   5.297 -10.388  1.00  0.00     0.049 A 
ATOM     54  H   UNL     1       5.578   6.319  -9.399  1.00  0.00     0.167 HD
ATOM     55  C   UNL     1       2.474   8.302  -7.042  1.00  0.00     0.037 A 
ATOM     56  C   UNL     1       7.885   6.223 -10.971  1.00  0.00     0.037 A 
ATOM     57  C   UNL     1       3.297   9.364  -7.567  1.00  0.00     0.049 A 
ATOM     58  C   UNL     1       7.576   7.679 -10.761  1.00  0.00     0.074 A 
ATOM     59  C   UNL     1       3.167  10.729  -7.377  1.00  0.00     0.029 A 
ATOM     60  N   UNL     1       4.392   9.182  -8.400  1.00  0.00    -0.354 N 
ATOM     61  N   UNL     1       6.636   8.227 -10.031  1.00  0.00    -0.248 NA
ATOM     62  C   UNL     1       8.442   8.646 -11.450  1.00  0.00     0.031 C 
ATOM     63  C   UNL     1       4.147  11.374  -8.138  1.00  0.00     0.029 A 
ATOM     64  C   UNL     1       4.924  10.411  -8.760  1.00  0.00     0.049 A 
ATOM     65  H   UNL     1       4.740   8.308  -8.692  1.00  0.00     0.167 HD
ATOM     66  C   UNL     1       6.802   9.598 -10.161  1.00  0.00     0.074 A 
ATOM     67  C   UNL     1       7.953   9.800 -11.018  1.00  0.00     0.031 C 
ATOM     68  C   UNL     1       6.062  10.599  -9.624  1.00  0.00     0.037 A 
BRANCH  55  69
ATOM     69  C   UNL     1       1.296   8.688  -6.196  1.00  0.00     0.064 A 
ATOM     70  C   UNL     1       1.303   8.491  -4.807  1.00  0.00     0.173 A 
ATOM     71  C   UNL     1       0.196   9.353  -6.759  1.00  0.00     0.173 A 
ATOM     72  F   UNL     1       2.328   7.853  -4.221  1.00  0.00    -0.203 F 
ATOM     73  C   UNL     1       0.249   8.937  -4.014  1.00  0.00     0.198 A 
ATOM     74  C   UNL     1      -0.845   9.820  -5.960  1.00  0.00     0.198 A 
ATOM     75  F   UNL     1       0.144   9.575  -8.081  1.00  0.00    -0.203 F 
ATOM     76  F   UNL     1       0.266   8.714  -2.693  1.00  0.00    -0.200 F 
ATOM     77  C   UNL     1      -0.818   9.611  -4.589  1.00  0.00     0.200 A 
ATOM     78  F   UNL     1      -1.868  10.484  -6.515  1.00  0.00    -0.200 F 
ATOM     79  F   UNL     1      -1.822  10.057  -3.822  1.00  0.00    -0.200 F 
ENDBRANCH  55  69
BRANCH  56  80
ATOM     80  C   UNL     1       9.053   5.793 -11.780  1.00  0.00     0.064 A 
ATOM     81  C   UNL     1      10.363   6.023 -11.338  1.00  0.00     0.173 A 
ATOM     82  C   UNL     1       8.885   5.124 -13.002  1.00  0.00     0.173 A 
ATOM     83  F   UNL     1      10.575   6.675 -10.185  1.00  0.00    -0.203 F 
ATOM     84  C   UNL     1      11.459   5.612 -12.092  1.00  0.00     0.198 A 
ATOM     85  C   UNL     1       9.982   4.688 -13.741  1.00  0.00     0.198 A 
ATOM     86  F   UNL     1       7.652   4.876 -13.467  1.00  0.00    -0.203 F 
ATOM     87  F   UNL     1      12.701   5.878 -11.664  1.00  0.00    -0.200 F 
ATOM     88  C   UNL     1      11.268   4.937 -13.289  1.00  0.00     0.200 A 
ATOM     89  F   UNL     1       9.792   4.022 -14.888  1.00  0.00    -0.200 F 
ATOM     90  F   UNL     1      12.324   4.532 -14.008  1.00  0.00    -0.200 F 
ENDBRANCH  56  80
BRANCH  68  91
ATOM     91  C   UNL     1       6.469  12.008  -9.951  1.00  0.00     0.064 A 
ATOM     92  C   UNL     1       6.275  12.544 -11.233  1.00  0.00     0.173 A 
ATOM     93  C   UNL     1       7.006  12.847  -8.963  1.00  0.00     0.173 A 
ATOM     94  F   UNL     1       5.779  11.779 -12.217  1.00  0.00    -0.203 F 
ATOM     95  C   UNL     1       6.623  13.862 -11.518  1.00  0.00     0.198 A 
ATOM     96  C   UNL     1       7.323  14.173  -9.243  1.00  0.00     0.198 A 
ATOM     97  F   UNL     1       7.205  12.386  -7.719  1.00  0.00    -0.203 F 
ATOM     98  F   UNL     1       6.469  14.340 -12.761  1.00  0.00    -0.200 F 
ATOM     99  C   UNL     1       7.137  14.678 -10.521  1.00  0.00     0.200 A 
ATOM    100  F   UNL     1       7.805  14.964  -8.275  1.00  0.00    -0.200 F 
ATOM    101  F   UNL     1       7.458  15.950 -10.794  1.00  0.00    -0.200 F 
ENDBRANCH  68  91
ENDBRANCH  42  43
ENDBRANCH  35  37
ENDBRANCH  34  35
ENDBRANCH  33  34
ENDBRANCH  32  33
ENDBRANCH  31  32
ENDBRANCH  30  31
ENDBRANCH  29  30
ENDBRANCH   1  29
TORSDOF 23
