REMARK SMILES CC(C)CSc1cc2c(cc1Cl)C=C(C(=O)OCCOCCOCCOCCOC(=O)c1ccc(-c3c4nc(c(-c5c(F)c(F)c(F)c(F)c5F)c5ccc([nH]5)c(-c5c(F)c(F)c(F)c(F)c5F)c5nc(c(-c6c(F)c(F)c(F)c(F)c6F)c6ccc3[nH]6)C=C5)C=C4)cc1)[C@H](C(F)(F)F)O2
REMARK SMILES IDX 22 1 21 2 20 3 19 4 18 5 17 6 15 7 16 8 14 9 6 10 7 11 11 12
REMARK SMILES IDX 8 13 10 14 12 15 9 16 100 17 13 18 95 19 5 20 4 21 2 22 1 23
REMARK SMILES IDX 3 24 96 25 97 26 98 27 99 28 23 29 24 30 25 31 26 32 27 33
REMARK SMILES IDX 28 34 29 35 30 36 31 37 32 38 33 39 94 40 34 41 93 42 35 43
REMARK SMILES IDX 36 44 37 45 87 46 38 47 92 48 86 49 88 50 39 51 91 52 85 53
REMARK SMILES IDX 84 54 40 56 72 57 52 58 71 59 53 60 56 61 70 62 89 63 54 64
REMARK SMILES IDX 55 65 69 67 90 68 57 69 41 70 42 71 50 72 43 73 44 74 48 75
REMARK SMILES IDX 51 76 45 77 46 78 49 79 47 80 73 81 74 82 82 83 75 84 76 85
REMARK SMILES IDX 80 86 83 87 77 88 78 89 81 90 79 91 58 92 59 93 67 94 60 95
REMARK SMILES IDX 61 96 65 97 68 98 62 99 63 100 66 101 64 102
REMARK H PARENT 88 55 56 66
REMARK Flexibility Score: inf
ROOT
ATOM      1  C   UNL     1      -1.078   3.591   7.406  1.00  0.00     0.188 C 
ENDROOT
BRANCH   1   2
ATOM      2  C   UNL     1       0.053   2.984   8.259  1.00  0.00     0.188 C 
BRANCH   2   3
ATOM      3  O   UNL     1       0.670   3.911   9.149  1.00  0.00    -0.376 OA
BRANCH   3   4
ATOM      4  C   UNL     1       1.999   4.316   8.860  1.00  0.00     0.202 C 
BRANCH   4   5
ATOM      5  C   UNL     1       2.085   5.495   7.883  1.00  0.00     0.261 C 
BRANCH   5   6
ATOM      6  O   UNL     1       1.432   5.264   6.625  1.00  0.00    -0.460 OA
BRANCH   6   7
ATOM      7  C   UNL     1       2.036   4.408   5.781  1.00  0.00     0.338 C 
ATOM      8  O   UNL     1       3.120   3.877   5.949  1.00  0.00    -0.246 OA
BRANCH   7   9
ATOM      9  C   UNL     1       1.109   4.070   4.685  1.00  0.00     0.087 C 
ATOM     10  C   UNL     1      -1.202   1.635   0.949  1.00  0.00     0.030 A 
ATOM     11  C   UNL     1      -0.799   2.969   1.162  1.00  0.00     0.063 A 
ATOM     12  C   UNL     1      -1.082   0.727   2.014  1.00  0.00     0.055 A 
ATOM     13  C   UNL     1      -0.186   3.351   2.355  1.00  0.00     0.129 A 
ATOM     14  C   UNL     1      -0.420   1.101   3.190  1.00  0.00     0.033 A 
ATOM     15  Cl  UNL     1      -1.732  -0.874   1.985  1.00  0.00    -0.083 Cl
ATOM     16  C   UNL     1       0.061   2.401   3.345  1.00  0.00     0.019 A 
ATOM     17  O   UNL     1       0.230   4.655   2.462  1.00  0.00    -0.475 OA
ATOM     18  C   UNL     1       0.895   2.764   4.478  1.00  0.00     0.027 C 
ATOM     19  C   UNL     1       0.494   5.140   3.817  1.00  0.00     0.316 C 
BRANCH  10  20
ATOM     20  S   UNL     1      -1.807   1.283  -0.700  1.00  0.00    -0.124 SA
BRANCH  20  21
ATOM     21  C   UNL     1      -0.901  -0.230  -1.224  1.00  0.00     0.078 C 
BRANCH  21  22
ATOM     22  C   UNL     1       0.619  -0.148  -1.471  1.00  0.00    -0.007 C 
ATOM     23  C   UNL     1       1.461   0.162  -0.234  1.00  0.00     0.008 C 
ATOM     24  C   UNL     1       1.089  -1.495  -2.045  1.00  0.00     0.008 C 
ENDBRANCH  21  22
ENDBRANCH  20  21
ENDBRANCH  10  20
BRANCH  19  25
ATOM     25  C   UNL     1      -0.781   5.810   4.376  1.00  0.00     0.430 C 
ATOM     26  F   UNL     1      -1.780   4.921   4.579  1.00  0.00    -0.167 F 
ATOM     27  F   UNL     1      -0.556   6.453   5.543  1.00  0.00    -0.167 F 
ATOM     28  F   UNL     1      -1.248   6.748   3.514  1.00  0.00    -0.167 F 
ENDBRANCH  19  25
ENDBRANCH   7   9
ENDBRANCH   6   7
ENDBRANCH   5   6
ENDBRANCH   4   5
ENDBRANCH   3   4
ENDBRANCH   2   3
ENDBRANCH   1   2
BRANCH   1  29
ATOM     29  O   UNL     1      -2.086   4.419   7.969  1.00  0.00    -0.377 OA
BRANCH  29  30
ATOM     30  C   UNL     1      -1.746   5.169   9.124  1.00  0.00     0.188 C 
BRANCH  30  31
ATOM     31  C   UNL     1      -1.890   4.336  10.409  1.00  0.00     0.188 C 
BRANCH  31  32
ATOM     32  O   UNL     1      -2.316   2.999  10.146  1.00  0.00    -0.376 OA
BRANCH  32  33
ATOM     33  C   UNL     1      -3.715   2.749  10.262  1.00  0.00     0.202 C 
BRANCH  33  34
ATOM     34  C   UNL     1      -4.657   3.496   9.302  1.00  0.00     0.261 C 
BRANCH  34  35
ATOM     35  O   UNL     1      -4.689   4.931   9.426  1.00  0.00    -0.460 OA
BRANCH  35  36
ATOM     36  C   UNL     1      -4.972   5.478  10.626  1.00  0.00     0.338 C 
ATOM     37  O   UNL     1      -5.282   4.901  11.653  1.00  0.00    -0.246 OA
BRANCH  36  38
ATOM     38  C   UNL     1      -4.633   6.916  10.540  1.00  0.00     0.060 A 
ATOM     39  C   UNL     1      -5.152   7.705   9.510  1.00  0.00     0.016 A 
ATOM     40  C   UNL     1      -3.744   7.466  11.473  1.00  0.00     0.016 A 
ATOM     41  C   UNL     1      -4.806   9.056   9.434  1.00  0.00     0.010 A 
ATOM     42  C   UNL     1      -3.387   8.815  11.387  1.00  0.00     0.010 A 
ATOM     43  C   UNL     1      -3.936   9.625  10.382  1.00  0.00    -0.014 A 
BRANCH  43  44
ATOM     44  C   UNL     1      -3.769  11.098  10.432  1.00  0.00     0.031 A 
ATOM     45  C   UNL     1      -2.573  11.792   9.860  1.00  0.00     0.074 A 
ATOM     46  C   UNL     1      -4.745  11.812  11.023  1.00  0.00     0.049 A 
ATOM     47  N   UNL     1      -2.339  13.078   9.764  1.00  0.00    -0.248 NA
ATOM     48  C   UNL     1      -1.496  10.943   9.333  1.00  0.00     0.031 C 
ATOM     49  C   UNL     1      -5.942  11.238  11.640  1.00  0.00     0.029 A 
ATOM     50  N   UNL     1      -4.894  13.164  11.195  1.00  0.00    -0.354 N 
ATOM     51  C   UNL     1      -1.104  13.197   9.145  1.00  0.00     0.074 A 
ATOM     52  C   UNL     1      -0.613  11.850   8.930  1.00  0.00     0.031 C 
ATOM     53  C   UNL     1      -6.714  12.231  12.102  1.00  0.00     0.029 A 
ATOM     54  C   UNL     1      -6.060  13.508  11.833  1.00  0.00     0.049 A 
ATOM     55  H   UNL     1      -4.230  13.824  10.891  1.00  0.00     0.167 HD
ATOM     56  C   UNL     1      -0.456  14.329   8.775  1.00  0.00     0.037 A 
ATOM     57  C   UNL     1      -6.553  14.716  12.159  1.00  0.00     0.037 A 
ATOM     58  C   UNL     1      -0.945  15.667   9.008  1.00  0.00     0.049 A 
ATOM     59  C   UNL     1      -5.790  15.952  11.778  1.00  0.00     0.074 A 
ATOM     60  C   UNL     1      -0.376  16.872   8.628  1.00  0.00     0.029 A 
ATOM     61  N   UNL     1      -2.110  15.979   9.694  1.00  0.00    -0.354 N 
ATOM     62  N   UNL     1      -4.662  16.054  11.120  1.00  0.00    -0.248 NA
ATOM     63  C   UNL     1      -6.371  17.240  12.179  1.00  0.00     0.031 C 
ATOM     64  C   UNL     1      -1.167  17.911   9.129  1.00  0.00     0.029 A 
ATOM     65  C   UNL     1      -2.258  17.357   9.776  1.00  0.00     0.049 A 
ATOM     66  H   UNL     1      -2.739  15.321  10.068  1.00  0.00     0.167 HD
ATOM     67  C   UNL     1      -4.407  17.413  11.009  1.00  0.00     0.074 A 
ATOM     68  C   UNL     1      -5.508  18.099  11.654  1.00  0.00     0.031 C 
ATOM     69  C   UNL     1      -3.353  18.033  10.426  1.00  0.00     0.037 A 
BRANCH  56  70
ATOM     70  C   UNL     1       0.857  14.189   8.059  1.00  0.00     0.064 A 
ATOM     71  C   UNL     1       0.915  13.746   6.729  1.00  0.00     0.173 A 
ATOM     72  C   UNL     1       2.054  14.599   8.666  1.00  0.00     0.173 A 
ATOM     73  F   UNL     1      -0.200  13.342   6.103  1.00  0.00    -0.203 F 
ATOM     74  C   UNL     1       2.123  13.709   6.037  1.00  0.00     0.198 A 
ATOM     75  C   UNL     1       3.256  14.585   7.963  1.00  0.00     0.198 A 
ATOM     76  F   UNL     1       2.053  15.043   9.932  1.00  0.00    -0.203 F 
ATOM     77  F   UNL     1       2.158  13.260   4.775  1.00  0.00    -0.200 F 
ATOM     78  C   UNL     1       3.291  14.137   6.651  1.00  0.00     0.200 A 
ATOM     79  F   UNL     1       4.381  15.014   8.552  1.00  0.00    -0.200 F 
ATOM     80  F   UNL     1       4.449  14.119   5.978  1.00  0.00    -0.200 F 
ENDBRANCH  56  70
BRANCH  57  81
ATOM     81  C   UNL     1      -7.865  14.803  12.848  1.00  0.00     0.064 A 
ATOM     82  C   UNL     1      -8.996  15.280  12.174  1.00  0.00     0.173 A 
ATOM     83  C   UNL     1      -8.022  14.376  14.174  1.00  0.00     0.173 A 
ATOM     84  F   UNL     1      -8.889  15.715  10.909  1.00  0.00    -0.203 F 
ATOM     85  C   UNL     1     -10.237  15.334  12.804  1.00  0.00     0.198 A 
ATOM     86  C   UNL     1      -9.268  14.405  14.794  1.00  0.00     0.198 A 
ATOM     87  F   UNL     1      -6.969  13.905  14.857  1.00  0.00    -0.203 F 
ATOM     88  F   UNL     1     -11.298  15.822  12.147  1.00  0.00    -0.200 F 
ATOM     89  C   UNL     1     -10.374  14.888  14.110  1.00  0.00     0.200 A 
ATOM     90  F   UNL     1      -9.400  13.959  16.051  1.00  0.00    -0.200 F 
ATOM     91  F   UNL     1     -11.571  14.927  14.711  1.00  0.00    -0.200 F 
ENDBRANCH  57  81
BRANCH  69  92
ATOM     92  C   UNL     1      -3.334  19.534  10.450  1.00  0.00     0.064 A 
ATOM     93  C   UNL     1      -3.076  20.244  11.633  1.00  0.00     0.173 A 
ATOM     94  C   UNL     1      -3.517  20.271   9.270  1.00  0.00     0.173 A 
ATOM     95  F   UNL     1      -2.909  19.587  12.791  1.00  0.00    -0.203 F 
ATOM     96  C   UNL     1      -3.017  21.635  11.635  1.00  0.00     0.198 A 
ATOM     97  C   UNL     1      -3.430  21.660   9.271  1.00  0.00     0.198 A 
ATOM     98  F   UNL     1      -3.762  19.641   8.111  1.00  0.00    -0.203 F 
ATOM     99  F   UNL     1      -2.806  22.293  12.784  1.00  0.00    -0.200 F 
ATOM    100  C   UNL     1      -3.184  22.341  10.453  1.00  0.00     0.200 A 
ATOM    101  F   UNL     1      -3.578  22.341   8.126  1.00  0.00    -0.200 F 
ATOM    102  F   UNL     1      -3.113  23.680  10.455  1.00  0.00    -0.200 F 
ENDBRANCH  69  92
ENDBRANCH  43  44
ENDBRANCH  36  38
ENDBRANCH  35  36
ENDBRANCH  34  35
ENDBRANCH  33  34
ENDBRANCH  32  33
ENDBRANCH  31  32
ENDBRANCH  30  31
ENDBRANCH  29  30
ENDBRANCH   1  29
TORSDOF 24
