REMARK SMILES CC[NH2+][C@@]1(C(=O)OCCOCCOCCOCCOC(=O)c2ccc(-c3c4nc(c(-c5c(F)c(F)c(F)c(F)c5F)c5ccc([nH]5)c(-c5c(F)c(F)c(F)c(F)c5F)c5nc(c(-c6c(F)c(F)c(F)c(F)c6F)c6ccc3[nH]6)C=C5)C=C4)cc2)CC[C@H](Sc2nccc(=O)[nH]2)C1
REMARK SMILES IDX 13 1 12 2 11 3 10 4 9 5 8 6 7 7 5 8 6 9 4 10 85 11 96 12
REMARK SMILES IDX 86 13 87 14 3 15 2 18 1 19 88 20 89 21 90 22 95 23 91 24
REMARK SMILES IDX 93 25 92 27 94 28 14 29 15 30 16 31 17 32 18 33 19 34 20 35
REMARK SMILES IDX 21 36 22 37 23 38 84 39 24 40 83 41 25 42 26 43 27 44 77 45
REMARK SMILES IDX 28 46 82 47 76 48 78 49 29 50 81 51 75 52 74 53 30 55 62 56
REMARK SMILES IDX 42 57 61 58 43 59 46 60 60 61 79 62 44 63 45 64 59 66 80 67
REMARK SMILES IDX 47 68 31 69 32 70 40 71 33 72 34 73 38 74 41 75 35 76 36 77
REMARK SMILES IDX 39 78 37 79 63 80 64 81 72 82 65 83 66 84 70 85 73 86 67 87
REMARK SMILES IDX 68 88 71 89 69 90 48 91 49 92 57 93 50 94 51 95 55 96 58 97
REMARK SMILES IDX 52 98 53 99 56 100 54 101
REMARK H PARENT 3 16 3 17 95 26 78 54 46 65
REMARK Flexibility Score: inf
ROOT
ATOM      1  O   UNL     1      -1.611  -4.350   3.808  1.00  0.00    -0.377 OA
ENDROOT
BRANCH   1   2
ATOM      2  C   UNL     1      -1.136  -3.457   2.820  1.00  0.00     0.188 C 
BRANCH   2   3
ATOM      3  C   UNL     1      -1.960  -2.229   2.408  1.00  0.00     0.188 C 
BRANCH   3   4
ATOM      4  O   UNL     1      -3.330  -2.528   2.172  1.00  0.00    -0.376 OA
BRANCH   4   5
ATOM      5  C   UNL     1      -3.811  -2.694   0.850  1.00  0.00     0.202 C 
BRANCH   5   6
ATOM      6  C   UNL     1      -3.239  -3.813  -0.037  1.00  0.00     0.261 C 
BRANCH   6   7
ATOM      7  O   UNL     1      -1.837  -4.053   0.134  1.00  0.00    -0.459 OA
BRANCH   7   8
ATOM      8  C   UNL     1      -0.976  -3.521  -0.751  1.00  0.00     0.368 C 
ATOM      9  O   UNL     1      -1.352  -2.906  -1.747  1.00  0.00    -0.245 OA
BRANCH   8  10
ATOM     10  C   UNL     1       0.554  -3.722  -0.388  1.00  0.00     0.195 C 
ATOM     11  C   UNL     1       1.154  -4.364  -1.651  1.00  0.00     0.082 C 
ATOM     12  C   UNL     1       1.066  -4.793   0.616  1.00  0.00     0.096 C 
ATOM     13  C   UNL     1       0.710  -5.842  -1.509  1.00  0.00     0.022 C 
ATOM     14  C   UNL     1       0.820  -6.163  -0.011  1.00  0.00     0.062 C 
BRANCH  10  15
ATOM     15  N   UNL     1       1.129  -2.446   0.110  1.00  0.00    -0.332 N 
ATOM     16  H   UNL     1       0.804  -2.315   1.068  1.00  0.00     0.347 HD
ATOM     17  H   UNL     1       2.138  -2.552   0.009  1.00  0.00     0.347 HD
BRANCH  15  18
ATOM     18  C   UNL     1       0.799  -1.236  -0.636  1.00  0.00     0.257 C 
ATOM     19  C   UNL     1       1.411  -0.028   0.064  1.00  0.00     0.071 C 
ENDBRANCH  15  18
ENDBRANCH  10  15
BRANCH  14  20
ATOM     20  S   UNL     1      -0.635  -6.886   0.806  1.00  0.00    -0.084 SA
BRANCH  20  21
ATOM     21  C   UNL     1      -0.830  -8.405   0.024  1.00  0.00     0.168 A 
ATOM     22  N   UNL     1      -0.054  -8.847  -0.905  1.00  0.00    -0.233 NA
ATOM     23  N   UNL     1      -1.925  -9.057   0.496  1.00  0.00    -0.301 N 
ATOM     24  C   UNL     1      -0.400 -10.060  -1.444  1.00  0.00     0.120 A 
ATOM     25  C   UNL     1      -2.331 -10.238  -0.034  1.00  0.00     0.251 A 
ATOM     26  H   UNL     1      -2.435  -8.662   1.240  1.00  0.00     0.172 HD
ATOM     27  C   UNL     1      -1.471 -10.778  -1.093  1.00  0.00     0.091 A 
ATOM     28  O   UNL     1      -3.354 -10.811   0.311  1.00  0.00    -0.269 OA
ENDBRANCH  20  21
ENDBRANCH  14  20
ENDBRANCH   8  10
ENDBRANCH   7   8
ENDBRANCH   6   7
ENDBRANCH   5   6
ENDBRANCH   4   5
ENDBRANCH   3   4
ENDBRANCH   2   3
ENDBRANCH   1   2
BRANCH   1  29
ATOM     29  C   UNL     1      -2.974  -4.715   3.691  1.00  0.00     0.188 C 
BRANCH  29  30
ATOM     30  C   UNL     1      -3.853  -3.862   4.615  1.00  0.00     0.188 C 
BRANCH  30  31
ATOM     31  O   UNL     1      -3.240  -2.877   5.428  1.00  0.00    -0.376 OA
BRANCH  31  32
ATOM     32  C   UNL     1      -2.050  -3.128   6.159  1.00  0.00     0.202 C 
BRANCH  32  33
ATOM     33  C   UNL     1      -1.547  -4.514   6.639  1.00  0.00     0.261 C 
BRANCH  33  34
ATOM     34  O   UNL     1      -2.224  -5.702   6.224  1.00  0.00    -0.460 OA
BRANCH  34  35
ATOM     35  C   UNL     1      -3.347  -6.037   6.885  1.00  0.00     0.338 C 
ATOM     36  O   UNL     1      -3.864  -5.446   7.819  1.00  0.00    -0.246 OA
BRANCH  35  37
ATOM     37  C   UNL     1      -3.965  -7.174   6.166  1.00  0.00     0.060 A 
ATOM     38  C   UNL     1      -5.243  -7.014   5.614  1.00  0.00     0.016 A 
ATOM     39  C   UNL     1      -3.289  -8.390   6.032  1.00  0.00     0.016 A 
ATOM     40  C   UNL     1      -5.866  -8.074   4.960  1.00  0.00     0.010 A 
ATOM     41  C   UNL     1      -3.929  -9.466   5.408  1.00  0.00     0.010 A 
ATOM     42  C   UNL     1      -5.237  -9.322   4.907  1.00  0.00    -0.014 A 
BRANCH  42  43
ATOM     43  C   UNL     1      -6.041 -10.521   4.567  1.00  0.00     0.031 A 
ATOM     44  C   UNL     1      -6.589 -11.345   5.698  1.00  0.00     0.074 A 
ATOM     45  C   UNL     1      -6.323 -10.855   3.297  1.00  0.00     0.049 A 
ATOM     46  N   UNL     1      -7.258 -12.469   5.665  1.00  0.00    -0.248 NA
ATOM     47  C   UNL     1      -6.355 -10.822   7.054  1.00  0.00     0.031 C 
ATOM     48  C   UNL     1      -5.921 -10.099   2.117  1.00  0.00     0.029 A 
ATOM     49  N   UNL     1      -6.998 -11.940   2.793  1.00  0.00    -0.354 N 
ATOM     50  C   UNL     1      -7.524 -12.784   6.989  1.00  0.00     0.074 A 
ATOM     51  C   UNL     1      -6.909 -11.761   7.805  1.00  0.00     0.031 C 
ATOM     52  C   UNL     1      -6.314 -10.770   1.019  1.00  0.00     0.029 A 
ATOM     53  C   UNL     1      -6.960 -12.015   1.423  1.00  0.00     0.049 A 
ATOM     54  H   UNL     1      -7.462 -12.599   3.359  1.00  0.00     0.167 HD
ATOM     55  C   UNL     1      -8.233 -13.828   7.481  1.00  0.00     0.037 A 
ATOM     56  C   UNL     1      -7.362 -12.998   0.594  1.00  0.00     0.037 A 
ATOM     57  C   UNL     1      -8.835 -14.849   6.666  1.00  0.00     0.049 A 
ATOM     58  C   UNL     1      -8.037 -14.216   1.166  1.00  0.00     0.074 A 
ATOM     59  C   UNL     1      -9.586 -15.940   7.066  1.00  0.00     0.029 A 
ATOM     60  N   UNL     1      -8.739 -14.914   5.283  1.00  0.00    -0.354 N 
ATOM     61  N   UNL     1      -8.306 -14.504   2.416  1.00  0.00    -0.248 NA
ATOM     62  C   UNL     1      -8.482 -15.237   0.207  1.00  0.00     0.031 C 
ATOM     63  C   UNL     1      -9.887 -16.701   5.932  1.00  0.00     0.029 A 
ATOM     64  C   UNL     1      -9.388 -16.046   4.817  1.00  0.00     0.049 A 
ATOM     65  H   UNL     1      -8.277 -14.254   4.717  1.00  0.00     0.167 HD
ATOM     66  C   UNL     1      -8.988 -15.713   2.392  1.00  0.00     0.074 A 
ATOM     67  C   UNL     1      -9.092 -16.105   1.002  1.00  0.00     0.031 C 
ATOM     68  C   UNL     1      -9.493 -16.426   3.430  1.00  0.00     0.037 A 
BRANCH  55  69
ATOM     69  C   UNL     1      -8.360 -13.930   8.973  1.00  0.00     0.064 A 
ATOM     70  C   UNL     1      -9.117 -13.013   9.718  1.00  0.00     0.173 A 
ATOM     71  C   UNL     1      -7.721 -14.969   9.667  1.00  0.00     0.173 A 
ATOM     72  F   UNL     1      -9.735 -11.991   9.106  1.00  0.00    -0.203 F 
ATOM     73  C   UNL     1      -9.202 -13.113  11.104  1.00  0.00     0.198 A 
ATOM     74  C   UNL     1      -7.837 -15.086  11.049  1.00  0.00     0.198 A 
ATOM     75  F   UNL     1      -6.985 -15.874   9.004  1.00  0.00    -0.203 F 
ATOM     76  F   UNL     1      -9.881 -12.191  11.801  1.00  0.00    -0.200 F 
ATOM     77  C   UNL     1      -8.568 -14.153  11.767  1.00  0.00     0.200 A 
ATOM     78  F   UNL     1      -7.235 -16.100  11.686  1.00  0.00    -0.200 F 
ATOM     79  F   UNL     1      -8.654 -14.251  13.101  1.00  0.00    -0.200 F 
ENDBRANCH  55  69
BRANCH  56  80
ATOM     80  C   UNL     1      -7.126 -12.876  -0.868  1.00  0.00     0.064 A 
ATOM     81  C   UNL     1      -8.188 -12.671  -1.759  1.00  0.00     0.173 A 
ATOM     82  C   UNL     1      -5.834 -12.980  -1.405  1.00  0.00     0.173 A 
ATOM     83  F   UNL     1      -9.445 -12.606  -1.298  1.00  0.00    -0.203 F 
ATOM     84  C   UNL     1      -7.967 -12.583  -3.132  1.00  0.00     0.198 A 
ATOM     85  C   UNL     1      -5.610 -12.855  -2.774  1.00  0.00     0.198 A 
ATOM     86  F   UNL     1      -4.788 -13.222  -0.602  1.00  0.00    -0.203 F 
ATOM     87  F   UNL     1      -9.006 -12.439  -3.967  1.00  0.00    -0.200 F 
ATOM     88  C   UNL     1      -6.678 -12.664  -3.638  1.00  0.00     0.200 A 
ATOM     89  F   UNL     1      -4.362 -12.931  -3.259  1.00  0.00    -0.200 F 
ATOM     90  F   UNL     1      -6.468 -12.573  -4.958  1.00  0.00    -0.200 F 
ENDBRANCH  56  80
BRANCH  68  91
ATOM     91  C   UNL     1     -10.257 -17.678   3.104  1.00  0.00     0.064 A 
ATOM     92  C   UNL     1      -9.624 -18.829   2.612  1.00  0.00     0.173 A 
ATOM     93  C   UNL     1     -11.641 -17.739   3.332  1.00  0.00     0.173 A 
ATOM     94  F   UNL     1      -8.305 -18.821   2.363  1.00  0.00    -0.203 F 
ATOM     95  C   UNL     1     -10.352 -19.983   2.333  1.00  0.00     0.198 A 
ATOM     96  C   UNL     1     -12.359 -18.905   3.087  1.00  0.00     0.198 A 
ATOM     97  F   UNL     1     -12.296 -16.670   3.810  1.00  0.00    -0.203 F 
ATOM     98  F   UNL     1      -9.735 -21.052   1.812  1.00  0.00    -0.200 F 
ATOM     99  C   UNL     1     -11.716 -20.023   2.579  1.00  0.00     0.200 A 
ATOM    100  F   UNL     1     -13.674 -18.947   3.344  1.00  0.00    -0.200 F 
ATOM    101  F   UNL     1     -12.413 -21.138   2.320  1.00  0.00    -0.200 F 
ENDBRANCH  68  91
ENDBRANCH  42  43
ENDBRANCH  35  37
ENDBRANCH  34  35
ENDBRANCH  33  34
ENDBRANCH  32  33
ENDBRANCH  31  32
ENDBRANCH  30  31
ENDBRANCH  29  30
ENDBRANCH   1  29
TORSDOF 24
