REMARK SMILES CCCc1cc(S(F)(F)(F)(F)F)cc2c1O[C@@H](C(F)(F)F)C(C(=O)OCCOCCOCCOCCOC(=O)c1ccc(-c3c4nc(c(-c5c(F)c(F)c(F)c(F)c5F)c5ccc([nH]5)c(-c5c(F)c(F)c(F)c(F)c5F)c5nc(c(-c6c(F)c(F)c(F)c(F)c6F)c6ccc3[nH]6)C=C5)C=C4)cc1)=C2
REMARK SMILES IDX 31 1 30 2 29 3 28 4 27 5 26 6 25 7 23 8 24 9 22 10 4 11 5 12
REMARK SMILES IDX 15 13 6 14 14 15 16 16 13 17 103 18 17 19 3 20 2 21 1 22
REMARK SMILES IDX 7 23 8 24 9 25 10 26 11 27 12 28 18 29 19 30 20 31 21 32
REMARK SMILES IDX 32 33 33 34 34 35 35 36 36 37 37 38 38 39 39 40 40 41 41 42
REMARK SMILES IDX 102 43 42 44 101 45 43 46 44 47 45 48 95 49 46 50 100 51
REMARK SMILES IDX 94 52 96 53 47 54 99 55 93 56 92 57 48 59 80 60 60 61 79 62
REMARK SMILES IDX 61 63 64 64 78 65 97 66 62 67 63 68 77 70 98 71 65 72 49 73
REMARK SMILES IDX 50 74 58 75 51 76 52 77 56 78 59 79 53 80 54 81 57 82 55 83
REMARK SMILES IDX 81 84 82 85 90 86 83 87 84 88 88 89 91 90 85 91 86 92 89 93
REMARK SMILES IDX 87 94 66 95 67 96 75 97 68 98 69 99 73 100 76 101 70 102
REMARK SMILES IDX 71 103 74 104 72 105
REMARK H PARENT 96 58 64 69
REMARK Flexibility Score: inf
ROOT
ATOM      1  O   UNL     1       2.685  -4.423  -5.408  1.00  0.00    -0.377 OA
ENDROOT
BRANCH   1   2
ATOM      2  C   UNL     1       3.350  -3.992  -4.229  1.00  0.00     0.188 C 
BRANCH   2   3
ATOM      3  C   UNL     1       2.667  -4.596  -3.013  1.00  0.00     0.188 C 
BRANCH   3   4
ATOM      4  O   UNL     1       2.720  -6.013  -3.095  1.00  0.00    -0.376 OA
BRANCH   4   5
ATOM      5  C   UNL     1       2.055  -6.444  -4.274  1.00  0.00     0.202 C 
BRANCH   5   6
ATOM      6  C   UNL     1       0.604  -5.992  -4.231  1.00  0.00     0.261 C 
BRANCH   6   7
ATOM      7  O   UNL     1       0.551  -4.576  -4.149  1.00  0.00    -0.460 OA
BRANCH   7   8
ATOM      8  C   UNL     1       1.151  -3.905  -3.050  1.00  0.00     0.338 C 
ATOM      9  O   UNL     1       1.736  -4.573  -2.141  1.00  0.00    -0.246 OA
BRANCH   8  10
ATOM     10  C   UNL     1       1.095  -2.389  -2.963  1.00  0.00     0.087 C 
ATOM     11  C   UNL     1       0.549   1.714  -2.397  1.00  0.00    -0.004 A 
ATOM     12  C   UNL     1       0.099   2.501  -3.441  1.00  0.00     0.032 A 
ATOM     13  C   UNL     1       0.669   0.359  -2.595  1.00  0.00     0.131 A 
ATOM     14  C   UNL     1      -0.227   1.946  -4.651  1.00  0.00     0.108 A 
ATOM     15  C   UNL     1       0.366  -0.233  -3.808  1.00  0.00     0.019 A 
ATOM     16  O   UNL     1       1.008  -0.422  -1.517  1.00  0.00    -0.475 OA
ATOM     17  C   UNL     1      -0.088   0.586  -4.835  1.00  0.00     0.036 A 
ATOM     18  C   UNL     1       0.488  -1.677  -3.905  1.00  0.00     0.027 C 
ATOM     19  C   UNL     1       1.733  -1.653  -1.792  1.00  0.00     0.316 C 
BRANCH  11  20
ATOM     20  C   UNL     1       1.056   2.316  -1.097  1.00  0.00     0.039 C 
BRANCH  20  21
ATOM     21  C   UNL     1       0.549   1.491   0.075  1.00  0.00     0.001 C 
ATOM     22  C   UNL     1       1.056   0.064  -0.053  1.00  0.00     0.004 C 
ENDBRANCH  20  21
ENDBRANCH  11  20
BRANCH  14  23
ATOM     23  S   UNL     1      -0.837   2.991  -5.998  1.00  0.00     0.310 S 
ATOM     24  F   UNL     1      -2.321   3.231  -5.492  1.00  0.00    -0.094 F 
ATOM     25  F   UNL     1      -1.382   1.739  -6.785  1.00  0.00    -0.094 F 
ATOM     26  F   UNL     1      -1.161   3.923  -7.199  1.00  0.00    -0.094 F 
ATOM     27  F   UNL     1      -0.419   4.251  -5.143  1.00  0.00    -0.094 F 
ATOM     28  F   UNL     1      -0.609   2.074  -4.730  1.00  0.00    -0.094 F 
ENDBRANCH  14  23
BRANCH  19  29
ATOM     29  C   UNL     1       1.685  -2.543  -0.561  1.00  0.00     0.430 C 
ATOM     30  F   UNL     1       2.349  -3.670  -0.802  1.00  0.00    -0.167 F 
ATOM     31  F   UNL     1       2.244  -1.910   0.466  1.00  0.00    -0.167 F 
ATOM     32  F   UNL     1       0.418  -2.828  -0.270  1.00  0.00    -0.167 F 
ENDBRANCH  19  29
ENDBRANCH   8  10
ENDBRANCH   7   8
ENDBRANCH   6   7
ENDBRANCH   5   6
ENDBRANCH   4   5
ENDBRANCH   3   4
ENDBRANCH   2   3
ENDBRANCH   1   2
BRANCH   1  33
ATOM     33  C   UNL     1       2.738  -5.840  -5.490  1.00  0.00     0.188 C 
BRANCH  33  34
ATOM     34  C   UNL     1       4.189  -6.291  -5.532  1.00  0.00     0.188 C 
BRANCH  34  35
ATOM     35  O   UNL     1       4.853  -5.860  -4.354  1.00  0.00    -0.376 OA
BRANCH  35  36
ATOM     36  C   UNL     1       4.801  -4.444  -4.272  1.00  0.00     0.202 C 
BRANCH  36  37
ATOM     37  C   UNL     1       5.484  -3.840  -5.488  1.00  0.00     0.261 C 
BRANCH  37  38
ATOM     38  O   UNL     1       4.819  -4.271  -6.667  1.00  0.00    -0.460 OA
BRANCH  38  39
ATOM     39  C   UNL     1       4.739  -5.656  -6.970  1.00  0.00     0.338 C 
ATOM     40  O   UNL     1       5.262  -6.509  -6.187  1.00  0.00    -0.246 OA
BRANCH  39  41
ATOM     41  C   UNL     1       4.027  -6.117  -8.232  1.00  0.00     0.060 A 
ATOM     42  C   UNL     1       3.089  -7.134  -8.178  1.00  0.00     0.016 A 
ATOM     43  C   UNL     1       4.276  -5.469  -9.364  1.00  0.00     0.016 A 
ATOM     44  C   UNL     1       2.667  -7.594  -9.447  1.00  0.00     0.010 A 
ATOM     45  C   UNL     1       3.722  -5.892 -10.548  1.00  0.00     0.010 A 
ATOM     46  C   UNL     1       2.831  -6.929 -10.577  1.00  0.00    -0.014 A 
BRANCH  46  47
ATOM     47  C   UNL     1       2.071  -7.298 -11.841  1.00  0.00     0.031 A 
ATOM     48  C   UNL     1       2.825  -7.664 -12.957  1.00  0.00     0.074 A 
ATOM     49  C   UNL     1       0.690  -7.203 -11.836  1.00  0.00     0.049 A 
ATOM     50  N   UNL     1       2.375  -8.009 -14.165  1.00  0.00    -0.248 NA
ATOM     51  C   UNL     1       4.294  -7.731 -12.975  1.00  0.00     0.031 C 
ATOM     52  C   UNL     1      -0.077  -6.843 -10.711  1.00  0.00     0.029 A 
ATOM     53  N   UNL     1      -0.176  -7.431 -12.882  1.00  0.00    -0.354 N 
ATOM     54  C   UNL     1       3.397  -8.312 -14.968  1.00  0.00     0.074 A 
ATOM     55  C   UNL     1       4.646  -8.132 -14.216  1.00  0.00     0.031 C 
ATOM     56  C   UNL     1      -1.386  -6.842 -11.077  1.00  0.00     0.029 A 
ATOM     57  C   UNL     1      -1.459  -7.203 -12.436  1.00  0.00     0.049 A 
ATOM     58  H   UNL     1       0.078  -7.709 -13.792  1.00  0.00     0.167 HD
ATOM     59  C   UNL     1       3.336  -8.734 -16.297  1.00  0.00     0.037 A 
ATOM     60  C   UNL     1      -2.638  -7.296 -13.158  1.00  0.00     0.037 A 
ATOM     61  C   UNL     1       2.153  -8.869 -17.007  1.00  0.00     0.049 A 
ATOM     62  C   UNL     1      -2.695  -7.662 -14.505  1.00  0.00     0.074 A 
ATOM     63  C   UNL     1       2.073  -9.300 -18.345  1.00  0.00     0.029 A 
ATOM     64  N   UNL     1       0.872  -8.617 -16.568  1.00  0.00    -0.354 N 
ATOM     65  N   UNL     1      -1.677  -8.003 -15.296  1.00  0.00    -0.248 NA
ATOM     66  C   UNL     1      -3.935  -7.732 -15.289  1.00  0.00     0.031 C 
ATOM     67  C   UNL     1       0.763  -9.300 -18.711  1.00  0.00     0.029 A 
ATOM     68  C   UNL     1       0.004  -8.867 -17.607  1.00  0.00     0.049 A 
ATOM     69  H   UNL     1       0.621  -8.311 -15.666  1.00  0.00     0.167 HD
ATOM     70  C   UNL     1      -2.124  -8.308 -16.516  1.00  0.00     0.074 A 
ATOM     71  C   UNL     1      -3.583  -8.131 -16.531  1.00  0.00     0.031 C 
ATOM     72  C   UNL     1      -1.376  -8.730 -17.616  1.00  0.00     0.037 A 
BRANCH  59  73
ATOM     73  C   UNL     1       4.639  -9.063 -17.006  1.00  0.00     0.064 A 
ATOM     74  C   UNL     1       5.441 -10.076 -16.506  1.00  0.00     0.173 A 
ATOM     75  C   UNL     1       4.983  -8.387 -18.096  1.00  0.00     0.173 A 
ATOM     76  F   UNL     1       5.027 -10.939 -15.583  1.00  0.00    -0.203 F 
ATOM     77  C   UNL     1       6.740 -10.108 -17.066  1.00  0.00     0.198 A 
ATOM     78  C   UNL     1       6.218  -8.568 -18.671  1.00  0.00     0.198 A 
ATOM     79  F   UNL     1       4.125  -7.527 -18.637  1.00  0.00    -0.203 F 
ATOM     80  F   UNL     1       7.678 -10.788 -16.413  1.00  0.00    -0.200 F 
ATOM     81  C   UNL     1       7.085  -9.511 -18.192  1.00  0.00     0.200 A 
ATOM     82  F   UNL     1       6.575  -7.816 -19.708  1.00  0.00    -0.200 F 
ATOM     83  F   UNL     1       8.216  -9.810 -18.826  1.00  0.00    -0.200 F 
ENDBRANCH  59  73
BRANCH  60  84
ATOM     84  C   UNL     1      -3.943  -6.983 -12.444  1.00  0.00     0.064 A 
ATOM     85  C   UNL     1      -4.923  -7.958 -12.370  1.00  0.00     0.173 A 
ATOM     86  C   UNL     1      -4.127  -5.779 -11.914  1.00  0.00     0.173 A 
ATOM     87  F   UNL     1      -4.696  -9.238 -12.654  1.00  0.00    -0.203 F 
ATOM     88  C   UNL     1      -6.188  -7.471 -11.965  1.00  0.00     0.198 A 
ATOM     89  C   UNL     1      -5.354  -5.417 -11.412  1.00  0.00     0.198 A 
ATOM     90  F   UNL     1      -3.116  -4.917 -11.868  1.00  0.00    -0.203 F 
ATOM     91  F   UNL     1      -7.252  -8.232 -12.207  1.00  0.00    -0.200 F 
ATOM     92  C   UNL     1      -6.386  -6.312 -11.363  1.00  0.00     0.200 A 
ATOM     93  F   UNL     1      -5.540  -4.177 -10.969  1.00  0.00    -0.200 F 
ATOM     94  F   UNL     1      -7.528  -6.032 -10.741  1.00  0.00    -0.200 F 
ENDBRANCH  60  84
BRANCH  72  95
ATOM     95  C   UNL     1      -2.118  -9.060 -18.900  1.00  0.00     0.064 A 
ATOM     96  C   UNL     1      -2.840  -8.074 -19.552  1.00  0.00     0.173 A 
ATOM     97  C   UNL     1      -2.023 -10.288 -19.398  1.00  0.00     0.173 A 
ATOM     98  F   UNL     1      -2.757  -6.785 -19.235  1.00  0.00    -0.203 F 
ATOM     99  C   UNL     1      -3.672  -8.563 -20.587  1.00  0.00     0.198 A 
ATOM    100  C   UNL     1      -2.765 -10.657 -20.494  1.00  0.00     0.198 A 
ATOM    101  F   UNL     1      -1.204 -11.168 -18.830  1.00  0.00    -0.203 F 
ATOM    102  F   UNL     1      -4.651  -7.772 -21.019  1.00  0.00    -0.200 F 
ATOM    103  C   UNL     1      -3.546  -9.749 -21.153  1.00  0.00     0.200 A 
ATOM    104  F   UNL     1      -2.722 -11.916 -20.921  1.00  0.00    -0.200 F 
ATOM    105  F   UNL     1      -4.146 -10.044 -22.303  1.00  0.00    -0.200 F 
ENDBRANCH  72  95
ENDBRANCH  46  47
ENDBRANCH  39  41
ENDBRANCH  38  39
ENDBRANCH  37  38
ENDBRANCH  36  37
ENDBRANCH  35  36
ENDBRANCH  34  35
ENDBRANCH  33  34
ENDBRANCH   1  33
TORSDOF 24
