REMARK SMILES O=C(OCCOCCOCCOCCOC(=O)[C@H]1CCCN(c2cc(-c3ccccn3)nc(-c3ccccc3F)n2)C1)c1ccc(-c2c3nc(c(-c4c(F)c(F)c(F)c(F)c4F)c4ccc([nH]4)c(-c4c(F)c(F)c(F)c(F)c4F)c4nc(c(-c5c(F)c(F)c(F)c(F)c5F)c5ccc2[nH]5)C=C4)C=C3)cc1
REMARK SMILES IDX 9 1 8 2 7 3 6 4 5 5 4 6 3 7 2 8 1 9 43 10 44 11 105 12 45 13
REMARK SMILES IDX 104 14 46 15 47 16 48 17 98 18 49 19 103 20 97 21 99 22
REMARK SMILES IDX 50 23 102 24 96 25 95 26 51 28 83 29 63 30 82 31 64 32 67 33
REMARK SMILES IDX 81 34 100 35 65 36 66 37 80 39 101 40 68 41 52 42 53 43
REMARK SMILES IDX 61 44 54 45 55 46 59 47 62 48 56 49 57 50 60 51 58 52 84 53
REMARK SMILES IDX 85 54 93 55 86 56 87 57 91 58 94 59 88 60 89 61 92 62 90 63
REMARK SMILES IDX 69 64 70 65 78 66 71 67 72 68 76 69 79 70 73 71 74 72 77 73
REMARK SMILES IDX 75 74 10 75 11 76 12 77 13 78 14 79 15 80 16 81 17 82 18 83
REMARK SMILES IDX 19 84 42 85 20 86 22 87 21 88 23 89 24 90 41 91 25 92 33 93
REMARK SMILES IDX 32 94 26 95 27 96 31 97 28 98 30 99 29 100 34 101 35 102
REMARK SMILES IDX 39 103 36 104 38 105 40 106 37 107
REMARK H PARENT 99 27 67 38
REMARK Flexibility Score: inf
ROOT
ATOM      1  O   UNL     1       2.877   2.629   6.956  1.00  0.00    -0.377 OA
ENDROOT
BRANCH   1   2
ATOM      2  C   UNL     1       1.877   3.113   7.839  1.00  0.00     0.188 C 
BRANCH   2   3
ATOM      3  C   UNL     1       0.479   2.542   7.646  1.00  0.00     0.188 C 
BRANCH   3   4
ATOM      4  O   UNL     1       0.490   1.135   7.850  1.00  0.00    -0.376 OA
BRANCH   4   5
ATOM      5  C   UNL     1      -0.337   0.317   7.022  1.00  0.00     0.202 C 
BRANCH   5   6
ATOM      6  C   UNL     1      -1.826   0.639   7.028  1.00  0.00     0.261 C 
BRANCH   6   7
ATOM      7  O   UNL     1      -2.220   1.825   7.744  1.00  0.00    -0.460 OA
BRANCH   7   8
ATOM      8  C   UNL     1      -2.357   2.086   9.063  1.00  0.00     0.338 C 
ATOM      9  O   UNL     1      -2.780   3.191   9.398  1.00  0.00    -0.246 OA
BRANCH   8  10
ATOM     10  C   UNL     1      -2.013   1.130  10.150  1.00  0.00     0.060 A 
ATOM     11  C   UNL     1      -1.026   0.160  10.064  1.00  0.00     0.016 A 
ATOM     12  C   UNL     1      -2.643   1.293  11.392  1.00  0.00     0.016 A 
ATOM     13  C   UNL     1      -0.713  -0.689  11.095  1.00  0.00     0.010 A 
ATOM     14  C   UNL     1      -2.305   0.476  12.476  1.00  0.00     0.010 A 
ATOM     15  C   UNL     1      -1.348  -0.530  12.309  1.00  0.00    -0.014 A 
BRANCH  15  16
ATOM     16  C   UNL     1      -1.085  -1.585  13.286  1.00  0.00     0.031 A 
ATOM     17  C   UNL     1      -2.138  -2.630  13.443  1.00  0.00     0.074 A 
ATOM     18  C   UNL     1       0.150  -1.711  13.803  1.00  0.00     0.049 A 
ATOM     19  N   UNL     1      -2.195  -3.618  14.285  1.00  0.00    -0.248 NA
ATOM     20  C   UNL     1      -3.276  -2.570  12.502  1.00  0.00     0.031 C 
ATOM     21  C   UNL     1       1.295  -0.849  13.482  1.00  0.00     0.029 A 
ATOM     22  N   UNL     1       0.666  -2.636  14.665  1.00  0.00    -0.354 N 
ATOM     23  C   UNL     1      -3.392  -4.261  14.015  1.00  0.00     0.074 A 
ATOM     24  C   UNL     1      -4.030  -3.574  12.920  1.00  0.00     0.031 C 
ATOM     25  C   UNL     1       2.378  -1.293  14.138  1.00  0.00     0.029 A 
ATOM     26  C   UNL     1       1.978  -2.399  14.996  1.00  0.00     0.049 A 
ATOM     27  H   UNL     1       0.149  -3.398  15.014  1.00  0.00     0.167 HD
ATOM     28  C   UNL     1      -3.902  -5.327  14.663  1.00  0.00     0.037 A 
ATOM     29  C   UNL     1       2.732  -2.981  15.945  1.00  0.00     0.037 A 
ATOM     30  C   UNL     1      -3.205  -5.979  15.733  1.00  0.00     0.049 A 
ATOM     31  C   UNL     1       2.082  -4.074  16.752  1.00  0.00     0.074 A 
ATOM     32  C   UNL     1      -3.631  -7.016  16.536  1.00  0.00     0.029 A 
ATOM     33  N   UNL     1      -1.917  -5.647  16.137  1.00  0.00    -0.354 N 
ATOM     34  N   UNL     1       0.894  -4.615  16.597  1.00  0.00    -0.248 NA
ATOM     35  C   UNL     1       2.848  -4.618  17.876  1.00  0.00     0.031 C 
ATOM     36  C   UNL     1      -2.621  -7.273  17.465  1.00  0.00     0.029 A 
ATOM     37  C   UNL     1      -1.540  -6.441  17.200  1.00  0.00     0.049 A 
ATOM     38  H   UNL     1      -1.357  -4.949  15.726  1.00  0.00     0.167 HD
ATOM     39  C   UNL     1       0.774  -5.570  17.592  1.00  0.00     0.074 A 
ATOM     40  C   UNL     1       2.022  -5.551  18.331  1.00  0.00     0.031 C 
ATOM     41  C   UNL     1      -0.270  -6.385  17.883  1.00  0.00     0.037 A 
BRANCH  28  42
ATOM     42  C   UNL     1      -5.281  -5.774  14.299  1.00  0.00     0.064 A 
ATOM     43  C   UNL     1      -6.346  -5.519  15.176  1.00  0.00     0.173 A 
ATOM     44  C   UNL     1      -5.555  -6.469  13.114  1.00  0.00     0.173 A 
ATOM     45  F   UNL     1      -6.138  -4.833  16.310  1.00  0.00    -0.203 F 
ATOM     46  C   UNL     1      -7.630  -5.973  14.895  1.00  0.00     0.198 A 
ATOM     47  C   UNL     1      -6.847  -6.902  12.825  1.00  0.00     0.198 A 
ATOM     48  F   UNL     1      -4.579  -6.697  12.223  1.00  0.00    -0.203 F 
ATOM     49  F   UNL     1      -8.625  -5.742  15.763  1.00  0.00    -0.200 F 
ATOM     50  C   UNL     1      -7.879  -6.667  13.721  1.00  0.00     0.200 A 
ATOM     51  F   UNL     1      -7.096  -7.541  11.673  1.00  0.00    -0.200 F 
ATOM     52  F   UNL     1      -9.118  -7.101  13.450  1.00  0.00    -0.200 F 
ENDBRANCH  28  42
BRANCH  29  53
ATOM     53  C   UNL     1       4.104  -2.483  16.238  1.00  0.00     0.064 A 
ATOM     54  C   UNL     1       4.322  -1.165  16.679  1.00  0.00     0.173 A 
ATOM     55  C   UNL     1       5.227  -3.309  16.106  1.00  0.00     0.173 A 
ATOM     56  F   UNL     1       3.287  -0.326  16.833  1.00  0.00    -0.203 F 
ATOM     57  C   UNL     1       5.603  -0.694  16.957  1.00  0.00     0.198 A 
ATOM     58  C   UNL     1       6.506  -2.847  16.419  1.00  0.00     0.198 A 
ATOM     59  F   UNL     1       5.079  -4.581  15.708  1.00  0.00    -0.203 F 
ATOM     60  F   UNL     1       5.778   0.577  17.346  1.00  0.00    -0.200 F 
ATOM     61  C   UNL     1       6.694  -1.539  16.838  1.00  0.00     0.200 A 
ATOM     62  F   UNL     1       7.555  -3.677  16.332  1.00  0.00    -0.200 F 
ATOM     63  F   UNL     1       7.923  -1.096  17.137  1.00  0.00    -0.200 F 
ENDBRANCH  29  53
BRANCH  41  64
ATOM     64  C   UNL     1      -0.097  -7.332  19.027  1.00  0.00     0.064 A 
ATOM     65  C   UNL     1      -0.018  -8.712  18.790  1.00  0.00     0.173 A 
ATOM     66  C   UNL     1      -0.137  -6.884  20.353  1.00  0.00     0.173 A 
ATOM     67  F   UNL     1       0.008  -9.182  17.533  1.00  0.00    -0.203 F 
ATOM     68  C   UNL     1      -0.019  -9.614  19.845  1.00  0.00     0.198 A 
ATOM     69  C   UNL     1      -0.101  -7.789  21.407  1.00  0.00     0.198 A 
ATOM     70  F   UNL     1      -0.202  -5.571  20.622  1.00  0.00    -0.203 F 
ATOM     71  F   UNL     1      -0.004 -10.931  19.597  1.00  0.00    -0.200 F 
ATOM     72  C   UNL     1      -0.058  -9.152  21.152  1.00  0.00     0.200 A 
ATOM     73  F   UNL     1      -0.115  -7.342  22.670  1.00  0.00    -0.200 F 
ATOM     74  F   UNL     1      -0.059 -10.024  22.170  1.00  0.00    -0.200 F 
ENDBRANCH  41  64
ENDBRANCH  15  16
ENDBRANCH   8  10
ENDBRANCH   7   8
ENDBRANCH   6   7
ENDBRANCH   5   6
ENDBRANCH   4   5
ENDBRANCH   3   4
ENDBRANCH   2   3
ENDBRANCH   1   2
BRANCH   1  75
ATOM     75  C   UNL     1       2.833   1.254   6.622  1.00  0.00     0.188 C 
BRANCH  75  76
ATOM     76  C   UNL     1       3.387   0.199   7.606  1.00  0.00     0.188 C 
BRANCH  76  77
ATOM     77  O   UNL     1       3.283   0.411   9.002  1.00  0.00    -0.376 OA
BRANCH  77  78
ATOM     78  C   UNL     1       4.162   1.305   9.678  1.00  0.00     0.202 C 
BRANCH  78  79
ATOM     79  C   UNL     1       5.511   1.792   9.109  1.00  0.00     0.261 C 
BRANCH  79  80
ATOM     80  O   UNL     1       5.486   2.084   7.711  1.00  0.00    -0.463 OA
BRANCH  80  81
ATOM     81  C   UNL     1       6.405   1.479   6.906  1.00  0.00     0.310 C 
ATOM     82  O   UNL     1       7.386   0.853   7.301  1.00  0.00    -0.252 OA
BRANCH  81  83
ATOM     83  C   UNL     1       5.921   1.512   5.474  1.00  0.00     0.118 C 
ATOM     84  C   UNL     1       5.448   2.909   5.030  1.00  0.00     0.019 C 
ATOM     85  C   UNL     1       6.854   0.877   4.455  1.00  0.00     0.133 C 
ATOM     86  C   UNL     1       4.795   2.853   3.650  1.00  0.00     0.022 C 
ATOM     87  N   UNL     1       6.186   0.956   3.155  1.00  0.00    -0.356 N 
ATOM     88  C   UNL     1       5.779   2.261   2.655  1.00  0.00     0.118 C 
BRANCH  87  89
ATOM     89  C   UNL     1       6.267  -0.087   2.262  1.00  0.00     0.133 A 
ATOM     90  C   UNL     1       7.103   0.035   1.180  1.00  0.00     0.077 A 
ATOM     91  N   UNL     1       5.466  -1.154   2.422  1.00  0.00    -0.211 NA
ATOM     92  C   UNL     1       7.096  -0.979   0.250  1.00  0.00     0.095 A 
ATOM     93  C   UNL     1       5.516  -2.101   1.460  1.00  0.00     0.165 A 
ATOM     94  N   UNL     1       6.302  -2.058   0.370  1.00  0.00    -0.226 NA
BRANCH  92  95
ATOM     95  C   UNL     1       7.986  -0.885  -0.908  1.00  0.00     0.089 A 
ATOM     96  C   UNL     1       9.368  -0.792  -0.729  1.00  0.00     0.030 A 
ATOM     97  N   UNL     1       7.400  -0.735  -2.123  1.00  0.00    -0.255 NA
ATOM     98  C   UNL     1      10.177  -0.529  -1.828  1.00  0.00     0.004 A 
ATOM     99  C   UNL     1       8.212  -0.498  -3.175  1.00  0.00     0.112 A 
ATOM    100  C   UNL     1       9.589  -0.377  -3.076  1.00  0.00     0.020 A 
ENDBRANCH  92  95
BRANCH  93 101
ATOM    101  C   UNL     1       4.601  -3.237   1.558  1.00  0.00     0.055 A 
ATOM    102  C   UNL     1       3.204  -3.063   1.588  1.00  0.00     0.015 A 
ATOM    103  C   UNL     1       5.089  -4.549   1.566  1.00  0.00     0.134 A 
ATOM    104  C   UNL     1       2.338  -4.166   1.598  1.00  0.00     0.001 A 
ATOM    105  C   UNL     1       4.233  -5.652   1.585  1.00  0.00     0.040 A 
ATOM    106  F   UNL     1       6.411  -4.781   1.568  1.00  0.00    -0.206 F 
ATOM    107  C   UNL     1       2.854  -5.461   1.593  1.00  0.00     0.003 A 
ENDBRANCH  93 101
ENDBRANCH  87  89
ENDBRANCH  81  83
ENDBRANCH  80  81
ENDBRANCH  79  80
ENDBRANCH  78  79
ENDBRANCH  77  78
ENDBRANCH  76  77
ENDBRANCH  75  76
ENDBRANCH   1  75
TORSDOF 23
