REMARK SMILES Cc1onc(-c2ccccc2Cl)c1C(=O)N1CCCC[C@@H]1C(=O)OCCOCCOCCOCCOC(=O)c1ccc(-c2c3nc(c(-c4c(F)c(F)c(F)c(F)c4F)c4ccc([nH]4)c(-c4c(F)c(F)c(F)c(F)c4F)c4nc(c(-c5c(F)c(F)c(F)c(F)c5F)c5ccc2[nH]5)C=C4)C=C3)cc1
REMARK SMILES IDX 29 1 28 2 27 3 26 4 25 5 24 6 22 7 23 8 21 9 16 10 17 11
REMARK SMILES IDX 18 12 20 13 19 14 14 15 15 16 13 17 1 18 2 19 3 20 4 21 5 22
REMARK SMILES IDX 6 23 7 24 11 25 8 26 10 27 12 28 9 29 30 30 31 31 32 32
REMARK SMILES IDX 33 33 34 34 35 35 36 36 37 37 38 38 39 39 40 40 101 41 41 42
REMARK SMILES IDX 100 43 42 44 43 45 44 46 94 47 45 48 99 49 93 50 95 51 46 52
REMARK SMILES IDX 98 53 92 54 91 55 47 57 79 58 59 59 78 60 60 61 63 62 77 63
REMARK SMILES IDX 96 64 61 65 62 66 76 68 97 69 64 70 48 71 49 72 57 73 50 74
REMARK SMILES IDX 51 75 55 76 58 77 52 78 53 79 56 80 54 81 80 82 81 83 89 84
REMARK SMILES IDX 82 85 83 86 87 87 90 88 84 89 85 90 88 91 86 92 65 93 66 94
REMARK SMILES IDX 74 95 67 96 68 97 72 98 75 99 69 100 70 101 73 102 71 103
REMARK H PARENT 95 56 63 67
REMARK Flexibility Score: inf
ROOT
ATOM      1  C   UNL     1       3.691  -1.858   3.975  1.00  0.00     0.188 C 
ENDROOT
BRANCH   1   2
ATOM      2  C   UNL     1       3.256  -0.384   3.928  1.00  0.00     0.188 C 
BRANCH   2   3
ATOM      3  O   UNL     1       2.115  -0.107   4.710  1.00  0.00    -0.376 OA
BRANCH   3   4
ATOM      4  C   UNL     1       0.827  -0.005   4.150  1.00  0.00     0.202 C 
BRANCH   4   5
ATOM      5  C   UNL     1       0.157  -1.119   3.324  1.00  0.00     0.261 C 
BRANCH   5   6
ATOM      6  O   UNL     1       0.936  -2.121   2.662  1.00  0.00    -0.462 OA
BRANCH   6   7
ATOM      7  C   UNL     1       1.653  -1.685   1.610  1.00  0.00     0.328 C 
ATOM      8  O   UNL     1       1.797  -0.496   1.351  1.00  0.00    -0.250 OA
BRANCH   7   9
ATOM      9  C   UNL     1       2.227  -2.797   0.721  1.00  0.00     0.195 C 
ATOM     10  N   UNL     1       1.647  -2.939  -0.638  1.00  0.00    -0.325 N 
ATOM     11  C   UNL     1       2.373  -3.842  -1.527  1.00  0.00     0.121 C 
ATOM     12  C   UNL     1       2.672  -5.199  -0.891  1.00  0.00     0.022 C 
ATOM     13  C   UNL     1       2.439  -4.171   1.377  1.00  0.00     0.037 C 
ATOM     14  C   UNL     1       3.329  -5.034   0.475  1.00  0.00     0.005 C 
BRANCH  10  15
ATOM     15  C   UNL     1       0.284  -2.762  -0.882  1.00  0.00     0.260 C 
ATOM     16  O   UNL     1      -0.414  -3.662  -1.340  1.00  0.00    -0.269 OA
BRANCH  15  17
ATOM     17  C   UNL     1      -0.244  -1.418  -0.705  1.00  0.00     0.110 A 
ATOM     18  C   UNL     1       1.766   0.225  -1.321  1.00  0.00     0.092 C 
ATOM     19  C   UNL     1       0.407  -0.210  -0.917  1.00  0.00     0.147 A 
ATOM     20  O   UNL     1      -0.438   0.813  -0.630  1.00  0.00    -0.360 OA
ATOM     21  N   UNL     1      -1.676   0.317  -0.313  1.00  0.00    -0.079 NA
ATOM     22  C   UNL     1      -1.587  -1.020  -0.411  1.00  0.00     0.128 A 
BRANCH  22  23
ATOM     23  C   UNL     1      -2.811  -1.809  -0.320  1.00  0.00     0.023 A 
ATOM     24  C   UNL     1      -3.811  -1.524  -1.268  1.00  0.00     0.012 A 
ATOM     25  C   UNL     1      -3.069  -2.785   0.650  1.00  0.00     0.050 A 
ATOM     26  C   UNL     1      -5.036  -2.191  -1.248  1.00  0.00     0.001 A 
ATOM     27  C   UNL     1      -4.309  -3.436   0.681  1.00  0.00     0.021 A 
ATOM     28  Cl  UNL     1      -1.936  -3.248   1.860  1.00  0.00    -0.084 Cl
ATOM     29  C   UNL     1      -5.288  -3.142  -0.267  1.00  0.00     0.002 A 
ENDBRANCH  22  23
ENDBRANCH  15  17
ENDBRANCH  10  15
ENDBRANCH   7   9
ENDBRANCH   6   7
ENDBRANCH   5   6
ENDBRANCH   4   5
ENDBRANCH   3   4
ENDBRANCH   2   3
ENDBRANCH   1   2
BRANCH   1  30
ATOM     30  O   UNL     1       2.765  -2.808   4.482  1.00  0.00    -0.377 OA
BRANCH  30  31
ATOM     31  C   UNL     1       2.224  -2.664   5.796  1.00  0.00     0.188 C 
BRANCH  31  32
ATOM     32  C   UNL     1       2.810  -1.655   6.810  1.00  0.00     0.188 C 
BRANCH  32  33
ATOM     33  O   UNL     1       4.130  -1.230   6.527  1.00  0.00    -0.376 OA
BRANCH  33  34
ATOM     34  C   UNL     1       5.201  -1.865   7.201  1.00  0.00     0.202 C 
BRANCH  34  35
ATOM     35  C   UNL     1       5.346  -3.386   7.035  1.00  0.00     0.261 C 
BRANCH  35  36
ATOM     36  O   UNL     1       4.221  -4.184   7.438  1.00  0.00    -0.460 OA
BRANCH  36  37
ATOM     37  C   UNL     1       3.782  -4.059   8.705  1.00  0.00     0.338 C 
ATOM     38  O   UNL     1       4.272  -3.382   9.599  1.00  0.00    -0.246 OA
BRANCH  37  39
ATOM     39  C   UNL     1       2.473  -4.732   8.801  1.00  0.00     0.060 A 
ATOM     40  C   UNL     1       1.347  -3.988   9.184  1.00  0.00     0.016 A 
ATOM     41  C   UNL     1       2.364  -6.098   8.534  1.00  0.00     0.016 A 
ATOM     42  C   UNL     1       0.121  -4.622   9.364  1.00  0.00     0.010 A 
ATOM     43  C   UNL     1       1.141  -6.738   8.742  1.00  0.00     0.010 A 
ATOM     44  C   UNL     1       0.031  -6.011   9.208  1.00  0.00    -0.014 A 
BRANCH  44  45
ATOM     45  C   UNL     1      -1.124  -6.727   9.797  1.00  0.00     0.031 A 
ATOM     46  C   UNL     1      -0.956  -7.310  11.174  1.00  0.00     0.074 A 
ATOM     47  C   UNL     1      -2.299  -6.826   9.155  1.00  0.00     0.049 A 
ATOM     48  N   UNL     1      -1.788  -8.022  11.889  1.00  0.00    -0.248 NA
ATOM     49  C   UNL     1       0.336  -7.055  11.835  1.00  0.00     0.031 C 
ATOM     50  C   UNL     1      -2.600  -6.253   7.846  1.00  0.00     0.029 A 
ATOM     51  N   UNL     1      -3.460  -7.457   9.525  1.00  0.00    -0.354 N 
ATOM     52  C   UNL     1      -1.118  -8.307  13.072  1.00  0.00     0.074 A 
ATOM     53  C   UNL     1       0.200  -7.724  12.968  1.00  0.00     0.031 C 
ATOM     54  C   UNL     1      -3.864  -6.570   7.515  1.00  0.00     0.029 A 
ATOM     55  C   UNL     1      -4.445  -7.397   8.572  1.00  0.00     0.049 A 
ATOM     56  H   UNL     1      -3.575  -7.910  10.392  1.00  0.00     0.167 HD
ATOM     57  C   UNL     1      -1.566  -8.988  14.153  1.00  0.00     0.037 A 
ATOM     58  C   UNL     1      -5.665  -7.969   8.552  1.00  0.00     0.037 A 
ATOM     59  C   UNL     1      -2.878  -9.568  14.249  1.00  0.00     0.049 A 
ATOM     60  C   UNL     1      -6.112  -8.793   9.734  1.00  0.00     0.074 A 
ATOM     61  C   UNL     1      -3.434 -10.274  15.300  1.00  0.00     0.029 A 
ATOM     62  N   UNL     1      -3.837  -9.516  13.248  1.00  0.00    -0.354 N 
ATOM     63  N   UNL     1      -5.481  -9.051  10.855  1.00  0.00    -0.248 NA
ATOM     64  C   UNL     1      -7.448  -9.401   9.649  1.00  0.00     0.031 C 
ATOM     65  C   UNL     1      -4.707 -10.703  14.911  1.00  0.00     0.029 A 
ATOM     66  C   UNL     1      -4.974 -10.200  13.647  1.00  0.00     0.049 A 
ATOM     67  H   UNL     1      -3.727  -9.061  12.382  1.00  0.00     0.167 HD
ATOM     68  C   UNL     1      -6.355  -9.813  11.622  1.00  0.00     0.074 A 
ATOM     69  C   UNL     1      -7.564  -9.968  10.841  1.00  0.00     0.031 C 
ATOM     70  C   UNL     1      -6.176 -10.332  12.863  1.00  0.00     0.037 A 
BRANCH  57  71
ATOM     71  C   UNL     1      -0.611  -9.172  15.298  1.00  0.00     0.064 A 
ATOM     72  C   UNL     1      -0.198  -8.099  16.102  1.00  0.00     0.173 A 
ATOM     73  C   UNL     1      -0.113 -10.448  15.603  1.00  0.00     0.173 A 
ATOM     74  F   UNL     1      -0.630  -6.855  15.843  1.00  0.00    -0.203 F 
ATOM     75  C   UNL     1       0.702  -8.291  17.147  1.00  0.00     0.198 A 
ATOM     76  C   UNL     1       0.759 -10.642  16.671  1.00  0.00     0.198 A 
ATOM     77  F   UNL     1      -0.474 -11.510  14.867  1.00  0.00    -0.203 F 
ATOM     78  F   UNL     1       1.128  -7.241  17.864  1.00  0.00    -0.200 F 
ATOM     79  C   UNL     1       1.173  -9.563  17.436  1.00  0.00     0.200 A 
ATOM     80  F   UNL     1       1.202 -11.874  16.956  1.00  0.00    -0.200 F 
ATOM     81  F   UNL     1       2.035  -9.747  18.446  1.00  0.00    -0.200 F 
ENDBRANCH  57  71
BRANCH  58  82
ATOM     82  C   UNL     1      -6.551  -7.793   7.370  1.00  0.00     0.064 A 
ATOM     83  C   UNL     1      -7.753  -7.078   7.464  1.00  0.00     0.173 A 
ATOM     84  C   UNL     1      -6.228  -8.360   6.128  1.00  0.00     0.173 A 
ATOM     85  F   UNL     1      -8.121  -6.540   8.636  1.00  0.00    -0.203 F 
ATOM     86  C   UNL     1      -8.607  -6.954   6.370  1.00  0.00     0.198 A 
ATOM     87  C   UNL     1      -7.066  -8.208   5.025  1.00  0.00     0.198 A 
ATOM     88  F   UNL     1      -5.092  -9.058   5.983  1.00  0.00    -0.203 F 
ATOM     89  F   UNL     1      -9.775  -6.312   6.503  1.00  0.00    -0.200 F 
ATOM     90  C   UNL     1      -8.259  -7.514   5.149  1.00  0.00     0.200 A 
ATOM     91  F   UNL     1      -6.720  -8.739   3.845  1.00  0.00    -0.200 F 
ATOM     92  F   UNL     1      -9.079  -7.392   4.096  1.00  0.00    -0.200 F 
ENDBRANCH  58  82
BRANCH  70  93
ATOM     93  C   UNL     1      -7.334 -11.063  13.485  1.00  0.00     0.064 A 
ATOM     94  C   UNL     1      -7.771 -12.308  13.011  1.00  0.00     0.173 A 
ATOM     95  C   UNL     1      -7.990 -10.521  14.602  1.00  0.00     0.173 A 
ATOM     96  F   UNL     1      -7.186 -12.867  11.940  1.00  0.00    -0.203 F 
ATOM     97  C   UNL     1      -8.842 -12.967  13.610  1.00  0.00     0.198 A 
ATOM     98  C   UNL     1      -9.035 -11.200  15.222  1.00  0.00     0.198 A 
ATOM     99  F   UNL     1      -7.606  -9.338  15.104  1.00  0.00    -0.203 F 
ATOM    100  F   UNL     1      -9.279 -14.129  13.104  1.00  0.00    -0.200 F 
ATOM    101  C   UNL     1      -9.468 -12.416  14.719  1.00  0.00     0.200 A 
ATOM    102  F   UNL     1      -9.624 -10.675  16.305  1.00  0.00    -0.200 F 
ATOM    103  F   UNL     1     -10.493 -13.056  15.299  1.00  0.00    -0.200 F 
ENDBRANCH  70  93
ENDBRANCH  44  45
ENDBRANCH  37  39
ENDBRANCH  36  37
ENDBRANCH  35  36
ENDBRANCH  34  35
ENDBRANCH  33  34
ENDBRANCH  32  33
ENDBRANCH  31  32
ENDBRANCH  30  31
ENDBRANCH   1  30
TORSDOF 23
