REMARK SMILES CC[C@@H](Oc1cc(Cl)ccc1Cl)C(=O)NNC(=O)[C@@H]1[C@@H]2CC[C@@H](C2)[C@@H]1C(=O)OCCOCCOCCOCCOC(=O)c1ccc(-c2c3nc(c(-c4c(F)c(F)c(F)c(F)c4F)c4ccc([nH]4)c(-c4c(F)c(F)c(F)c(F)c4F)c4nc(c(-c5c(F)c(F)c(F)c(F)c5F)c5ccc2[nH]5)C=C4)C=C3)cc1
REMARK SMILES IDX 32 1 31 2 30 3 29 4 28 5 26 6 27 7 25 8 19 9 20 10 21 11
REMARK SMILES IDX 24 12 23 13 22 14 17 15 16 16 18 18 15 19 13 20 14 21 3 23
REMARK SMILES IDX 2 24 1 25 4 26 5 27 6 28 11 29 7 30 10 31 12 32 8 33 9 34
REMARK SMILES IDX 33 35 34 36 35 37 36 38 37 39 38 40 39 41 40 42 41 43 42 44
REMARK SMILES IDX 43 45 44 46 105 47 45 48 104 49 46 50 47 51 48 52 98 53
REMARK SMILES IDX 49 54 103 55 97 56 99 57 50 58 102 59 96 60 95 61 51 63
REMARK SMILES IDX 83 64 63 65 82 66 64 67 67 68 81 69 100 70 65 71 66 72 80 74
REMARK SMILES IDX 101 75 68 76 52 77 53 78 61 79 54 80 55 81 59 82 62 83 56 84
REMARK SMILES IDX 57 85 60 86 58 87 84 88 85 89 93 90 86 91 87 92 91 93 94 94
REMARK SMILES IDX 88 95 89 96 92 97 90 98 69 99 70 100 78 101 71 102 72 103
REMARK SMILES IDX 76 104 79 105 73 106 74 107 77 108 75 109
REMARK H PARENT 16 17 15 22 99 62 67 73
REMARK Flexibility Score: inf
ROOT
ATOM      1  C   UNL     1      -6.562  -4.166  -2.424  1.00  0.00     0.188 C 
ENDROOT
BRANCH   1   2
ATOM      2  O   UNL     1      -7.701  -4.965  -2.716  1.00  0.00    -0.376 OA
BRANCH   2   3
ATOM      3  C   UNL     1      -7.806  -5.449  -4.052  1.00  0.00     0.202 C 
BRANCH   3   4
ATOM      4  C   UNL     1      -6.744  -6.492  -4.411  1.00  0.00     0.261 C 
BRANCH   4   5
ATOM      5  O   UNL     1      -5.419  -5.946  -4.312  1.00  0.00    -0.463 OA
BRANCH   5   6
ATOM      6  C   UNL     1      -5.027  -5.103  -5.311  1.00  0.00     0.310 C 
ATOM      7  O   UNL     1      -5.589  -5.011  -6.388  1.00  0.00    -0.252 OA
BRANCH   6   8
ATOM      8  C   UNL     1      -3.804  -4.324  -4.832  1.00  0.00     0.115 C 
ATOM      9  C   UNL     1      -3.889  -2.800  -4.484  1.00  0.00     0.098 C 
ATOM     10  C   UNL     1      -2.689  -2.229  -5.265  1.00  0.00     0.003 C 
ATOM     11  C   UNL     1      -2.976  -2.253  -6.774  1.00  0.00     0.005 C 
ATOM     12  C   UNL     1      -1.667  -3.369  -5.133  1.00  0.00     0.009 C 
ATOM     13  C   UNL     1      -2.592  -4.407  -5.776  1.00  0.00     0.004 C 
ATOM     14  C   UNL     1      -2.881  -3.742  -7.127  1.00  0.00     0.005 C 
BRANCH   9  15
ATOM     15  C   UNL     1      -5.222  -2.079  -4.681  1.00  0.00     0.242 C 
ATOM     16  N   UNL     1      -5.495  -1.001  -3.874  1.00  0.00    -0.267 N 
ATOM     17  H   UNL     1      -6.341  -1.001  -3.371  1.00  0.00     0.191 HD
ATOM     18  O   UNL     1      -6.127  -2.503  -5.394  1.00  0.00    -0.273 OA
BRANCH  16  19
ATOM     19  N   UNL     1      -4.644   0.091  -3.728  1.00  0.00    -0.264 N 
ATOM     20  C   UNL     1      -5.105   1.397  -3.780  1.00  0.00     0.279 C 
ATOM     21  O   UNL     1      -4.298   2.324  -3.670  1.00  0.00    -0.269 OA
ATOM     22  H   UNL     1      -3.683  -0.069  -3.583  1.00  0.00     0.191 HD
BRANCH  20  23
ATOM     23  C   UNL     1      -6.611   1.669  -4.050  1.00  0.00     0.263 C 
BRANCH  23  24
ATOM     24  C   UNL     1      -6.906   1.421  -5.543  1.00  0.00     0.052 C 
ATOM     25  C   UNL     1      -7.946   2.377  -6.124  1.00  0.00     0.008 C 
ENDBRANCH  23  24
BRANCH  23  26
ATOM     26  O   UNL     1      -7.384   0.780  -3.212  1.00  0.00    -0.479 OA
BRANCH  26  27
ATOM     27  C   UNL     1      -8.657   1.220  -2.960  1.00  0.00     0.140 A 
ATOM     28  C   UNL     1      -9.682   0.752  -3.786  1.00  0.00     0.068 A 
ATOM     29  C   UNL     1      -8.961   2.024  -1.856  1.00  0.00     0.083 A 
ATOM     30  C   UNL     1     -10.993   1.173  -3.568  1.00  0.00     0.044 A 
ATOM     31  C   UNL     1     -10.283   2.421  -1.627  1.00  0.00     0.026 A 
ATOM     32  Cl  UNL     1      -7.742   2.528  -0.747  1.00  0.00    -0.080 Cl
ATOM     33  Cl  UNL     1     -12.236   0.672  -4.645  1.00  0.00    -0.084 Cl
ATOM     34  C   UNL     1     -11.298   2.009  -2.496  1.00  0.00     0.022 A 
ENDBRANCH  26  27
ENDBRANCH  23  26
ENDBRANCH  20  23
ENDBRANCH  16  19
ENDBRANCH   9  15
ENDBRANCH   6   8
ENDBRANCH   5   6
ENDBRANCH   4   5
ENDBRANCH   3   4
ENDBRANCH   2   3
ENDBRANCH   1   2
BRANCH   1  35
ATOM     35  C   UNL     1      -5.501  -4.800  -1.503  1.00  0.00     0.188 C 
BRANCH  35  36
ATOM     36  O   UNL     1      -5.723  -6.094  -0.973  1.00  0.00    -0.377 OA
BRANCH  36  37
ATOM     37  C   UNL     1      -7.036  -6.444  -0.557  1.00  0.00     0.188 C 
BRANCH  37  38
ATOM     38  C   UNL     1      -7.976  -5.374   0.049  1.00  0.00     0.188 C 
BRANCH  38  39
ATOM     39  O   UNL     1      -7.380  -4.101   0.248  1.00  0.00    -0.376 OA
BRANCH  39  40
ATOM     40  C   UNL     1      -7.122  -3.701   1.582  1.00  0.00     0.202 C 
BRANCH  40  41
ATOM     41  C   UNL     1      -6.021  -4.479   2.313  1.00  0.00     0.261 C 
BRANCH  41  42
ATOM     42  O   UNL     1      -6.190  -5.904   2.357  1.00  0.00    -0.460 OA
BRANCH  42  43
ATOM     43  C   UNL     1      -7.266  -6.385   3.017  1.00  0.00     0.338 C 
ATOM     44  O   UNL     1      -8.112  -5.749   3.619  1.00  0.00    -0.246 OA
BRANCH  43  45
ATOM     45  C   UNL     1      -7.359  -7.826   2.703  1.00  0.00     0.060 A 
ATOM     46  C   UNL     1      -8.518  -8.318   2.085  1.00  0.00     0.016 A 
ATOM     47  C   UNL     1      -6.279  -8.672   2.964  1.00  0.00     0.016 A 
ATOM     48  C   UNL     1      -8.608  -9.668   1.748  1.00  0.00     0.010 A 
ATOM     49  C   UNL     1      -6.383 -10.029   2.658  1.00  0.00     0.010 A 
ATOM     50  C   UNL     1      -7.561 -10.536   2.081  1.00  0.00    -0.014 A 
BRANCH  50  51
ATOM     51  C   UNL     1      -7.795 -11.998   2.074  1.00  0.00     0.031 A 
ATOM     52  C   UNL     1      -8.247 -12.634   3.357  1.00  0.00     0.074 A 
ATOM     53  C   UNL     1      -7.623 -12.740   0.968  1.00  0.00     0.049 A 
ATOM     54  N   UNL     1      -8.481 -13.891   3.631  1.00  0.00    -0.248 NA
ATOM     55  C   UNL     1      -8.458 -11.719   4.490  1.00  0.00     0.031 C 
ATOM     56  C   UNL     1      -7.238 -12.229  -0.344  1.00  0.00     0.029 A 
ATOM     57  N   UNL     1      -7.751 -14.094   0.784  1.00  0.00    -0.354 N 
ATOM     58  C   UNL     1      -8.860 -13.916   4.967  1.00  0.00     0.074 A 
ATOM     59  C   UNL     1      -8.787 -12.558   5.458  1.00  0.00     0.031 C 
ATOM     60  C   UNL     1      -7.159 -13.261  -1.203  1.00  0.00     0.029 A 
ATOM     61  C   UNL     1      -7.455 -14.504  -0.491  1.00  0.00     0.049 A 
ATOM     62  H   UNL     1      -8.029 -14.711   1.499  1.00  0.00     0.167 HD
ATOM     63  C   UNL     1      -9.243 -14.977   5.716  1.00  0.00     0.037 A 
ATOM     64  C   UNL     1      -7.414 -15.747  -1.010  1.00  0.00     0.037 A 
ATOM     65  C   UNL     1      -9.293 -16.328   5.228  1.00  0.00     0.049 A 
ATOM     66  C   UNL     1      -7.742 -16.927  -0.130  1.00  0.00     0.074 A 
ATOM     67  C   UNL     1      -9.678 -17.475   5.896  1.00  0.00     0.029 A 
ATOM     68  N   UNL     1      -8.927 -16.715   3.946  1.00  0.00    -0.354 N 
ATOM     69  N   UNL     1      -8.129 -16.947   1.124  1.00  0.00    -0.248 NA
ATOM     70  C   UNL     1      -7.625 -18.259  -0.740  1.00  0.00     0.031 C 
ATOM     71  C   UNL     1      -9.483 -18.564   5.040  1.00  0.00     0.029 A 
ATOM     72  C   UNL     1      -9.041 -18.089   3.815  1.00  0.00     0.049 A 
ATOM     73  H   UNL     1      -8.630 -16.102   3.234  1.00  0.00     0.167 HD
ATOM     74  C   UNL     1      -8.335 -18.284   1.441  1.00  0.00     0.074 A 
ATOM     75  C   UNL     1      -8.037 -19.045   0.245  1.00  0.00     0.031 C 
ATOM     76  C   UNL     1      -8.742 -18.832   2.615  1.00  0.00     0.037 A 
BRANCH  63  77
ATOM     77  C   UNL     1      -9.581 -14.706   7.155  1.00  0.00     0.064 A 
ATOM     78  C   UNL     1     -10.709 -13.955   7.524  1.00  0.00     0.173 A 
ATOM     79  C   UNL     1      -8.747 -15.179   8.178  1.00  0.00     0.173 A 
ATOM     80  F   UNL     1     -11.530 -13.463   6.584  1.00  0.00    -0.203 F 
ATOM     81  C   UNL     1     -10.959 -13.646   8.859  1.00  0.00     0.198 A 
ATOM     82  C   UNL     1      -9.021 -14.899   9.514  1.00  0.00     0.198 A 
ATOM     83  F   UNL     1      -7.656 -15.902   7.883  1.00  0.00    -0.203 F 
ATOM     84  F   UNL     1     -11.997 -12.861   9.180  1.00  0.00    -0.200 F 
ATOM     85  C   UNL     1     -10.117 -14.121   9.852  1.00  0.00     0.200 A 
ATOM     86  F   UNL     1      -8.212 -15.369  10.474  1.00  0.00    -0.200 F 
ATOM     87  F   UNL     1     -10.354 -13.816  11.136  1.00  0.00    -0.200 F 
ENDBRANCH  63  77
BRANCH  64  88
ATOM     88  C   UNL     1      -7.064 -15.940  -2.441  1.00  0.00     0.064 A 
ATOM     89  C   UNL     1      -8.026 -16.379  -3.361  1.00  0.00     0.173 A 
ATOM     90  C   UNL     1      -5.769 -15.691  -2.920  1.00  0.00     0.173 A 
ATOM     91  F   UNL     1      -9.271 -16.658  -2.946  1.00  0.00    -0.203 F 
ATOM     92  C   UNL     1      -7.706 -16.567  -4.704  1.00  0.00     0.198 A 
ATOM     93  C   UNL     1      -5.457 -15.855  -4.268  1.00  0.00     0.198 A 
ATOM     94  F   UNL     1      -4.810 -15.277  -2.080  1.00  0.00    -0.203 F 
ATOM     95  F   UNL     1      -8.636 -17.022  -5.555  1.00  0.00    -0.200 F 
ATOM     96  C   UNL     1      -6.424 -16.297  -5.159  1.00  0.00     0.200 A 
ATOM     97  F   UNL     1      -4.219 -15.584  -4.705  1.00  0.00    -0.200 F 
ATOM     98  F   UNL     1      -6.118 -16.469  -6.452  1.00  0.00    -0.200 F 
ENDBRANCH  64  88
BRANCH  76  99
ATOM     99  C   UNL     1      -8.932 -20.323   2.655  1.00  0.00     0.064 A 
ATOM    100  C   UNL     1      -7.847 -21.210   2.615  1.00  0.00     0.173 A 
ATOM    101  C   UNL     1     -10.219 -20.869   2.783  1.00  0.00     0.173 A 
ATOM    102  F   UNL     1      -6.596 -20.743   2.480  1.00  0.00    -0.203 F 
ATOM    103  C   UNL     1      -8.045 -22.588   2.674  1.00  0.00     0.198 A 
ATOM    104  C   UNL     1     -10.411 -22.244   2.877  1.00  0.00     0.198 A 
ATOM    105  F   UNL     1     -11.293 -20.066   2.836  1.00  0.00    -0.203 F 
ATOM    106  F   UNL     1      -6.997 -23.418   2.583  1.00  0.00    -0.200 F 
ATOM    107  C   UNL     1      -9.325 -23.103   2.814  1.00  0.00     0.200 A 
ATOM    108  F   UNL     1     -11.648 -22.738   3.030  1.00  0.00    -0.200 F 
ATOM    109  F   UNL     1      -9.512 -24.428   2.881  1.00  0.00    -0.200 F 
ENDBRANCH  76  99
ENDBRANCH  50  51
ENDBRANCH  43  45
ENDBRANCH  42  43
ENDBRANCH  41  42
ENDBRANCH  40  41
ENDBRANCH  39  40
ENDBRANCH  38  39
ENDBRANCH  37  38
ENDBRANCH  36  37
ENDBRANCH  35  36
ENDBRANCH   1  35
TORSDOF 26
