REMARK SMILES O=C1NC(=O)/C(=C/c2ccc(OCc3cn(-c4ccc(C(=O)OCCOCCOCCOCCOC(=O)c5ccc(-c6c7nc(c(-c8c(F)c(F)c(F)c(F)c8F)c8ccc([nH]8)c(-c8c(F)c(F)c(F)c(F)c8F)c8nc(c(-c9c(F)c(F)c(F)c(F)c9F)c9ccc6[nH]9)C=C8)C=C7)cc5)cc4)nn3)cc2)S1
REMARK SMILES IDX 27 1 26 2 25 3 24 4 23 5 21 6 22 7 20 8 17 9 18 10 102 11
REMARK SMILES IDX 19 12 101 13 16 14 14 15 15 16 104 17 103 18 13 19 12 20
REMARK SMILES IDX 11 21 8 22 9 23 106 24 10 25 105 26 7 27 1 28 2 29 3 30
REMARK SMILES IDX 107 31 4 32 6 34 5 35 28 36 29 37 30 38 31 39 32 40 33 41
REMARK SMILES IDX 34 42 35 43 36 44 37 45 38 46 39 47 100 48 40 49 99 50 41 51
REMARK SMILES IDX 42 52 43 53 93 54 44 55 98 56 92 57 94 58 45 59 97 60 91 61
REMARK SMILES IDX 90 62 46 64 78 65 58 66 77 67 59 68 62 69 76 70 95 71 60 72
REMARK SMILES IDX 61 73 75 75 96 76 63 77 47 78 48 79 56 80 49 81 50 82 54 83
REMARK SMILES IDX 57 84 51 85 52 86 55 87 53 88 79 89 80 90 88 91 81 92 82 93
REMARK SMILES IDX 86 94 89 95 83 96 84 97 87 98 85 99 64 100 65 101 73 102
REMARK SMILES IDX 66 103 67 104 71 105 74 106 68 107 69 108 72 109 70 110
REMARK H PARENT 3 33 94 63 62 74
REMARK Flexibility Score: inf
ROOT
ATOM      1  C   UNL     1      -9.339   7.693   0.898  1.00  0.00     0.188 C 
ENDROOT
BRANCH   1   2
ATOM      2  O   UNL     1     -10.419   8.577   0.635  1.00  0.00    -0.376 OA
BRANCH   2   3
ATOM      3  C   UNL     1     -10.317   9.875   1.194  1.00  0.00     0.202 C 
BRANCH   3   4
ATOM      4  C   UNL     1      -9.374  10.787   0.402  1.00  0.00     0.261 C 
BRANCH   4   5
ATOM      5  O   UNL     1      -8.015  10.324   0.345  1.00  0.00    -0.460 OA
BRANCH   5   6
ATOM      6  C   UNL     1      -7.365  10.243   1.526  1.00  0.00     0.338 C 
ATOM      7  O   UNL     1      -7.780  10.578   2.621  1.00  0.00    -0.246 OA
BRANCH   6   8
ATOM      8  C   UNL     1      -6.113   9.492   1.313  1.00  0.00     0.060 A 
ATOM      9  C   UNL     1      -3.698   8.133   1.050  1.00  0.00     0.066 A 
ATOM     10  C   UNL     1      -4.622   7.734   2.029  1.00  0.00     0.029 A 
ATOM     11  C   UNL     1      -4.026   9.152   0.144  1.00  0.00     0.029 A 
ATOM     12  C   UNL     1      -5.814   8.437   2.181  1.00  0.00     0.018 A 
ATOM     13  C   UNL     1      -5.247   9.819   0.265  1.00  0.00     0.018 A 
BRANCH   9  14
ATOM     14  N   UNL     1      -2.396   7.579   1.084  1.00  0.00    -0.220 N 
ATOM     15  C   UNL     1      -0.228   7.394   1.198  1.00  0.00     0.120 A 
ATOM     16  C   UNL     1      -1.230   8.115   0.582  1.00  0.00     0.144 A 
ATOM     17  N   UNL     1      -0.796   6.390   1.934  1.00  0.00    -0.131 NA
ATOM     18  N   UNL     1      -2.109   6.495   1.839  1.00  0.00    -0.062 NA
BRANCH  15  19
ATOM     19  C   UNL     1       1.243   7.632   1.248  1.00  0.00     0.289 C 
BRANCH  19  20
ATOM     20  O   UNL     1       1.998   6.956   0.235  1.00  0.00    -0.487 OA
BRANCH  20  21
ATOM     21  C   UNL     1       2.111   5.596   0.320  1.00  0.00     0.119 A 
ATOM     22  C   UNL     1       2.213   2.796   0.144  1.00  0.00    -0.024 A 
ATOM     23  C   UNL     1       2.641   3.582  -0.928  1.00  0.00     0.012 A 
ATOM     24  C   UNL     1       1.813   3.417   1.330  1.00  0.00     0.012 A 
ATOM     25  C   UNL     1       2.588   4.976  -0.837  1.00  0.00     0.047 A 
ATOM     26  C   UNL     1       1.776   4.810   1.421  1.00  0.00     0.047 A 
BRANCH  22  27
ATOM     27  C   UNL     1       2.166   1.337   0.021  1.00  0.00     0.029 C 
ATOM     28  O   UNL     1      -2.423  -0.736   0.001  1.00  0.00    -0.261 OA
ATOM     29  C   UNL     1      -1.237  -0.461  -0.017  1.00  0.00     0.290 C 
ATOM     30  N   UNL     1      -0.215  -1.352  -0.086  1.00  0.00    -0.282 N 
ATOM     31  S   UNL     1      -0.595   1.166   0.044  1.00  0.00    -0.022 SA
ATOM     32  C   UNL     1       1.059  -0.872  -0.097  1.00  0.00     0.265 C 
ATOM     33  H   UNL     1      -0.391  -2.320  -0.127  1.00  0.00     0.174 HD
ATOM     34  C   UNL     1       1.040   0.611  -0.010  1.00  0.00     0.083 C 
ATOM     35  O   UNL     1       2.064  -1.564  -0.161  1.00  0.00    -0.268 OA
ENDBRANCH  22  27
ENDBRANCH  20  21
ENDBRANCH  19  20
ENDBRANCH  15  19
ENDBRANCH   9  14
ENDBRANCH   6   8
ENDBRANCH   5   6
ENDBRANCH   4   5
ENDBRANCH   3   4
ENDBRANCH   2   3
ENDBRANCH   1   2
BRANCH   1  36
ATOM     36  C   UNL     1      -8.577   7.218  -0.360  1.00  0.00     0.188 C 
BRANCH  36  37
ATOM     37  O   UNL     1      -9.030   7.541  -1.669  1.00  0.00    -0.377 OA
BRANCH  37  38
ATOM     38  C   UNL     1     -10.418   7.695  -1.925  1.00  0.00     0.188 C 
BRANCH  38  39
ATOM     39  C   UNL     1     -11.454   6.747  -1.272  1.00  0.00     0.188 C 
BRANCH  39  40
ATOM     40  O   UNL     1     -10.928   5.835  -0.315  1.00  0.00    -0.376 OA
BRANCH  40  41
ATOM     41  C   UNL     1     -11.067   4.447  -0.574  1.00  0.00     0.202 C 
BRANCH  41  42
ATOM     42  C   UNL     1      -9.991   3.914  -1.515  1.00  0.00     0.261 C 
BRANCH  42  43
ATOM     43  O   UNL     1      -9.922   4.636  -2.737  1.00  0.00    -0.460 OA
BRANCH  43  44
ATOM     44  C   UNL     1     -11.038   4.598  -3.486  1.00  0.00     0.338 C 
ATOM     45  O   UNL     1     -12.096   4.054  -3.217  1.00  0.00    -0.246 OA
BRANCH  44  46
ATOM     46  C   UNL     1     -10.766   5.237  -4.773  1.00  0.00     0.060 A 
ATOM     47  C   UNL     1     -11.843   5.281  -5.659  1.00  0.00     0.016 A 
ATOM     48  C   UNL     1      -9.436   5.399  -5.188  1.00  0.00     0.016 A 
ATOM     49  C   UNL     1     -11.567   5.162  -6.996  1.00  0.00     0.010 A 
ATOM     50  C   UNL     1      -9.161   5.262  -6.524  1.00  0.00     0.010 A 
ATOM     51  C   UNL     1     -10.231   5.025  -7.383  1.00  0.00    -0.014 A 
BRANCH  51  52
ATOM     52  C   UNL     1      -9.993   4.525  -8.716  1.00  0.00     0.031 A 
ATOM     53  C   UNL     1     -10.134   5.528  -9.784  1.00  0.00     0.074 A 
ATOM     54  C   UNL     1      -9.625   3.248  -8.922  1.00  0.00     0.049 A 
ATOM     55  N   UNL     1     -10.918   5.496 -10.808  1.00  0.00    -0.248 NA
ATOM     56  C   UNL     1      -9.362   6.770  -9.637  1.00  0.00     0.031 C 
ATOM     57  C   UNL     1      -9.188   2.263  -7.927  1.00  0.00     0.029 A 
ATOM     58  N   UNL     1      -9.461   2.595 -10.104  1.00  0.00    -0.354 N 
ATOM     59  C   UNL     1     -10.620   6.643 -11.533  1.00  0.00     0.074 A 
ATOM     60  C   UNL     1      -9.763   7.451 -10.707  1.00  0.00     0.031 C 
ATOM     61  C   UNL     1      -8.606   1.224  -8.565  1.00  0.00     0.029 A 
ATOM     62  C   UNL     1      -8.735   1.421  -9.999  1.00  0.00     0.049 A 
ATOM     63  H   UNL     1      -9.825   2.928 -10.956  1.00  0.00     0.167 HD
ATOM     64  C   UNL     1     -10.909   6.728 -12.856  1.00  0.00     0.037 A 
ATOM     65  C   UNL     1      -8.197   0.723 -11.027  1.00  0.00     0.037 A 
ATOM     66  C   UNL     1     -11.976   5.836 -13.227  1.00  0.00     0.049 A 
ATOM     67  C   UNL     1      -8.880   1.149 -12.275  1.00  0.00     0.074 A 
ATOM     68  C   UNL     1     -13.292   5.689 -12.830  1.00  0.00     0.029 A 
ATOM     69  N   UNL     1     -11.671   4.692 -13.920  1.00  0.00    -0.354 N 
ATOM     70  N   UNL     1     -10.114   0.861 -12.580  1.00  0.00    -0.248 NA
ATOM     71  C   UNL     1      -8.293   2.246 -13.034  1.00  0.00     0.031 C 
ATOM     72  C   UNL     1     -13.561   4.292 -12.913  1.00  0.00     0.029 A 
ATOM     73  C   UNL     1     -12.398   3.670 -13.366  1.00  0.00     0.049 A 
ATOM     74  H   UNL     1     -11.046   4.618 -14.677  1.00  0.00     0.167 HD
ATOM     75  C   UNL     1     -10.583   1.979 -13.255  1.00  0.00     0.074 A 
ATOM     76  C   UNL     1      -9.392   2.739 -13.609  1.00  0.00     0.031 C 
ATOM     77  C   UNL     1     -11.903   2.322 -13.214  1.00  0.00     0.037 A 
BRANCH  64  78
ATOM     78  C   UNL     1      -9.968   7.354 -13.853  1.00  0.00     0.064 A 
ATOM     79  C   UNL     1     -10.394   7.520 -15.183  1.00  0.00     0.173 A 
ATOM     80  C   UNL     1      -8.582   7.523 -13.629  1.00  0.00     0.173 A 
ATOM     81  F   UNL     1     -11.684   7.361 -15.512  1.00  0.00    -0.203 F 
ATOM     82  C   UNL     1      -9.489   7.753 -16.221  1.00  0.00     0.198 A 
ATOM     83  C   UNL     1      -7.691   7.814 -14.658  1.00  0.00     0.198 A 
ATOM     84  F   UNL     1      -8.015   7.304 -12.437  1.00  0.00    -0.203 F 
ATOM     85  F   UNL     1      -9.923   7.770 -17.488  1.00  0.00    -0.200 F 
ATOM     86  C   UNL     1      -8.138   7.894 -15.959  1.00  0.00     0.200 A 
ATOM     87  F   UNL     1      -6.384   7.932 -14.384  1.00  0.00    -0.200 F 
ATOM     88  F   UNL     1      -7.263   8.055 -16.959  1.00  0.00    -0.200 F 
ENDBRANCH  64  78
BRANCH  65  89
ATOM     89  C   UNL     1      -6.948  -0.070 -11.031  1.00  0.00     0.064 A 
ATOM     90  C   UNL     1      -6.686  -1.001 -12.046  1.00  0.00     0.173 A 
ATOM     91  C   UNL     1      -5.871   0.245 -10.177  1.00  0.00     0.173 A 
ATOM     92  F   UNL     1      -7.641  -1.317 -12.934  1.00  0.00    -0.203 F 
ATOM     93  C   UNL     1      -5.421  -1.574 -12.206  1.00  0.00     0.198 A 
ATOM     94  C   UNL     1      -4.614  -0.339 -10.326  1.00  0.00     0.198 A 
ATOM     95  F   UNL     1      -5.988   1.195  -9.238  1.00  0.00    -0.203 F 
ATOM     96  F   UNL     1      -5.192  -2.413 -13.226  1.00  0.00    -0.200 F 
ATOM     97  C   UNL     1      -4.385  -1.239 -11.349  1.00  0.00     0.200 A 
ATOM     98  F   UNL     1      -3.613   0.021  -9.511  1.00  0.00    -0.200 F 
ATOM     99  F   UNL     1      -3.160  -1.749 -11.533  1.00  0.00    -0.200 F 
ENDBRANCH  65  89
BRANCH  77 100
ATOM    100  C   UNL     1     -12.870   1.295 -12.702  1.00  0.00     0.064 A 
ATOM    101  C   UNL     1     -12.860   0.807 -11.384  1.00  0.00     0.173 A 
ATOM    102  C   UNL     1     -13.917   0.883 -13.537  1.00  0.00     0.173 A 
ATOM    103  F   UNL     1     -11.953   1.240 -10.498  1.00  0.00    -0.203 F 
ATOM    104  C   UNL     1     -13.824  -0.097 -10.943  1.00  0.00     0.198 A 
ATOM    105  C   UNL     1     -14.900   0.009 -13.083  1.00  0.00     0.198 A 
ATOM    106  F   UNL     1     -14.011   1.366 -14.786  1.00  0.00    -0.203 F 
ATOM    107  F   UNL     1     -13.783  -0.564  -9.687  1.00  0.00    -0.200 F 
ATOM    108  C   UNL     1     -14.845  -0.491 -11.791  1.00  0.00     0.200 A 
ATOM    109  F   UNL     1     -15.915  -0.331 -13.889  1.00  0.00    -0.200 F 
ATOM    110  F   UNL     1     -15.794  -1.333 -11.356  1.00  0.00    -0.200 F 
ENDBRANCH  77 100
ENDBRANCH  51  52
ENDBRANCH  44  46
ENDBRANCH  43  44
ENDBRANCH  42  43
ENDBRANCH  41  42
ENDBRANCH  40  41
ENDBRANCH  39  40
ENDBRANCH  38  39
ENDBRANCH  37  38
ENDBRANCH  36  37
ENDBRANCH   1  36
TORSDOF 25
