REMARK SMILES CC[C@](C)(NC(=O)N[C@@H]1C[C@@H]1C)C(=O)OCCOCCOCCOCCOC(=O)c1ccc(-c2c3nc(c(-c4c(F)c(F)c(F)c(F)c4F)c4ccc([nH]4)c(-c4c(F)c(F)c(F)c(F)c4F)c4nc(c(-c5c(F)c(F)c(F)c(F)c5F)c5ccc2[nH]5)C=C4)C=C3)cc1
REMARK SMILES IDX 21 1 20 2 19 3 18 4 17 5 16 6 15 7 13 8 14 9 3 10 4 11 2 12
REMARK SMILES IDX 1 13 5 14 6 15 7 17 8 18 9 20 10 21 11 22 12 23 22 24 23 25
REMARK SMILES IDX 24 26 25 27 26 28 27 29 28 30 29 31 30 32 31 33 92 34 32 35
REMARK SMILES IDX 91 36 33 37 34 38 35 39 85 40 36 41 90 42 84 43 86 44 37 45
REMARK SMILES IDX 89 46 83 47 82 48 38 50 70 51 50 52 69 53 51 54 54 55 68 56
REMARK SMILES IDX 87 57 52 58 53 59 67 61 88 62 55 63 39 64 40 65 48 66 41 67
REMARK SMILES IDX 42 68 46 69 49 70 43 71 44 72 47 73 45 74 71 75 72 76 80 77
REMARK SMILES IDX 73 78 74 79 78 80 81 81 75 82 76 83 79 84 77 85 56 86 57 87
REMARK SMILES IDX 65 88 58 89 59 90 63 91 66 92 60 93 61 94 64 95 62 96
REMARK H PARENT 5 16 8 19 86 49 54 60
REMARK Flexibility Score: inf
ROOT
ATOM      1  O   UNL     1       3.878  -6.185   0.282  1.00  0.00    -0.377 OA
ENDROOT
BRANCH   1   2
ATOM      2  C   UNL     1       3.442  -5.054  -0.439  1.00  0.00     0.188 C 
BRANCH   2   3
ATOM      3  C   UNL     1       4.393  -3.824  -0.441  1.00  0.00     0.188 C 
BRANCH   3   4
ATOM      4  O   UNL     1       4.607  -3.007   0.720  1.00  0.00    -0.376 OA
BRANCH   4   5
ATOM      5  C   UNL     1       4.782  -3.375   2.091  1.00  0.00     0.202 C 
BRANCH   5   6
ATOM      6  C   UNL     1       4.190  -2.306   3.165  1.00  0.00     0.261 C 
BRANCH   6   7
ATOM      7  O   UNL     1       2.715  -2.159   3.183  1.00  0.00    -0.462 OA
BRANCH   7   8
ATOM      8  C   UNL     1       2.049  -0.916   3.112  1.00  0.00     0.331 C 
ATOM      9  O   UNL     1       2.589   0.145   3.402  1.00  0.00    -0.249 OA
BRANCH   8  10
ATOM     10  C   UNL     1       0.511  -1.037   2.533  1.00  0.00     0.136 C 
ATOM     11  C   UNL     1       0.022  -0.374   1.210  1.00  0.00     0.047 C 
BRANCH  10  12
ATOM     12  C   UNL     1      -0.501  -0.607   3.618  1.00  0.00     0.037 C 
ATOM     13  C   UNL     1      -0.895   0.867   3.509  1.00  0.00     0.007 C 
ENDBRANCH  10  12
BRANCH  10  14
ATOM     14  N   UNL     1       0.374  -2.435   2.280  1.00  0.00    -0.322 N 
ATOM     15  C   UNL     1       1.091  -3.047   1.336  1.00  0.00     0.315 C 
ATOM     16  H   UNL     1      -0.264  -2.960   2.815  1.00  0.00     0.166 HD
ATOM     17  O   UNL     1       0.961  -4.270   1.284  1.00  0.00    -0.249 OA
ATOM     18  N   UNL     1       1.988  -2.376   0.539  1.00  0.00    -0.335 N 
ATOM     19  H   UNL     1       2.111  -2.872  -0.303  1.00  0.00     0.165 HD
BRANCH  18  20
ATOM     20  C   UNL     1       2.825  -1.169   0.518  1.00  0.00     0.087 C 
ATOM     21  C   UNL     1       2.784   0.284   0.227  1.00  0.00     0.030 C 
ATOM     22  C   UNL     1       3.366  -0.628  -0.799  1.00  0.00     0.010 C 
ATOM     23  C   UNL     1       2.672  -0.630  -2.109  1.00  0.00     0.010 C 
ENDBRANCH  18  20
ENDBRANCH  10  14
ENDBRANCH   8  10
ENDBRANCH   7   8
ENDBRANCH   6   7
ENDBRANCH   5   6
ENDBRANCH   4   5
ENDBRANCH   3   4
ENDBRANCH   2   3
ENDBRANCH   1   2
BRANCH   1  24
ATOM     24  C   UNL     1       5.280  -6.328   0.321  1.00  0.00     0.188 C 
BRANCH  24  25
ATOM     25  C   UNL     1       6.019  -6.362  -1.035  1.00  0.00     0.188 C 
BRANCH  25  26
ATOM     26  O   UNL     1       5.259  -5.934  -2.155  1.00  0.00    -0.376 OA
BRANCH  26  27
ATOM     27  C   UNL     1       4.589  -6.869  -2.991  1.00  0.00     0.202 C 
BRANCH  27  28
ATOM     28  C   UNL     1       3.708  -8.013  -2.446  1.00  0.00     0.261 C 
BRANCH  28  29
ATOM     29  O   UNL     1       4.088  -8.614  -1.209  1.00  0.00    -0.460 OA
BRANCH  29  30
ATOM     30  C   UNL     1       5.215  -9.369  -1.218  1.00  0.00     0.338 C 
ATOM     31  O   UNL     1       5.918  -9.614  -2.151  1.00  0.00    -0.246 OA
BRANCH  30  32
ATOM     32  C   UNL     1       5.575  -9.604   0.209  1.00  0.00     0.060 A 
ATOM     33  C   UNL     1       6.881  -9.273   0.600  1.00  0.00     0.016 A 
ATOM     34  C   UNL     1       4.635 -10.020   1.160  1.00  0.00     0.016 A 
ATOM     35  C   UNL     1       7.256  -9.378   1.933  1.00  0.00     0.010 A 
ATOM     36  C   UNL     1       5.032 -10.197   2.490  1.00  0.00     0.010 A 
ATOM     37  C   UNL     1       6.359  -9.921   2.861  1.00  0.00    -0.014 A 
BRANCH  37  38
ATOM     38  C   UNL     1       6.966 -10.534   4.063  1.00  0.00     0.031 A 
ATOM     39  C   UNL     1       7.464 -11.947   3.909  1.00  0.00     0.074 A 
ATOM     40  C   UNL     1       7.220  -9.828   5.176  1.00  0.00     0.049 A 
ATOM     41  N   UNL     1       8.167 -12.680   4.731  1.00  0.00    -0.248 NA
ATOM     42  C   UNL     1       7.145 -12.614   2.634  1.00  0.00     0.031 C 
ATOM     43  C   UNL     1       6.838  -8.438   5.407  1.00  0.00     0.029 A 
ATOM     44  N   UNL     1       7.888 -10.191   6.318  1.00  0.00    -0.354 N 
ATOM     45  C   UNL     1       8.394 -13.875   4.060  1.00  0.00     0.074 A 
ATOM     46  C   UNL     1       7.720 -13.794   2.786  1.00  0.00     0.031 C 
ATOM     47  C   UNL     1       7.273  -8.065   6.625  1.00  0.00     0.029 A 
ATOM     48  C   UNL     1       7.951  -9.196   7.260  1.00  0.00     0.049 A 
ATOM     49  H   UNL     1       8.286 -11.083   6.449  1.00  0.00     0.167 HD
ATOM     50  C   UNL     1       9.120 -14.943   4.462  1.00  0.00     0.037 A 
ATOM     51  C   UNL     1       8.488  -9.212   8.496  1.00  0.00     0.037 A 
ATOM     52  C   UNL     1       9.761 -15.033   5.742  1.00  0.00     0.049 A 
ATOM     53  C   UNL     1       9.208 -10.455   8.962  1.00  0.00     0.074 A 
ATOM     54  C   UNL     1      10.485 -16.083   6.274  1.00  0.00     0.029 A 
ATOM     55  N   UNL     1       9.743 -14.028   6.700  1.00  0.00    -0.354 N 
ATOM     56  N   UNL     1       9.427 -11.579   8.321  1.00  0.00    -0.248 NA
ATOM     57  C   UNL     1       9.770 -10.423  10.319  1.00  0.00     0.031 C 
ATOM     58  C   UNL     1      10.861 -15.734   7.575  1.00  0.00     0.029 A 
ATOM     59  C   UNL     1      10.428 -14.442   7.829  1.00  0.00     0.049 A 
ATOM     60  H   UNL     1       9.307 -13.152   6.592  1.00  0.00     0.167 HD
ATOM     61  C   UNL     1      10.168 -12.377   9.185  1.00  0.00     0.074 A 
ATOM     62  C   UNL     1      10.387 -11.594  10.384  1.00  0.00     0.031 C 
ATOM     63  C   UNL     1      10.626 -13.642   9.011  1.00  0.00     0.037 A 
BRANCH  50  64
ATOM     64  C   UNL     1       9.219 -16.101   3.514  1.00  0.00     0.064 A 
ATOM     65  C   UNL     1       9.966 -16.021   2.328  1.00  0.00     0.173 A 
ATOM     66  C   UNL     1       8.562 -17.307   3.796  1.00  0.00     0.173 A 
ATOM     67  F   UNL     1      10.588 -14.879   1.996  1.00  0.00    -0.203 F 
ATOM     68  C   UNL     1      10.035 -17.100   1.451  1.00  0.00     0.198 A 
ATOM     69  C   UNL     1       8.660 -18.395   2.933  1.00  0.00     0.198 A 
ATOM     70  F   UNL     1       7.826 -17.432   4.911  1.00  0.00    -0.203 F 
ATOM     71  F   UNL     1      10.713 -16.985   0.300  1.00  0.00    -0.200 F 
ATOM     72  C   UNL     1       9.390 -18.289   1.759  1.00  0.00     0.200 A 
ATOM     73  F   UNL     1       8.041 -19.544   3.235  1.00  0.00    -0.200 F 
ATOM     74  F   UNL     1       9.465 -19.330   0.919  1.00  0.00    -0.200 F 
ENDBRANCH  50  64
BRANCH  51  75
ATOM     75  C   UNL     1       8.347  -8.031   9.390  1.00  0.00     0.064 A 
ATOM     76  C   UNL     1       9.458  -7.289   9.813  1.00  0.00     0.173 A 
ATOM     77  C   UNL     1       7.088  -7.649   9.879  1.00  0.00     0.173 A 
ATOM     78  F   UNL     1      10.688  -7.627   9.398  1.00  0.00    -0.203 F 
ATOM     79  C   UNL     1       9.319  -6.230  10.710  1.00  0.00     0.198 A 
ATOM     80  C   UNL     1       6.946  -6.569  10.748  1.00  0.00     0.198 A 
ATOM     81  F   UNL     1       5.990  -8.326   9.511  1.00  0.00    -0.203 F 
ATOM     82  F   UNL     1      10.405  -5.576  11.145  1.00  0.00    -0.200 F 
ATOM     83  C   UNL     1       8.063  -5.867  11.172  1.00  0.00     0.200 A 
ATOM     84  F   UNL     1       5.728  -6.216  11.181  1.00  0.00    -0.200 F 
ATOM     85  F   UNL     1       7.931  -4.851  12.035  1.00  0.00    -0.200 F 
ENDBRANCH  51  75
BRANCH  63  86
ATOM     86  C   UNL     1      11.430 -14.241  10.131  1.00  0.00     0.064 A 
ATOM     87  C   UNL     1      10.845 -14.578  11.361  1.00  0.00     0.173 A 
ATOM     88  C   UNL     1      12.799 -14.498   9.964  1.00  0.00     0.173 A 
ATOM     89  F   UNL     1       9.541 -14.346  11.575  1.00  0.00    -0.203 F 
ATOM     90  C   UNL     1      11.611 -15.105  12.397  1.00  0.00     0.198 A 
ATOM     91  C   UNL     1      13.554 -15.061  10.989  1.00  0.00     0.198 A 
ATOM     92  F   UNL     1      13.406 -14.209   8.803  1.00  0.00    -0.203 F 
ATOM     93  F   UNL     1      11.045 -15.354  13.586  1.00  0.00    -0.200 F 
ATOM     94  C   UNL     1      12.963 -15.351  12.209  1.00  0.00     0.200 A 
ATOM     95  F   UNL     1      14.856 -15.316  10.798  1.00  0.00    -0.200 F 
ATOM     96  F   UNL     1      13.699 -15.857  13.208  1.00  0.00    -0.200 F 
ENDBRANCH  63  86
ENDBRANCH  37  38
ENDBRANCH  30  32
ENDBRANCH  29  30
ENDBRANCH  28  29
ENDBRANCH  27  28
ENDBRANCH  26  27
ENDBRANCH  25  26
ENDBRANCH  24  25
ENDBRANCH   1  24
TORSDOF 23
