REMARK SMILES O=C(CSc1nnnn1-c1ccc(C(=O)OCCOCCOCCOCCOC(=O)c2ccc(-c3c4nc(c(-c5c(F)c(F)c(F)c(F)c5F)c5ccc([nH]5)c(-c5c(F)c(F)c(F)c(F)c5F)c5nc(c(-c6c(F)c(F)c(F)c(F)c6F)c6ccc3[nH]6)C=C5)C=C4)cc2)cc1)Nc1nc(-c2ccccc2)cs1
REMARK SMILES IDX 20 1 19 2 18 3 17 4 16 5 14 6 15 7 13 8 10 9 11 10 95 11
REMARK SMILES IDX 12 12 94 13 9 14 5 15 6 16 7 17 8 18 4 19 3 20 2 21 1 22
REMARK SMILES IDX 96 23 97 25 98 26 107 27 99 28 106 29 100 30 101 31 105 32
REMARK SMILES IDX 102 33 104 34 103 35 21 36 22 37 23 38 24 39 25 40 26 41
REMARK SMILES IDX 27 42 28 43 29 44 30 45 31 46 32 47 93 48 33 49 92 50 34 51
REMARK SMILES IDX 35 52 36 53 86 54 37 55 91 56 85 57 87 58 38 59 90 60 84 61
REMARK SMILES IDX 83 62 39 64 71 65 51 66 70 67 52 68 55 69 69 70 88 71 53 72
REMARK SMILES IDX 54 73 68 75 89 76 56 77 40 78 41 79 49 80 42 81 43 82 47 83
REMARK SMILES IDX 50 84 44 85 45 86 48 87 46 88 72 89 73 90 81 91 74 92 75 93
REMARK SMILES IDX 79 94 82 95 76 96 77 97 80 98 78 99 57 100 58 101 66 102
REMARK SMILES IDX 59 103 60 104 64 105 67 106 61 107 62 108 65 109 63 110
REMARK H PARENT 96 24 87 63 55 74
REMARK Flexibility Score: inf
ROOT
ATOM      1  C   UNL     1       8.232   7.304   0.133  1.00  0.00     0.188 C 
ENDROOT
BRANCH   1   2
ATOM      2  O   UNL     1       9.554   7.354   0.639  1.00  0.00    -0.376 OA
BRANCH   2   3
ATOM      3  C   UNL     1      10.041   6.292   1.427  1.00  0.00     0.202 C 
BRANCH   3   4
ATOM      4  C   UNL     1      10.080   4.890   0.808  1.00  0.00     0.261 C 
BRANCH   4   5
ATOM      5  O   UNL     1       8.917   4.503   0.068  1.00  0.00    -0.460 OA
BRANCH   5   6
ATOM      6  C   UNL     1       7.805   4.231   0.774  1.00  0.00     0.338 C 
ATOM      7  O   UNL     1       7.681   4.242   1.995  1.00  0.00    -0.246 OA
BRANCH   6   8
ATOM      8  C   UNL     1       6.680   4.091  -0.173  1.00  0.00     0.060 A 
ATOM      9  C   UNL     1       4.492   3.688  -1.826  1.00  0.00     0.069 A 
ATOM     10  C   UNL     1       4.355   4.525  -0.715  1.00  0.00     0.029 A 
ATOM     11  C   UNL     1       5.744   3.174  -2.194  1.00  0.00     0.029 A 
ATOM     12  C   UNL     1       5.450   4.695   0.133  1.00  0.00     0.018 A 
ATOM     13  C   UNL     1       6.844   3.385  -1.369  1.00  0.00     0.018 A 
BRANCH   9  14
ATOM     14  N   UNL     1       3.328   3.192  -2.448  1.00  0.00    -0.187 N 
ATOM     15  C   UNL     1       2.970   1.865  -2.633  1.00  0.00     0.214 A 
ATOM     16  N   UNL     1       1.749   1.816  -3.109  1.00  0.00    -0.101 NA
ATOM     17  N   UNL     1       1.319   3.121  -3.162  1.00  0.00    -0.022 NA
ATOM     18  N   UNL     1       2.239   3.953  -2.687  1.00  0.00    -0.039 NA
BRANCH  15  19
ATOM     19  S   UNL     1       3.914   0.524  -2.060  1.00  0.00    -0.074 SA
BRANCH  19  20
ATOM     20  C   UNL     1       2.674  -0.551  -1.312  1.00  0.00     0.178 C 
BRANCH  20  21
ATOM     21  C   UNL     1       1.917   0.038  -0.132  1.00  0.00     0.236 C 
ATOM     22  O   UNL     1       0.723  -0.228  -0.002  1.00  0.00    -0.274 OA
ATOM     23  N   UNL     1       2.676   0.770   0.758  1.00  0.00    -0.301 N 
ATOM     24  H   UNL     1       3.606   0.995   0.526  1.00  0.00     0.172 HD
BRANCH  23  25
ATOM     25  C   UNL     1       2.162   1.190   1.957  1.00  0.00     0.189 A 
ATOM     26  N   UNL     1       1.077   0.795   2.571  1.00  0.00    -0.220 NA
ATOM     27  S   UNL     1       3.092   2.379   2.757  1.00  0.00    -0.105 S 
ATOM     28  C   UNL     1       0.912   1.519   3.736  1.00  0.00     0.084 A 
ATOM     29  C   UNL     1       1.895   2.456   3.991  1.00  0.00     0.097 A 
BRANCH  28  30
ATOM     30  C   UNL     1      -0.209   1.275   4.624  1.00  0.00     0.001 A 
ATOM     31  C   UNL     1      -0.317   0.045   5.286  1.00  0.00     0.010 A 
ATOM     32  C   UNL     1      -1.198   2.248   4.816  1.00  0.00     0.010 A 
ATOM     33  C   UNL     1      -1.391  -0.202   6.144  1.00  0.00     0.001 A 
ATOM     34  C   UNL     1      -2.277   1.993   5.667  1.00  0.00     0.001 A 
ATOM     35  C   UNL     1      -2.371   0.771   6.333  1.00  0.00     0.000 A 
ENDBRANCH  28  30
ENDBRANCH  23  25
ENDBRANCH  20  21
ENDBRANCH  19  20
ENDBRANCH  15  19
ENDBRANCH   9  14
ENDBRANCH   6   8
ENDBRANCH   5   6
ENDBRANCH   4   5
ENDBRANCH   3   4
ENDBRANCH   2   3
ENDBRANCH   1   2
BRANCH   1  36
ATOM     36  C   UNL     1       8.168   7.134  -1.402  1.00  0.00     0.188 C 
BRANCH  36  37
ATOM     37  O   UNL     1       9.355   6.862  -2.136  1.00  0.00    -0.377 OA
BRANCH  37  38
ATOM     38  C   UNL     1      10.547   7.601  -1.878  1.00  0.00     0.188 C 
BRANCH  38  39
ATOM     39  C   UNL     1      10.540   9.029  -1.264  1.00  0.00     0.188 C 
BRANCH  39  40
ATOM     40  O   UNL     1       9.268   9.530  -0.891  1.00  0.00    -0.376 OA
BRANCH  40  41
ATOM     41  C   UNL     1       8.647  10.602  -1.569  1.00  0.00     0.202 C 
BRANCH  41  42
ATOM     42  C   UNL     1       8.290  10.399  -3.034  1.00  0.00     0.261 C 
BRANCH  42  43
ATOM     43  O   UNL     1       9.275   9.696  -3.763  1.00  0.00    -0.460 OA
BRANCH  43  44
ATOM     44  C   UNL     1      10.407  10.378  -3.975  1.00  0.00     0.338 C 
ATOM     45  O   UNL     1      10.737  11.454  -3.478  1.00  0.00    -0.246 OA
BRANCH  44  46
ATOM     46  C   UNL     1      11.159   9.690  -5.016  1.00  0.00     0.060 A 
ATOM     47  C   UNL     1      12.415  10.217  -5.312  1.00  0.00     0.016 A 
ATOM     48  C   UNL     1      10.447   8.869  -5.905  1.00  0.00     0.016 A 
ATOM     49  C   UNL     1      12.817  10.178  -6.621  1.00  0.00     0.010 A 
ATOM     50  C   UNL     1      10.835   8.856  -7.215  1.00  0.00     0.010 A 
ATOM     51  C   UNL     1      11.953   9.605  -7.561  1.00  0.00    -0.014 A 
BRANCH  51  52
ATOM     52  C   UNL     1      12.269   9.799  -8.951  1.00  0.00     0.031 A 
ATOM     53  C   UNL     1      13.359   8.925  -9.410  1.00  0.00     0.074 A 
ATOM     54  C   UNL     1      11.577  10.654  -9.722  1.00  0.00     0.049 A 
ATOM     55  N   UNL     1      14.546   9.279  -9.767  1.00  0.00    -0.248 NA
ATOM     56  C   UNL     1      13.164   7.473  -9.284  1.00  0.00     0.031 C 
ATOM     57  C   UNL     1      10.321  11.348  -9.426  1.00  0.00     0.029 A 
ATOM     58  N   UNL     1      11.826  11.008 -11.007  1.00  0.00    -0.354 N 
ATOM     59  C   UNL     1      15.197   8.098 -10.091  1.00  0.00     0.074 A 
ATOM     60  C   UNL     1      14.376   7.022  -9.602  1.00  0.00     0.031 C 
ATOM     61  C   UNL     1       9.809  11.842 -10.577  1.00  0.00     0.029 A 
ATOM     62  C   UNL     1      10.757  11.606 -11.653  1.00  0.00     0.049 A 
ATOM     63  H   UNL     1      12.694  10.852 -11.444  1.00  0.00     0.167 HD
ATOM     64  C   UNL     1      16.231   8.097 -10.970  1.00  0.00     0.037 A 
ATOM     65  C   UNL     1      10.652  11.778 -12.994  1.00  0.00     0.037 A 
ATOM     66  C   UNL     1      16.796   9.413 -11.123  1.00  0.00     0.049 A 
ATOM     67  C   UNL     1      12.024  11.667 -13.566  1.00  0.00     0.074 A 
ATOM     68  C   UNL     1      17.401  10.307 -10.260  1.00  0.00     0.029 A 
ATOM     69  N   UNL     1      16.439  10.145 -12.229  1.00  0.00    -0.354 N 
ATOM     70  N   UNL     1      12.966  12.547 -13.368  1.00  0.00    -0.248 NA
ATOM     71  C   UNL     1      12.485  10.344 -13.969  1.00  0.00     0.031 C 
ATOM     72  C   UNL     1      16.956  11.594 -10.683  1.00  0.00     0.029 A 
ATOM     73  C   UNL     1      16.150  11.418 -11.808  1.00  0.00     0.049 A 
ATOM     74  H   UNL     1      16.398   9.815 -13.156  1.00  0.00     0.167 HD
ATOM     75  C   UNL     1      14.122  11.798 -13.198  1.00  0.00     0.074 A 
ATOM     76  C   UNL     1      13.781  10.457 -13.665  1.00  0.00     0.031 C 
ATOM     77  C   UNL     1      15.150  12.257 -12.426  1.00  0.00     0.037 A 
BRANCH  64  78
ATOM     78  C   UNL     1      16.463   6.990 -11.959  1.00  0.00     0.064 A 
ATOM     79  C   UNL     1      17.659   6.975 -12.698  1.00  0.00     0.173 A 
ATOM     80  C   UNL     1      15.446   6.122 -12.418  1.00  0.00     0.173 A 
ATOM     81  F   UNL     1      18.677   7.783 -12.364  1.00  0.00    -0.203 F 
ATOM     82  C   UNL     1      17.798   6.200 -13.851  1.00  0.00     0.198 A 
ATOM     83  C   UNL     1      15.611   5.305 -13.531  1.00  0.00     0.198 A 
ATOM     84  F   UNL     1      14.218   6.112 -11.885  1.00  0.00    -0.203 F 
ATOM     85  F   UNL     1      18.905   6.313 -14.596  1.00  0.00    -0.200 F 
ATOM     86  C   UNL     1      16.773   5.368 -14.268  1.00  0.00     0.200 A 
ATOM     87  F   UNL     1      14.598   4.523 -13.929  1.00  0.00    -0.200 F 
ATOM     88  F   UNL     1      16.883   4.670 -15.405  1.00  0.00    -0.200 F 
ENDBRANCH  64  78
BRANCH  65  89
ATOM     89  C   UNL     1       9.432  11.659 -13.829  1.00  0.00     0.064 A 
ATOM     90  C   UNL     1       9.427  12.104 -15.161  1.00  0.00     0.173 A 
ATOM     91  C   UNL     1       8.339  10.862 -13.434  1.00  0.00     0.173 A 
ATOM     92  F   UNL     1      10.451  12.829 -15.634  1.00  0.00    -0.203 F 
ATOM     93  C   UNL     1       8.406  11.748 -16.050  1.00  0.00     0.198 A 
ATOM     94  C   UNL     1       7.316  10.517 -14.318  1.00  0.00     0.198 A 
ATOM     95  F   UNL     1       8.286  10.318 -12.210  1.00  0.00    -0.203 F 
ATOM     96  F   UNL     1       8.472  12.135 -17.332  1.00  0.00    -0.200 F 
ATOM     97  C   UNL     1       7.358  10.947 -15.630  1.00  0.00     0.200 A 
ATOM     98  F   UNL     1       6.327   9.711 -13.906  1.00  0.00    -0.200 F 
ATOM     99  F   UNL     1       6.413  10.554 -16.496  1.00  0.00    -0.200 F 
ENDBRANCH  65  89
BRANCH  77 100
ATOM    100  C   UNL     1      15.107  13.695 -11.992  1.00  0.00     0.064 A 
ATOM    101  C   UNL     1      14.102  14.240 -11.173  1.00  0.00     0.173 A 
ATOM    102  C   UNL     1      16.198  14.518 -12.306  1.00  0.00     0.173 A 
ATOM    103  F   UNL     1      13.083  13.488 -10.738  1.00  0.00    -0.203 F 
ATOM    104  C   UNL     1      14.163  15.563 -10.738  1.00  0.00     0.198 A 
ATOM    105  C   UNL     1      16.275  15.825 -11.837  1.00  0.00     0.198 A 
ATOM    106  F   UNL     1      17.216  14.033 -13.034  1.00  0.00    -0.203 F 
ATOM    107  F   UNL     1      13.182  16.065  -9.972  1.00  0.00    -0.200 F 
ATOM    108  C   UNL     1      15.253  16.352 -11.065  1.00  0.00     0.200 A 
ATOM    109  F   UNL     1      17.356  16.568 -12.113  1.00  0.00    -0.200 F 
ATOM    110  F   UNL     1      15.332  17.612 -10.613  1.00  0.00    -0.200 F 
ENDBRANCH  77 100
ENDBRANCH  51  52
ENDBRANCH  44  46
ENDBRANCH  43  44
ENDBRANCH  42  43
ENDBRANCH  41  42
ENDBRANCH  40  41
ENDBRANCH  39  40
ENDBRANCH  38  39
ENDBRANCH  37  38
ENDBRANCH  36  37
ENDBRANCH   1  36
TORSDOF 26
