REMARK SMILES C=C1c2ccccc2C(=O)N1[C@](C)(C(=O)OCCOCCOCCOCCOC(=O)c1ccc(-c2c3nc(c(-c4c(F)c(F)c(F)c(F)c4F)c4ccc([nH]4)c(-c4c(F)c(F)c(F)c(F)c4F)c4nc(c(-c5c(F)c(F)c(F)c(F)c5F)c5ccc2[nH]5)C=C4)C=C3)cc1)C(F)(F)F
REMARK SMILES IDX 23 1 22 2 21 3 20 4 19 5 18 6 17 7 16 8 14 9 15 10 12 11
REMARK SMILES IDX 13 12 11 13 1 14 2 15 3 16 4 17 8 18 9 19 5 20 7 21 10 22
REMARK SMILES IDX 6 23 94 24 95 25 96 26 97 27 24 28 25 29 26 30 27 31 28 32
REMARK SMILES IDX 29 33 30 34 31 35 32 36 93 37 33 38 92 39 34 40 35 41 36 42
REMARK SMILES IDX 86 43 37 44 91 45 85 46 87 47 38 48 90 49 84 50 83 51 39 53
REMARK SMILES IDX 71 54 51 55 70 56 52 57 55 58 69 59 88 60 53 61 54 62 68 64
REMARK SMILES IDX 89 65 56 66 40 67 41 68 49 69 42 70 43 71 47 72 50 73 44 74
REMARK SMILES IDX 45 75 48 76 46 77 72 78 73 79 81 80 74 81 75 82 79 83 82 84
REMARK SMILES IDX 76 85 77 86 80 87 78 88 57 89 58 90 66 91 59 92 60 93 64 94
REMARK SMILES IDX 67 95 61 96 62 97 65 98 63 99
REMARK H PARENT 87 52 55 63
REMARK Flexibility Score: inf
ROOT
ATOM      1  C   UNL     1       0.863  -2.051  -4.206  1.00  0.00     0.188 C 
ENDROOT
BRANCH   1   2
ATOM      2  O   UNL     1       1.650  -1.644  -3.100  1.00  0.00    -0.377 OA
BRANCH   2   3
ATOM      3  C   UNL     1       2.067  -0.296  -3.067  1.00  0.00     0.188 C 
BRANCH   3   4
ATOM      4  C   UNL     1       3.448  -0.019  -3.687  1.00  0.00     0.188 C 
BRANCH   4   5
ATOM      5  O   UNL     1       4.086  -1.013  -4.473  1.00  0.00    -0.376 OA
BRANCH   5   6
ATOM      6  C   UNL     1       4.210  -2.348  -4.003  1.00  0.00     0.202 C 
BRANCH   6   7
ATOM      7  C   UNL     1       4.445  -2.699  -2.523  1.00  0.00     0.261 C 
BRANCH   7   8
ATOM      8  O   UNL     1       3.736  -1.906  -1.558  1.00  0.00    -0.461 OA
BRANCH   8   9
ATOM      9  C   UNL     1       4.473  -1.077  -0.781  1.00  0.00     0.341 C 
ATOM     10  O   UNL     1       5.693  -0.978  -0.891  1.00  0.00    -0.249 OA
BRANCH   9  11
ATOM     11  C   UNL     1       3.666  -0.364   0.322  1.00  0.00     0.238 C 
ATOM     12  C   UNL     1       2.121  -0.506   0.358  1.00  0.00     0.058 C 
BRANCH  11  13
ATOM     13  N   UNL     1       4.199  -1.026   1.529  1.00  0.00    -0.283 N 
ATOM     14  C   UNL     1       5.551   0.651   2.730  1.00  0.00     0.038 C 
ATOM     15  C   UNL     1       5.046  -0.566   2.523  1.00  0.00     0.046 C 
ATOM     16  C   UNL     1       5.322  -1.712   3.396  1.00  0.00     0.010 A 
ATOM     17  C   UNL     1       6.119  -1.872   4.513  1.00  0.00     0.011 A 
ATOM     18  C   UNL     1       4.612  -2.805   2.909  1.00  0.00     0.049 A 
ATOM     19  C   UNL     1       3.887  -2.382   1.722  1.00  0.00     0.260 C 
ATOM     20  C   UNL     1       6.176  -3.138   5.112  1.00  0.00     0.001 A 
ATOM     21  C   UNL     1       4.644  -4.065   3.473  1.00  0.00     0.014 A 
ATOM     22  O   UNL     1       3.186  -3.115   1.060  1.00  0.00    -0.269 OA
ATOM     23  C   UNL     1       5.446  -4.225   4.598  1.00  0.00     0.001 A 
ENDBRANCH  11  13
BRANCH  11  24
ATOM     24  C   UNL     1       3.967   1.118   0.045  1.00  0.00     0.422 C 
ATOM     25  F   UNL     1       3.403   1.540  -1.118  1.00  0.00    -0.168 F 
ATOM     26  F   UNL     1       3.427   1.913   1.007  1.00  0.00    -0.168 F 
ATOM     27  F   UNL     1       5.275   1.435  -0.044  1.00  0.00    -0.168 F 
ENDBRANCH  11  24
ENDBRANCH   9  11
ENDBRANCH   8   9
ENDBRANCH   7   8
ENDBRANCH   6   7
ENDBRANCH   5   6
ENDBRANCH   4   5
ENDBRANCH   3   4
ENDBRANCH   2   3
ENDBRANCH   1   2
BRANCH   1  28
ATOM     28  C   UNL     1       1.051  -1.324  -5.552  1.00  0.00     0.188 C 
BRANCH  28  29
ATOM     29  O   UNL     1       1.108   0.092  -5.460  1.00  0.00    -0.376 OA
BRANCH  29  30
ATOM     30  C   UNL     1      -0.067   0.866  -5.635  1.00  0.00     0.202 C 
BRANCH  30  31
ATOM     31  C   UNL     1      -1.247   0.677  -4.665  1.00  0.00     0.261 C 
BRANCH  31  32
ATOM     32  O   UNL     1      -1.762  -0.653  -4.516  1.00  0.00    -0.460 OA
BRANCH  32  33
ATOM     33  C   UNL     1      -2.215  -1.284  -5.619  1.00  0.00     0.338 C 
ATOM     34  O   UNL     1      -2.302  -0.830  -6.744  1.00  0.00    -0.246 OA
BRANCH  33  35
ATOM     35  C   UNL     1      -2.400  -2.711  -5.272  1.00  0.00     0.060 A 
ATOM     36  C   UNL     1      -1.660  -3.678  -5.966  1.00  0.00     0.016 A 
ATOM     37  C   UNL     1      -3.283  -3.091  -4.258  1.00  0.00     0.016 A 
ATOM     38  C   UNL     1      -1.827  -5.030  -5.675  1.00  0.00     0.010 A 
ATOM     39  C   UNL     1      -3.474  -4.449  -3.989  1.00  0.00     0.010 A 
ATOM     40  C   UNL     1      -2.775  -5.424  -4.722  1.00  0.00    -0.014 A 
BRANCH  40  41
ATOM     41  C   UNL     1      -3.196  -6.844  -4.661  1.00  0.00     0.031 A 
ATOM     42  C   UNL     1      -4.439  -7.244  -5.409  1.00  0.00     0.074 A 
ATOM     43  C   UNL     1      -2.482  -7.766  -3.992  1.00  0.00     0.049 A 
ATOM     44  N   UNL     1      -5.044  -8.402  -5.466  1.00  0.00    -0.248 NA
ATOM     45  C   UNL     1      -5.089  -6.186  -6.200  1.00  0.00     0.031 C 
ATOM     46  C   UNL     1      -1.233  -7.514  -3.279  1.00  0.00     0.029 A 
ATOM     47  N   UNL     1      -2.717  -9.105  -3.801  1.00  0.00    -0.354 N 
ATOM     48  C   UNL     1      -6.146  -8.210  -6.289  1.00  0.00     0.074 A 
ATOM     49  C   UNL     1      -6.147  -6.818  -6.682  1.00  0.00     0.031 C 
ATOM     50  C   UNL     1      -0.818  -8.661  -2.712  1.00  0.00     0.029 A 
ATOM     51  C   UNL     1      -1.791  -9.716  -2.992  1.00  0.00     0.049 A 
ATOM     52  H   UNL     1      -3.478  -9.581  -4.205  1.00  0.00     0.167 HD
ATOM     53  C   UNL     1      -7.069  -9.115  -6.689  1.00  0.00     0.037 A 
ATOM     54  C   UNL     1      -1.756 -10.975  -2.513  1.00  0.00     0.037 A 
ATOM     55  C   UNL     1      -7.065 -10.498  -6.291  1.00  0.00     0.049 A 
ATOM     56  C   UNL     1      -2.850 -11.942  -2.897  1.00  0.00     0.074 A 
ATOM     57  C   UNL     1      -7.950 -11.500  -6.647  1.00  0.00     0.029 A 
ATOM     58  N   UNL     1      -6.134 -11.071  -5.438  1.00  0.00    -0.354 N 
ATOM     59  N   UNL     1      -3.878 -11.762  -3.691  1.00  0.00    -0.248 NA
ATOM     60  C   UNL     1      -2.776 -13.291  -2.316  1.00  0.00     0.031 C 
ATOM     61  C   UNL     1      -7.593 -12.662  -5.959  1.00  0.00     0.029 A 
ATOM     62  C   UNL     1      -6.442 -12.406  -5.231  1.00  0.00     0.049 A 
ATOM     63  H   UNL     1      -5.367 -10.599  -5.038  1.00  0.00     0.167 HD
ATOM     64  C   UNL     1      -4.550 -12.978  -3.733  1.00  0.00     0.074 A 
ATOM     65  C   UNL     1      -3.803 -13.894  -2.897  1.00  0.00     0.031 C 
ATOM     66  C   UNL     1      -5.681 -13.309  -4.404  1.00  0.00     0.037 A 
BRANCH  53  67
ATOM     67  C   UNL     1      -8.179  -8.631  -7.575  1.00  0.00     0.064 A 
ATOM     68  C   UNL     1      -7.952  -8.245  -8.905  1.00  0.00     0.173 A 
ATOM     69  C   UNL     1      -9.497  -8.584  -7.096  1.00  0.00     0.173 A 
ATOM     70  F   UNL     1      -6.708  -8.255  -9.408  1.00  0.00    -0.203 F 
ATOM     71  C   UNL     1      -8.998  -7.806  -9.713  1.00  0.00     0.198 A 
ATOM     72  C   UNL     1     -10.546  -8.177  -7.916  1.00  0.00     0.198 A 
ATOM     73  F   UNL     1      -9.771  -8.942  -5.832  1.00  0.00    -0.203 F 
ATOM     74  F   UNL     1      -8.749  -7.394 -10.963  1.00  0.00    -0.200 F 
ATOM     75  C   UNL     1     -10.294  -7.782  -9.221  1.00  0.00     0.200 A 
ATOM     76  F   UNL     1     -11.800  -8.168  -7.444  1.00  0.00    -0.200 F 
ATOM     77  F   UNL     1     -11.302  -7.370 -10.003  1.00  0.00    -0.200 F 
ENDBRANCH  53  67
BRANCH  54  78
ATOM     78  C   UNL     1      -0.662 -11.398  -1.597  1.00  0.00     0.064 A 
ATOM     79  C   UNL     1       0.262 -12.383  -1.976  1.00  0.00     0.173 A 
ATOM     80  C   UNL     1      -0.544 -10.860  -0.306  1.00  0.00     0.173 A 
ATOM     81  F   UNL     1       0.175 -12.951  -3.188  1.00  0.00    -0.203 F 
ATOM     82  C   UNL     1       1.242 -12.831  -1.092  1.00  0.00     0.198 A 
ATOM     83  C   UNL     1       0.458 -11.284   0.564  1.00  0.00     0.198 A 
ATOM     84  F   UNL     1      -1.405  -9.921   0.112  1.00  0.00    -0.203 F 
ATOM     85  F   UNL     1       2.071 -13.818  -1.460  1.00  0.00    -0.200 F 
ATOM     86  C   UNL     1       1.343 -12.277   0.175  1.00  0.00     0.200 A 
ATOM     87  F   UNL     1       0.558 -10.739   1.784  1.00  0.00    -0.200 F 
ATOM     88  F   UNL     1       2.284 -12.711   1.025  1.00  0.00    -0.200 F 
ENDBRANCH  54  78
BRANCH  66  89
ATOM     89  C   UNL     1      -6.159 -14.732  -4.305  1.00  0.00     0.064 A 
ATOM     90  C   UNL     1      -6.690 -15.255  -3.117  1.00  0.00     0.173 A 
ATOM     91  C   UNL     1      -6.125 -15.569  -5.432  1.00  0.00     0.173 A 
ATOM     92  F   UNL     1      -6.735 -14.502  -2.008  1.00  0.00    -0.203 F 
ATOM     93  C   UNL     1      -7.140 -16.572  -3.052  1.00  0.00     0.198 A 
ATOM     94  C   UNL     1      -6.611 -16.872  -5.373  1.00  0.00     0.198 A 
ATOM     95  F   UNL     1      -5.638 -15.117  -6.597  1.00  0.00    -0.203 F 
ATOM     96  F   UNL     1      -7.591 -17.067  -1.892  1.00  0.00    -0.200 F 
ATOM     97  C   UNL     1      -7.108 -17.376  -4.182  1.00  0.00     0.200 A 
ATOM     98  F   UNL     1      -6.597 -17.640  -6.472  1.00  0.00    -0.200 F 
ATOM     99  F   UNL     1      -7.551 -18.639  -4.120  1.00  0.00    -0.200 F 
ENDBRANCH  66  89
ENDBRANCH  40  41
ENDBRANCH  33  35
ENDBRANCH  32  33
ENDBRANCH  31  32
ENDBRANCH  30  31
ENDBRANCH  29  30
ENDBRANCH  28  29
ENDBRANCH   1  28
TORSDOF 22
