REMARK SMILES O=C(OCCOCCOCCOCCOC(=O)c1cccc2c1cc(Br)c1ccccc12)c1ccc(-c2c3nc(c(-c4c(F)c(F)c(F)c(F)c4F)c4ccc([nH]4)c(-c4c(F)c(F)c(F)c(F)c4F)c4nc(c(-c5c(F)c(F)c(F)c(F)c5F)c5ccc2[nH]5)C=C4)C=C3)cc1
REMARK SMILES IDX 8 1 7 2 6 3 5 4 4 5 3 6 2 7 1 8 33 9 34 10 95 11 35 12 94 13
REMARK SMILES IDX 36 14 37 15 38 16 88 17 39 18 93 19 87 20 89 21 40 22 92 23
REMARK SMILES IDX 86 24 85 25 41 27 73 28 53 29 72 30 54 31 57 32 71 33 90 34
REMARK SMILES IDX 55 35 56 36 70 38 91 39 58 40 42 41 43 42 51 43 44 44 45 45
REMARK SMILES IDX 49 46 52 47 46 48 47 49 50 50 48 51 74 52 75 53 83 54 76 55
REMARK SMILES IDX 77 56 81 57 84 58 78 59 79 60 82 61 80 62 59 63 60 64 68 65
REMARK SMILES IDX 61 66 62 67 66 68 69 69 63 70 64 71 67 72 65 73 9 74 10 75
REMARK SMILES IDX 11 76 12 77 13 78 14 79 15 80 16 81 17 82 18 83 19 84 23 85
REMARK SMILES IDX 20 86 22 87 24 88 21 89 32 90 25 91 27 92 31 93 26 94 28 95
REMARK SMILES IDX 30 96 29 97
REMARK H PARENT 89 26 57 37
REMARK Flexibility Score: inf
ROOT
ATOM      1  C   UNL     1       1.722  -0.628  -2.252  1.00  0.00     0.188 C 
ENDROOT
BRANCH   1   2
ATOM      2  C   UNL     1       2.225  -0.851  -0.829  1.00  0.00     0.188 C 
BRANCH   2   3
ATOM      3  O   UNL     1       3.548  -0.326  -0.668  1.00  0.00    -0.376 OA
BRANCH   3   4
ATOM      4  C   UNL     1       4.456  -1.205  -0.009  1.00  0.00     0.202 C 
BRANCH   4   5
ATOM      5  C   UNL     1       4.435  -1.094   1.512  1.00  0.00     0.261 C 
BRANCH   5   6
ATOM      6  O   UNL     1       3.159  -0.720   2.046  1.00  0.00    -0.460 OA
BRANCH   6   7
ATOM      7  C   UNL     1       2.570   0.498   2.103  1.00  0.00     0.338 C 
ATOM      8  O   UNL     1       1.455   0.555   2.625  1.00  0.00    -0.246 OA
BRANCH   7   9
ATOM      9  C   UNL     1       3.137   1.782   1.553  1.00  0.00     0.060 A 
ATOM     10  C   UNL     1       2.309   2.919   1.666  1.00  0.00     0.016 A 
ATOM     11  C   UNL     1       4.385   1.961   0.948  1.00  0.00     0.016 A 
ATOM     12  C   UNL     1       2.724   4.179   1.221  1.00  0.00     0.010 A 
ATOM     13  C   UNL     1       4.802   3.209   0.482  1.00  0.00     0.010 A 
ATOM     14  C   UNL     1       3.988   4.329   0.646  1.00  0.00    -0.014 A 
BRANCH  14  15
ATOM     15  C   UNL     1       4.579   5.663   0.439  1.00  0.00     0.031 A 
ATOM     16  C   UNL     1       4.661   6.289  -0.914  1.00  0.00     0.074 A 
ATOM     17  C   UNL     1       5.147   6.236   1.516  1.00  0.00     0.049 A 
ATOM     18  N   UNL     1       5.125   7.467  -1.242  1.00  0.00    -0.248 NA
ATOM     19  C   UNL     1       4.186   5.487  -2.051  1.00  0.00     0.031 C 
ATOM     20  C   UNL     1       5.195   5.631   2.851  1.00  0.00     0.029 A 
ATOM     21  N   UNL     1       5.810   7.423   1.664  1.00  0.00    -0.354 N 
ATOM     22  C   UNL     1       4.971   7.565  -2.617  1.00  0.00     0.074 A 
ATOM     23  C   UNL     1       4.426   6.303  -3.072  1.00  0.00     0.031 C 
ATOM     24  C   UNL     1       5.848   6.452   3.683  1.00  0.00     0.029 A 
ATOM     25  C   UNL     1       6.261   7.637   2.942  1.00  0.00     0.049 A 
ATOM     26  H   UNL     1       5.949   8.061   0.927  1.00  0.00     0.167 HD
ATOM     27  C   UNL     1       5.247   8.630  -3.408  1.00  0.00     0.037 A 
ATOM     28  C   UNL     1       6.919   8.687   3.463  1.00  0.00     0.037 A 
ATOM     29  C   UNL     1       5.822   9.860  -2.914  1.00  0.00     0.049 A 
ATOM     30  C   UNL     1       7.194   9.860   2.571  1.00  0.00     0.074 A 
ATOM     31  C   UNL     1       6.084  11.031  -3.603  1.00  0.00     0.029 A 
ATOM     32  N   UNL     1       6.240  10.065  -1.605  1.00  0.00    -0.354 N 
ATOM     33  N   UNL     1       6.928  10.001   1.295  1.00  0.00    -0.248 NA
ATOM     34  C   UNL     1       7.833  11.026   3.189  1.00  0.00     0.031 C 
ATOM     35  C   UNL     1       6.705  11.924  -2.723  1.00  0.00     0.029 A 
ATOM     36  C   UNL     1       6.784  11.333  -1.472  1.00  0.00     0.049 A 
ATOM     37  H   UNL     1       6.162   9.405  -0.877  1.00  0.00     0.167 HD
ATOM     38  C   UNL     1       7.351  11.274   0.955  1.00  0.00     0.074 A 
ATOM     39  C   UNL     1       7.872  11.874   2.169  1.00  0.00     0.031 C 
ATOM     40  C   UNL     1       7.313  11.892  -0.252  1.00  0.00     0.037 A 
BRANCH  27  41
ATOM     41  C   UNL     1       4.913   8.537  -4.870  1.00  0.00     0.064 A 
ATOM     42  C   UNL     1       3.581   8.507  -5.311  1.00  0.00     0.173 A 
ATOM     43  C   UNL     1       5.921   8.572  -5.847  1.00  0.00     0.173 A 
ATOM     44  F   UNL     1       2.576   8.473  -4.423  1.00  0.00    -0.203 F 
ATOM     45  C   UNL     1       3.271   8.502  -6.670  1.00  0.00     0.198 A 
ATOM     46  C   UNL     1       5.607   8.594  -7.205  1.00  0.00     0.198 A 
ATOM     47  F   UNL     1       7.212   8.611  -5.486  1.00  0.00    -0.203 F 
ATOM     48  F   UNL     1       1.991   8.447  -7.064  1.00  0.00    -0.200 F 
ATOM     49  C   UNL     1       4.283   8.556  -7.615  1.00  0.00     0.200 A 
ATOM     50  F   UNL     1       6.586   8.664  -8.118  1.00  0.00    -0.200 F 
ATOM     51  F   UNL     1       3.982   8.572  -8.921  1.00  0.00    -0.200 F 
ENDBRANCH  27  41
BRANCH  28  52
ATOM     52  C   UNL     1       7.247   8.685   4.910  1.00  0.00     0.064 A 
ATOM     53  C   UNL     1       6.515   9.475   5.805  1.00  0.00     0.173 A 
ATOM     54  C   UNL     1       8.216   7.820   5.441  1.00  0.00     0.173 A 
ATOM     55  F   UNL     1       5.581  10.319   5.343  1.00  0.00    -0.203 F 
ATOM     56  C   UNL     1       6.738   9.400   7.178  1.00  0.00     0.198 A 
ATOM     57  C   UNL     1       8.421   7.729   6.816  1.00  0.00     0.198 A 
ATOM     58  F   UNL     1       8.928   7.027   4.626  1.00  0.00    -0.203 F 
ATOM     59  F   UNL     1       6.029  10.174   8.012  1.00  0.00    -0.200 F 
ATOM     60  C   UNL     1       7.682   8.519   7.683  1.00  0.00     0.200 A 
ATOM     61  F   UNL     1       9.317   6.859   7.302  1.00  0.00    -0.200 F 
ATOM     62  F   UNL     1       7.875   8.427   9.006  1.00  0.00    -0.200 F 
ENDBRANCH  28  52
BRANCH  40  63
ATOM     63  C   UNL     1       7.866  13.284  -0.314  1.00  0.00     0.064 A 
ATOM     64  C   UNL     1       9.246  13.522  -0.243  1.00  0.00     0.173 A 
ATOM     65  C   UNL     1       7.014  14.383  -0.497  1.00  0.00     0.173 A 
ATOM     66  F   UNL     1      10.098  12.504  -0.052  1.00  0.00    -0.203 F 
ATOM     67  C   UNL     1       9.752  14.815  -0.334  1.00  0.00     0.198 A 
ATOM     68  C   UNL     1       7.526  15.671  -0.618  1.00  0.00     0.198 A 
ATOM     69  F   UNL     1       5.687  14.204  -0.576  1.00  0.00    -0.203 F 
ATOM     70  F   UNL     1      11.071  15.024  -0.222  1.00  0.00    -0.200 F 
ATOM     71  C   UNL     1       8.894  15.886  -0.531  1.00  0.00     0.200 A 
ATOM     72  F   UNL     1       6.697  16.703  -0.821  1.00  0.00    -0.200 F 
ATOM     73  F   UNL     1       9.384  17.129  -0.630  1.00  0.00    -0.200 F 
ENDBRANCH  40  63
ENDBRANCH  14  15
ENDBRANCH   7   9
ENDBRANCH   6   7
ENDBRANCH   5   6
ENDBRANCH   4   5
ENDBRANCH   3   4
ENDBRANCH   2   3
ENDBRANCH   1   2
BRANCH   1  74
ATOM     74  O   UNL     1       2.364  -1.435  -3.234  1.00  0.00    -0.377 OA
BRANCH  74  75
ATOM     75  C   UNL     1       3.782  -1.341  -3.320  1.00  0.00     0.188 C 
BRANCH  75  76
ATOM     76  C   UNL     1       4.408   0.059  -3.475  1.00  0.00     0.188 C 
BRANCH  76  77
ATOM     77  O   UNL     1       3.482   1.052  -3.893  1.00  0.00    -0.376 OA
BRANCH  77  78
ATOM     78  C   UNL     1       3.612   1.475  -5.242  1.00  0.00     0.202 C 
BRANCH  78  79
ATOM     79  C   UNL     1       3.205   0.451  -6.307  1.00  0.00     0.261 C 
BRANCH  79  80
ATOM     80  O   UNL     1       3.836  -0.842  -6.244  1.00  0.00    -0.460 OA
BRANCH  80  81
ATOM     81  C   UNL     1       5.154  -0.982  -6.520  1.00  0.00     0.338 C 
ATOM     82  O   UNL     1       5.933  -0.092  -6.810  1.00  0.00    -0.246 OA
BRANCH  81  83
ATOM     83  C   UNL     1       5.500  -2.418  -6.275  1.00  0.00     0.067 A 
ATOM     84  C   UNL     1       4.702  -3.364  -6.932  1.00  0.00     0.016 A 
ATOM     85  C   UNL     1       6.479  -2.825  -5.312  1.00  0.00    -0.002 A 
ATOM     86  C   UNL     1       4.868  -4.710  -6.663  1.00  0.00     0.002 A 
ATOM     87  C   UNL     1       6.666  -4.210  -5.040  1.00  0.00    -0.010 A 
ATOM     88  C   UNL     1       7.234  -1.914  -4.552  1.00  0.00     0.026 A 
ATOM     89  C   UNL     1       5.837  -5.119  -5.745  1.00  0.00     0.009 A 
ATOM     90  C   UNL     1       7.632  -4.647  -4.053  1.00  0.00    -0.009 A 
ATOM     91  C   UNL     1       8.072  -2.326  -3.510  1.00  0.00     0.026 A 
ATOM     92  C   UNL     1       8.306  -3.691  -3.249  1.00  0.00    -0.004 A 
ATOM     93  C   UNL     1       7.953  -6.014  -3.826  1.00  0.00     0.009 A 
ATOM     94  Br  UNL     1       8.845  -0.928  -2.463  1.00  0.00    -0.050 Br
ATOM     95  C   UNL     1       9.190  -4.145  -2.232  1.00  0.00     0.010 A 
ATOM     96  C   UNL     1       8.857  -6.433  -2.847  1.00  0.00     0.001 A 
ATOM     97  C   UNL     1       9.464  -5.497  -2.035  1.00  0.00     0.001 A 
ENDBRANCH  81  83
ENDBRANCH  80  81
ENDBRANCH  79  80
ENDBRANCH  78  79
ENDBRANCH  77  78
ENDBRANCH  76  77
ENDBRANCH  75  76
ENDBRANCH  74  75
ENDBRANCH   1  74
TORSDOF 20
