REMARK SMILES Cc1ccc(-c2ccc(C(=O)Nc3ccc(C(=O)OCCOCCOCCOCCOC(=O)c4ccc(-c5c6nc(c(-c7c(F)c(F)c(F)c(F)c7F)c7ccc([nH]7)c(-c7c(F)c(F)c(F)c(F)c7F)c7nc(c(-c8c(F)c(F)c(F)c(F)c8F)c8ccc5[nH]8)C=C7)C=C6)cc4)c(O)c3)o2)c([N+](=O)[O-])c1
REMARK SMILES IDX 24 1 23 2 22 3 21 4 20 5 19 6 17 7 18 8 16 9 13 10 14 11
REMARK SMILES IDX 99 12 15 13 97 14 12 15 10 16 11 17 9 19 6 20 7 21 100 22
REMARK SMILES IDX 8 23 5 24 1 25 2 26 3 27 105 28 4 29 101 30 102 31 103 32
REMARK SMILES IDX 104 33 98 34 25 36 26 37 27 38 28 39 29 40 30 41 31 42 32 43
REMARK SMILES IDX 33 44 34 45 35 46 96 47 36 48 95 49 37 50 38 51 39 52 89 53
REMARK SMILES IDX 40 54 94 55 88 56 90 57 41 58 93 59 87 60 86 61 42 63 74 64
REMARK SMILES IDX 54 65 73 66 55 67 58 68 72 69 91 70 56 71 57 72 71 74 92 75
REMARK SMILES IDX 59 76 43 77 44 78 52 79 45 80 46 81 50 82 53 83 47 84 48 85
REMARK SMILES IDX 51 86 49 87 75 88 76 89 84 90 77 91 78 92 82 93 85 94 79 95
REMARK SMILES IDX 80 96 83 97 81 98 60 99 61 100 69 101 62 102 63 103 67 104
REMARK SMILES IDX 70 105 64 106 65 107 68 108 66 109
REMARK H PARENT 12 18 98 35 90 62 58 73
REMARK Flexibility Score: inf
ROOT
ATOM      1  C   UNL     1     -10.792   0.352  -3.648  1.00  0.00     0.188 C 
ENDROOT
BRANCH   1   2
ATOM      2  C   UNL     1     -11.358   1.732  -3.240  1.00  0.00     0.188 C 
BRANCH   2   3
ATOM      3  O   UNL     1     -11.343   2.849  -4.111  1.00  0.00    -0.376 OA
BRANCH   3   4
ATOM      4  C   UNL     1     -10.083   3.336  -4.532  1.00  0.00     0.202 C 
BRANCH   4   5
ATOM      5  C   UNL     1      -9.441   4.352  -3.611  1.00  0.00     0.261 C 
BRANCH   5   6
ATOM      6  O   UNL     1      -8.639   3.639  -2.686  1.00  0.00    -0.460 OA
BRANCH   6   7
ATOM      7  C   UNL     1      -9.185   3.607  -1.468  1.00  0.00     0.341 C 
ATOM      8  O   UNL     1      -9.899   4.446  -0.956  1.00  0.00    -0.246 OA
BRANCH   7   9
ATOM      9  C   UNL     1      -8.961   2.267  -0.900  1.00  0.00     0.101 A 
ATOM     10  C   UNL     1      -8.299  -0.041   0.424  1.00  0.00     0.045 A 
ATOM     11  C   UNL     1      -7.956   0.073  -0.919  1.00  0.00     0.027 A 
ATOM     12  C   UNL     1      -9.252   0.809   0.983  1.00  0.00     0.073 A 
ATOM     13  C   UNL     1      -8.250   1.263  -1.575  1.00  0.00     0.022 A 
ATOM     14  C   UNL     1      -9.576   1.976   0.315  1.00  0.00     0.132 A 
BRANCH  10  15
ATOM     15  N   UNL     1      -7.606  -0.876   1.300  1.00  0.00    -0.319 N 
ATOM     16  C   UNL     1      -6.234  -1.082   1.423  1.00  0.00     0.291 C 
ATOM     17  O   UNL     1      -5.903  -1.887   2.299  1.00  0.00    -0.265 OA
ATOM     18  H   UNL     1      -8.167  -1.395   1.921  1.00  0.00     0.170 HD
BRANCH  16  19
ATOM     19  C   UNL     1      -5.246  -0.337   0.640  1.00  0.00     0.192 A 
ATOM     20  C   UNL     1      -3.184   0.109  -0.042  1.00  0.00     0.142 A 
ATOM     21  C   UNL     1      -4.007   0.942  -0.758  1.00  0.00     0.052 A 
ATOM     22  O   UNL     1      -3.925  -0.741   0.726  1.00  0.00    -0.451 OA
ATOM     23  C   UNL     1      -5.264   0.805  -0.147  1.00  0.00     0.057 A 
BRANCH  20  24
ATOM     24  C   UNL     1      -1.740   0.058   0.094  1.00  0.00     0.095 A 
ATOM     25  C   UNL     1       2.584  -0.142   0.037  1.00  0.00     0.044 C 
ATOM     26  C   UNL     1       1.088  -0.067   0.102  1.00  0.00    -0.044 A 
ATOM     27  C   UNL     1       0.317  -1.238   0.100  1.00  0.00     0.004 A 
ATOM     28  C   UNL     1       0.446   1.170   0.154  1.00  0.00     0.089 A 
ATOM     29  C   UNL     1      -1.082  -1.177   0.099  1.00  0.00     0.019 A 
ATOM     30  C   UNL     1      -0.953   1.224   0.162  1.00  0.00     0.280 A 
BRANCH  30  31
ATOM     31  N   UNL     1      -1.551   2.553   0.250  1.00  0.00     0.063 N 
ATOM     32  O   UNL     1      -2.425   2.746   1.104  1.00  0.00    -0.258 OA
ATOM     33  O   UNL     1      -1.120   3.413  -0.533  1.00  0.00    -0.258 OA
ENDBRANCH  30  31
ENDBRANCH  20  24
ENDBRANCH  16  19
ENDBRANCH  10  15
BRANCH  14  34
ATOM     34  O   UNL     1     -10.476   2.809   0.920  1.00  0.00    -0.507 OA
ATOM     35  H   UNL     1     -10.726   3.611   0.504  1.00  0.00     0.293 HD
ENDBRANCH  14  34
ENDBRANCH   7   9
ENDBRANCH   6   7
ENDBRANCH   5   6
ENDBRANCH   4   5
ENDBRANCH   3   4
ENDBRANCH   2   3
ENDBRANCH   1   2
BRANCH   1  36
ATOM     36  O   UNL     1      -9.670   0.298  -4.521  1.00  0.00    -0.377 OA
BRANCH  36  37
ATOM     37  C   UNL     1      -9.995  -0.319  -5.770  1.00  0.00     0.188 C 
BRANCH  37  38
ATOM     38  C   UNL     1     -10.629   0.674  -6.724  1.00  0.00     0.188 C 
BRANCH  38  39
ATOM     39  O   UNL     1     -11.810   1.324  -6.294  1.00  0.00    -0.376 OA
BRANCH  39  40
ATOM     40  C   UNL     1     -13.060   0.659  -6.362  1.00  0.00     0.202 C 
BRANCH  40  41
ATOM     41  C   UNL     1     -13.375   0.020  -7.716  1.00  0.00     0.261 C 
BRANCH  41  42
ATOM     42  O   UNL     1     -13.338   1.040  -8.736  1.00  0.00    -0.460 OA
BRANCH  42  43
ATOM     43  C   UNL     1     -12.364   0.896  -9.677  1.00  0.00     0.338 C 
ATOM     44  O   UNL     1     -12.115  -0.138 -10.275  1.00  0.00    -0.246 OA
BRANCH  43  45
ATOM     45  C   UNL     1     -11.425   2.061  -9.603  1.00  0.00     0.060 A 
ATOM     46  C   UNL     1     -10.106   1.913 -10.074  1.00  0.00     0.016 A 
ATOM     47  C   UNL     1     -11.721   3.104  -8.736  1.00  0.00     0.016 A 
ATOM     48  C   UNL     1      -9.057   2.667  -9.511  1.00  0.00     0.010 A 
ATOM     49  C   UNL     1     -10.673   3.784  -8.138  1.00  0.00     0.010 A 
ATOM     50  C   UNL     1      -9.320   3.534  -8.453  1.00  0.00    -0.014 A 
BRANCH  50  51
ATOM     51  C   UNL     1      -8.308   4.054  -7.484  1.00  0.00     0.031 A 
ATOM     52  C   UNL     1      -8.455   5.484  -7.003  1.00  0.00     0.074 A 
ATOM     53  C   UNL     1      -7.555   3.163  -6.770  1.00  0.00     0.049 A 
ATOM     54  N   UNL     1      -7.807   6.029  -6.029  1.00  0.00    -0.248 NA
ATOM     55  C   UNL     1      -9.418   6.429  -7.571  1.00  0.00     0.031 C 
ATOM     56  C   UNL     1      -7.040   3.354  -5.410  1.00  0.00     0.029 A 
ATOM     57  N   UNL     1      -7.165   1.834  -7.039  1.00  0.00    -0.354 N 
ATOM     58  C   UNL     1      -8.487   7.165  -5.605  1.00  0.00     0.074 A 
ATOM     59  C   UNL     1      -9.425   7.416  -6.666  1.00  0.00     0.031 C 
ATOM     60  C   UNL     1      -6.406   2.264  -4.957  1.00  0.00     0.029 A 
ATOM     61  C   UNL     1      -6.126   1.492  -6.131  1.00  0.00     0.049 A 
ATOM     62  H   UNL     1      -7.545   1.247  -7.732  1.00  0.00     0.167 HD
ATOM     63  C   UNL     1      -8.245   7.663  -4.346  1.00  0.00     0.037 A 
ATOM     64  C   UNL     1      -4.832   1.348  -6.557  1.00  0.00     0.037 A 
ATOM     65  C   UNL     1      -7.095   6.969  -3.722  1.00  0.00     0.049 A 
ATOM     66  C   UNL     1      -3.948   2.497  -6.061  1.00  0.00     0.074 A 
ATOM     67  C   UNL     1      -6.866   6.318  -2.520  1.00  0.00     0.029 A 
ATOM     68  N   UNL     1      -5.952   6.731  -4.493  1.00  0.00    -0.354 N 
ATOM     69  N   UNL     1      -4.415   3.704  -5.818  1.00  0.00    -0.248 NA
ATOM     70  C   UNL     1      -2.574   2.345  -5.585  1.00  0.00     0.031 C 
ATOM     71  C   UNL     1      -5.643   5.589  -2.635  1.00  0.00     0.029 A 
ATOM     72  C   UNL     1      -5.089   5.848  -3.882  1.00  0.00     0.049 A 
ATOM     73  H   UNL     1      -5.785   7.145  -5.370  1.00  0.00     0.167 HD
ATOM     74  C   UNL     1      -3.515   4.411  -5.066  1.00  0.00     0.074 A 
ATOM     75  C   UNL     1      -2.355   3.538  -4.996  1.00  0.00     0.031 C 
ATOM     76  C   UNL     1      -3.768   5.607  -4.446  1.00  0.00     0.037 A 
BRANCH  63  77
ATOM     77  C   UNL     1      -9.111   8.675  -3.559  1.00  0.00     0.064 A 
ATOM     78  C   UNL     1      -8.707   9.141  -2.279  1.00  0.00     0.173 A 
ATOM     79  C   UNL     1     -10.375   9.173  -3.953  1.00  0.00     0.173 A 
ATOM     80  F   UNL     1      -7.520   8.805  -1.758  1.00  0.00    -0.203 F 
ATOM     81  C   UNL     1      -9.495   9.984  -1.474  1.00  0.00     0.198 A 
ATOM     82  C   UNL     1     -11.137  10.062  -3.173  1.00  0.00     0.198 A 
ATOM     83  F   UNL     1     -10.960   8.803  -5.093  1.00  0.00    -0.203 F 
ATOM     84  F   UNL     1      -9.064  10.338  -0.254  1.00  0.00    -0.200 F 
ATOM     85  C   UNL     1     -10.706  10.456  -1.927  1.00  0.00     0.200 A 
ATOM     86  F   UNL     1     -12.306  10.523  -3.644  1.00  0.00    -0.200 F 
ATOM     87  F   UNL     1     -11.449  11.280  -1.174  1.00  0.00    -0.200 F 
ENDBRANCH  63  77
BRANCH  64  88
ATOM     88  C   UNL     1      -4.774   0.437  -7.744  1.00  0.00     0.064 A 
ATOM     89  C   UNL     1      -5.199  -0.879  -7.436  1.00  0.00     0.173 A 
ATOM     90  C   UNL     1      -5.139   0.939  -9.004  1.00  0.00     0.173 A 
ATOM     91  F   UNL     1      -4.824  -1.442  -6.276  1.00  0.00    -0.203 F 
ATOM     92  C   UNL     1      -6.218  -1.493  -8.166  1.00  0.00     0.198 A 
ATOM     93  C   UNL     1      -6.127   0.292  -9.760  1.00  0.00     0.198 A 
ATOM     94  F   UNL     1      -4.719   2.150  -9.393  1.00  0.00    -0.203 F 
ATOM     95  F   UNL     1      -6.808  -2.600  -7.691  1.00  0.00    -0.200 F 
ATOM     96  C   UNL     1      -6.723  -0.873  -9.294  1.00  0.00     0.200 A 
ATOM     97  F   UNL     1      -6.610   0.874 -10.868  1.00  0.00    -0.200 F 
ATOM     98  F   UNL     1      -7.831  -1.349  -9.883  1.00  0.00    -0.200 F 
ENDBRANCH  64  88
BRANCH  76  99
ATOM     99  C   UNL     1      -2.744   6.717  -4.300  1.00  0.00     0.064 A 
ATOM    100  C   UNL     1      -1.536   6.739  -5.012  1.00  0.00     0.173 A 
ATOM    101  C   UNL     1      -3.065   7.924  -3.618  1.00  0.00     0.173 A 
ATOM    102  F   UNL     1      -1.162   5.716  -5.791  1.00  0.00    -0.203 F 
ATOM    103  C   UNL     1      -0.695   7.852  -5.005  1.00  0.00     0.198 A 
ATOM    104  C   UNL     1      -2.253   9.053  -3.667  1.00  0.00     0.198 A 
ATOM    105  F   UNL     1      -4.201   8.079  -2.924  1.00  0.00    -0.203 F 
ATOM    106  F   UNL     1       0.460   7.806  -5.682  1.00  0.00    -0.200 F 
ATOM    107  C   UNL     1      -1.059   9.012  -4.348  1.00  0.00     0.200 A 
ATOM    108  F   UNL     1      -2.658  10.190  -3.082  1.00  0.00    -0.200 F 
ATOM    109  F   UNL     1      -0.272  10.094  -4.394  1.00  0.00    -0.200 F 
ENDBRANCH  76  99
ENDBRANCH  50  51
ENDBRANCH  43  45
ENDBRANCH  42  43
ENDBRANCH  41  42
ENDBRANCH  40  41
ENDBRANCH  39  40
ENDBRANCH  38  39
ENDBRANCH  37  38
ENDBRANCH  36  37
ENDBRANCH   1  36
TORSDOF 25
