REMARK SMILES C[C@@H](C(=O)OCCOCCOCCOCCOC(=O)c1ccc(-c2c3nc(c(-c4c(F)c(F)c(F)c(F)c4F)c4ccc([nH]4)c(-c4c(F)c(F)c(F)c(F)c4F)c4nc(c(-c5c(F)c(F)c(F)c(F)c5F)c5ccc2[nH]5)C=C4)C=C3)cc1)c1ccc(-c2cccc(OC(=O)NCCC3CCCCC3)c2)c(F)c1
REMARK SMILES IDX 9 1 8 2 7 3 6 4 5 5 3 6 4 7 2 8 1 9 83 10 84 11 107 12 85 13
REMARK SMILES IDX 105 14 86 15 106 16 87 17 88 18 104 19 89 20 91 21 90 22
REMARK SMILES IDX 92 23 93 24 94 25 95 26 96 28 97 29 98 30 99 31 103 32
REMARK SMILES IDX 100 33 102 34 101 35 10 36 11 37 12 38 13 39 14 40 15 41
REMARK SMILES IDX 16 42 17 43 18 44 19 45 20 46 21 47 82 48 22 49 81 50 23 51
REMARK SMILES IDX 24 52 25 53 75 54 26 55 80 56 74 57 76 58 27 59 79 60 73 61
REMARK SMILES IDX 72 62 28 64 60 65 40 66 59 67 41 68 44 69 58 70 77 71 42 72
REMARK SMILES IDX 43 73 57 75 78 76 45 77 29 78 30 79 38 80 31 81 32 82 36 83
REMARK SMILES IDX 39 84 33 85 34 86 37 87 35 88 61 89 62 90 70 91 63 92 64 93
REMARK SMILES IDX 68 94 71 95 65 96 66 97 69 98 67 99 46 100 47 101 55 102
REMARK SMILES IDX 48 103 49 104 53 105 56 106 50 107 51 108 54 109 52 110
REMARK H PARENT 95 27 76 63 44 74
REMARK Flexibility Score: inf
ROOT
ATOM      1  C   UNL     1       0.051  -2.503   2.428  1.00  0.00     0.188 C 
ENDROOT
BRANCH   1   2
ATOM      2  O   UNL     1       0.830  -3.490   3.072  1.00  0.00    -0.376 OA
BRANCH   2   3
ATOM      3  C   UNL     1       1.854  -4.184   2.379  1.00  0.00     0.202 C 
BRANCH   3   4
ATOM      4  C   UNL     1       2.391  -3.843   0.971  1.00  0.00     0.261 C 
BRANCH   4   5
ATOM      5  O   UNL     1       1.833  -2.697   0.324  1.00  0.00    -0.463 OA
BRANCH   5   6
ATOM      6  C   UNL     1       1.190  -2.878  -0.854  1.00  0.00     0.313 C 
ATOM      7  O   UNL     1       1.081  -3.961  -1.417  1.00  0.00    -0.252 OA
BRANCH   6   8
ATOM      8  C   UNL     1       0.526  -1.591  -1.372  1.00  0.00     0.126 C 
ATOM      9  C   UNL     1       1.401  -0.346  -1.134  1.00  0.00     0.025 C 
BRANCH   8  10
ATOM     10  C   UNL     1      -0.959  -1.468  -1.000  1.00  0.00    -0.031 A 
ATOM     11  C   UNL     1      -1.605  -0.234  -0.808  1.00  0.00     0.005 A 
ATOM     12  C   UNL     1      -1.761  -2.620  -0.927  1.00  0.00     0.044 A 
ATOM     13  C   UNL     1      -2.990  -0.162  -0.556  1.00  0.00     0.012 A 
ATOM     14  C   UNL     1      -3.131  -2.542  -0.669  1.00  0.00     0.131 A 
ATOM     15  C   UNL     1      -3.782  -1.318  -0.493  1.00  0.00     0.018 A 
ATOM     16  F   UNL     1      -3.824  -3.690  -0.620  1.00  0.00    -0.206 F 
BRANCH  15  17
ATOM     17  C   UNL     1      -5.237  -1.261  -0.266  1.00  0.00    -0.012 A 
ATOM     18  C   UNL     1      -6.087  -0.566  -1.141  1.00  0.00     0.009 A 
ATOM     19  C   UNL     1      -5.816  -1.947   0.817  1.00  0.00     0.056 A 
ATOM     20  C   UNL     1      -7.473  -0.568  -0.949  1.00  0.00     0.004 A 
ATOM     21  C   UNL     1      -7.196  -1.931   1.022  1.00  0.00     0.133 A 
ATOM     22  C   UNL     1      -8.029  -1.252   0.133  1.00  0.00     0.047 A 
BRANCH  21  23
ATOM     23  O   UNL     1      -7.856  -2.582   2.098  1.00  0.00    -0.410 OA
BRANCH  23  24
ATOM     24  C   UNL     1      -7.220  -3.110   3.218  1.00  0.00     0.412 C 
ATOM     25  O   UNL     1      -6.009  -3.153   3.419  1.00  0.00    -0.224 OA
ATOM     26  N   UNL     1      -8.069  -3.590   4.170  1.00  0.00    -0.321 N 
ATOM     27  H   UNL     1      -7.641  -3.956   4.978  1.00  0.00     0.167 HD
BRANCH  26  28
ATOM     28  C   UNL     1      -9.515  -3.633   4.151  1.00  0.00     0.119 C 
BRANCH  28  29
ATOM     29  C   UNL     1     -10.034  -5.073   4.184  1.00  0.00     0.025 C 
BRANCH  29  30
ATOM     30  C   UNL     1      -9.613  -5.884   5.430  1.00  0.00    -0.009 C 
ATOM     31  C   UNL     1     -10.266  -5.351   6.717  1.00  0.00     0.003 C 
ATOM     32  C   UNL     1      -9.954  -7.370   5.226  1.00  0.00     0.003 C 
ATOM     33  C   UNL     1      -9.919  -6.208   7.935  1.00  0.00     0.000 C 
ATOM     34  C   UNL     1      -9.585  -8.209   6.447  1.00  0.00     0.000 C 
ATOM     35  C   UNL     1     -10.254  -7.678   7.709  1.00  0.00     0.000 C 
ENDBRANCH  29  30
ENDBRANCH  28  29
ENDBRANCH  26  28
ENDBRANCH  23  24
ENDBRANCH  21  23
ENDBRANCH  15  17
ENDBRANCH   8  10
ENDBRANCH   6   8
ENDBRANCH   5   6
ENDBRANCH   4   5
ENDBRANCH   3   4
ENDBRANCH   2   3
ENDBRANCH   1   2
BRANCH   1  36
ATOM     36  C   UNL     1       0.682  -1.104   2.354  1.00  0.00     0.188 C 
BRANCH  36  37
ATOM     37  O   UNL     1       2.099  -1.064   2.382  1.00  0.00    -0.377 OA
BRANCH  37  38
ATOM     38  C   UNL     1       2.769  -1.198   3.631  1.00  0.00     0.188 C 
BRANCH  38  39
ATOM     39  C   UNL     1       2.017  -1.582   4.925  1.00  0.00     0.188 C 
BRANCH  39  40
ATOM     40  O   UNL     1       0.697  -1.077   5.026  1.00  0.00    -0.376 OA
BRANCH  40  41
ATOM     41  C   UNL     1       0.473   0.103   5.780  1.00  0.00     0.202 C 
BRANCH  41  42
ATOM     42  C   UNL     1       1.137   1.396   5.282  1.00  0.00     0.261 C 
BRANCH  42  43
ATOM     43  O   UNL     1       2.571   1.379   5.193  1.00  0.00    -0.460 OA
BRANCH  43  44
ATOM     44  C   UNL     1       3.269   1.128   6.321  1.00  0.00     0.338 C 
ATOM     45  O   UNL     1       2.829   0.970   7.443  1.00  0.00    -0.246 OA
BRANCH  44  46
ATOM     46  C   UNL     1       4.675   0.885   5.933  1.00  0.00     0.060 A 
ATOM     47  C   UNL     1       5.254  -0.357   6.225  1.00  0.00     0.016 A 
ATOM     48  C   UNL     1       5.416   1.877   5.288  1.00  0.00     0.016 A 
ATOM     49  C   UNL     1       6.591  -0.596   5.909  1.00  0.00     0.010 A 
ATOM     50  C   UNL     1       6.762   1.645   4.992  1.00  0.00     0.010 A 
ATOM     51  C   UNL     1       7.365   0.421   5.335  1.00  0.00    -0.014 A 
BRANCH  51  52
ATOM     52  C   UNL     1       8.842   0.284   5.288  1.00  0.00     0.031 A 
ATOM     53  C   UNL     1       9.653   0.948   6.367  1.00  0.00     0.074 A 
ATOM     54  C   UNL     1       9.453  -0.431   4.328  1.00  0.00     0.049 A 
ATOM     55  N   UNL     1      10.951   1.024   6.509  1.00  0.00    -0.248 NA
ATOM     56  C   UNL     1       8.890   1.622   7.431  1.00  0.00     0.031 C 
ATOM     57  C   UNL     1       8.778  -1.159   3.257  1.00  0.00     0.029 A 
ATOM     58  N   UNL     1      10.789  -0.650   4.097  1.00  0.00    -0.354 N 
ATOM     59  C   UNL     1      11.159   1.757   7.670  1.00  0.00     0.074 A 
ATOM     60  C   UNL     1       9.857   2.135   8.174  1.00  0.00     0.031 C 
ATOM     61  C   UNL     1       9.705  -1.732   2.470  1.00  0.00     0.029 A 
ATOM     62  C   UNL     1      11.037  -1.380   2.961  1.00  0.00     0.049 A 
ATOM     63  H   UNL     1      11.500  -0.315   4.689  1.00  0.00     0.167 HD
ATOM     64  C   UNL     1      12.331   2.078   8.269  1.00  0.00     0.037 A 
ATOM     65  C   UNL     1      12.207  -1.700   2.373  1.00  0.00     0.037 A 
ATOM     66  C   UNL     1      13.625   1.706   7.760  1.00  0.00     0.049 A 
ATOM     67  C   UNL     1      13.502  -1.257   3.010  1.00  0.00     0.074 A 
ATOM     68  C   UNL     1      14.872   1.976   8.295  1.00  0.00     0.029 A 
ATOM     69  N   UNL     1      13.838   0.994   6.589  1.00  0.00    -0.354 N 
ATOM     70  N   UNL     1      13.694  -0.581   4.118  1.00  0.00    -0.248 NA
ATOM     71  C   UNL     1      14.744  -1.627   2.316  1.00  0.00     0.031 C 
ATOM     72  C   UNL     1      15.841   1.482   7.415  1.00  0.00     0.029 A 
ATOM     73  C   UNL     1      15.198   0.841   6.369  1.00  0.00     0.049 A 
ATOM     74  H   UNL     1      13.128   0.648   6.000  1.00  0.00     0.167 HD
ATOM     75  C   UNL     1      15.071  -0.474   4.269  1.00  0.00     0.074 A 
ATOM     76  C   UNL     1      15.668  -1.167   3.147  1.00  0.00     0.031 C 
ATOM     77  C   UNL     1      15.779   0.140   5.251  1.00  0.00     0.037 A 
BRANCH  64  78
ATOM     78  C   UNL     1      12.265   2.899   9.525  1.00  0.00     0.064 A 
ATOM     79  C   UNL     1      11.754   2.380  10.724  1.00  0.00     0.173 A 
ATOM     80  C   UNL     1      12.740   4.220   9.534  1.00  0.00     0.173 A 
ATOM     81  F   UNL     1      11.272   1.128  10.768  1.00  0.00    -0.203 F 
ATOM     82  C   UNL     1      11.691   3.162  11.875  1.00  0.00     0.198 A 
ATOM     83  C   UNL     1      12.709   4.986  10.695  1.00  0.00     0.198 A 
ATOM     84  F   UNL     1      13.242   4.766   8.416  1.00  0.00    -0.203 F 
ATOM     85  F   UNL     1      11.146   2.662  12.993  1.00  0.00    -0.200 F 
ATOM     86  C   UNL     1      12.176   4.461  11.862  1.00  0.00     0.200 A 
ATOM     87  F   UNL     1      13.192   6.237  10.684  1.00  0.00    -0.200 F 
ATOM     88  F   UNL     1      12.122   5.209  12.972  1.00  0.00    -0.200 F 
ENDBRANCH  64  78
BRANCH  65  89
ATOM     89  C   UNL     1      12.214  -2.462   1.095  1.00  0.00     0.064 A 
ATOM     90  C   UNL     1      12.732  -3.763   1.027  1.00  0.00     0.173 A 
ATOM     91  C   UNL     1      11.725  -1.895  -0.092  1.00  0.00     0.173 A 
ATOM     92  F   UNL     1      13.238  -4.341   2.127  1.00  0.00    -0.203 F 
ATOM     93  C   UNL     1      12.780  -4.458  -0.181  1.00  0.00     0.198 A 
ATOM     94  C   UNL     1      11.742  -2.603  -1.292  1.00  0.00     0.198 A 
ATOM     95  F   UNL     1      11.222  -0.651  -0.085  1.00  0.00    -0.203 F 
ATOM     96  F   UNL     1      13.331  -5.679  -0.227  1.00  0.00    -0.200 F 
ATOM     97  C   UNL     1      12.279  -3.880  -1.337  1.00  0.00     0.200 A 
ATOM     98  F   UNL     1      11.245  -2.045  -2.404  1.00  0.00    -0.200 F 
ATOM     99  F   UNL     1      12.322  -4.550  -2.497  1.00  0.00    -0.200 F 
ENDBRANCH  65  89
BRANCH  77 100
ATOM    100  C   UNL     1      17.279   0.054   5.185  1.00  0.00     0.064 A 
ATOM    101  C   UNL     1      18.020   0.734   4.207  1.00  0.00     0.173 A 
ATOM    102  C   UNL     1      17.987  -0.684   6.147  1.00  0.00     0.173 A 
ATOM    103  F   UNL     1      17.394   1.445   3.258  1.00  0.00    -0.203 F 
ATOM    104  C   UNL     1      19.410   0.652   4.176  1.00  0.00     0.198 A 
ATOM    105  C   UNL     1      19.378  -0.733   6.135  1.00  0.00     0.198 A 
ATOM    106  F   UNL     1      17.330  -1.345   7.112  1.00  0.00    -0.203 F 
ATOM    107  F   UNL     1      20.094   1.266   3.200  1.00  0.00    -0.200 F 
ATOM    108  C   UNL     1      20.088  -0.073   5.144  1.00  0.00     0.200 A 
ATOM    109  F   UNL     1      20.032  -1.419   7.083  1.00  0.00    -0.200 F 
ATOM    110  F   UNL     1      21.427  -0.142   5.119  1.00  0.00    -0.200 F 
ENDBRANCH  77 100
ENDBRANCH  51  52
ENDBRANCH  44  46
ENDBRANCH  43  44
ENDBRANCH  42  43
ENDBRANCH  41  42
ENDBRANCH  40  41
ENDBRANCH  39  40
ENDBRANCH  38  39
ENDBRANCH  37  38
ENDBRANCH  36  37
ENDBRANCH   1  36
TORSDOF 27
