REMARK SMILES NS(=O)(=O)c1ccc(/N=N/c2ccc(O)c(C(=O)OCCOCCOCCOCCOC(=O)c3ccc(-c4c5nc(c(-c6c(F)c(F)c(F)c(F)c6F)c6ccc([nH]6)c(-c6c(F)c(F)c(F)c(F)c6F)c6nc(c(-c7c(F)c(F)c(F)c(F)c7F)c7ccc4[nH]7)C=C6)C=C5)cc3)c2)cc1
REMARK SMILES IDX 24 1 23 2 22 3 21 4 20 5 19 6 17 7 18 8 16 9 11 10 12 11
REMARK SMILES IDX 97 12 13 13 14 14 10 15 9 16 8 17 5 18 6 19 99 20 7 21 98 22
REMARK SMILES IDX 2 23 3 24 4 25 1 26 15 29 25 31 26 32 27 33 28 34 29 35
REMARK SMILES IDX 30 36 31 37 32 38 33 39 34 40 35 41 96 42 36 43 95 44 37 45
REMARK SMILES IDX 38 46 39 47 89 48 40 49 94 50 88 51 90 52 41 53 93 54 87 55
REMARK SMILES IDX 86 56 42 58 74 59 54 60 73 61 55 62 58 63 72 64 91 65 56 66
REMARK SMILES IDX 57 67 71 69 92 70 59 71 43 72 44 73 52 74 45 75 46 76 50 77
REMARK SMILES IDX 53 78 47 79 48 80 51 81 49 82 75 83 76 84 84 85 77 86 78 87
REMARK SMILES IDX 82 88 85 89 79 90 80 91 83 92 81 93 60 94 61 95 69 96 62 97
REMARK SMILES IDX 63 98 67 99 70 100 64 101 65 102 68 103 66 104
REMARK H PARENT 1 27 1 28 15 30 90 57 58 68
REMARK Flexibility Score: inf
ROOT
ATOM      1  C   UNL     1       6.160   6.775   8.087  1.00  0.00     0.188 C 
ENDROOT
BRANCH   1   2
ATOM      2  C   UNL     1       6.383   6.815   9.613  1.00  0.00     0.188 C 
BRANCH   2   3
ATOM      3  O   UNL     1       7.346   5.877  10.067  1.00  0.00    -0.376 OA
BRANCH   3   4
ATOM      4  C   UNL     1       6.912   4.787  10.856  1.00  0.00     0.202 C 
BRANCH   4   5
ATOM      5  C   UNL     1       5.993   3.744  10.202  1.00  0.00     0.261 C 
BRANCH   5   6
ATOM      6  O   UNL     1       4.887   4.250   9.444  1.00  0.00    -0.460 OA
BRANCH   6   7
ATOM      7  C   UNL     1       3.883   4.843  10.123  1.00  0.00     0.342 C 
ATOM      8  O   UNL     1       3.808   5.000  11.332  1.00  0.00    -0.246 OA
BRANCH   7   9
ATOM      9  C   UNL     1       2.996   5.533   9.159  1.00  0.00     0.104 A 
ATOM     10  C   UNL     1       1.990   5.684   6.943  1.00  0.00     0.087 A 
ATOM     11  C   UNL     1       1.544   6.974   7.266  1.00  0.00     0.034 A 
ATOM     12  C   UNL     1       2.728   4.972   7.901  1.00  0.00     0.049 A 
ATOM     13  C   UNL     1       1.812   7.541   8.514  1.00  0.00     0.049 A 
ATOM     14  C   UNL     1       2.530   6.819   9.461  1.00  0.00     0.130 A 
BRANCH  10  15
ATOM     15  N   UNL     1       1.726   5.211   5.642  1.00  0.00    -0.151 NA
ATOM     16  N   UNL     1       1.658   3.967   5.580  1.00  0.00    -0.151 NA
BRANCH  16  17
ATOM     17  C   UNL     1       1.381   3.484   4.281  1.00  0.00     0.086 A 
ATOM     18  C   UNL     1       0.799   2.347   1.772  1.00  0.00     0.082 A 
ATOM     19  C   UNL     1       1.100   1.520   2.854  1.00  0.00     0.024 A 
ATOM     20  C   UNL     1       0.800   3.735   1.922  1.00  0.00     0.024 A 
ATOM     21  C   UNL     1       1.389   2.093   4.098  1.00  0.00     0.031 A 
ATOM     22  C   UNL     1       1.085   4.296   3.171  1.00  0.00     0.031 A 
BRANCH  18  23
ATOM     23  S   UNL     1       0.436   1.670   0.180  1.00  0.00     0.238 S 
ATOM     24  O   UNL     1       1.148   2.447  -0.819  1.00  0.00    -0.207 OA
ATOM     25  O   UNL     1      -0.972   1.408   0.106  1.00  0.00    -0.207 OA
BRANCH  23  26
ATOM     26  N   UNL     1       1.196   0.171   0.181  1.00  0.00    -0.225 NA
ATOM     27  H   UNL     1       1.035  -0.293  -0.713  1.00  0.00     0.137 HD
ATOM     28  H   UNL     1       0.817  -0.402   0.934  1.00  0.00     0.137 HD
ENDBRANCH  23  26
ENDBRANCH  18  23
ENDBRANCH  16  17
ENDBRANCH  10  15
BRANCH  14  29
ATOM     29  O   UNL     1       2.797   7.459  10.640  1.00  0.00    -0.507 OA
ATOM     30  H   UNL     1       2.461   8.320  10.793  1.00  0.00     0.293 HD
ENDBRANCH  14  29
ENDBRANCH   7   9
ENDBRANCH   6   7
ENDBRANCH   5   6
ENDBRANCH   4   5
ENDBRANCH   3   4
ENDBRANCH   2   3
ENDBRANCH   1   2
BRANCH   1  31
ATOM     31  O   UNL     1       6.752   5.715   7.349  1.00  0.00    -0.377 OA
BRANCH  31  32
ATOM     32  C   UNL     1       8.136   5.420   7.523  1.00  0.00     0.188 C 
BRANCH  32  33
ATOM     33  C   UNL     1       9.137   6.472   8.064  1.00  0.00     0.188 C 
BRANCH  33  34
ATOM     34  O   UNL     1       8.636   7.796   8.124  1.00  0.00    -0.376 OA
BRANCH  34  35
ATOM     35  C   UNL     1       9.134   8.725   7.178  1.00  0.00     0.202 C 
BRANCH  35  36
ATOM     36  C   UNL     1       8.788   8.448   5.709  1.00  0.00     0.261 C 
BRANCH  36  37
ATOM     37  O   UNL     1       9.174   7.159   5.205  1.00  0.00    -0.460 OA
BRANCH  37  38
ATOM     38  C   UNL     1      10.495   6.883   5.124  1.00  0.00     0.338 C 
ATOM     39  O   UNL     1      11.423   7.609   5.424  1.00  0.00    -0.246 OA
BRANCH  38  40
ATOM     40  C   UNL     1      10.616   5.449   4.782  1.00  0.00     0.060 A 
ATOM     41  C   UNL     1      11.210   4.569   5.697  1.00  0.00     0.016 A 
ATOM     42  C   UNL     1      10.094   4.971   3.579  1.00  0.00     0.016 A 
ATOM     43  C   UNL     1      11.279   3.204   5.410  1.00  0.00     0.010 A 
ATOM     44  C   UNL     1      10.189   3.610   3.281  1.00  0.00     0.010 A 
ATOM     45  C   UNL     1      10.793   2.721   4.188  1.00  0.00    -0.014 A 
BRANCH  45  46
ATOM     46  C   UNL     1      11.031   1.315   3.784  1.00  0.00     0.031 A 
ATOM     47  C   UNL     1      12.187   1.015   2.874  1.00  0.00     0.074 A 
ATOM     48  C   UNL     1      10.222   0.324   4.199  1.00  0.00     0.049 A 
ATOM     49  N   UNL     1      12.525  -0.111   2.299  1.00  0.00    -0.248 NA
ATOM     50  C   UNL     1      13.082   2.142   2.567  1.00  0.00     0.031 C 
ATOM     51  C   UNL     1       9.095   0.480   5.114  1.00  0.00     0.029 A 
ATOM     52  N   UNL     1      10.216  -1.013   3.880  1.00  0.00    -0.354 N 
ATOM     53  C   UNL     1      13.663   0.173   1.557  1.00  0.00     0.074 A 
ATOM     54  C   UNL     1      13.946   1.581   1.734  1.00  0.00     0.031 C 
ATOM     55  C   UNL     1       8.490  -0.711   5.267  1.00  0.00     0.029 A 
ATOM     56  C   UNL     1       9.161  -1.702   4.426  1.00  0.00     0.049 A 
ATOM     57  H   UNL     1      10.902  -1.436   3.316  1.00  0.00     0.167 HD
ATOM     58  C   UNL     1      14.405  -0.667   0.797  1.00  0.00     0.037 A 
ATOM     59  C   UNL     1       8.762  -2.976   4.236  1.00  0.00     0.037 A 
ATOM     60  C   UNL     1      14.116  -2.065   0.618  1.00  0.00     0.049 A 
ATOM     61  C   UNL     1       9.553  -3.868   3.310  1.00  0.00     0.074 A 
ATOM     62  C   UNL     1      14.824  -3.006  -0.108  1.00  0.00     0.029 A 
ATOM     63  N   UNL     1      13.019  -2.720   1.159  1.00  0.00    -0.354 N 
ATOM     64  N   UNL     1      10.648  -3.604   2.637  1.00  0.00    -0.248 NA
ATOM     65  C   UNL     1       9.049  -5.236   3.114  1.00  0.00     0.031 C 
ATOM     66  C   UNL     1      14.121  -4.214  -0.062  1.00  0.00     0.029 A 
ATOM     67  C   UNL     1      13.009  -4.043   0.747  1.00  0.00     0.049 A 
ATOM     68  H   UNL     1      12.347  -2.306   1.748  1.00  0.00     0.167 HD
ATOM     69  C   UNL     1      10.973  -4.773   1.959  1.00  0.00     0.074 A 
ATOM     70  C   UNL     1       9.973  -5.756   2.318  1.00  0.00     0.031 C 
ATOM     71  C   UNL     1      12.005  -5.011   1.111  1.00  0.00     0.037 A 
BRANCH  58  72
ATOM     72  C   UNL     1      15.585  -0.090   0.070  1.00  0.00     0.064 A 
ATOM     73  C   UNL     1      16.742   0.324   0.747  1.00  0.00     0.173 A 
ATOM     74  C   UNL     1      15.573   0.009  -1.329  1.00  0.00     0.173 A 
ATOM     75  F   UNL     1      16.800   0.263   2.086  1.00  0.00    -0.203 F 
ATOM     76  C   UNL     1      17.834   0.835   0.051  1.00  0.00     0.198 A 
ATOM     77  C   UNL     1      16.678   0.492  -2.024  1.00  0.00     0.198 A 
ATOM     78  F   UNL     1      14.492  -0.375  -2.026  1.00  0.00    -0.203 F 
ATOM     79  F   UNL     1      18.913   1.265   0.721  1.00  0.00    -0.200 F 
ATOM     80  C   UNL     1      17.805   0.910  -1.334  1.00  0.00     0.200 A 
ATOM     81  F   UNL     1      16.653   0.550  -3.363  1.00  0.00    -0.200 F 
ATOM     82  F   UNL     1      18.862   1.391  -2.003  1.00  0.00    -0.200 F 
ENDBRANCH  58  72
BRANCH  59  83
ATOM     83  C   UNL     1       7.531  -3.482   4.901  1.00  0.00     0.064 A 
ATOM     84  C   UNL     1       7.594  -4.495   5.869  1.00  0.00     0.173 A 
ATOM     85  C   UNL     1       6.263  -2.991   4.556  1.00  0.00     0.173 A 
ATOM     86  F   UNL     1       8.779  -5.021   6.212  1.00  0.00    -0.203 F 
ATOM     87  C   UNL     1       6.436  -5.010   6.449  1.00  0.00     0.198 A 
ATOM     88  C   UNL     1       5.108  -3.483   5.161  1.00  0.00     0.198 A 
ATOM     89  F   UNL     1       6.143  -2.028   3.630  1.00  0.00    -0.203 F 
ATOM     90  F   UNL     1       6.521  -6.018   7.329  1.00  0.00    -0.200 F 
ATOM     91  C   UNL     1       5.195  -4.499   6.100  1.00  0.00     0.200 A 
ATOM     92  F   UNL     1       3.913  -2.978   4.828  1.00  0.00    -0.200 F 
ATOM     93  F   UNL     1       4.082  -4.994   6.658  1.00  0.00    -0.200 F 
ENDBRANCH  59  83
BRANCH  71  94
ATOM     94  C   UNL     1      12.121  -6.392   0.528  1.00  0.00     0.064 A 
ATOM     95  C   UNL     1      11.214  -6.863  -0.433  1.00  0.00     0.173 A 
ATOM     96  C   UNL     1      13.180  -7.236   0.898  1.00  0.00     0.173 A 
ATOM     97  F   UNL     1      10.175  -6.103  -0.811  1.00  0.00    -0.203 F 
ATOM     98  C   UNL     1      11.348  -8.136  -0.982  1.00  0.00     0.198 A 
ATOM     99  C   UNL     1      13.331  -8.494   0.322  1.00  0.00     0.198 A 
ATOM    100  F   UNL     1      14.081  -6.832   1.806  1.00  0.00    -0.203 F 
ATOM    101  F   UNL     1      10.441  -8.584  -1.861  1.00  0.00    -0.200 F 
ATOM    102  C   UNL     1      12.411  -8.946  -0.611  1.00  0.00     0.200 A 
ATOM    103  F   UNL     1      14.369  -9.268   0.668  1.00  0.00    -0.200 F 
ATOM    104  F   UNL     1      12.545 -10.166  -1.149  1.00  0.00    -0.200 F 
ENDBRANCH  71  94
ENDBRANCH  45  46
ENDBRANCH  38  40
ENDBRANCH  37  38
ENDBRANCH  36  37
ENDBRANCH  35  36
ENDBRANCH  34  35
ENDBRANCH  33  34
ENDBRANCH  32  33
ENDBRANCH  31  32
ENDBRANCH   1  31
TORSDOF 25
