REMARK SMILES Cc1cc2nc(S/C(=C\c3ccc(O)cc3)C(=O)OCCOCCOCCOCCOC(=O)c3ccc(-c4c5nc(c(-c6c(F)c(F)c(F)c(F)c6F)c6ccc([nH]6)c(-c6c(F)c(F)c(F)c(F)c6F)c6nc(c(-c7c(F)c(F)c(F)c(F)c7F)c7ccc4[nH]7)C=C6)C=C5)cc3)[nH]c2cc1C
REMARK SMILES IDX 25 1 24 2 23 3 22 4 21 5 20 6 19 7 17 8 18 9 8 10 9 11 7 12
REMARK SMILES IDX 6 13 1 14 2 15 3 16 100 17 4 18 99 19 101 20 5 21 98 22
REMARK SMILES IDX 97 23 10 25 11 26 16 27 12 28 15 29 13 30 14 31 26 33 27 34
REMARK SMILES IDX 28 35 29 36 30 37 31 38 32 39 33 40 34 41 35 42 96 43 36 44
REMARK SMILES IDX 95 45 37 46 38 47 39 48 89 49 40 50 94 51 88 52 90 53 41 54
REMARK SMILES IDX 93 55 87 56 86 57 42 59 74 60 54 61 73 62 55 63 58 64 72 65
REMARK SMILES IDX 91 66 56 67 57 68 71 70 92 71 59 72 43 73 44 74 52 75 45 76
REMARK SMILES IDX 46 77 50 78 53 79 47 80 48 81 51 82 49 83 75 84 76 85 84 86
REMARK SMILES IDX 77 87 78 88 82 89 85 90 79 91 80 92 83 93 81 94 60 95 61 96
REMARK SMILES IDX 69 97 62 98 63 99 67 100 70 101 64 102 65 103 68 104 66 105
REMARK H PARENT 97 24 14 32 90 58 58 69
REMARK Flexibility Score: inf
ROOT
ATOM      1  O   UNL     1      -7.205  -3.198   2.142  1.00  0.00    -0.377 OA
ENDROOT
BRANCH   1   2
ATOM      2  C   UNL     1      -6.827  -1.830   2.115  1.00  0.00     0.188 C 
BRANCH   2   3
ATOM      3  C   UNL     1      -7.759  -0.918   1.292  1.00  0.00     0.188 C 
BRANCH   3   4
ATOM      4  O   UNL     1      -9.038  -1.486   1.072  1.00  0.00    -0.376 OA
BRANCH   4   5
ATOM      5  C   UNL     1      -9.331  -2.184  -0.124  1.00  0.00     0.202 C 
BRANCH   5   6
ATOM      6  C   UNL     1      -8.327  -3.098  -0.850  1.00  0.00     0.261 C 
BRANCH   6   7
ATOM      7  O   UNL     1      -6.943  -2.831  -0.633  1.00  0.00    -0.459 OA
BRANCH   7   8
ATOM      8  C   UNL     1      -6.307  -1.968  -1.462  1.00  0.00     0.345 C 
ATOM      9  O   UNL     1      -6.809  -1.422  -2.431  1.00  0.00    -0.246 OA
BRANCH   8  10
ATOM     10  C   UNL     1      -4.919  -1.692  -0.919  1.00  0.00     0.101 C 
ATOM     11  C   UNL     1      -4.284  -2.755  -0.379  1.00  0.00     0.031 C 
BRANCH  10  12
ATOM     12  S   UNL     1      -4.522  -0.006  -1.003  1.00  0.00    -0.044 SA
BRANCH  12  13
ATOM     13  C   UNL     1      -2.816   0.166  -0.914  1.00  0.00     0.171 A 
ATOM     14  C   UNL     1       2.739   1.857   0.235  1.00  0.00     0.044 C 
ATOM     15  C   UNL     1       1.549   1.020  -0.159  1.00  0.00    -0.046 A 
ATOM     16  C   UNL     1       0.268   1.602  -0.030  1.00  0.00     0.034 A 
ATOM     17  C   UNL     1       1.682  -0.274  -0.708  1.00  0.00    -0.046 A 
ATOM     18  C   UNL     1      -0.859   0.895  -0.474  1.00  0.00     0.090 A 
ATOM     19  C   UNL     1       0.568  -0.925  -1.271  1.00  0.00     0.032 A 
ATOM     20  C   UNL     1       2.996  -1.010  -0.708  1.00  0.00     0.044 C 
ATOM     21  N   UNL     1      -2.197   1.184  -0.356  1.00  0.00    -0.222 NA
ATOM     22  C   UNL     1      -0.674  -0.311  -1.133  1.00  0.00     0.066 A 
ATOM     23  N   UNL     1      -1.937  -0.683  -1.516  1.00  0.00    -0.333 N 
ATOM     24  H   UNL     1      -2.167  -1.429  -2.116  1.00  0.00     0.169 HD
ENDBRANCH  12  13
ENDBRANCH  10  12
BRANCH  11  25
ATOM     25  C   UNL     1      -2.978  -2.893   0.270  1.00  0.00    -0.024 A 
ATOM     26  C   UNL     1      -2.590  -2.148   1.388  1.00  0.00     0.012 A 
ATOM     27  C   UNL     1      -2.080  -3.815  -0.291  1.00  0.00     0.012 A 
ATOM     28  C   UNL     1      -1.277  -2.233   1.860  1.00  0.00     0.047 A 
ATOM     29  C   UNL     1      -0.776  -3.910   0.189  1.00  0.00     0.047 A 
ATOM     30  C   UNL     1      -0.375  -3.087   1.232  1.00  0.00     0.115 A 
BRANCH  30  31
ATOM     31  O   UNL     1       0.942  -3.099   1.579  1.00  0.00    -0.508 OA
ATOM     32  H   UNL     1       1.247  -2.556   2.279  1.00  0.00     0.293 HD
ENDBRANCH  30  31
ENDBRANCH  11  25
ENDBRANCH   8  10
ENDBRANCH   7   8
ENDBRANCH   6   7
ENDBRANCH   5   6
ENDBRANCH   4   5
ENDBRANCH   3   4
ENDBRANCH   2   3
ENDBRANCH   1   2
BRANCH   1  33
ATOM     33  C   UNL     1      -8.329  -3.587   2.933  1.00  0.00     0.188 C 
BRANCH  33  34
ATOM     34  C   UNL     1      -9.271  -2.567   3.624  1.00  0.00     0.188 C 
BRANCH  34  35
ATOM     35  O   UNL     1      -8.662  -1.338   3.978  1.00  0.00    -0.376 OA
BRANCH  35  36
ATOM     36  C   UNL     1      -8.374  -1.086   5.341  1.00  0.00     0.202 C 
BRANCH  36  37
ATOM     37  C   UNL     1      -7.320  -1.985   6.001  1.00  0.00     0.261 C 
BRANCH  37  38
ATOM     38  O   UNL     1      -7.556  -3.398   5.907  1.00  0.00    -0.460 OA
BRANCH  38  39
ATOM     39  C   UNL     1      -8.628  -3.890   6.560  1.00  0.00     0.338 C 
ATOM     40  O   UNL     1      -9.428  -3.270   7.243  1.00  0.00    -0.246 OA
BRANCH  39  41
ATOM     41  C   UNL     1      -8.783  -5.303   6.162  1.00  0.00     0.060 A 
ATOM     42  C   UNL     1      -9.951  -5.702   5.499  1.00  0.00     0.016 A 
ATOM     43  C   UNL     1      -7.770  -6.226   6.431  1.00  0.00     0.016 A 
ATOM     44  C   UNL     1     -10.122  -7.037   5.131  1.00  0.00     0.010 A 
ATOM     45  C   UNL     1      -7.951  -7.566   6.079  1.00  0.00     0.010 A 
ATOM     46  C   UNL     1      -9.141  -7.984   5.455  1.00  0.00    -0.014 A 
BRANCH  46  47
ATOM     47  C   UNL     1      -9.433  -9.431   5.315  1.00  0.00     0.031 A 
ATOM     48  C   UNL     1      -9.858 -10.196   6.538  1.00  0.00     0.074 A 
ATOM     49  C   UNL     1      -9.337 -10.055   4.128  1.00  0.00     0.049 A 
ATOM     50  N   UNL     1     -10.108 -11.472   6.679  1.00  0.00    -0.248 NA
ATOM     51  C   UNL     1     -10.020  -9.410   7.772  1.00  0.00     0.031 C 
ATOM     52  C   UNL     1      -8.976  -9.417   2.865  1.00  0.00     0.029 A 
ATOM     53  N   UNL     1      -9.527 -11.374   3.799  1.00  0.00    -0.354 N 
ATOM     54  C   UNL     1     -10.448 -11.643   8.015  1.00  0.00     0.074 A 
ATOM     55  C   UNL     1     -10.338 -10.348   8.650  1.00  0.00     0.031 C 
ATOM     56  C   UNL     1      -8.957 -10.350   1.897  1.00  0.00     0.029 A 
ATOM     57  C   UNL     1      -9.268 -11.655   2.480  1.00  0.00     0.049 A 
ATOM     58  H   UNL     1      -9.820 -12.055   4.447  1.00  0.00     0.167 HD
ATOM     59  C   UNL     1     -10.825 -12.777   8.652  1.00  0.00     0.037 A 
ATOM     60  C   UNL     1      -9.256 -12.835   1.829  1.00  0.00     0.037 A 
ATOM     61  C   UNL     1     -10.929 -14.064   8.017  1.00  0.00     0.049 A 
ATOM     62  C   UNL     1      -9.595 -14.099   2.581  1.00  0.00     0.074 A 
ATOM     63  C   UNL     1     -11.323 -15.269   8.571  1.00  0.00     0.029 A 
ATOM     64  N   UNL     1     -10.622 -14.316   6.688  1.00  0.00    -0.354 N 
ATOM     65  N   UNL     1      -9.947 -14.250   3.836  1.00  0.00    -0.248 NA
ATOM     66  C   UNL     1      -9.537 -15.358   1.824  1.00  0.00     0.031 C 
ATOM     67  C   UNL     1     -11.191 -16.262   7.595  1.00  0.00     0.029 A 
ATOM     68  C   UNL     1     -10.783 -15.665   6.413  1.00  0.00     0.049 A 
ATOM     69  H   UNL     1     -10.333 -13.637   6.036  1.00  0.00     0.167 HD
ATOM     70  C   UNL     1     -10.180 -15.609   4.009  1.00  0.00     0.074 A 
ATOM     71  C   UNL     1      -9.947 -16.238   2.726  1.00  0.00     0.031 C 
ATOM     72  C   UNL     1     -10.553 -16.277   5.129  1.00  0.00     0.037 A 
BRANCH  59  73
ATOM     73  C   UNL     1     -11.122 -12.681  10.121  1.00  0.00     0.064 A 
ATOM     74  C   UNL     1     -12.249 -12.001  10.607  1.00  0.00     0.173 A 
ATOM     75  C   UNL     1     -10.280 -13.304  11.055  1.00  0.00     0.173 A 
ATOM     76  F   UNL     1     -13.079 -11.375   9.759  1.00  0.00    -0.203 F 
ATOM     77  C   UNL     1     -12.506 -11.924  11.974  1.00  0.00     0.198 A 
ATOM     78  C   UNL     1     -10.558 -13.255  12.418  1.00  0.00     0.198 A 
ATOM     79  F   UNL     1      -9.190 -13.970  10.645  1.00  0.00    -0.203 F 
ATOM     80  F   UNL     1     -13.559 -11.224  12.418  1.00  0.00    -0.200 F 
ATOM     81  C   UNL     1     -11.665 -12.558  12.877  1.00  0.00     0.200 A 
ATOM     82  F   UNL     1      -9.753 -13.880  13.288  1.00  0.00    -0.200 F 
ATOM     83  F   UNL     1     -11.918 -12.491  14.191  1.00  0.00    -0.200 F 
ENDBRANCH  59  73
BRANCH  60  84
ATOM     84  C   UNL     1      -8.892 -12.890   0.387  1.00  0.00     0.064 A 
ATOM     85  C   UNL     1      -9.828 -13.271  -0.584  1.00  0.00     0.173 A 
ATOM     86  C   UNL     1      -7.590 -12.594  -0.047  1.00  0.00     0.173 A 
ATOM     87  F   UNL     1     -11.078 -13.591  -0.219  1.00  0.00    -0.203 F 
ATOM     88  C   UNL     1      -9.472 -13.376  -1.928  1.00  0.00     0.198 A 
ATOM     89  C   UNL     1      -7.244 -12.667  -1.395  1.00  0.00     0.198 A 
ATOM     90  F   UNL     1      -6.653 -12.229   0.840  1.00  0.00    -0.203 F 
ATOM     91  F   UNL     1     -10.373 -13.797  -2.826  1.00  0.00    -0.200 F 
ATOM     92  C   UNL     1      -8.183 -13.068  -2.333  1.00  0.00     0.200 A 
ATOM     93  F   UNL     1      -6.000 -12.355  -1.783  1.00  0.00    -0.200 F 
ATOM     94  F   UNL     1      -7.842 -13.167  -3.625  1.00  0.00    -0.200 F 
ENDBRANCH  60  84
BRANCH  72  95
ATOM     95  C   UNL     1     -10.770 -17.761   5.014  1.00  0.00     0.064 A 
ATOM     96  C   UNL     1      -9.704 -18.652   4.819  1.00  0.00     0.173 A 
ATOM     97  C   UNL     1     -12.058 -18.303   5.149  1.00  0.00     0.173 A 
ATOM     98  F   UNL     1      -8.454 -18.188   4.672  1.00  0.00    -0.203 F 
ATOM     99  C   UNL     1      -9.923 -20.025   4.734  1.00  0.00     0.198 A 
ATOM    100  C   UNL     1     -12.269 -19.678   5.099  1.00  0.00     0.198 A 
ATOM    101  F   UNL     1     -13.113 -17.498   5.346  1.00  0.00    -0.203 F 
ATOM    102  F   UNL     1      -8.896 -20.852   4.494  1.00  0.00    -0.200 F 
ATOM    103  C   UNL     1     -11.204 -20.537   4.883  1.00  0.00     0.200 A 
ATOM    104  F   UNL     1     -13.505 -20.171   5.263  1.00  0.00    -0.200 F 
ATOM    105  F   UNL     1     -11.411 -21.859   4.811  1.00  0.00    -0.200 F 
ENDBRANCH  72  95
ENDBRANCH  46  47
ENDBRANCH  39  41
ENDBRANCH  38  39
ENDBRANCH  37  38
ENDBRANCH  36  37
ENDBRANCH  35  36
ENDBRANCH  34  35
ENDBRANCH  33  34
ENDBRANCH   1  33
TORSDOF 24
