REMARK SMILES CC1=Nc2c(c(C)nn2-c2ccc(F)cc2)[C@H](c2ccc(C(=O)OCCOCCOCCOCCOC(=O)c3ccc(-c4c5nc(c(-c6c(F)c(F)c(F)c(F)c6F)c6ccc([nH]6)c(-c6c(F)c(F)c(F)c(F)c6F)c6nc(c(-c7c(F)c(F)c(F)c(F)c7F)c7ccc4[nH]7)C=C6)C=C5)cc3)cc2)S1
REMARK SMILES IDX 30 1 29 2 28 3 27 4 26 5 25 6 24 7 22 8 23 9 21 10 18 11
REMARK SMILES IDX 19 12 103 13 20 14 102 15 17 16 1 17 2 18 3 19 104 20 4 21
REMARK SMILES IDX 5 22 9 23 6 24 8 25 7 26 10 27 11 28 16 29 12 30 15 31 13 32
REMARK SMILES IDX 14 33 31 34 32 35 33 36 34 37 35 38 36 39 37 40 38 41 39 42
REMARK SMILES IDX 40 43 101 44 41 45 100 46 42 47 43 48 44 49 94 50 45 51
REMARK SMILES IDX 99 52 93 53 95 54 46 55 98 56 92 57 91 58 47 60 79 61 59 62
REMARK SMILES IDX 78 63 60 64 63 65 77 66 96 67 61 68 62 69 76 71 97 72 64 73
REMARK SMILES IDX 48 74 49 75 57 76 50 77 51 78 55 79 58 80 52 81 53 82 56 83
REMARK SMILES IDX 54 84 80 85 81 86 89 87 82 88 83 89 87 90 90 91 84 92 85 93
REMARK SMILES IDX 88 94 86 95 65 96 66 97 74 98 67 99 68 100 72 101 75 102
REMARK SMILES IDX 69 103 70 104 73 105 71 106
REMARK H PARENT 95 59 63 70
REMARK Flexibility Score: inf
ROOT
ATOM      1  O   UNL     1      -7.362   1.203  -2.268  1.00  0.00    -0.377 OA
ENDROOT
BRANCH   1   2
ATOM      2  C   UNL     1      -6.652   1.464  -3.474  1.00  0.00     0.188 C 
BRANCH   2   3
ATOM      3  C   UNL     1      -7.158   0.945  -4.841  1.00  0.00     0.188 C 
BRANCH   3   4
ATOM      4  O   UNL     1      -8.425   0.318  -4.790  1.00  0.00    -0.376 OA
BRANCH   4   5
ATOM      5  C   UNL     1      -8.523  -1.069  -5.021  1.00  0.00     0.202 C 
BRANCH   5   6
ATOM      6  C   UNL     1      -7.769  -2.002  -4.062  1.00  0.00     0.261 C 
BRANCH   6   7
ATOM      7  O   UNL     1      -6.415  -1.625  -3.769  1.00  0.00    -0.460 OA
BRANCH   7   8
ATOM      8  C   UNL     1      -5.521  -1.825  -4.764  1.00  0.00     0.338 C 
ATOM      9  O   UNL     1      -5.751  -2.339  -5.845  1.00  0.00    -0.246 OA
BRANCH   8  10
ATOM     10  C   UNL     1      -4.246  -1.136  -4.434  1.00  0.00     0.060 A 
ATOM     11  C   UNL     1      -1.725   0.076  -3.976  1.00  0.00    -0.030 A 
ATOM     12  C   UNL     1      -2.316   0.072  -5.254  1.00  0.00     0.006 A 
ATOM     13  C   UNL     1      -2.482  -0.452  -2.911  1.00  0.00     0.006 A 
ATOM     14  C   UNL     1      -3.558  -0.523  -5.482  1.00  0.00     0.016 A 
ATOM     15  C   UNL     1      -3.727  -1.065  -3.138  1.00  0.00     0.016 A 
BRANCH  11  16
ATOM     16  C   UNL     1      -0.269   0.521  -3.855  1.00  0.00     0.119 C 
ATOM     17  C   UNL     1       1.058  -0.127   0.026  1.00  0.00     0.075 C 
ATOM     18  C   UNL     1       0.747   0.574  -1.270  1.00  0.00     0.074 C 
ATOM     19  N   UNL     1       0.593   1.859  -1.242  1.00  0.00    -0.227 NA
ATOM     20  S   UNL     1       0.723  -0.467  -2.685  1.00  0.00    -0.098 SA
ATOM     21  C   UNL     1       0.277   2.492  -2.395  1.00  0.00     0.161 A 
ATOM     22  C   UNL     1      -0.197   1.975  -3.581  1.00  0.00     0.038 A 
ATOM     23  N   UNL     1       0.364   3.866  -2.568  1.00  0.00    -0.215 N 
ATOM     24  C   UNL     1      -0.414   3.114  -4.403  1.00  0.00     0.067 A 
ATOM     25  N   UNL     1      -0.207   4.257  -3.736  1.00  0.00    -0.171 NA
ATOM     26  C   UNL     1      -0.799   3.175  -5.836  1.00  0.00     0.069 C 
BRANCH  23  27
ATOM     27  C   UNL     1       1.020   4.805  -1.732  1.00  0.00     0.067 A 
ATOM     28  C   UNL     1       2.211   4.451  -1.076  1.00  0.00     0.031 A 
ATOM     29  C   UNL     1       0.485   6.090  -1.577  1.00  0.00     0.031 A 
ATOM     30  C   UNL     1       2.852   5.376  -0.252  1.00  0.00     0.041 A 
ATOM     31  C   UNL     1       1.105   6.992  -0.709  1.00  0.00     0.041 A 
ATOM     32  C   UNL     1       2.282   6.628  -0.059  1.00  0.00     0.123 A 
ATOM     33  F   UNL     1       2.877   7.500   0.766  1.00  0.00    -0.207 F 
ENDBRANCH  23  27
ENDBRANCH  11  16
ENDBRANCH   8  10
ENDBRANCH   7   8
ENDBRANCH   6   7
ENDBRANCH   5   6
ENDBRANCH   4   5
ENDBRANCH   3   4
ENDBRANCH   2   3
ENDBRANCH   1   2
BRANCH   1  34
ATOM     34  C   UNL     1      -8.785   1.158  -2.264  1.00  0.00     0.188 C 
BRANCH  34  35
ATOM     35  C   UNL     1      -9.635   2.119  -3.139  1.00  0.00     0.188 C 
BRANCH  35  36
ATOM     36  O   UNL     1      -8.922   2.833  -4.132  1.00  0.00    -0.376 OA
BRANCH  36  37
ATOM     37  C   UNL     1      -8.627   4.212  -4.058  1.00  0.00     0.202 C 
BRANCH  37  38
ATOM     38  C   UNL     1      -7.933   4.793  -2.832  1.00  0.00     0.261 C 
BRANCH  38  39
ATOM     39  O   UNL     1      -8.234   4.119  -1.633  1.00  0.00    -0.460 OA
BRANCH  39  40
ATOM     40  C   UNL     1      -9.475   4.350  -1.169  1.00  0.00     0.338 C 
ATOM     41  O   UNL     1     -10.364   4.980  -1.707  1.00  0.00    -0.246 OA
BRANCH  40  42
ATOM     42  C   UNL     1      -9.556   3.765   0.171  1.00  0.00     0.060 A 
ATOM     43  C   UNL     1     -10.807   3.834   0.777  1.00  0.00     0.016 A 
ATOM     44  C   UNL     1      -8.361   3.616   0.891  1.00  0.00     0.016 A 
ATOM     45  C   UNL     1     -10.831   4.123   2.115  1.00  0.00     0.010 A 
ATOM     46  C   UNL     1      -8.382   3.931   2.218  1.00  0.00     0.010 A 
ATOM     47  C   UNL     1      -9.605   4.303   2.765  1.00  0.00    -0.014 A 
BRANCH  47  48
ATOM     48  C   UNL     1      -9.630   4.929   4.059  1.00  0.00     0.031 A 
ATOM     49  C   UNL     1     -10.020   3.994   5.126  1.00  0.00     0.074 A 
ATOM     50  C   UNL     1      -9.255   6.211   4.217  1.00  0.00     0.049 A 
ATOM     51  N   UNL     1     -11.098   4.003   5.835  1.00  0.00    -0.248 NA
ATOM     52  C   UNL     1      -9.190   2.789   5.287  1.00  0.00     0.031 C 
ATOM     53  C   UNL     1      -8.591   7.101   3.259  1.00  0.00     0.029 A 
ATOM     54  N   UNL     1      -9.318   6.968   5.340  1.00  0.00    -0.354 N 
ATOM     55  C   UNL     1     -10.984   2.903   6.673  1.00  0.00     0.074 A 
ATOM     56  C   UNL     1      -9.914   2.091   6.159  1.00  0.00     0.031 C 
ATOM     57  C   UNL     1      -8.112   8.184   3.915  1.00  0.00     0.029 A 
ATOM     58  C   UNL     1      -8.556   8.125   5.296  1.00  0.00     0.049 A 
ATOM     59  H   UNL     1      -9.861   6.716   6.122  1.00  0.00     0.167 HD
ATOM     60  C   UNL     1     -11.587   2.885   7.888  1.00  0.00     0.037 A 
ATOM     61  C   UNL     1      -8.244   8.884   6.376  1.00  0.00     0.037 A 
ATOM     62  C   UNL     1     -12.666   3.833   7.958  1.00  0.00     0.049 A 
ATOM     63  C   UNL     1      -9.228   8.541   7.442  1.00  0.00     0.074 A 
ATOM     64  C   UNL     1     -13.865   3.978   7.289  1.00  0.00     0.029 A 
ATOM     65  N   UNL     1     -12.418   5.047   8.549  1.00  0.00    -0.354 N 
ATOM     66  N   UNL     1     -10.505   8.800   7.369  1.00  0.00    -0.248 NA
ATOM     67  C   UNL     1      -8.857   7.494   8.385  1.00  0.00     0.031 C 
ATOM     68  C   UNL     1     -14.037   5.384   7.130  1.00  0.00     0.029 A 
ATOM     69  C   UNL     1     -12.961   6.021   7.751  1.00  0.00     0.049 A 
ATOM     70  H   UNL     1     -11.935   5.193   9.395  1.00  0.00     0.167 HD
ATOM     71  C   UNL     1     -11.129   7.701   7.946  1.00  0.00     0.074 A 
ATOM     72  C   UNL     1     -10.061   6.965   8.615  1.00  0.00     0.031 C 
ATOM     73  C   UNL     1     -12.395   7.341   7.587  1.00  0.00     0.037 A 
BRANCH  60  74
ATOM     74  C   UNL     1     -10.942   2.275   9.100  1.00  0.00     0.064 A 
ATOM     75  C   UNL     1      -9.544   2.113   9.246  1.00  0.00     0.173 A 
ATOM     76  C   UNL     1     -11.702   2.090  10.266  1.00  0.00     0.173 A 
ATOM     77  F   UNL     1      -8.683   2.399   8.262  1.00  0.00    -0.203 F 
ATOM     78  C   UNL     1      -8.956   1.761  10.456  1.00  0.00     0.198 A 
ATOM     79  C   UNL     1     -11.101   1.800  11.494  1.00  0.00     0.198 A 
ATOM     80  F   UNL     1     -13.031   2.267  10.248  1.00  0.00    -0.203 F 
ATOM     81  F   UNL     1      -7.623   1.628  10.526  1.00  0.00    -0.200 F 
ATOM     82  C   UNL     1      -9.730   1.631  11.587  1.00  0.00     0.200 A 
ATOM     83  F   UNL     1     -11.851   1.744  12.602  1.00  0.00    -0.200 F 
ATOM     84  F   UNL     1      -9.150   1.398  12.771  1.00  0.00    -0.200 F 
ENDBRANCH  60  74
BRANCH  61  85
ATOM     85  C   UNL     1      -6.927   9.496   6.688  1.00  0.00     0.064 A 
ATOM     86  C   UNL     1      -5.724   8.956   6.191  1.00  0.00     0.173 A 
ATOM     87  C   UNL     1      -6.806  10.438   7.723  1.00  0.00     0.173 A 
ATOM     88  F   UNL     1      -5.731   7.993   5.259  1.00  0.00    -0.203 F 
ATOM     89  C   UNL     1      -4.481   9.315   6.715  1.00  0.00     0.198 A 
ATOM     90  C   UNL     1      -5.560  10.792   8.252  1.00  0.00     0.198 A 
ATOM     91  F   UNL     1      -7.905  10.966   8.283  1.00  0.00    -0.203 F 
ATOM     92  F   UNL     1      -3.369   8.726   6.252  1.00  0.00    -0.200 F 
ATOM     93  C   UNL     1      -4.400  10.220   7.756  1.00  0.00     0.200 A 
ATOM     94  F   UNL     1      -5.490  11.641   9.287  1.00  0.00    -0.200 F 
ATOM     95  F   UNL     1      -3.213  10.506   8.308  1.00  0.00    -0.200 F 
ENDBRANCH  61  85
BRANCH  73  96
ATOM     96  C   UNL     1     -13.187   8.301   6.742  1.00  0.00     0.064 A 
ATOM     97  C   UNL     1     -14.413   8.763   7.237  1.00  0.00     0.173 A 
ATOM     98  C   UNL     1     -12.868   8.614   5.409  1.00  0.00     0.173 A 
ATOM     99  F   UNL     1     -14.791   8.452   8.486  1.00  0.00    -0.203 F 
ATOM    100  C   UNL     1     -15.291   9.485   6.433  1.00  0.00     0.198 A 
ATOM    101  C   UNL     1     -13.733   9.367   4.616  1.00  0.00     0.198 A 
ATOM    102  F   UNL     1     -11.755   8.135   4.838  1.00  0.00    -0.203 F 
ATOM    103  F   UNL     1     -16.487   9.849   6.915  1.00  0.00    -0.200 F 
ATOM    104  C   UNL     1     -14.950   9.790   5.125  1.00  0.00     0.200 A 
ATOM    105  F   UNL     1     -13.412   9.645   3.343  1.00  0.00    -0.200 F 
ATOM    106  F   UNL     1     -15.810  10.462   4.346  1.00  0.00    -0.200 F 
ENDBRANCH  73  96
ENDBRANCH  47  48
ENDBRANCH  40  42
ENDBRANCH  39  40
ENDBRANCH  38  39
ENDBRANCH  37  38
ENDBRANCH  36  37
ENDBRANCH  35  36
ENDBRANCH  34  35
ENDBRANCH   1  34
TORSDOF 22
