REMARK SMILES O=C(OCCOCCOCCOCCOC(=O)c1ccc2c(c1)[C@@H]1C=CC[C@@H]1[C@H](c1ccncc1)N2)c1ccc(-c2c3nc(c(-c4c(F)c(F)c(F)c(F)c4F)c4ccc([nH]4)c(-c4c(F)c(F)c(F)c(F)c4F)c4nc(c(-c5c(F)c(F)c(F)c(F)c5F)c5ccc2[nH]5)C=C4)C=C3)cc1
REMARK SMILES IDX 8 1 7 2 6 3 5 4 4 5 3 6 2 7 1 8 37 9 38 10 99 11 39 12 98 13
REMARK SMILES IDX 40 14 41 15 42 16 92 17 43 18 97 19 91 20 93 21 44 22 96 23
REMARK SMILES IDX 90 24 89 25 45 27 77 28 57 29 76 30 58 31 61 32 75 33 94 34
REMARK SMILES IDX 59 35 60 36 74 38 95 39 62 40 46 41 47 42 55 43 48 44 49 45
REMARK SMILES IDX 53 46 56 47 50 48 51 49 54 50 52 51 78 52 79 53 87 54 80 55
REMARK SMILES IDX 81 56 85 57 88 58 82 59 83 60 86 61 84 62 63 63 64 64 72 65
REMARK SMILES IDX 65 66 66 67 70 68 73 69 67 70 68 71 71 72 69 73 9 74 10 75
REMARK SMILES IDX 11 76 12 77 13 78 14 79 15 80 16 81 17 82 18 83 19 84 23 85
REMARK SMILES IDX 20 86 22 87 21 88 24 89 36 90 25 91 28 92 29 93 26 95 27 96
REMARK SMILES IDX 30 97 31 98 35 99 32 100 34 101 33 102
REMARK H PARENT 93 26 61 37 36 94
REMARK Flexibility Score: inf
ROOT
ATOM      1  C   UNL     1       1.750  -0.932  -2.542  1.00  0.00     0.188 C 
ENDROOT
BRANCH   1   2
ATOM      2  C   UNL     1       2.175  -1.140  -1.090  1.00  0.00     0.188 C 
BRANCH   2   3
ATOM      3  O   UNL     1       3.511  -0.667  -0.891  1.00  0.00    -0.376 OA
BRANCH   3   4
ATOM      4  C   UNL     1       4.293  -1.437   0.020  1.00  0.00     0.202 C 
BRANCH   4   5
ATOM      5  C   UNL     1       4.163  -0.985   1.475  1.00  0.00     0.261 C 
BRANCH   5   6
ATOM      6  O   UNL     1       2.818  -0.605   1.800  1.00  0.00    -0.460 OA
BRANCH   6   7
ATOM      7  C   UNL     1       2.254   0.626   1.716  1.00  0.00     0.338 C 
ATOM      8  O   UNL     1       1.076   0.745   2.053  1.00  0.00    -0.246 OA
BRANCH   7   9
ATOM      9  C   UNL     1       2.974   1.866   1.274  1.00  0.00     0.060 A 
ATOM     10  C   UNL     1       4.119   1.914   0.475  1.00  0.00     0.016 A 
ATOM     11  C   UNL     1       2.408   3.092   1.670  1.00  0.00     0.016 A 
ATOM     12  C   UNL     1       4.735   3.117   0.151  1.00  0.00     0.010 A 
ATOM     13  C   UNL     1       3.003   4.311   1.329  1.00  0.00     0.010 A 
ATOM     14  C   UNL     1       4.195   4.318   0.601  1.00  0.00    -0.014 A 
BRANCH  14  15
ATOM     15  C   UNL     1       5.012   5.535   0.461  1.00  0.00     0.031 A 
ATOM     16  C   UNL     1       5.784   5.995   1.661  1.00  0.00     0.074 A 
ATOM     17  C   UNL     1       5.168   6.114  -0.742  1.00  0.00     0.049 A 
ATOM     18  N   UNL     1       6.546   7.044   1.811  1.00  0.00    -0.248 NA
ATOM     19  C   UNL     1       5.698   5.136   2.856  1.00  0.00     0.031 C 
ATOM     20  C   UNL     1       4.563   5.641  -1.987  1.00  0.00     0.029 A 
ATOM     21  N   UNL     1       5.905   7.205  -1.117  1.00  0.00    -0.354 N 
ATOM     22  C   UNL     1       7.005   6.986   3.120  1.00  0.00     0.074 A 
ATOM     23  C   UNL     1       6.439   5.803   3.725  1.00  0.00     0.031 C 
ATOM     24  C   UNL     1       4.967   6.432  -2.995  1.00  0.00     0.029 A 
ATOM     25  C   UNL     1       5.804   7.499  -2.454  1.00  0.00     0.049 A 
ATOM     26  H   UNL     1       6.454   7.727  -0.489  1.00  0.00     0.167 HD
ATOM     27  C   UNL     1       7.823   7.855   3.755  1.00  0.00     0.037 A 
ATOM     28  C   UNL     1       6.309   8.539  -3.143  1.00  0.00     0.037 A 
ATOM     29  C   UNL     1       8.366   9.026   3.124  1.00  0.00     0.049 A 
ATOM     30  C   UNL     1       7.130   9.552  -2.388  1.00  0.00     0.074 A 
ATOM     31  C   UNL     1       9.144  10.027   3.671  1.00  0.00     0.029 A 
ATOM     32  N   UNL     1       8.177   9.345   1.785  1.00  0.00    -0.354 N 
ATOM     33  N   UNL     1       7.502   9.543  -1.128  1.00  0.00    -0.248 NA
ATOM     34  C   UNL     1       7.587  10.728  -3.139  1.00  0.00     0.031 C 
ATOM     35  C   UNL     1       9.390  10.976   2.671  1.00  0.00     0.029 A 
ATOM     36  C   UNL     1       8.808  10.540   1.489  1.00  0.00     0.049 A 
ATOM     37  H   UNL     1       7.669   8.801   1.141  1.00  0.00     0.167 HD
ATOM     38  C   UNL     1       8.243  10.700  -0.937  1.00  0.00     0.074 A 
ATOM     39  C   UNL     1       8.288  11.377  -2.219  1.00  0.00     0.031 C 
ATOM     40  C   UNL     1       8.829  11.171   0.193  1.00  0.00     0.037 A 
BRANCH  27  41
ATOM     41  C   UNL     1       8.089   7.598   5.208  1.00  0.00     0.064 A 
ATOM     42  C   UNL     1       8.895   6.534   5.642  1.00  0.00     0.173 A 
ATOM     43  C   UNL     1       7.476   8.396   6.186  1.00  0.00     0.173 A 
ATOM     44  F   UNL     1       9.476   5.720   4.748  1.00  0.00    -0.203 F 
ATOM     45  C   UNL     1       9.046   6.257   6.999  1.00  0.00     0.198 A 
ATOM     46  C   UNL     1       7.651   8.133   7.542  1.00  0.00     0.198 A 
ATOM     47  F   UNL     1       6.688   9.420   5.826  1.00  0.00    -0.203 F 
ATOM     48  F   UNL     1       9.763   5.194   7.389  1.00  0.00    -0.200 F 
ATOM     49  C   UNL     1       8.426   7.057   7.948  1.00  0.00     0.200 A 
ATOM     50  F   UNL     1       7.051   8.908   8.457  1.00  0.00    -0.200 F 
ATOM     51  F   UNL     1       8.560   6.780   9.252  1.00  0.00    -0.200 F 
ENDBRANCH  27  41
BRANCH  28  52
ATOM     52  C   UNL     1       6.013   8.698  -4.592  1.00  0.00     0.064 A 
ATOM     53  C   UNL     1       7.027   8.631  -5.557  1.00  0.00     0.173 A 
ATOM     54  C   UNL     1       4.703   8.929  -5.044  1.00  0.00     0.173 A 
ATOM     55  F   UNL     1       8.299   8.438  -5.180  1.00  0.00    -0.203 F 
ATOM     56  C   UNL     1       6.745   8.800  -6.913  1.00  0.00     0.198 A 
ATOM     57  C   UNL     1       4.418   9.067  -6.402  1.00  0.00     0.198 A 
ATOM     58  F   UNL     1       3.693   9.011  -4.166  1.00  0.00    -0.203 F 
ATOM     59  F   UNL     1       7.741   8.774  -7.810  1.00  0.00    -0.200 F 
ATOM     60  C   UNL     1       5.441   9.010  -7.335  1.00  0.00     0.200 A 
ATOM     61  F   UNL     1       3.154   9.258  -6.803  1.00  0.00    -0.200 F 
ATOM     62  F   UNL     1       5.171   9.167  -8.638  1.00  0.00    -0.200 F 
ENDBRANCH  28  52
BRANCH  40  63
ATOM     63  C   UNL     1       9.582  12.461   0.077  1.00  0.00     0.064 A 
ATOM     64  C   UNL     1       8.916  13.688  -0.043  1.00  0.00     0.173 A 
ATOM     65  C   UNL     1      10.983  12.469   0.146  1.00  0.00     0.173 A 
ATOM     66  F   UNL     1       7.578  13.726  -0.126  1.00  0.00    -0.203 F 
ATOM     67  C   UNL     1       9.630  14.881  -0.110  1.00  0.00     0.198 A 
ATOM     68  C   UNL     1      11.691  13.665   0.107  1.00  0.00     0.198 A 
ATOM     69  F   UNL     1      11.661  11.318   0.269  1.00  0.00    -0.203 F 
ATOM     70  F   UNL     1       8.978  16.041  -0.266  1.00  0.00    -0.200 F 
ATOM     71  C   UNL     1      11.015  14.869  -0.026  1.00  0.00     0.200 A 
ATOM     72  F   UNL     1      13.027  13.653   0.203  1.00  0.00    -0.200 F 
ATOM     73  F   UNL     1      11.700  16.019  -0.080  1.00  0.00    -0.200 F 
ENDBRANCH  40  63
ENDBRANCH  14  15
ENDBRANCH   7   9
ENDBRANCH   6   7
ENDBRANCH   5   6
ENDBRANCH   4   5
ENDBRANCH   3   4
ENDBRANCH   2   3
ENDBRANCH   1   2
BRANCH   1  74
ATOM     74  O   UNL     1       2.410  -1.773  -3.485  1.00  0.00    -0.377 OA
BRANCH  74  75
ATOM     75  C   UNL     1       3.833  -1.800  -3.442  1.00  0.00     0.188 C 
BRANCH  75  76
ATOM     76  C   UNL     1       4.601  -0.473  -3.630  1.00  0.00     0.188 C 
BRANCH  76  77
ATOM     77  O   UNL     1       3.793   0.656  -3.938  1.00  0.00    -0.376 OA
BRANCH  77  78
ATOM     78  C   UNL     1       3.809   1.067  -5.302  1.00  0.00     0.202 C 
BRANCH  78  79
ATOM     79  C   UNL     1       3.030   0.150  -6.253  1.00  0.00     0.261 C 
BRANCH  79  80
ATOM     80  O   UNL     1       3.564  -1.176  -6.401  1.00  0.00    -0.460 OA
BRANCH  80  81
ATOM     81  C   UNL     1       4.831  -1.318  -6.854  1.00  0.00     0.338 C 
ATOM     82  O   UNL     1       5.583  -0.439  -7.235  1.00  0.00    -0.246 OA
BRANCH  81  83
ATOM     83  C   UNL     1       5.228  -2.717  -6.586  1.00  0.00     0.060 A 
ATOM     84  C   UNL     1       6.360  -2.961  -5.803  1.00  0.00     0.018 A 
ATOM     85  C   UNL     1       4.419  -3.777  -6.996  1.00  0.00     0.022 A 
ATOM     86  C   UNL     1       6.662  -4.267  -5.409  1.00  0.00     0.027 A 
ATOM     87  C   UNL     1       4.746  -5.098  -6.641  1.00  0.00    -0.017 A 
ATOM     88  C   UNL     1       5.888  -5.347  -5.855  1.00  0.00     0.038 A 
ATOM     89  C   UNL     1       3.900  -6.235  -7.166  1.00  0.00     0.049 C 
ATOM     90  N   UNL     1       6.261  -6.648  -5.517  1.00  0.00    -0.378 N 
ATOM     91  C   UNL     1       2.484  -6.238  -6.659  1.00  0.00    -0.023 C 
ATOM     92  C   UNL     1       4.380  -7.641  -6.757  1.00  0.00     0.031 C 
ATOM     93  C   UNL     1       5.882  -7.682  -6.471  1.00  0.00     0.114 C 
ATOM     94  H   UNL     1       6.749  -6.854  -4.688  1.00  0.00     0.161 HD
ATOM     95  C   UNL     1       2.243  -7.257  -5.826  1.00  0.00    -0.030 C 
ATOM     96  C   UNL     1       3.466  -8.084  -5.602  1.00  0.00     0.034 C 
BRANCH  93  97
ATOM     97  C   UNL     1       6.352  -9.070  -6.073  1.00  0.00    -0.022 A 
ATOM     98  C   UNL     1       6.417 -10.061  -7.064  1.00  0.00     0.026 A 
ATOM     99  C   UNL     1       6.693  -9.435  -4.767  1.00  0.00     0.026 A 
ATOM    100  C   UNL     1       6.816 -11.341  -6.719  1.00  0.00     0.111 A 
ATOM    101  C   UNL     1       7.094 -10.742  -4.522  1.00  0.00     0.111 A 
ATOM    102  N   UNL     1       7.162 -11.701  -5.468  1.00  0.00    -0.265 NA
ENDBRANCH  93  97
ENDBRANCH  81  83
ENDBRANCH  80  81
ENDBRANCH  79  80
ENDBRANCH  78  79
ENDBRANCH  77  78
ENDBRANCH  76  77
ENDBRANCH  75  76
ENDBRANCH  74  75
ENDBRANCH   1  74
TORSDOF 21
