REMARK SMILES Cn1cc(S(=O)(=O)N[C@@H]2C=C[C@@H](C(=O)OCCOCCOCCOCCOC(=O)c3ccc(-c4c5nc(c(-c6c(F)c(F)c(F)c(F)c6F)c6ccc([nH]6)c(-c6c(F)c(F)c(F)c(F)c6F)c6nc(c(-c7c(F)c(F)c(F)c(F)c7F)c7ccc4[nH]7)C=C6)C=C5)cc3)C2)cc1C(N)=O
REMARK SMILES IDX 20 1 19 2 18 3 17 4 16 5 15 6 13 7 14 8 12 9 9 10 10 11
REMARK SMILES IDX 93 12 11 13 8 14 5 16 6 17 7 18 4 19 1 20 2 21 3 22 95 23
REMARK SMILES IDX 94 24 96 25 97 26 98 27 21 30 22 31 23 32 24 33 25 34 26 35
REMARK SMILES IDX 27 36 28 37 29 38 30 39 31 40 92 41 32 42 91 43 33 44 34 45
REMARK SMILES IDX 35 46 85 47 36 48 90 49 84 50 86 51 37 52 89 53 83 54 82 55
REMARK SMILES IDX 38 57 70 58 50 59 69 60 51 61 54 62 68 63 87 64 52 65 53 66
REMARK SMILES IDX 67 68 88 69 55 70 39 71 40 72 48 73 41 74 42 75 46 76 49 77
REMARK SMILES IDX 43 78 44 79 47 80 45 81 71 82 72 83 80 84 73 85 74 86 78 87
REMARK SMILES IDX 81 88 75 89 76 90 79 91 77 92 56 93 57 94 65 95 58 96 59 97
REMARK SMILES IDX 63 98 66 99 60 100 61 101 64 102 62 103
REMARK H PARENT 8 15 97 28 97 29 86 56 54 67
REMARK Flexibility Score: inf
ROOT
ATOM      1  C   UNL     1      -1.070  -3.337   0.663  1.00  0.00     0.188 C 
ENDROOT
BRANCH   1   2
ATOM      2  C   UNL     1      -1.329  -4.761   1.178  1.00  0.00     0.188 C 
BRANCH   2   3
ATOM      3  O   UNL     1      -1.306  -5.846   0.259  1.00  0.00    -0.376 OA
BRANCH   3   4
ATOM      4  C   UNL     1      -2.160  -5.812  -0.884  1.00  0.00     0.202 C 
BRANCH   4   5
ATOM      5  C   UNL     1      -3.639  -5.456  -0.690  1.00  0.00     0.261 C 
BRANCH   5   6
ATOM      6  O   UNL     1      -3.856  -4.087  -0.289  1.00  0.00    -0.463 OA
BRANCH   6   7
ATOM      7  C   UNL     1      -4.644  -3.902   0.795  1.00  0.00     0.312 C 
ATOM      8  O   UNL     1      -5.162  -4.808   1.445  1.00  0.00    -0.252 OA
BRANCH   7   9
ATOM      9  C   UNL     1      -4.918  -2.448   1.134  1.00  0.00     0.123 C 
ATOM     10  C   UNL     1      -4.881  -0.079   0.587  1.00  0.00     0.093 C 
ATOM     11  C   UNL     1      -6.184  -0.711   0.223  1.00  0.00    -0.011 C 
ATOM     12  C   UNL     1      -3.984  -1.330   0.657  1.00  0.00     0.043 C 
ATOM     13  C   UNL     1      -6.217  -2.015   0.525  1.00  0.00    -0.015 C 
BRANCH  10  14
ATOM     14  N   UNL     1      -4.899   0.529   1.931  1.00  0.00    -0.204 NA
ATOM     15  H   UNL     1      -4.960  -0.239   2.599  1.00  0.00     0.142 HD
BRANCH  14  16
ATOM     16  S   UNL     1      -6.103   1.632   2.348  1.00  0.00     0.242 S 
ATOM     17  O   UNL     1      -6.380   2.456   1.194  1.00  0.00    -0.207 OA
ATOM     18  O   UNL     1      -5.725   2.186   3.627  1.00  0.00    -0.207 OA
BRANCH  16  19
ATOM     19  C   UNL     1      -7.553   0.757   2.668  1.00  0.00     0.100 A 
ATOM     20  C   UNL     1     -11.103   0.158   2.461  1.00  0.00     0.150 C 
ATOM     21  N   UNL     1      -9.670   0.082   2.653  1.00  0.00    -0.345 N 
ATOM     22  C   UNL     1      -8.842   1.155   2.404  1.00  0.00     0.107 A 
ATOM     23  C   UNL     1      -8.920  -1.025   3.025  1.00  0.00     0.107 A 
ATOM     24  C   UNL     1      -7.616  -0.561   3.175  1.00  0.00     0.055 A 
BRANCH  23  25
ATOM     25  C   UNL     1      -9.417  -2.380   3.186  1.00  0.00     0.265 C 
ATOM     26  N   UNL     1      -8.464  -3.358   3.227  1.00  0.00    -0.364 N 
ATOM     27  O   UNL     1     -10.599  -2.700   3.239  1.00  0.00    -0.268 OA
ATOM     28  H   UNL     1      -7.510  -3.118   3.185  1.00  0.00     0.160 HD
ATOM     29  H   UNL     1      -8.731  -4.303   3.297  1.00  0.00     0.160 HD
ENDBRANCH  23  25
ENDBRANCH  16  19
ENDBRANCH  14  16
ENDBRANCH  10  14
ENDBRANCH   7   9
ENDBRANCH   6   7
ENDBRANCH   5   6
ENDBRANCH   4   5
ENDBRANCH   3   4
ENDBRANCH   2   3
ENDBRANCH   1   2
BRANCH   1  30
ATOM     30  O   UNL     1      -1.261  -3.175  -0.730  1.00  0.00    -0.377 OA
BRANCH  30  31
ATOM     31  C   UNL     1      -0.080  -3.048  -1.519  1.00  0.00     0.188 C 
BRANCH  31  32
ATOM     32  C   UNL     1       1.108  -3.963  -1.173  1.00  0.00     0.188 C 
BRANCH  32  33
ATOM     33  O   UNL     1       1.708  -3.634   0.081  1.00  0.00    -0.376 OA
BRANCH  33  34
ATOM     34  C   UNL     1       2.881  -2.823   0.032  1.00  0.00     0.202 C 
BRANCH  34  35
ATOM     35  C   UNL     1       2.624  -1.336  -0.262  1.00  0.00     0.261 C 
BRANCH  35  36
ATOM     36  O   UNL     1       2.183  -1.038  -1.601  1.00  0.00    -0.460 OA
BRANCH  36  37
ATOM     37  C   UNL     1       2.954  -1.455  -2.626  1.00  0.00     0.338 C 
ATOM     38  O   UNL     1       4.053  -1.974  -2.564  1.00  0.00    -0.246 OA
BRANCH  37  39
ATOM     39  C   UNL     1       2.157  -1.352  -3.864  1.00  0.00     0.060 A 
ATOM     40  C   UNL     1       2.012  -2.493  -4.663  1.00  0.00     0.016 A 
ATOM     41  C   UNL     1       1.582  -0.138  -4.249  1.00  0.00     0.016 A 
ATOM     42  C   UNL     1       1.328  -2.412  -5.876  1.00  0.00     0.010 A 
ATOM     43  C   UNL     1       0.914  -0.053  -5.472  1.00  0.00     0.010 A 
ATOM     44  C   UNL     1       0.816  -1.181  -6.307  1.00  0.00    -0.014 A 
BRANCH  44  45
ATOM     45  C   UNL     1       0.363  -1.015  -7.708  1.00  0.00     0.031 A 
ATOM     46  C   UNL     1       1.360  -0.533  -8.725  1.00  0.00     0.074 A 
ATOM     47  C   UNL     1      -0.903  -1.276  -8.073  1.00  0.00     0.049 A 
ATOM     48  N   UNL     1       1.188  -0.247  -9.990  1.00  0.00    -0.248 NA
ATOM     49  C   UNL     1       2.740  -0.345  -8.246  1.00  0.00     0.031 C 
ATOM     50  C   UNL     1      -1.952  -1.781  -7.190  1.00  0.00     0.029 A 
ATOM     51  N   UNL     1      -1.524  -1.134  -9.289  1.00  0.00    -0.354 N 
ATOM     52  C   UNL     1       2.433   0.153 -10.456  1.00  0.00     0.074 A 
ATOM     53  C   UNL     1       3.347   0.098  -9.336  1.00  0.00     0.031 C 
ATOM     54  C   UNL     1      -3.095  -1.888  -7.891  1.00  0.00     0.029 A 
ATOM     55  C   UNL     1      -2.863  -1.432  -9.261  1.00  0.00     0.049 A 
ATOM     56  H   UNL     1      -1.052  -0.845 -10.104  1.00  0.00     0.167 HD
ATOM     57  C   UNL     1       2.785   0.527 -11.708  1.00  0.00     0.037 A 
ATOM     58  C   UNL     1      -3.796  -1.321 -10.227  1.00  0.00     0.037 A 
ATOM     59  C   UNL     1       1.877   0.592 -12.820  1.00  0.00     0.049 A 
ATOM     60  C   UNL     1      -3.397  -0.819 -11.592  1.00  0.00     0.074 A 
ATOM     61  C   UNL     1       2.143   0.939 -14.133  1.00  0.00     0.029 A 
ATOM     62  N   UNL     1       0.521   0.315 -12.744  1.00  0.00    -0.354 N 
ATOM     63  N   UNL     1      -2.212  -0.475 -12.035  1.00  0.00    -0.248 NA
ATOM     64  C   UNL     1      -4.469  -0.685 -12.591  1.00  0.00     0.031 C 
ATOM     65  C   UNL     1       0.937   0.915 -14.842  1.00  0.00     0.029 A 
ATOM     66  C   UNL     1      -0.070   0.511 -13.981  1.00  0.00     0.049 A 
ATOM     67  H   UNL     1       0.048   0.021 -11.932  1.00  0.00     0.167 HD
ATOM     68  C   UNL     1      -2.390  -0.110 -13.364  1.00  0.00     0.074 A 
ATOM     69  C   UNL     1      -3.796  -0.282 -13.660  1.00  0.00     0.031 C 
ATOM     70  C   UNL     1      -1.471   0.328 -14.259  1.00  0.00     0.037 A 
BRANCH  57  71
ATOM     71  C   UNL     1       4.213   0.919 -11.932  1.00  0.00     0.064 A 
ATOM     72  C   UNL     1       5.239  -0.036 -11.969  1.00  0.00     0.173 A 
ATOM     73  C   UNL     1       4.556   2.264 -12.135  1.00  0.00     0.173 A 
ATOM     74  F   UNL     1       4.963  -1.332 -11.761  1.00  0.00    -0.203 F 
ATOM     75  C   UNL     1       6.562   0.344 -12.180  1.00  0.00     0.198 A 
ATOM     76  C   UNL     1       5.877   2.637 -12.370  1.00  0.00     0.198 A 
ATOM     77  F   UNL     1       3.611   3.215 -12.108  1.00  0.00    -0.203 F 
ATOM     78  F   UNL     1       7.533  -0.580 -12.170  1.00  0.00    -0.200 F 
ATOM     79  C   UNL     1       6.878   1.678 -12.387  1.00  0.00     0.200 A 
ATOM     80  F   UNL     1       6.180   3.926 -12.576  1.00  0.00    -0.200 F 
ATOM     81  F   UNL     1       8.152   2.042 -12.594  1.00  0.00    -0.200 F 
ENDBRANCH  57  71
BRANCH  58  82
ATOM     82  C   UNL     1      -5.211  -1.670  -9.938  1.00  0.00     0.064 A 
ATOM     83  C   UNL     1      -5.811  -2.796 -10.519  1.00  0.00     0.173 A 
ATOM     84  C   UNL     1      -5.999  -0.870  -9.098  1.00  0.00     0.173 A 
ATOM     85  F   UNL     1      -5.105  -3.574 -11.352  1.00  0.00    -0.203 F 
ATOM     86  C   UNL     1      -7.150  -3.099 -10.283  1.00  0.00     0.198 A 
ATOM     87  C   UNL     1      -7.331  -1.188  -8.844  1.00  0.00     0.198 A 
ATOM     88  F   UNL     1      -5.474   0.222  -8.524  1.00  0.00    -0.203 F 
ATOM     89  F   UNL     1      -7.711  -4.157 -10.885  1.00  0.00    -0.200 F 
ATOM     90  C   UNL     1      -7.908  -2.299  -9.441  1.00  0.00     0.200 A 
ATOM     91  F   UNL     1      -8.058  -0.416  -8.024  1.00  0.00    -0.200 F 
ATOM     92  F   UNL     1      -9.195  -2.591  -9.215  1.00  0.00    -0.200 F 
ENDBRANCH  58  82
BRANCH  70  93
ATOM     93  C   UNL     1      -1.945   0.626 -15.651  1.00  0.00     0.064 A 
ATOM     94  C   UNL     1      -2.687   1.780 -15.940  1.00  0.00     0.173 A 
ATOM     95  C   UNL     1      -1.598  -0.219 -16.715  1.00  0.00     0.173 A 
ATOM     96  F   UNL     1      -3.054   2.611 -14.954  1.00  0.00    -0.203 F 
ATOM     97  C   UNL     1      -3.076   2.070 -17.245  1.00  0.00     0.198 A 
ATOM     98  C   UNL     1      -1.967   0.087 -18.022  1.00  0.00     0.198 A 
ATOM     99  F   UNL     1      -0.883  -1.331 -16.490  1.00  0.00    -0.203 F 
ATOM    100  F   UNL     1      -3.813   3.161 -17.496  1.00  0.00    -0.200 F 
ATOM    101  C   UNL     1      -2.709   1.228 -18.285  1.00  0.00     0.200 A 
ATOM    102  F   UNL     1      -1.601  -0.721 -19.027  1.00  0.00    -0.200 F 
ATOM    103  F   UNL     1      -3.075   1.516 -19.542  1.00  0.00    -0.200 F 
ENDBRANCH  70  93
ENDBRANCH  44  45
ENDBRANCH  37  39
ENDBRANCH  36  37
ENDBRANCH  35  36
ENDBRANCH  34  35
ENDBRANCH  33  34
ENDBRANCH  32  33
ENDBRANCH  31  32
ENDBRANCH  30  31
ENDBRANCH   1  30
TORSDOF 24
