REMARK SMILES CC[N@@H+]1CCC[C@@H]1C[N@@H+](C)C[C@H]([NH3+])C(=O)OCCOCCOCCOCCOC(=O)c1ccc(-c2c3nc(c(-c4c(F)c(F)c(F)c(F)c4F)c4ccc([nH]4)c(-c4c(F)c(F)c(F)c(F)c4F)c4nc(c(-c5c(F)c(F)c(F)c(F)c5F)c5ccc2[nH]5)C=C4)C=C3)cc1
REMARK SMILES IDX 20 1 19 2 18 3 17 4 16 5 14 6 15 7 12 8 11 9 9 10 10 11 8 13
REMARK SMILES IDX 7 14 3 15 4 16 5 18 6 19 2 20 1 21 13 22 21 26 22 27 23 28
REMARK SMILES IDX 24 29 25 30 26 31 27 32 28 33 29 34 30 35 31 36 32 37 93 38
REMARK SMILES IDX 33 39 92 40 34 41 35 42 36 43 86 44 37 45 91 46 85 47 87 48
REMARK SMILES IDX 38 49 90 50 84 51 83 52 39 54 71 55 51 56 70 57 52 58 55 59
REMARK SMILES IDX 69 60 88 61 53 62 54 63 68 65 89 66 56 67 40 68 41 69 49 70
REMARK SMILES IDX 42 71 43 72 47 73 50 74 44 75 45 76 48 77 46 78 72 79 73 80
REMARK SMILES IDX 81 81 74 82 75 83 79 84 82 85 76 86 77 87 80 88 78 89 57 90
REMARK SMILES IDX 58 91 66 92 59 93 60 94 64 95 67 96 61 97 62 98 65 99 63 100
REMARK H PARENT 9 12 3 17 13 23 13 24 13 25 87 53 55 64
REMARK Flexibility Score: inf
ROOT
ATOM      1  C   UNL     1       3.590  -4.002   4.484  1.00  0.00     0.188 C 
ENDROOT
BRANCH   1   2
ATOM      2  O   UNL     1       2.968  -5.261   4.680  1.00  0.00    -0.376 OA
BRANCH   2   3
ATOM      3  C   UNL     1       1.563  -5.334   4.518  1.00  0.00     0.202 C 
BRANCH   3   4
ATOM      4  C   UNL     1       0.998  -4.939   3.152  1.00  0.00     0.261 C 
BRANCH   4   5
ATOM      5  O   UNL     1       1.432  -3.664   2.659  1.00  0.00    -0.459 OA
BRANCH   5   6
ATOM      6  C   UNL     1       0.822  -2.565   3.180  1.00  0.00     0.370 C 
ATOM      7  O   UNL     1       0.002  -2.602   4.090  1.00  0.00    -0.245 OA
BRANCH   6   8
ATOM      8  C   UNL     1       1.211  -1.285   2.436  1.00  0.00     0.347 C 
BRANCH   8   9
ATOM      9  C   UNL     1       0.237  -0.990   1.262  1.00  0.00     0.340 C 
BRANCH   9  10
ATOM     10  N   UNL     1      -0.102  -1.962   0.198  1.00  0.00    -0.327 N 
ATOM     11  C   UNL     1      -1.140  -2.896   0.648  1.00  0.00     0.333 C 
ATOM     12  H   UNL     1      -0.449  -1.356  -0.546  1.00  0.00     0.348 HD
BRANCH  10  13
ATOM     13  C   UNL     1       1.003  -2.686  -0.466  1.00  0.00     0.327 C 
BRANCH  13  14
ATOM     14  C   UNL     1       1.708  -1.989  -1.670  1.00  0.00     0.239 C 
ATOM     15  N   UNL     1       2.715  -2.753  -2.442  1.00  0.00    -0.328 N 
ATOM     16  C   UNL     1       3.891  -1.926  -2.691  1.00  0.00     0.262 C 
ATOM     17  H   UNL     1       2.181  -2.942  -3.291  1.00  0.00     0.348 HD
ATOM     18  C   UNL     1       3.893  -0.935  -1.555  1.00  0.00     0.068 C 
ATOM     19  C   UNL     1       2.416  -0.664  -1.353  1.00  0.00     0.077 C 
BRANCH  15  20
ATOM     20  C   UNL     1       2.984  -4.167  -2.232  1.00  0.00     0.259 C 
ATOM     21  C   UNL     1       3.463  -4.610  -0.855  1.00  0.00     0.071 C 
ENDBRANCH  15  20
ENDBRANCH  13  14
ENDBRANCH  10  13
ENDBRANCH   9  10
ENDBRANCH   8   9
BRANCH   8  22
ATOM     22  N   UNL     1       2.649  -1.216   2.090  1.00  0.00    -0.341 N 
ATOM     23  H   UNL     1       2.877  -1.961   1.432  1.00  0.00     0.345 HD
ATOM     24  H   UNL     1       3.208  -1.327   2.936  1.00  0.00     0.345 HD
ATOM     25  H   UNL     1       2.853  -0.312   1.663  1.00  0.00     0.345 HD
ENDBRANCH   8  22
ENDBRANCH   6   8
ENDBRANCH   5   6
ENDBRANCH   4   5
ENDBRANCH   3   4
ENDBRANCH   2   3
ENDBRANCH   1   2
BRANCH   1  26
ATOM     26  C   UNL     1       4.417  -3.890   3.188  1.00  0.00     0.188 C 
BRANCH  26  27
ATOM     27  O   UNL     1       4.405  -4.924   2.212  1.00  0.00    -0.377 OA
BRANCH  27  28
ATOM     28  C   UNL     1       4.371  -6.282   2.621  1.00  0.00     0.188 C 
BRANCH  28  29
ATOM     29  C   UNL     1       5.192  -6.744   3.842  1.00  0.00     0.188 C 
BRANCH  29  30
ATOM     30  O   UNL     1       5.903  -5.709   4.497  1.00  0.00    -0.376 OA
BRANCH  30  31
ATOM     31  C   UNL     1       7.295  -5.613   4.247  1.00  0.00     0.202 C 
BRANCH  31  32
ATOM     32  C   UNL     1       7.750  -5.340   2.805  1.00  0.00     0.261 C 
BRANCH  32  33
ATOM     33  O   UNL     1       7.264  -6.234   1.794  1.00  0.00    -0.460 OA
BRANCH  33  34
ATOM     34  C   UNL     1       7.616  -7.533   1.871  1.00  0.00     0.338 C 
ATOM     35  O   UNL     1       8.304  -8.072   2.721  1.00  0.00    -0.246 OA
BRANCH  34  36
ATOM     36  C   UNL     1       6.888  -8.239   0.802  1.00  0.00     0.060 A 
ATOM     37  C   UNL     1       5.913  -9.194   1.128  1.00  0.00     0.016 A 
ATOM     38  C   UNL     1       7.168  -7.933  -0.530  1.00  0.00     0.016 A 
ATOM     39  C   UNL     1       5.227  -9.864   0.113  1.00  0.00     0.010 A 
ATOM     40  C   UNL     1       6.506  -8.625  -1.542  1.00  0.00     0.010 A 
ATOM     41  C   UNL     1       5.558  -9.615  -1.224  1.00  0.00    -0.014 A 
BRANCH  41  42
ATOM     42  C   UNL     1       5.114 -10.531  -2.300  1.00  0.00     0.031 A 
ATOM     43  C   UNL     1       6.069 -11.608  -2.729  1.00  0.00     0.074 A 
ATOM     44  C   UNL     1       3.933 -10.377  -2.920  1.00  0.00     0.049 A 
ATOM     45  N   UNL     1       6.023 -12.400  -3.767  1.00  0.00    -0.248 NA
ATOM     46  C   UNL     1       7.250 -11.803  -1.871  1.00  0.00     0.031 C 
ATOM     47  C   UNL     1       2.903  -9.408  -2.555  1.00  0.00     0.029 A 
ATOM     48  N   UNL     1       3.420 -11.022  -4.019  1.00  0.00    -0.354 N 
ATOM     49  C   UNL     1       7.178 -13.169  -3.700  1.00  0.00     0.074 A 
ATOM     50  C   UNL     1       7.914 -12.737  -2.533  1.00  0.00     0.031 C 
ATOM     51  C   UNL     1       1.891  -9.501  -3.436  1.00  0.00     0.029 A 
ATOM     52  C   UNL     1       2.228 -10.497  -4.453  1.00  0.00     0.049 A 
ATOM     53  H   UNL     1       3.864 -11.786  -4.452  1.00  0.00     0.167 HD
ATOM     54  C   UNL     1       7.586 -14.146  -4.542  1.00  0.00     0.037 A 
ATOM     55  C   UNL     1       1.520 -10.764  -5.569  1.00  0.00     0.037 A 
ATOM     56  C   UNL     1       6.849 -14.561  -5.705  1.00  0.00     0.049 A 
ATOM     57  C   UNL     1       2.040 -11.794  -6.544  1.00  0.00     0.074 A 
ATOM     58  C   UNL     1       7.166 -15.547  -6.620  1.00  0.00     0.029 A 
ATOM     59  N   UNL     1       5.649 -13.999  -6.117  1.00  0.00    -0.354 N 
ATOM     60  N   UNL     1       3.125 -12.528  -6.477  1.00  0.00    -0.248 NA
ATOM     61  C   UNL     1       1.238 -12.029  -7.754  1.00  0.00     0.031 C 
ATOM     62  C   UNL     1       6.191 -15.540  -7.621  1.00  0.00     0.029 A 
ATOM     63  C   UNL     1       5.226 -14.601  -7.289  1.00  0.00     0.049 A 
ATOM     64  H   UNL     1       5.170 -13.280  -5.646  1.00  0.00     0.167 HD
ATOM     65  C   UNL     1       3.114 -13.338  -7.606  1.00  0.00     0.074 A 
ATOM     66  C   UNL     1       1.914 -13.005  -8.345  1.00  0.00     0.031 C 
ATOM     67  C   UNL     1       4.012 -14.277  -7.994  1.00  0.00     0.037 A 
BRANCH  54  68
ATOM     68  C   UNL     1       8.906 -14.801  -4.258  1.00  0.00     0.064 A 
ATOM     69  C   UNL     1       9.095 -15.640  -3.150  1.00  0.00     0.173 A 
ATOM     70  C   UNL     1       9.993 -14.605  -5.124  1.00  0.00     0.173 A 
ATOM     71  F   UNL     1       8.093 -15.847  -2.281  1.00  0.00    -0.203 F 
ATOM     72  C   UNL     1      10.330 -16.235  -2.903  1.00  0.00     0.198 A 
ATOM     73  C   UNL     1      11.216 -15.229  -4.894  1.00  0.00     0.198 A 
ATOM     74  F   UNL     1       9.867 -13.812  -6.199  1.00  0.00    -0.203 F 
ATOM     75  F   UNL     1      10.502 -16.988  -1.809  1.00  0.00    -0.200 F 
ATOM     76  C   UNL     1      11.386 -16.036  -3.780  1.00  0.00     0.200 A 
ATOM     77  F   UNL     1      12.230 -15.046  -5.750  1.00  0.00    -0.200 F 
ATOM     78  F   UNL     1      12.571 -16.616  -3.546  1.00  0.00    -0.200 F 
ENDBRANCH  54  68
BRANCH  55  79
ATOM     79  C   UNL     1       0.257 -10.030  -5.846  1.00  0.00     0.064 A 
ATOM     80  C   UNL     1      -0.978 -10.695  -5.852  1.00  0.00     0.173 A 
ATOM     81  C   UNL     1       0.256  -8.657  -6.137  1.00  0.00     0.173 A 
ATOM     82  F   UNL     1      -1.028 -12.012  -5.608  1.00  0.00    -0.203 F 
ATOM     83  C   UNL     1      -2.159 -10.021  -6.158  1.00  0.00     0.198 A 
ATOM     84  C   UNL     1      -0.929  -7.978  -6.411  1.00  0.00     0.198 A 
ATOM     85  F   UNL     1       1.409  -7.972  -6.149  1.00  0.00    -0.203 F 
ATOM     86  F   UNL     1      -3.317 -10.694  -6.209  1.00  0.00    -0.200 F 
ATOM     87  C   UNL     1      -2.135  -8.662  -6.431  1.00  0.00     0.200 A 
ATOM     88  F   UNL     1      -0.903  -6.662  -6.662  1.00  0.00    -0.200 F 
ATOM     89  F   UNL     1      -3.271  -8.015  -6.723  1.00  0.00    -0.200 F 
ENDBRANCH  55  79
BRANCH  67  90
ATOM     90  C   UNL     1       3.709 -15.072  -9.233  1.00  0.00     0.064 A 
ATOM     91  C   UNL     1       3.800 -14.515 -10.516  1.00  0.00     0.173 A 
ATOM     92  C   UNL     1       3.409 -16.440  -9.130  1.00  0.00     0.173 A 
ATOM     93  F   UNL     1       4.072 -13.210 -10.668  1.00  0.00    -0.203 F 
ATOM     94  C   UNL     1       3.589 -15.296 -11.650  1.00  0.00     0.198 A 
ATOM     95  C   UNL     1       3.232 -17.224 -10.266  1.00  0.00     0.198 A 
ATOM     96  F   UNL     1       3.319 -17.024  -7.926  1.00  0.00    -0.203 F 
ATOM     97  F   UNL     1       3.647 -14.736 -12.866  1.00  0.00    -0.200 F 
ATOM     98  C   UNL     1       3.317 -16.650 -11.525  1.00  0.00     0.200 A 
ATOM     99  F   UNL     1       2.990 -18.536 -10.142  1.00  0.00    -0.200 F 
ATOM    100  F   UNL     1       3.138 -17.404 -12.619  1.00  0.00    -0.200 F 
ENDBRANCH  67  90
ENDBRANCH  41  42
ENDBRANCH  34  36
ENDBRANCH  33  34
ENDBRANCH  32  33
ENDBRANCH  31  32
ENDBRANCH  30  31
ENDBRANCH  29  30
ENDBRANCH  28  29
ENDBRANCH  27  28
ENDBRANCH  26  27
ENDBRANCH   1  26
TORSDOF 26
