REMARK SMILES C=CCN1C(=O)/C(=C/c2ccccn2)S/C1=[NH+]\c1ccc(C(=O)OCCOCCOCCOCCOC(=O)c2ccc(-c3c4nc(c(-c5c(F)c(F)c(F)c(F)c5F)c5ccc([nH]5)c(-c5c(F)c(F)c(F)c(F)c5F)c5nc(c(-c6c(F)c(F)c(F)c(F)c6F)c6ccc3[nH]6)C=C5)C=C4)cc2)cc1
REMARK SMILES IDX 29 1 28 2 27 3 26 4 25 5 24 6 22 7 23 8 21 9 18 10 19 11
REMARK SMILES IDX 103 12 20 13 102 14 17 15 4 16 5 17 16 18 6 19 7 20 15 21
REMARK SMILES IDX 8 22 3 24 2 25 1 26 9 27 10 28 14 29 11 30 13 31 12 32 30 33
REMARK SMILES IDX 31 34 32 35 33 36 34 37 35 38 36 39 37 40 38 41 39 42 40 43
REMARK SMILES IDX 101 44 41 45 100 46 42 47 43 48 44 49 94 50 45 51 99 52
REMARK SMILES IDX 93 53 95 54 46 55 98 56 92 57 91 58 47 60 79 61 59 62 78 63
REMARK SMILES IDX 60 64 63 65 77 66 96 67 61 68 62 69 76 71 97 72 64 73 48 74
REMARK SMILES IDX 49 75 57 76 50 77 51 78 55 79 58 80 52 81 53 82 56 83 54 84
REMARK SMILES IDX 80 85 81 86 89 87 82 88 83 89 87 90 90 91 84 92 85 93 88 94
REMARK SMILES IDX 86 95 65 96 66 97 74 98 67 99 68 100 72 101 75 102 69 103
REMARK SMILES IDX 70 104 73 105 71 106
REMARK H PARENT 17 23 95 59 63 70
REMARK Flexibility Score: inf
ROOT
ATOM      1  C   UNL     1      -2.285  -7.952  -5.834  1.00  0.00     0.188 C 
ENDROOT
BRANCH   1   2
ATOM      2  C   UNL     1      -3.748  -8.436  -5.893  1.00  0.00     0.188 C 
BRANCH   2   3
ATOM      3  O   UNL     1      -4.069  -9.108  -7.099  1.00  0.00    -0.376 OA
BRANCH   3   4
ATOM      4  C   UNL     1      -4.869  -8.460  -8.068  1.00  0.00     0.202 C 
BRANCH   4   5
ATOM      5  C   UNL     1      -4.443  -7.095  -8.632  1.00  0.00     0.261 C 
BRANCH   5   6
ATOM      6  O   UNL     1      -3.903  -6.162  -7.694  1.00  0.00    -0.460 OA
BRANCH   6   7
ATOM      7  C   UNL     1      -4.772  -5.551  -6.861  1.00  0.00     0.338 C 
ATOM      8  O   UNL     1      -5.983  -5.686  -6.847  1.00  0.00    -0.246 OA
BRANCH   7   9
ATOM      9  C   UNL     1      -3.989  -4.839  -5.819  1.00  0.00     0.060 A 
ATOM     10  C   UNL     1      -2.594  -3.481  -3.807  1.00  0.00     0.125 A 
ATOM     11  C   UNL     1      -3.766  -4.176  -3.501  1.00  0.00     0.052 A 
ATOM     12  C   UNL     1      -2.058  -3.576  -5.098  1.00  0.00     0.052 A 
ATOM     13  C   UNL     1      -4.469  -4.848  -4.504  1.00  0.00     0.020 A 
ATOM     14  C   UNL     1      -2.763  -4.230  -6.110  1.00  0.00     0.020 A 
BRANCH  10  15
ATOM     15  N   UNL     1      -2.030  -2.637  -2.834  1.00  0.00    -0.234 N 
ATOM     16  N   UNL     1      -1.650  -0.427  -2.115  1.00  0.00    -0.182 N 
ATOM     17  C   UNL     1      -1.712   0.900  -2.504  1.00  0.00     0.349 C 
ATOM     18  C   UNL     1      -2.125  -1.355  -3.006  1.00  0.00     0.324 C 
ATOM     19  O   UNL     1      -1.379   1.874  -1.843  1.00  0.00    -0.240 OA
ATOM     20  C   UNL     1      -2.297   1.002  -3.869  1.00  0.00     0.111 C 
ATOM     21  S   UNL     1      -2.875  -0.534  -4.362  1.00  0.00     0.007 SA
ATOM     22  C   UNL     1      -2.313   2.130  -4.590  1.00  0.00     0.052 C 
ATOM     23  H   UNL     1      -1.575  -3.009  -2.044  1.00  0.00     0.313 HD
BRANCH  16  24
ATOM     24  C   UNL     1      -1.189  -0.785  -0.790  1.00  0.00     0.275 C 
BRANCH  24  25
ATOM     25  C   UNL     1       0.310  -0.819  -0.760  1.00  0.00     0.011 C 
ATOM     26  C   UNL     1       1.059  -0.006  -0.002  1.00  0.00     0.008 C 
ENDBRANCH  24  25
ENDBRANCH  16  24
BRANCH  22  27
ATOM     27  C   UNL     1      -2.866   2.244  -5.942  1.00  0.00     0.064 A 
ATOM     28  C   UNL     1      -4.212   2.003  -6.206  1.00  0.00     0.028 A 
ATOM     29  N   UNL     1      -1.982   2.594  -6.902  1.00  0.00    -0.257 NA
ATOM     30  C   UNL     1      -4.664   2.083  -7.520  1.00  0.00     0.004 A 
ATOM     31  C   UNL     1      -2.450   2.664  -8.169  1.00  0.00     0.111 A 
ATOM     32  C   UNL     1      -3.765   2.415  -8.525  1.00  0.00     0.020 A 
ENDBRANCH  22  27
ENDBRANCH  10  15
ENDBRANCH   7   9
ENDBRANCH   6   7
ENDBRANCH   5   6
ENDBRANCH   4   5
ENDBRANCH   3   4
ENDBRANCH   2   3
ENDBRANCH   1   2
BRANCH   1  33
ATOM     33  O   UNL     1      -1.544  -7.942  -7.046  1.00  0.00    -0.377 OA
BRANCH  33  34
ATOM     34  C   UNL     1      -1.411  -9.143  -7.804  1.00  0.00     0.188 C 
BRANCH  34  35
ATOM     35  C   UNL     1      -1.743 -10.542  -7.226  1.00  0.00     0.188 C 
BRANCH  35  36
ATOM     36  O   UNL     1      -1.893 -10.590  -5.819  1.00  0.00    -0.376 OA
BRANCH  36  37
ATOM     37  C   UNL     1      -0.869 -11.205  -5.060  1.00  0.00     0.202 C 
BRANCH  37  38
ATOM     38  C   UNL     1       0.508 -10.528  -5.089  1.00  0.00     0.261 C 
BRANCH  38  39
ATOM     39  O   UNL     1       1.067 -10.302  -6.393  1.00  0.00    -0.460 OA
BRANCH  39  40
ATOM     40  C   UNL     1       1.401 -11.392  -7.111  1.00  0.00     0.338 C 
ATOM     41  O   UNL     1       1.297 -12.562  -6.771  1.00  0.00    -0.246 OA
BRANCH  40  42
ATOM     42  C   UNL     1       1.747 -10.953  -8.477  1.00  0.00     0.060 A 
ATOM     43  C   UNL     1       1.000 -11.445  -9.555  1.00  0.00     0.016 A 
ATOM     44  C   UNL     1       2.804 -10.066  -8.694  1.00  0.00     0.016 A 
ATOM     45  C   UNL     1       1.341 -11.089 -10.858  1.00  0.00     0.010 A 
ATOM     46  C   UNL     1       3.156  -9.724 -10.003  1.00  0.00     0.010 A 
ATOM     47  C   UNL     1       2.452 -10.266 -11.092  1.00  0.00    -0.014 A 
BRANCH  47  48
ATOM     48  C   UNL     1       2.981 -10.142 -12.473  1.00  0.00     0.031 A 
ATOM     49  C   UNL     1       4.150 -11.000 -12.873  1.00  0.00     0.074 A 
ATOM     50  C   UNL     1       2.399  -9.329 -13.372  1.00  0.00     0.049 A 
ATOM     51  N   UNL     1       4.771 -11.081 -14.023  1.00  0.00    -0.248 NA
ATOM     52  C   UNL     1       4.692 -11.890 -11.834  1.00  0.00     0.031 C 
ATOM     53  C   UNL     1       1.239  -8.479 -13.117  1.00  0.00     0.029 A 
ATOM     54  N   UNL     1       2.710  -9.092 -14.688  1.00  0.00    -0.354 N 
ATOM     55  C   UNL     1       5.773 -12.027 -13.844  1.00  0.00     0.074 A 
ATOM     56  C   UNL     1       5.705 -12.461 -12.466  1.00  0.00     0.031 C 
ATOM     57  C   UNL     1       0.935  -7.811 -14.243  1.00  0.00     0.029 A 
ATOM     58  C   UNL     1       1.896  -8.163 -15.287  1.00  0.00     0.049 A 
ATOM     59  H   UNL     1       3.447  -9.546 -15.158  1.00  0.00     0.167 HD
ATOM     60  C   UNL     1       6.660 -12.501 -14.750  1.00  0.00     0.037 A 
ATOM     61  C   UNL     1       1.936  -7.647 -16.531  1.00  0.00     0.037 A 
ATOM     62  C   UNL     1       6.730 -12.061 -16.119  1.00  0.00     0.049 A 
ATOM     63  C   UNL     1       2.985  -8.136 -17.499  1.00  0.00     0.074 A 
ATOM     64  C   UNL     1       7.586 -12.486 -17.120  1.00  0.00     0.029 A 
ATOM     65  N   UNL     1       5.917 -11.085 -16.678  1.00  0.00    -0.354 N 
ATOM     66  N   UNL     1       3.909  -9.052 -17.333  1.00  0.00    -0.248 NA
ATOM     67  C   UNL     1       2.986  -7.523 -18.835  1.00  0.00     0.031 C 
ATOM     68  C   UNL     1       7.335 -11.723 -18.265  1.00  0.00     0.029 A 
ATOM     69  C   UNL     1       6.272 -10.873 -18.002  1.00  0.00     0.049 A 
ATOM     70  H   UNL     1       5.195 -10.612 -16.204  1.00  0.00     0.167 HD
ATOM     71  C   UNL     1       4.577  -9.148 -18.548  1.00  0.00     0.074 A 
ATOM     72  C   UNL     1       3.937  -8.212 -19.448  1.00  0.00     0.031 C 
ATOM     73  C   UNL     1       5.625  -9.940 -18.889  1.00  0.00     0.037 A 
BRANCH  60  74
ATOM     74  C   UNL     1       7.650 -13.528 -14.279  1.00  0.00     0.064 A 
ATOM     75  C   UNL     1       7.259 -14.832 -13.935  1.00  0.00     0.173 A 
ATOM     76  C   UNL     1       9.015 -13.212 -14.197  1.00  0.00     0.173 A 
ATOM     77  F   UNL     1       5.965 -15.183 -13.981  1.00  0.00    -0.203 F 
ATOM     78  C   UNL     1       8.193 -15.769 -13.499  1.00  0.00     0.198 A 
ATOM     79  C   UNL     1       9.950 -14.162 -13.793  1.00  0.00     0.198 A 
ATOM     80  F   UNL     1       9.445 -11.982 -14.516  1.00  0.00    -0.203 F 
ATOM     81  F   UNL     1       7.788 -16.991 -13.124  1.00  0.00    -0.200 F 
ATOM     82  C   UNL     1       9.537 -15.436 -13.436  1.00  0.00     0.200 A 
ATOM     83  F   UNL     1      11.250 -13.842 -13.748  1.00  0.00    -0.200 F 
ATOM     84  F   UNL     1      10.435 -16.342 -13.025  1.00  0.00    -0.200 F 
ENDBRANCH  60  74
BRANCH  61  85
ATOM     85  C   UNL     1       0.958  -6.603 -16.939  1.00  0.00     0.064 A 
ATOM     86  C   UNL     1      -0.001  -6.852 -17.931  1.00  0.00     0.173 A 
ATOM     87  C   UNL     1       0.983  -5.322 -16.366  1.00  0.00     0.173 A 
ATOM     88  F   UNL     1      -0.049  -8.052 -18.529  1.00  0.00    -0.203 F 
ATOM     89  C   UNL     1      -0.878  -5.854 -18.353  1.00  0.00     0.198 A 
ATOM     90  C   UNL     1       0.082  -4.336 -16.764  1.00  0.00     0.198 A 
ATOM     91  F   UNL     1       1.881  -5.028 -15.415  1.00  0.00    -0.203 F 
ATOM     92  F   UNL     1      -1.745  -6.103 -19.344  1.00  0.00    -0.200 F 
ATOM     93  C   UNL     1      -0.840  -4.599 -17.765  1.00  0.00     0.200 A 
ATOM     94  F   UNL     1       0.114  -3.129 -16.183  1.00  0.00    -0.200 F 
ATOM     95  F   UNL     1      -1.685  -3.641 -18.169  1.00  0.00    -0.200 F 
ENDBRANCH  61  85
BRANCH  73  96
ATOM     96  C   UNL     1       6.117  -9.860 -20.309  1.00  0.00     0.064 A 
ATOM     97  C   UNL     1       6.756  -8.716 -20.811  1.00  0.00     0.173 A 
ATOM     98  C   UNL     1       5.957 -10.952 -21.177  1.00  0.00     0.173 A 
ATOM     99  F   UNL     1       6.926  -7.639 -20.030  1.00  0.00    -0.203 F 
ATOM    100  C   UNL     1       7.174  -8.652 -22.139  1.00  0.00     0.198 A 
ATOM    101  C   UNL     1       6.412 -10.900 -22.491  1.00  0.00     0.198 A 
ATOM    102  F   UNL     1       5.364 -12.077 -20.748  1.00  0.00    -0.203 F 
ATOM    103  F   UNL     1       7.718  -7.523 -22.614  1.00  0.00    -0.200 F 
ATOM    104  C   UNL     1       7.007  -9.746 -22.976  1.00  0.00     0.200 A 
ATOM    105  F   UNL     1       6.267 -11.965 -23.292  1.00  0.00    -0.200 F 
ATOM    106  F   UNL     1       7.410  -9.682 -24.252  1.00  0.00    -0.200 F 
ENDBRANCH  73  96
ENDBRANCH  47  48
ENDBRANCH  40  42
ENDBRANCH  39  40
ENDBRANCH  38  39
ENDBRANCH  37  38
ENDBRANCH  36  37
ENDBRANCH  35  36
ENDBRANCH  34  35
ENDBRANCH  33  34
ENDBRANCH   1  33
TORSDOF 24
