REMARK SMILES CCOc1cc(C=O)ccc1OCc1ccc(C(=O)OCCOCCOCCOCCOC(=O)c2ccc(-c3c4nc(c(-c5c(F)c(F)c(F)c(F)c5F)c5ccc([nH]5)c(-c5c(F)c(F)c(F)c(F)c5F)c5nc(c(-c6c(F)c(F)c(F)c(F)c6F)c6ccc3[nH]6)C=C5)C=C4)cc2)cc1
REMARK SMILES IDX 24 1 23 2 22 3 21 4 20 5 18 6 19 7 17 8 14 9 15 10 99 11
REMARK SMILES IDX 16 12 98 13 13 14 12 15 11 16 4 17 5 18 6 19 10 20 9 21 3 22
REMARK SMILES IDX 2 23 1 24 7 25 8 26 25 27 26 28 27 29 28 30 29 31 30 32
REMARK SMILES IDX 31 33 32 34 33 35 34 36 35 37 36 38 97 39 37 40 96 41 38 42
REMARK SMILES IDX 39 43 40 44 90 45 41 46 95 47 89 48 91 49 42 50 94 51 88 52
REMARK SMILES IDX 87 53 43 55 75 56 55 57 74 58 56 59 59 60 73 61 92 62 57 63
REMARK SMILES IDX 58 64 72 66 93 67 60 68 44 69 45 70 53 71 46 72 47 73 51 74
REMARK SMILES IDX 54 75 48 76 49 77 52 78 50 79 76 80 77 81 85 82 78 83 79 84
REMARK SMILES IDX 83 85 86 86 80 87 81 88 84 89 82 90 61 91 62 92 70 93 63 94
REMARK SMILES IDX 64 95 68 96 71 97 65 98 66 99 69 100 67 101
REMARK H PARENT 91 54 59 65
REMARK Flexibility Score: inf
ROOT
ATOM      1  C   UNL     1      -1.189  -2.400  -5.745  1.00  0.00     0.188 C 
ENDROOT
BRANCH   1   2
ATOM      2  O   UNL     1      -0.981  -3.231  -6.871  1.00  0.00    -0.376 OA
BRANCH   2   3
ATOM      3  C   UNL     1       0.262  -3.221  -7.540  1.00  0.00     0.202 C 
BRANCH   3   4
ATOM      4  C   UNL     1       1.470  -3.720  -6.742  1.00  0.00     0.261 C 
BRANCH   4   5
ATOM      5  O   UNL     1       1.678  -3.079  -5.479  1.00  0.00    -0.460 OA
BRANCH   5   6
ATOM      6  C   UNL     1       1.958  -1.755  -5.523  1.00  0.00     0.338 C 
ATOM      7  O   UNL     1       2.022  -1.052  -6.510  1.00  0.00    -0.246 OA
BRANCH   6   8
ATOM      8  C   UNL     1       2.056  -1.251  -4.138  1.00  0.00     0.060 A 
ATOM      9  C   UNL     1       2.428  -0.172  -1.556  1.00  0.00    -0.011 A 
ATOM     10  C   UNL     1       1.656   0.503  -2.521  1.00  0.00     0.008 A 
ATOM     11  C   UNL     1       2.963  -1.419  -1.916  1.00  0.00     0.008 A 
ATOM     12  C   UNL     1       1.489  -0.018  -3.809  1.00  0.00     0.016 A 
ATOM     13  C   UNL     1       2.754  -1.974  -3.178  1.00  0.00     0.016 A 
BRANCH   9  14
ATOM     14  C   UNL     1       2.602   0.495  -0.188  1.00  0.00     0.265 C 
BRANCH  14  15
ATOM     15  O   UNL     1       3.569   0.012   0.754  1.00  0.00    -0.485 OA
BRANCH  15  16
ATOM     16  C   UNL     1       3.518  -1.304   1.124  1.00  0.00     0.161 A 
ATOM     17  C   UNL     1       2.362  -2.094   1.238  1.00  0.00     0.161 A 
ATOM     18  C   UNL     1       2.496  -3.485   1.302  1.00  0.00     0.062 A 
ATOM     19  C   UNL     1       3.782  -4.057   1.312  1.00  0.00     0.018 A 
ATOM     20  C   UNL     1       4.788  -1.877   1.246  1.00  0.00     0.051 A 
ATOM     21  C   UNL     1       4.926  -3.256   1.333  1.00  0.00     0.015 A 
BRANCH  17  22
ATOM     22  O   UNL     1       1.169  -1.450   1.402  1.00  0.00    -0.490 OA
BRANCH  22  23
ATOM     23  C   UNL     1       0.090  -1.833   0.547  1.00  0.00     0.226 C 
ATOM     24  C   UNL     1      -0.839  -0.624   0.453  1.00  0.00     0.049 C 
ENDBRANCH  22  23
ENDBRANCH  17  22
BRANCH  19  25
ATOM     25  C   UNL     1       3.976  -5.521   1.279  1.00  0.00     0.260 C 
ATOM     26  O   UNL     1       3.045  -6.300   1.129  1.00  0.00    -0.298 OA
ENDBRANCH  19  25
ENDBRANCH  15  16
ENDBRANCH  14  15
ENDBRANCH   9  14
ENDBRANCH   6   8
ENDBRANCH   5   6
ENDBRANCH   4   5
ENDBRANCH   3   4
ENDBRANCH   2   3
ENDBRANCH   1   2
BRANCH   1  27
ATOM     27  C   UNL     1      -1.316  -3.146  -4.395  1.00  0.00     0.188 C 
BRANCH  27  28
ATOM     28  O   UNL     1      -1.354  -4.567  -4.293  1.00  0.00    -0.377 OA
BRANCH  28  29
ATOM     29  C   UNL     1      -1.655  -5.371  -5.425  1.00  0.00     0.188 C 
BRANCH  29  30
ATOM     30  C   UNL     1      -2.898  -5.027  -6.272  1.00  0.00     0.188 C 
BRANCH  30  31
ATOM     31  O   UNL     1      -3.555  -3.850  -5.840  1.00  0.00    -0.376 OA
BRANCH  31  32
ATOM     32  C   UNL     1      -4.790  -3.982  -5.166  1.00  0.00     0.202 C 
BRANCH  32  33
ATOM     33  C   UNL     1      -4.847  -4.835  -3.890  1.00  0.00     0.261 C 
BRANCH  33  34
ATOM     34  O   UNL     1      -4.214  -6.121  -3.937  1.00  0.00    -0.460 OA
BRANCH  34  35
ATOM     35  C   UNL     1      -4.796  -7.079  -4.693  1.00  0.00     0.338 C 
ATOM     36  O   UNL     1      -5.801  -6.982  -5.364  1.00  0.00    -0.246 OA
BRANCH  35  37
ATOM     37  C   UNL     1      -3.873  -8.237  -4.708  1.00  0.00     0.060 A 
ATOM     38  C   UNL     1      -3.312  -8.656  -5.922  1.00  0.00     0.016 A 
ATOM     39  C   UNL     1      -3.554  -8.891  -3.517  1.00  0.00     0.016 A 
ATOM     40  C   UNL     1      -2.450  -9.753  -5.950  1.00  0.00     0.010 A 
ATOM     41  C   UNL     1      -2.711 -10.003  -3.549  1.00  0.00     0.010 A 
ATOM     42  C   UNL     1      -2.182 -10.459  -4.770  1.00  0.00    -0.014 A 
BRANCH  42  43
ATOM     43  C   UNL     1      -1.520 -11.784  -4.833  1.00  0.00     0.031 A 
ATOM     44  C   UNL     1      -2.386 -13.012  -4.792  1.00  0.00     0.074 A 
ATOM     45  C   UNL     1      -0.184 -11.899  -4.930  1.00  0.00     0.049 A 
ATOM     46  N   UNL     1      -2.045 -14.274  -4.759  1.00  0.00    -0.248 NA
ATOM     47  C   UNL     1      -3.840 -12.780  -4.781  1.00  0.00     0.031 C 
ATOM     48  C   UNL     1       0.756 -10.785  -5.020  1.00  0.00     0.029 A 
ATOM     49  N   UNL     1       0.612 -13.017  -4.955  1.00  0.00    -0.354 N 
ATOM     50  C   UNL     1      -3.237 -14.984  -4.714  1.00  0.00     0.074 A 
ATOM     51  C   UNL     1      -4.310 -14.014  -4.690  1.00  0.00     0.031 C 
ATOM     52  C   UNL     1       2.007 -11.275  -5.075  1.00  0.00     0.029 A 
ATOM     53  C   UNL     1       1.955 -12.734  -4.986  1.00  0.00     0.049 A 
ATOM     54  H   UNL     1       0.254 -13.934  -4.952  1.00  0.00     0.167 HD
ATOM     55  C   UNL     1      -3.420 -16.325  -4.701  1.00  0.00     0.037 A 
ATOM     56  C   UNL     1       3.017 -13.562  -4.919  1.00  0.00     0.037 A 
ATOM     57  C   UNL     1      -2.348 -17.285  -4.719  1.00  0.00     0.049 A 
ATOM     58  C   UNL     1       2.788 -15.050  -4.820  1.00  0.00     0.074 A 
ATOM     59  C   UNL     1      -2.427 -18.666  -4.724  1.00  0.00     0.029 A 
ATOM     60  N   UNL     1      -0.999 -16.960  -4.721  1.00  0.00    -0.354 N 
ATOM     61  N   UNL     1       1.660 -15.719  -4.806  1.00  0.00    -0.248 NA
ATOM     62  C   UNL     1       3.984 -15.901  -4.732  1.00  0.00     0.031 C 
ATOM     63  C   UNL     1      -1.127 -19.177  -4.663  1.00  0.00     0.029 A 
ATOM     64  C   UNL     1      -0.236 -18.116  -4.697  1.00  0.00     0.049 A 
ATOM     65  H   UNL     1      -0.638 -16.045  -4.737  1.00  0.00     0.167 HD
ATOM     66  C   UNL     1       2.009 -17.063  -4.746  1.00  0.00     0.074 A 
ATOM     67  C   UNL     1       3.456 -17.116  -4.737  1.00  0.00     0.031 C 
ATOM     68  C   UNL     1       1.205 -18.154  -4.704  1.00  0.00     0.037 A 
BRANCH  55  69
ATOM     69  C   UNL     1      -4.832 -16.832  -4.632  1.00  0.00     0.064 A 
ATOM     70  C   UNL     1      -5.725 -16.690  -5.706  1.00  0.00     0.173 A 
ATOM     71  C   UNL     1      -5.290 -17.495  -3.483  1.00  0.00     0.173 A 
ATOM     72  F   UNL     1      -5.343 -16.051  -6.822  1.00  0.00    -0.203 F 
ATOM     73  C   UNL     1      -7.030 -17.167  -5.620  1.00  0.00     0.198 A 
ATOM     74  C   UNL     1      -6.585 -18.002  -3.415  1.00  0.00     0.198 A 
ATOM     75  F   UNL     1      -4.479 -17.661  -2.428  1.00  0.00    -0.203 F 
ATOM     76  F   UNL     1      -7.881 -16.973  -6.638  1.00  0.00    -0.200 F 
ATOM     77  C   UNL     1      -7.457 -17.830  -4.479  1.00  0.00     0.200 A 
ATOM     78  F   UNL     1      -6.990 -18.655  -2.317  1.00  0.00    -0.200 F 
ATOM     79  F   UNL     1      -8.710 -18.297  -4.402  1.00  0.00    -0.200 F 
ENDBRANCH  55  69
BRANCH  56  80
ATOM     80  C   UNL     1       4.398 -13.007  -4.928  1.00  0.00     0.064 A 
ATOM     81  C   UNL     1       5.271 -13.256  -5.997  1.00  0.00     0.173 A 
ATOM     82  C   UNL     1       4.884 -12.243  -3.856  1.00  0.00     0.173 A 
ATOM     83  F   UNL     1       4.864 -14.004  -7.033  1.00  0.00    -0.203 F 
ATOM     84  C   UNL     1       6.581 -12.781  -5.983  1.00  0.00     0.198 A 
ATOM     85  C   UNL     1       6.183 -11.741  -3.859  1.00  0.00     0.198 A 
ATOM     86  F   UNL     1       4.093 -11.980  -2.806  1.00  0.00    -0.203 F 
ATOM     87  F   UNL     1       7.410 -13.081  -6.992  1.00  0.00    -0.200 F 
ATOM     88  C   UNL     1       7.034 -12.019  -4.917  1.00  0.00     0.200 A 
ATOM     89  F   UNL     1       6.613 -10.993  -2.833  1.00  0.00    -0.200 F 
ATOM     90  F   UNL     1       8.294 -11.561  -4.905  1.00  0.00    -0.200 F 
ENDBRANCH  56  80
BRANCH  68  91
ATOM     91  C   UNL     1       1.865 -19.506  -4.704  1.00  0.00     0.064 A 
ATOM     92  C   UNL     1       2.583 -19.983  -3.598  1.00  0.00     0.173 A 
ATOM     93  C   UNL     1       1.732 -20.356  -5.813  1.00  0.00     0.173 A 
ATOM     94  F   UNL     1       2.752 -19.207  -2.516  1.00  0.00    -0.203 F 
ATOM     95  C   UNL     1       3.168 -21.247  -3.614  1.00  0.00     0.198 A 
ATOM     96  C   UNL     1       2.285 -21.633  -5.812  1.00  0.00     0.198 A 
ATOM     97  F   UNL     1       1.046 -19.955  -6.895  1.00  0.00    -0.203 F 
ATOM     98  F   UNL     1       3.895 -21.660  -2.567  1.00  0.00    -0.200 F 
ATOM     99  C   UNL     1       3.011 -22.074  -4.716  1.00  0.00     0.200 A 
ATOM    100  F   UNL     1       2.115 -22.437  -6.870  1.00  0.00    -0.200 F 
ATOM    101  F   UNL     1       3.565 -23.294  -4.725  1.00  0.00    -0.200 F 
ENDBRANCH  68  91
ENDBRANCH  42  43
ENDBRANCH  35  37
ENDBRANCH  34  35
ENDBRANCH  33  34
ENDBRANCH  32  33
ENDBRANCH  31  32
ENDBRANCH  30  31
ENDBRANCH  29  30
ENDBRANCH  28  29
ENDBRANCH  27  28
ENDBRANCH   1  27
TORSDOF 26
