REMARK SMILES O=C(OCCOCCOCCOCCOC(=O)[C@H](c1c[nH]c2ccc(Br)cc12)[N@H+]1CCC[C@H](c2nc3ccccc3s2)C1)c1ccc(-c2c3nc(c(-c4c(F)c(F)c(F)c(F)c4F)c4ccc([nH]4)c(-c4c(F)c(F)c(F)c(F)c4F)c4nc(c(-c5c(F)c(F)c(F)c(F)c5F)c5ccc2[nH]5)C=C4)C=C3)cc1
REMARK SMILES IDX 9 1 8 2 7 3 6 4 5 5 4 6 3 7 2 8 1 9 44 10 45 11 106 12 46 13
REMARK SMILES IDX 105 14 47 15 48 16 49 17 99 18 50 19 104 20 98 21 100 22
REMARK SMILES IDX 51 23 103 24 97 25 96 26 52 28 84 29 64 30 83 31 65 32 68 33
REMARK SMILES IDX 82 34 101 35 66 36 67 37 81 39 102 40 69 41 53 42 54 43
REMARK SMILES IDX 62 44 55 45 56 46 60 47 63 48 57 49 58 50 61 51 59 52 85 53
REMARK SMILES IDX 86 54 94 55 87 56 88 57 92 58 95 59 89 60 90 61 93 62 91 63
REMARK SMILES IDX 70 64 71 65 79 66 72 67 73 68 77 69 80 70 74 71 75 72 78 73
REMARK SMILES IDX 76 74 10 75 11 76 12 77 13 78 14 79 15 80 16 81 17 82 18 83
REMARK SMILES IDX 29 84 30 85 43 86 31 88 33 89 32 90 34 91 35 92 42 93 36 94
REMARK SMILES IDX 41 95 37 96 40 97 38 98 39 99 19 100 20 101 28 102 21 103
REMARK SMILES IDX 22 104 27 105 23 107 25 108 24 109 26 110
REMARK H PARENT 100 27 68 38 29 87 21 106
REMARK Flexibility Score: inf
ROOT
ATOM      1  O   UNL     1       6.395  -0.861  -2.814  1.00  0.00    -0.377 OA
ENDROOT
BRANCH   1   2
ATOM      2  C   UNL     1       6.139  -1.983  -2.005  1.00  0.00     0.188 C 
BRANCH   2   3
ATOM      3  C   UNL     1       5.681  -1.616  -0.606  1.00  0.00     0.188 C 
BRANCH   3   4
ATOM      4  O   UNL     1       4.600  -0.697  -0.569  1.00  0.00    -0.376 OA
BRANCH   4   5
ATOM      5  C   UNL     1       4.854   0.630  -0.128  1.00  0.00     0.202 C 
BRANCH   5   6
ATOM      6  C   UNL     1       5.153   0.772   1.359  1.00  0.00     0.261 C 
BRANCH   6   7
ATOM      7  O   UNL     1       5.501  -0.430   2.070  1.00  0.00    -0.460 OA
BRANCH   7   8
ATOM      8  C   UNL     1       4.869  -1.600   2.295  1.00  0.00     0.338 C 
ATOM      9  O   UNL     1       5.542  -2.529   2.745  1.00  0.00    -0.246 OA
BRANCH   8  10
ATOM     10  C   UNL     1       3.413  -1.864   2.081  1.00  0.00     0.060 A 
ATOM     11  C   UNL     1       2.559  -1.143   1.251  1.00  0.00     0.016 A 
ATOM     12  C   UNL     1       2.876  -2.975   2.761  1.00  0.00     0.016 A 
ATOM     13  C   UNL     1       1.226  -1.482   1.099  1.00  0.00     0.010 A 
ATOM     14  C   UNL     1       1.520  -3.297   2.666  1.00  0.00     0.010 A 
ATOM     15  C   UNL     1       0.690  -2.507   1.867  1.00  0.00    -0.014 A 
BRANCH  15  16
ATOM     16  C   UNL     1      -0.765  -2.443   2.072  1.00  0.00     0.031 A 
ATOM     17  C   UNL     1      -1.232  -1.757   3.324  1.00  0.00     0.074 A 
ATOM     18  C   UNL     1      -1.601  -2.745   1.067  1.00  0.00     0.049 A 
ATOM     19  N   UNL     1      -2.441  -1.567   3.772  1.00  0.00    -0.248 NA
ATOM     20  C   UNL     1      -0.180  -1.179   4.184  1.00  0.00     0.031 C 
ATOM     21  C   UNL     1      -1.190  -3.207  -0.261  1.00  0.00     0.029 A 
ATOM     22  N   UNL     1      -2.962  -2.652   0.985  1.00  0.00    -0.354 N 
ATOM     23  C   UNL     1      -2.288  -0.905   4.984  1.00  0.00     0.074 A 
ATOM     24  C   UNL     1      -0.877  -0.711   5.204  1.00  0.00     0.031 C 
ATOM     25  C   UNL     1      -2.281  -3.337  -1.034  1.00  0.00     0.029 A 
ATOM     26  C   UNL     1      -3.462  -3.049  -0.229  1.00  0.00     0.049 A 
ATOM     27  H   UNL     1      -3.527  -2.332   1.725  1.00  0.00     0.167 HD
ATOM     28  C   UNL     1      -3.257  -0.512   5.840  1.00  0.00     0.037 A 
ATOM     29  C   UNL     1      -4.743  -3.197  -0.610  1.00  0.00     0.037 A 
ATOM     30  C   UNL     1      -4.652  -0.708   5.562  1.00  0.00     0.049 A 
ATOM     31  C   UNL     1      -5.805  -2.865   0.406  1.00  0.00     0.074 A 
ATOM     32  C   UNL     1      -5.745  -0.445   6.360  1.00  0.00     0.029 A 
ATOM     33  N   UNL     1      -5.136  -1.223   4.363  1.00  0.00    -0.354 N 
ATOM     34  N   UNL     1      -5.669  -2.356   1.610  1.00  0.00    -0.248 NA
ATOM     35  C   UNL     1      -7.192  -3.142   0.024  1.00  0.00     0.031 C 
ATOM     36  C   UNL     1      -6.889  -0.854   5.665  1.00  0.00     0.029 A 
ATOM     37  C   UNL     1      -6.514  -1.304   4.406  1.00  0.00     0.049 A 
ATOM     38  H   UNL     1      -4.578  -1.490   3.597  1.00  0.00     0.167 HD
ATOM     39  C   UNL     1      -6.952  -2.224   2.120  1.00  0.00     0.074 A 
ATOM     40  C   UNL     1      -7.852  -2.693   1.082  1.00  0.00     0.031 C 
ATOM     41  C   UNL     1      -7.359  -1.763   3.330  1.00  0.00     0.037 A 
BRANCH  28  42
ATOM     42  C   UNL     1      -2.818   0.040   7.165  1.00  0.00     0.064 A 
ATOM     43  C   UNL     1      -2.186   1.287   7.295  1.00  0.00     0.173 A 
ATOM     44  C   UNL     1      -2.970  -0.738   8.323  1.00  0.00     0.173 A 
ATOM     45  F   UNL     1      -1.978   2.055   6.215  1.00  0.00    -0.203 F 
ATOM     46  C   UNL     1      -1.692   1.715   8.526  1.00  0.00     0.198 A 
ATOM     47  C   UNL     1      -2.504  -0.293   9.557  1.00  0.00     0.198 A 
ATOM     48  F   UNL     1      -3.551  -1.945   8.255  1.00  0.00    -0.203 F 
ATOM     49  F   UNL     1      -1.025   2.875   8.612  1.00  0.00    -0.200 F 
ATOM     50  C   UNL     1      -1.855   0.928   9.656  1.00  0.00     0.200 A 
ATOM     51  F   UNL     1      -2.664  -1.057  10.647  1.00  0.00    -0.200 F 
ATOM     52  F   UNL     1      -1.369   1.336  10.837  1.00  0.00    -0.200 F 
ENDBRANCH  28  42
BRANCH  29  53
ATOM     53  C   UNL     1      -5.079  -3.734  -1.956  1.00  0.00     0.064 A 
ATOM     54  C   UNL     1      -5.808  -2.978  -2.885  1.00  0.00     0.173 A 
ATOM     55  C   UNL     1      -4.697  -5.031  -2.338  1.00  0.00     0.173 A 
ATOM     56  F   UNL     1      -6.214  -1.740  -2.569  1.00  0.00    -0.203 F 
ATOM     57  C   UNL     1      -6.160  -3.504  -4.128  1.00  0.00     0.198 A 
ATOM     58  C   UNL     1      -5.020  -5.544  -3.593  1.00  0.00     0.198 A 
ATOM     59  F   UNL     1      -4.002  -5.805  -1.492  1.00  0.00    -0.203 F 
ATOM     60  F   UNL     1      -6.904  -2.778  -4.974  1.00  0.00    -0.200 F 
ATOM     61  C   UNL     1      -5.762  -4.784  -4.483  1.00  0.00     0.200 A 
ATOM     62  F   UNL     1      -4.619  -6.776  -3.935  1.00  0.00    -0.200 F 
ATOM     63  F   UNL     1      -6.103  -5.289  -5.676  1.00  0.00    -0.200 F 
ENDBRANCH  29  53
BRANCH  41  64
ATOM     64  C   UNL     1      -8.838  -1.684   3.555  1.00  0.00     0.064 A 
ATOM     65  C   UNL     1      -9.623  -2.832   3.726  1.00  0.00     0.173 A 
ATOM     66  C   UNL     1      -9.463  -0.432   3.644  1.00  0.00     0.173 A 
ATOM     67  F   UNL     1      -9.068  -4.050   3.636  1.00  0.00    -0.203 F 
ATOM     68  C   UNL     1     -10.993  -2.729   3.942  1.00  0.00     0.198 A 
ATOM     69  C   UNL     1     -10.825  -0.332   3.900  1.00  0.00     0.198 A 
ATOM     70  F   UNL     1      -8.749   0.695   3.498  1.00  0.00    -0.203 F 
ATOM     71  F   UNL     1     -11.738  -3.838   4.041  1.00  0.00    -0.200 F 
ATOM     72  C   UNL     1     -11.591  -1.480   4.037  1.00  0.00     0.200 A 
ATOM     73  F   UNL     1     -11.397   0.874   4.012  1.00  0.00    -0.200 F 
ATOM     74  F   UNL     1     -12.909  -1.383   4.255  1.00  0.00    -0.200 F 
ENDBRANCH  41  64
ENDBRANCH  15  16
ENDBRANCH   8  10
ENDBRANCH   7   8
ENDBRANCH   6   7
ENDBRANCH   5   6
ENDBRANCH   4   5
ENDBRANCH   3   4
ENDBRANCH   2   3
ENDBRANCH   1   2
BRANCH   1  75
ATOM     75  C   UNL     1       5.293  -0.061  -3.223  1.00  0.00     0.188 C 
BRANCH  75  76
ATOM     76  C   UNL     1       3.804  -0.495  -3.157  1.00  0.00     0.188 C 
BRANCH  76  77
ATOM     77  O   UNL     1       3.585  -1.894  -3.181  1.00  0.00    -0.376 OA
BRANCH  77  78
ATOM     78  C   UNL     1       3.131  -2.446  -4.406  1.00  0.00     0.202 C 
BRANCH  78  79
ATOM     79  C   UNL     1       4.135  -2.430  -5.569  1.00  0.00     0.261 C 
BRANCH  79  80
ATOM     80  O   UNL     1       4.746  -1.171  -5.911  1.00  0.00    -0.459 OA
BRANCH  80  81
ATOM     81  C   UNL     1       3.934  -0.100  -6.159  1.00  0.00     0.370 C 
ATOM     82  O   UNL     1       2.704  -0.181  -6.148  1.00  0.00    -0.245 OA
BRANCH  81  83
ATOM     83  C   UNL     1       4.798   1.205  -6.354  1.00  0.00     0.328 C 
BRANCH  83  84
ATOM     84  N   UNL     1       4.619   1.677  -7.728  1.00  0.00    -0.319 N 
ATOM     85  C   UNL     1       5.163   2.985  -8.059  1.00  0.00     0.263 C 
ATOM     86  C   UNL     1       5.042   0.665  -8.718  1.00  0.00     0.274 C 
ATOM     87  H   UNL     1       3.610   1.816  -7.781  1.00  0.00     0.349 HD
ATOM     88  C   UNL     1       4.564   3.415  -9.401  1.00  0.00     0.062 C 
ATOM     89  C   UNL     1       4.369   0.952 -10.073  1.00  0.00     0.104 C 
ATOM     90  C   UNL     1       4.774   2.372 -10.503  1.00  0.00     0.022 C 
BRANCH  89  91
ATOM     91  C   UNL     1       2.866   0.733  -9.967  1.00  0.00     0.103 A 
ATOM     92  N   UNL     1       2.271   0.342  -8.862  1.00  0.00    -0.241 NA
ATOM     93  S   UNL     1       1.810   0.903 -11.311  1.00  0.00    -0.118 S 
ATOM     94  C   UNL     1       0.904   0.329  -9.000  1.00  0.00     0.082 A 
ATOM     95  C   UNL     1       0.449   0.594 -10.289  1.00  0.00     0.055 A 
ATOM     96  C   UNL     1      -0.030   0.079  -7.973  1.00  0.00     0.030 A 
ATOM     97  C   UNL     1      -0.922   0.591 -10.592  1.00  0.00     0.021 A 
ATOM     98  C   UNL     1      -1.397   0.098  -8.259  1.00  0.00     0.002 A 
ATOM     99  C   UNL     1      -1.833   0.344  -9.556  1.00  0.00     0.002 A 
ENDBRANCH  89  91
ENDBRANCH  83  84
BRANCH  83 100
ATOM    100  C   UNL     1       4.394   2.274  -5.331  1.00  0.00     0.046 A 
ATOM    101  C   UNL     1       3.109   2.682  -5.011  1.00  0.00     0.094 A 
ATOM    102  C   UNL     1       5.272   3.039  -4.469  1.00  0.00     0.010 A 
ATOM    103  N   UNL     1       3.166   3.601  -4.001  1.00  0.00    -0.361 N 
ATOM    104  C   UNL     1       4.472   3.830  -3.639  1.00  0.00     0.046 A 
ATOM    105  C   UNL     1       6.673   3.100  -4.287  1.00  0.00     0.026 A 
ATOM    106  H   UNL     1       2.384   4.037  -3.592  1.00  0.00     0.166 HD
ATOM    107  C   UNL     1       4.991   4.670  -2.644  1.00  0.00     0.028 A 
ATOM    108  C   UNL     1       7.202   3.936  -3.294  1.00  0.00     0.018 A 
ATOM    109  C   UNL     1       6.378   4.710  -2.483  1.00  0.00     0.018 A 
ATOM    110  Br  UNL     1       9.077   4.005  -3.038  1.00  0.00    -0.051 Br
ENDBRANCH  83 100
ENDBRANCH  81  83
ENDBRANCH  80  81
ENDBRANCH  79  80
ENDBRANCH  78  79
ENDBRANCH  77  78
ENDBRANCH  76  77
ENDBRANCH  75  76
ENDBRANCH   1  75
TORSDOF 23
