REMARK SMILES CC(=O)OCC1=C(C(=O)OCCOCCOCCOCCOC(=O)c2ccc(-c3c4nc(c(-c5c(F)c(F)c(F)c(F)c5F)c5ccc([nH]5)c(-c5c(F)c(F)c(F)c(F)c5F)c5nc(c(-c6c(F)c(F)c(F)c(F)c6F)c6ccc3[nH]6)C=C5)C=C4)cc2)N2C(=O)[C@H](NC(=O)C3CCCCC3)[C@@H]2SC1
REMARK SMILES IDX 15 1 14 2 13 3 12 4 11 5 10 6 8 7 9 8 7 9 6 10 103 11 88 12
REMARK SMILES IDX 102 13 89 14 101 15 90 16 91 17 5 18 4 19 2 20 1 21 3 22
REMARK SMILES IDX 92 23 93 24 94 26 95 27 96 28 100 29 97 30 99 31 98 32 16 33
REMARK SMILES IDX 17 34 18 35 19 36 20 37 21 38 22 39 23 40 24 41 25 42 26 43
REMARK SMILES IDX 87 44 27 45 86 46 28 47 29 48 30 49 80 50 31 51 85 52 79 53
REMARK SMILES IDX 81 54 32 55 84 56 78 57 77 58 33 60 65 61 45 62 64 63 46 64
REMARK SMILES IDX 49 65 63 66 82 67 47 68 48 69 62 71 83 72 50 73 34 74 35 75
REMARK SMILES IDX 43 76 36 77 37 78 41 79 44 80 38 81 39 82 42 83 40 84 66 85
REMARK SMILES IDX 67 86 75 87 68 88 69 89 73 90 76 91 70 92 71 93 74 94 72 95
REMARK SMILES IDX 51 96 52 97 60 98 53 99 54 100 58 101 61 102 55 103 56 104
REMARK SMILES IDX 59 105 57 106
REMARK H PARENT 92 25 81 59 49 70
REMARK Flexibility Score: inf
ROOT
ATOM      1  C   UNL     1       1.824   5.551   4.578  1.00  0.00     0.188 C 
ENDROOT
BRANCH   1   2
ATOM      2  C   UNL     1       0.711   6.532   4.986  1.00  0.00     0.188 C 
BRANCH   2   3
ATOM      3  O   UNL     1      -0.050   6.119   6.118  1.00  0.00    -0.376 OA
BRANCH   3   4
ATOM      4  C   UNL     1      -1.426   5.856   5.856  1.00  0.00     0.202 C 
BRANCH   4   5
ATOM      5  C   UNL     1      -1.661   4.475   5.241  1.00  0.00     0.261 C 
BRANCH   5   6
ATOM      6  O   UNL     1      -0.909   4.292   4.032  1.00  0.00    -0.459 OA
BRANCH   6   7
ATOM      7  C   UNL     1      -1.463   4.743   2.881  1.00  0.00     0.355 C 
ATOM      8  O   UNL     1      -2.590   5.182   2.748  1.00  0.00    -0.244 OA
BRANCH   7   9
ATOM      9  C   UNL     1      -0.394   4.736   1.823  1.00  0.00     0.134 C 
ATOM     10  C   UNL     1       0.300   3.615   1.496  1.00  0.00     0.008 C 
ATOM     11  C   UNL     1       1.351   3.575   0.397  1.00  0.00     0.108 C 
ATOM     12  N   UNL     1      -0.092   5.930   1.241  1.00  0.00    -0.289 N 
ATOM     13  S   UNL     1       1.305   4.985  -0.762  1.00  0.00    -0.129 SA
ATOM     14  C   UNL     1      -0.519   7.205   1.277  1.00  0.00     0.253 C 
ATOM     15  C   UNL     1       1.159   6.195   0.561  1.00  0.00     0.181 C 
ATOM     16  O   UNL     1      -1.382   7.775   1.906  1.00  0.00    -0.272 OA
ATOM     17  C   UNL     1       0.596   7.616   0.255  1.00  0.00     0.205 C 
BRANCH  10  18
ATOM     18  C   UNL     1       0.097   2.309   2.252  1.00  0.00     0.267 C 
BRANCH  18  19
ATOM     19  O   UNL     1       0.693   1.193   1.575  1.00  0.00    -0.461 OA
BRANCH  19  20
ATOM     20  C   UNL     1      -0.113   0.519   0.713  1.00  0.00     0.302 C 
ATOM     21  C   UNL     1       0.658  -0.576   0.040  1.00  0.00     0.139 C 
ATOM     22  O   UNL     1      -1.291   0.765   0.503  1.00  0.00    -0.253 OA
ENDBRANCH  19  20
ENDBRANCH  18  19
ENDBRANCH  10  18
BRANCH  17  23
ATOM     23  N   UNL     1       0.139   7.894  -1.119  1.00  0.00    -0.342 N 
ATOM     24  C   UNL     1       0.600   8.710  -2.099  1.00  0.00     0.223 C 
ATOM     25  H   UNL     1      -0.662   7.383  -1.377  1.00  0.00     0.164 HD
ATOM     26  O   UNL     1      -0.026   8.676  -3.166  1.00  0.00    -0.275 OA
BRANCH  24  27
ATOM     27  C   UNL     1       1.754   9.706  -1.958  1.00  0.00     0.078 C 
ATOM     28  C   UNL     1       1.202  11.113  -1.685  1.00  0.00     0.013 C 
ATOM     29  C   UNL     1       2.926   9.384  -1.030  1.00  0.00     0.013 C 
ATOM     30  C   UNL     1       2.302  12.174  -1.753  1.00  0.00     0.001 C 
ATOM     31  C   UNL     1       4.032  10.435  -1.156  1.00  0.00     0.001 C 
ATOM     32  C   UNL     1       3.486  11.831  -0.855  1.00  0.00     0.000 C 
ENDBRANCH  24  27
ENDBRANCH  17  23
ENDBRANCH   7   9
ENDBRANCH   6   7
ENDBRANCH   5   6
ENDBRANCH   4   5
ENDBRANCH   3   4
ENDBRANCH   2   3
ENDBRANCH   1   2
BRANCH   1  33
ATOM     33  O   UNL     1       1.890   4.301   5.240  1.00  0.00    -0.377 OA
BRANCH  33  34
ATOM     34  C   UNL     1       2.005   4.274   6.661  1.00  0.00     0.188 C 
BRANCH  34  35
ATOM     35  C   UNL     1       2.463   5.512   7.463  1.00  0.00     0.188 C 
BRANCH  35  36
ATOM     36  O   UNL     1       3.236   6.453   6.728  1.00  0.00    -0.376 OA
BRANCH  36  37
ATOM     37  C   UNL     1       4.619   6.518   7.050  1.00  0.00     0.202 C 
BRANCH  37  38
ATOM     38  C   UNL     1       5.433   5.362   6.460  1.00  0.00     0.261 C 
BRANCH  38  39
ATOM     39  O   UNL     1       5.104   4.072   7.001  1.00  0.00    -0.460 OA
BRANCH  39  40
ATOM     40  C   UNL     1       5.319   3.909   8.324  1.00  0.00     0.338 C 
ATOM     41  O   UNL     1       5.814   4.706   9.100  1.00  0.00    -0.246 OA
BRANCH  40  42
ATOM     42  C   UNL     1       4.689   2.643   8.737  1.00  0.00     0.060 A 
ATOM     43  C   UNL     1       3.749   2.672   9.774  1.00  0.00     0.016 A 
ATOM     44  C   UNL     1       5.048   1.438   8.129  1.00  0.00     0.016 A 
ATOM     45  C   UNL     1       3.207   1.480  10.248  1.00  0.00     0.010 A 
ATOM     46  C   UNL     1       4.514   0.242   8.614  1.00  0.00     0.010 A 
ATOM     47  C   UNL     1       3.627   0.258   9.704  1.00  0.00    -0.014 A 
BRANCH  47  48
ATOM     48  C   UNL     1       3.315  -0.997  10.425  1.00  0.00     0.031 A 
ATOM     49  C   UNL     1       4.327  -1.523  11.405  1.00  0.00     0.074 A 
ATOM     50  C   UNL     1       2.146  -1.634  10.248  1.00  0.00     0.049 A 
ATOM     51  N   UNL     1       4.271  -2.577  12.177  1.00  0.00    -0.248 NA
ATOM     52  C   UNL     1       5.575  -0.751  11.531  1.00  0.00     0.031 C 
ATOM     53  C   UNL     1       1.079  -1.211   9.345  1.00  0.00     0.029 A 
ATOM     54  N   UNL     1       1.665  -2.781  10.830  1.00  0.00    -0.354 N 
ATOM     55  C   UNL     1       5.467  -2.590  12.883  1.00  0.00     0.074 A 
ATOM     56  C   UNL     1       6.248  -1.464  12.420  1.00  0.00     0.031 C 
ATOM     57  C   UNL     1       0.065  -2.091   9.430  1.00  0.00     0.029 A 
ATOM     58  C   UNL     1       0.421  -3.145  10.379  1.00  0.00     0.049 A 
ATOM     59  H   UNL     1       2.165  -3.293  11.506  1.00  0.00     0.167 HD
ATOM     60  C   UNL     1       5.873  -3.453  13.843  1.00  0.00     0.037 A 
ATOM     61  C   UNL     1      -0.335  -4.213  10.698  1.00  0.00     0.037 A 
ATOM     62  C   UNL     1       5.103  -4.579  14.297  1.00  0.00     0.049 A 
ATOM     63  C   UNL     1       0.166  -5.194  11.728  1.00  0.00     0.074 A 
ATOM     64  C   UNL     1       5.422  -5.508  15.271  1.00  0.00     0.029 A 
ATOM     65  N   UNL     1       3.859  -4.934  13.796  1.00  0.00    -0.354 N 
ATOM     66  N   UNL     1       1.279  -5.177  12.420  1.00  0.00    -0.248 NA
ATOM     67  C   UNL     1      -0.705  -6.340  12.027  1.00  0.00     0.031 C 
ATOM     68  C   UNL     1       4.390  -6.451  15.329  1.00  0.00     0.029 A 
ATOM     69  C   UNL     1       3.406  -6.081  14.426  1.00  0.00     0.049 A 
ATOM     70  H   UNL     1       3.370  -4.442  13.097  1.00  0.00     0.167 HD
ATOM     71  C   UNL     1       1.230  -6.288  13.254  1.00  0.00     0.074 A 
ATOM     72  C   UNL     1      -0.032  -6.949  12.992  1.00  0.00     0.031 C 
ATOM     73  C   UNL     1       2.146  -6.723  14.155  1.00  0.00     0.037 A 
BRANCH  60  74
ATOM     74  C   UNL     1       7.225  -3.219  14.448  1.00  0.00     0.064 A 
ATOM     75  C   UNL     1       7.465  -2.143  15.317  1.00  0.00     0.173 A 
ATOM     76  C   UNL     1       8.291  -4.086  14.165  1.00  0.00     0.173 A 
ATOM     77  F   UNL     1       6.483  -1.274  15.602  1.00  0.00    -0.203 F 
ATOM     78  C   UNL     1       8.729  -1.931  15.861  1.00  0.00     0.198 A 
ATOM     79  C   UNL     1       9.546  -3.886  14.732  1.00  0.00     0.198 A 
ATOM     80  F   UNL     1       8.114  -5.127  13.338  1.00  0.00    -0.203 F 
ATOM     81  F   UNL     1       8.947  -0.869  16.649  1.00  0.00    -0.200 F 
ATOM     82  C   UNL     1       9.766  -2.805  15.573  1.00  0.00     0.200 A 
ATOM     83  F   UNL     1      10.546  -4.735  14.459  1.00  0.00    -0.200 F 
ATOM     84  F   UNL     1      10.982  -2.600  16.099  1.00  0.00    -0.200 F 
ENDBRANCH  60  74
BRANCH  61  85
ATOM     85  C   UNL     1      -1.653  -4.416  10.041  1.00  0.00     0.064 A 
ATOM     86  C   UNL     1      -2.848  -4.296  10.763  1.00  0.00     0.173 A 
ATOM     87  C   UNL     1      -1.741  -4.766   8.686  1.00  0.00     0.173 A 
ATOM     88  F   UNL     1      -2.813  -3.990  12.068  1.00  0.00    -0.203 F 
ATOM     89  C   UNL     1      -4.080  -4.540  10.160  1.00  0.00     0.198 A 
ATOM     90  C   UNL     1      -2.975  -4.983   8.077  1.00  0.00     0.198 A 
ATOM     91  F   UNL     1      -0.626  -4.896   7.952  1.00  0.00    -0.203 F 
ATOM     92  F   UNL     1      -5.204  -4.469  10.886  1.00  0.00    -0.200 F 
ATOM     93  C   UNL     1      -4.143  -4.879   8.817  1.00  0.00     0.200 A 
ATOM     94  F   UNL     1      -3.031  -5.303   6.777  1.00  0.00    -0.200 F 
ATOM     95  F   UNL     1      -5.328  -5.117   8.238  1.00  0.00    -0.200 F 
ENDBRANCH  61  85
BRANCH  73  96
ATOM     96  C   UNL     1       1.802  -7.954  14.944  1.00  0.00     0.064 A 
ATOM     97  C   UNL     1       1.778  -9.226  14.353  1.00  0.00     0.173 A 
ATOM     98  C   UNL     1       1.518  -7.862  16.316  1.00  0.00     0.173 A 
ATOM     99  F   UNL     1       2.029  -9.366  13.043  1.00  0.00    -0.203 F 
ATOM    100  C   UNL     1       1.450 -10.355  15.099  1.00  0.00     0.198 A 
ATOM    101  C   UNL     1       1.221  -8.997  17.064  1.00  0.00     0.198 A 
ATOM    102  F   UNL     1       1.537  -6.670  16.932  1.00  0.00    -0.203 F 
ATOM    103  F   UNL     1       1.379 -11.553  14.501  1.00  0.00    -0.200 F 
ATOM    104  C   UNL     1       1.177 -10.241  16.454  1.00  0.00     0.200 A 
ATOM    105  F   UNL     1       0.972  -8.886  18.377  1.00  0.00    -0.200 F 
ATOM    106  F   UNL     1       0.863 -11.329  17.170  1.00  0.00    -0.200 F 
ENDBRANCH  73  96
ENDBRANCH  47  48
ENDBRANCH  40  42
ENDBRANCH  39  40
ENDBRANCH  38  39
ENDBRANCH  37  38
ENDBRANCH  36  37
ENDBRANCH  35  36
ENDBRANCH  34  35
ENDBRANCH  33  34
ENDBRANCH   1  33
TORSDOF 25
