REMARK SMILES Cc1nsc(NC(=O)c2ccc(N)cc2)c1C(=O)OCCOCCOCCOCCOC(=O)c1ccc(-c2c3nc(c(-c4c(F)c(F)c(F)c(F)c4F)c4ccc([nH]4)c(-c4c(F)c(F)c(F)c(F)c4F)c4nc(c(-c5c(F)c(F)c(F)c(F)c5F)c5ccc2[nH]5)C=C4)C=C3)cc1
REMARK SMILES IDX 24 1 23 2 22 3 21 4 20 5 19 6 17 7 18 8 16 9 1 10 2 11 3 12
REMARK SMILES IDX 4 13 5 14 6 15 7 16 8 18 9 19 10 20 15 21 11 22 14 23 12 24
REMARK SMILES IDX 13 25 25 28 26 29 27 30 28 31 29 32 30 33 31 34 32 35 33 36
REMARK SMILES IDX 34 37 35 38 96 39 36 40 95 41 37 42 38 43 39 44 89 45 40 46
REMARK SMILES IDX 94 47 88 48 90 49 41 50 93 51 87 52 86 53 42 55 74 56 54 57
REMARK SMILES IDX 73 58 55 59 58 60 72 61 91 62 56 63 57 64 71 66 92 67 59 68
REMARK SMILES IDX 43 69 44 70 52 71 45 72 46 73 50 74 53 75 47 76 48 77 51 78
REMARK SMILES IDX 49 79 75 80 76 81 84 82 77 83 78 84 82 85 85 86 79 87 80 88
REMARK SMILES IDX 83 89 81 90 60 91 61 92 69 93 62 94 63 95 67 96 70 97 64 98
REMARK SMILES IDX 65 99 68 100 66 101
REMARK H PARENT 6 17 13 26 13 27 90 54 58 65
REMARK Flexibility Score: inf
ROOT
ATOM      1  C   UNL     1       1.549   2.188  -3.010  1.00  0.00     0.188 C 
ENDROOT
BRANCH   1   2
ATOM      2  C   UNL     1       0.306   2.408  -3.898  1.00  0.00     0.188 C 
BRANCH   2   3
ATOM      3  O   UNL     1      -0.479   3.586  -3.797  1.00  0.00    -0.376 OA
BRANCH   3   4
ATOM      4  C   UNL     1      -0.909   4.111  -2.552  1.00  0.00     0.202 C 
BRANCH   4   5
ATOM      5  C   UNL     1      -1.428   3.237  -1.395  1.00  0.00     0.261 C 
BRANCH   5   6
ATOM      6  O   UNL     1      -0.814   1.957  -1.232  1.00  0.00    -0.460 OA
BRANCH   6   7
ATOM      7  C   UNL     1      -1.480   0.892  -1.748  1.00  0.00     0.343 C 
ATOM      8  O   UNL     1      -2.601   0.947  -2.248  1.00  0.00    -0.246 OA
BRANCH   7   9
ATOM      9  C   UNL     1      -0.623  -0.277  -1.869  1.00  0.00     0.117 A 
ATOM     10  C   UNL     1       0.743  -0.154   0.388  1.00  0.00     0.069 C 
ATOM     11  C   UNL     1       0.393  -0.730  -0.943  1.00  0.00     0.068 A 
ATOM     12  N   UNL     1       1.127  -1.765  -1.353  1.00  0.00    -0.195 NA
ATOM     13  S   UNL     1       0.706  -2.149  -2.896  1.00  0.00    -0.017 S 
ATOM     14  C   UNL     1      -0.562  -1.025  -3.042  1.00  0.00     0.131 A 
BRANCH  14  15
ATOM     15  N   UNL     1      -1.249  -0.792  -4.229  1.00  0.00    -0.312 N 
ATOM     16  C   UNL     1      -1.172  -1.423  -5.451  1.00  0.00     0.256 C 
ATOM     17  H   UNL     1      -1.899  -0.053  -4.189  1.00  0.00     0.171 HD
ATOM     18  O   UNL     1      -1.428  -0.803  -6.482  1.00  0.00    -0.269 OA
BRANCH  16  19
ATOM     19  C   UNL     1      -0.880  -2.864  -5.548  1.00  0.00     0.040 A 
ATOM     20  C   UNL     1      -1.485  -3.759  -4.663  1.00  0.00     0.016 A 
ATOM     21  C   UNL     1      -0.026  -3.332  -6.548  1.00  0.00     0.016 A 
ATOM     22  C   UNL     1      -1.140  -5.108  -4.704  1.00  0.00     0.026 A 
ATOM     23  C   UNL     1       0.294  -4.691  -6.595  1.00  0.00     0.026 A 
ATOM     24  C   UNL     1      -0.223  -5.580  -5.646  1.00  0.00     0.031 A 
BRANCH  24  25
ATOM     25  N   UNL     1       0.081  -6.928  -5.702  1.00  0.00    -0.399 N 
ATOM     26  H   UNL     1      -0.288  -7.544  -5.029  1.00  0.00     0.156 HD
ATOM     27  H   UNL     1       0.667  -7.271  -6.415  1.00  0.00     0.156 HD
ENDBRANCH  24  25
ENDBRANCH  16  19
ENDBRANCH  14  15
ENDBRANCH   7   9
ENDBRANCH   6   7
ENDBRANCH   5   6
ENDBRANCH   4   5
ENDBRANCH   3   4
ENDBRANCH   2   3
ENDBRANCH   1   2
BRANCH   1  28
ATOM     28  O   UNL     1       1.662   3.130  -1.961  1.00  0.00    -0.377 OA
BRANCH  28  29
ATOM     29  C   UNL     1       2.448   4.281  -2.256  1.00  0.00     0.188 C 
BRANCH  29  30
ATOM     30  C   UNL     1       2.390   4.922  -3.672  1.00  0.00     0.188 C 
BRANCH  30  31
ATOM     31  O   UNL     1       2.302   4.000  -4.755  1.00  0.00    -0.376 OA
BRANCH  31  32
ATOM     32  C   UNL     1       3.355   3.869  -5.696  1.00  0.00     0.202 C 
BRANCH  32  33
ATOM     33  C   UNL     1       4.497   2.967  -5.233  1.00  0.00     0.261 C 
BRANCH  33  34
ATOM     34  O   UNL     1       4.931   3.289  -3.923  1.00  0.00    -0.460 OA
BRANCH  34  35
ATOM     35  C   UNL     1       5.439   4.528  -3.792  1.00  0.00     0.338 C 
ATOM     36  O   UNL     1       5.541   5.384  -4.653  1.00  0.00    -0.246 OA
BRANCH  35  37
ATOM     37  C   UNL     1       5.975   4.662  -2.435  1.00  0.00     0.060 A 
ATOM     38  C   UNL     1       6.645   5.859  -2.202  1.00  0.00     0.016 A 
ATOM     39  C   UNL     1       6.222   3.487  -1.706  1.00  0.00     0.016 A 
ATOM     40  C   UNL     1       7.838   5.768  -1.542  1.00  0.00     0.010 A 
ATOM     41  C   UNL     1       7.422   3.393  -1.062  1.00  0.00     0.010 A 
ATOM     42  C   UNL     1       8.256   4.502  -1.117  1.00  0.00    -0.014 A 
BRANCH  42  43
ATOM     43  C   UNL     1       9.642   4.371  -0.761  1.00  0.00     0.031 A 
ATOM     44  C   UNL     1       9.937   4.912   0.572  1.00  0.00     0.074 A 
ATOM     45  C   UNL     1      10.521   3.775  -1.584  1.00  0.00     0.049 A 
ATOM     46  N   UNL     1      10.671   5.929   0.870  1.00  0.00    -0.248 NA
ATOM     47  C   UNL     1       9.171   4.354   1.696  1.00  0.00     0.031 C 
ATOM     48  C   UNL     1      10.260   2.961  -2.775  1.00  0.00     0.029 A 
ATOM     49  N   UNL     1      11.866   3.696  -1.446  1.00  0.00    -0.354 N 
ATOM     50  C   UNL     1      10.598   6.035   2.252  1.00  0.00     0.074 A 
ATOM     51  C   UNL     1       9.531   5.172   2.681  1.00  0.00     0.031 C 
ATOM     52  C   UNL     1      11.386   2.283  -3.098  1.00  0.00     0.029 A 
ATOM     53  C   UNL     1      12.458   2.711  -2.215  1.00  0.00     0.049 A 
ATOM     54  H   UNL     1      12.378   4.288  -0.850  1.00  0.00     0.167 HD
ATOM     55  C   UNL     1      11.591   6.631   2.958  1.00  0.00     0.037 A 
ATOM     56  C   UNL     1      13.706   2.220  -2.020  1.00  0.00     0.037 A 
ATOM     57  C   UNL     1      12.379   7.502   2.126  1.00  0.00     0.049 A 
ATOM     58  C   UNL     1      14.447   3.205  -1.183  1.00  0.00     0.074 A 
ATOM     59  C   UNL     1      12.099   8.634   1.384  1.00  0.00     0.029 A 
ATOM     60  N   UNL     1      13.593   7.048   1.672  1.00  0.00    -0.354 N 
ATOM     61  N   UNL     1      14.802   4.394  -1.592  1.00  0.00    -0.248 NA
ATOM     62  C   UNL     1      14.391   3.041   0.265  1.00  0.00     0.031 C 
ATOM     63  C   UNL     1      12.923   8.536   0.226  1.00  0.00     0.029 A 
ATOM     64  C   UNL     1      13.680   7.370   0.342  1.00  0.00     0.049 A 
ATOM     65  H   UNL     1      14.275   6.579   2.204  1.00  0.00     0.167 HD
ATOM     66  C   UNL     1      14.624   5.222  -0.491  1.00  0.00     0.074 A 
ATOM     67  C   UNL     1      14.452   4.321   0.643  1.00  0.00     0.031 C 
ATOM     68  C   UNL     1      14.347   6.550  -0.642  1.00  0.00     0.037 A 
BRANCH  55  69
ATOM     69  C   UNL     1      12.063   6.126   4.295  1.00  0.00     0.064 A 
ATOM     70  C   UNL     1      13.012   6.881   5.006  1.00  0.00     0.173 A 
ATOM     71  C   UNL     1      11.854   4.809   4.764  1.00  0.00     0.173 A 
ATOM     72  F   UNL     1      13.300   8.139   4.638  1.00  0.00    -0.203 F 
ATOM     73  C   UNL     1      13.758   6.329   6.049  1.00  0.00     0.198 A 
ATOM     74  C   UNL     1      12.557   4.281   5.842  1.00  0.00     0.198 A 
ATOM     75  F   UNL     1      11.054   3.938   4.138  1.00  0.00    -0.203 F 
ATOM     76  F   UNL     1      14.746   7.041   6.607  1.00  0.00    -0.200 F 
ATOM     77  C   UNL     1      13.535   5.027   6.461  1.00  0.00     0.200 A 
ATOM     78  F   UNL     1      12.334   3.013   6.215  1.00  0.00    -0.200 F 
ATOM     79  F   UNL     1      14.293   4.475   7.416  1.00  0.00    -0.200 F 
ENDBRANCH  55  69
BRANCH  56  80
ATOM     80  C   UNL     1      14.142   0.813  -2.186  1.00  0.00     0.064 A 
ATOM     81  C   UNL     1      15.502   0.482  -2.264  1.00  0.00     0.173 A 
ATOM     82  C   UNL     1      13.245  -0.263  -2.022  1.00  0.00     0.173 A 
ATOM     83  F   UNL     1      16.425   1.450  -2.366  1.00  0.00    -0.203 F 
ATOM     84  C   UNL     1      15.940  -0.844  -2.175  1.00  0.00     0.198 A 
ATOM     85  C   UNL     1      13.680  -1.585  -1.947  1.00  0.00     0.198 A 
ATOM     86  F   UNL     1      11.934  -0.049  -1.838  1.00  0.00    -0.203 F 
ATOM     87  F   UNL     1      17.252  -1.118  -2.198  1.00  0.00    -0.200 F 
ATOM     88  C   UNL     1      15.029  -1.876  -2.012  1.00  0.00     0.200 A 
ATOM     89  F   UNL     1      12.789  -2.568  -1.751  1.00  0.00    -0.200 F 
ATOM     90  F   UNL     1      15.451  -3.140  -1.875  1.00  0.00    -0.200 F 
ENDBRANCH  56  80
BRANCH  68  91
ATOM     91  C   UNL     1      14.492   7.146  -2.013  1.00  0.00     0.064 A 
ATOM     92  C   UNL     1      13.673   6.794  -3.099  1.00  0.00     0.173 A 
ATOM     93  C   UNL     1      15.356   8.236  -2.179  1.00  0.00     0.173 A 
ATOM     94  F   UNL     1      12.751   5.830  -2.980  1.00  0.00    -0.203 F 
ATOM     95  C   UNL     1      13.742   7.484  -4.308  1.00  0.00     0.198 A 
ATOM     96  C   UNL     1      15.399   8.945  -3.375  1.00  0.00     0.198 A 
ATOM     97  F   UNL     1      16.117   8.652  -1.154  1.00  0.00    -0.203 F 
ATOM     98  F   UNL     1      12.949   7.131  -5.330  1.00  0.00    -0.200 F 
ATOM     99  C   UNL     1      14.597   8.566  -4.441  1.00  0.00     0.200 A 
ATOM    100  F   UNL     1      16.188  10.023  -3.483  1.00  0.00    -0.200 F 
ATOM    101  F   UNL     1      14.626   9.264  -5.585  1.00  0.00    -0.200 F 
ENDBRANCH  68  91
ENDBRANCH  42  43
ENDBRANCH  35  37
ENDBRANCH  34  35
ENDBRANCH  33  34
ENDBRANCH  32  33
ENDBRANCH  31  32
ENDBRANCH  30  31
ENDBRANCH  29  30
ENDBRANCH  28  29
ENDBRANCH   1  28
TORSDOF 23
