REMARK SMILES O=C1[NH+]=C(Nc2ccc(C(=O)OCCOCCOCCOCCOC(=O)c3ccc(-c4c5nc(c(-c6c(F)c(F)c(F)c(F)c6F)c6ccc([nH]6)c(-c6c(F)c(F)c(F)c(F)c6F)c6nc(c(-c7c(F)c(F)c(F)c(F)c7F)c7ccc4[nH]7)C=C6)C=C5)cc3)c(O)c2)S/C1=C\c1ccc[nH]1
REMARK SMILES IDX 18 1 17 2 16 3 15 4 14 5 13 6 12 7 10 8 11 9 9 10 6 11 7 12
REMARK SMILES IDX 92 13 8 14 90 15 5 16 1 17 2 18 3 19 94 20 4 21 93 23 95 24
REMARK SMILES IDX 96 26 97 27 100 28 98 29 99 30 91 32 19 34 20 35 21 36 22 37
REMARK SMILES IDX 23 38 24 39 25 40 26 41 27 42 28 43 89 44 29 45 88 46 30 47
REMARK SMILES IDX 31 48 32 49 82 50 33 51 87 52 81 53 83 54 34 55 86 56 80 57
REMARK SMILES IDX 79 58 35 60 67 61 47 62 66 63 48 64 51 65 65 66 84 67 49 68
REMARK SMILES IDX 50 69 64 71 85 72 52 73 36 74 37 75 45 76 38 77 39 78 43 79
REMARK SMILES IDX 46 80 40 81 41 82 44 83 42 84 68 85 69 86 77 87 70 88 71 89
REMARK SMILES IDX 75 90 78 91 72 92 73 93 76 94 74 95 53 96 54 97 62 98 55 99
REMARK SMILES IDX 56 100 60 101 63 102 57 103 58 104 61 105 59 106
REMARK H PARENT 3 22 5 25 100 31 91 33 83 59 51 70
REMARK Flexibility Score: inf
ROOT
ATOM      1  O   UNL     1      -2.295   7.986  -1.940  1.00  0.00    -0.377 OA
ENDROOT
BRANCH   1   2
ATOM      2  C   UNL     1      -2.591   7.060  -0.903  1.00  0.00     0.188 C 
BRANCH   2   3
ATOM      3  C   UNL     1      -2.844   7.741   0.457  1.00  0.00     0.188 C 
BRANCH   3   4
ATOM      4  O   UNL     1      -3.178   9.113   0.329  1.00  0.00    -0.376 OA
BRANCH   4   5
ATOM      5  C   UNL     1      -2.187  10.116   0.458  1.00  0.00     0.202 C 
BRANCH   5   6
ATOM      6  C   UNL     1      -0.795  10.028  -0.199  1.00  0.00     0.261 C 
BRANCH   6   7
ATOM      7  O   UNL     1      -0.196   8.735  -0.331  1.00  0.00    -0.460 OA
BRANCH   7   8
ATOM      8  C   UNL     1       0.317   8.168   0.783  1.00  0.00     0.341 C 
ATOM      9  O   UNL     1       0.369   8.668   1.892  1.00  0.00    -0.246 OA
BRANCH   8  10
ATOM     10  C   UNL     1       0.611   6.746   0.474  1.00  0.00     0.102 A 
ATOM     11  C   UNL     1       1.110   4.012   0.011  1.00  0.00     0.129 A 
ATOM     12  C   UNL     1       0.441   4.424   1.168  1.00  0.00     0.053 A 
ATOM     13  C   UNL     1       1.463   4.976  -0.943  1.00  0.00     0.098 A 
ATOM     14  C   UNL     1       0.231   5.785   1.420  1.00  0.00     0.024 A 
ATOM     15  C   UNL     1       1.171   6.324  -0.735  1.00  0.00     0.134 A 
BRANCH  11  16
ATOM     16  N   UNL     1       1.450   2.674  -0.212  1.00  0.00    -0.234 N 
ATOM     17  O   UNL     1      -2.267  -0.124   0.041  1.00  0.00    -0.240 OA
ATOM     18  C   UNL     1      -1.092   0.200   0.035  1.00  0.00     0.346 C 
ATOM     19  N   UNL     1      -0.629   1.501   0.010  1.00  0.00    -0.199 N 
ATOM     20  C   UNL     1       0.030  -0.788   0.031  1.00  0.00     0.111 C 
ATOM     21  C   UNL     1       0.655   1.579  -0.070  1.00  0.00     0.322 C 
ATOM     22  H   UNL     1      -1.219   2.288   0.049  1.00  0.00     0.316 HD
ATOM     23  S   UNL     1       1.523   0.056  -0.049  1.00  0.00     0.006 SA
ATOM     24  C   UNL     1      -0.182  -2.112   0.052  1.00  0.00     0.050 C 
ATOM     25  H   UNL     1       2.374   2.505  -0.507  1.00  0.00     0.313 HD
BRANCH  24  26
ATOM     26  C   UNL     1       0.865  -3.062   0.132  1.00  0.00     0.039 A 
ATOM     27  C   UNL     1       1.878  -3.288   1.043  1.00  0.00     0.027 A 
ATOM     28  N   UNL     1       0.965  -4.027  -0.842  1.00  0.00    -0.362 N 
ATOM     29  C   UNL     1       2.620  -4.407   0.596  1.00  0.00     0.020 A 
ATOM     30  C   UNL     1       2.041  -4.837  -0.577  1.00  0.00     0.083 A 
ATOM     31  H   UNL     1       0.358  -4.122  -1.611  1.00  0.00     0.166 HD
ENDBRANCH  24  26
ENDBRANCH  11  16
BRANCH  15  32
ATOM     32  O   UNL     1       1.425   7.168  -1.781  1.00  0.00    -0.507 OA
ATOM     33  H   UNL     1       1.248   8.084  -1.697  1.00  0.00     0.293 HD
ENDBRANCH  15  32
ENDBRANCH   8  10
ENDBRANCH   7   8
ENDBRANCH   6   7
ENDBRANCH   5   6
ENDBRANCH   4   5
ENDBRANCH   3   4
ENDBRANCH   2   3
ENDBRANCH   1   2
BRANCH   1  34
ATOM     34  C   UNL     1      -3.392   8.661  -2.563  1.00  0.00     0.188 C 
BRANCH  34  35
ATOM     35  C   UNL     1      -4.790   8.777  -1.900  1.00  0.00     0.188 C 
BRANCH  35  36
ATOM     36  O   UNL     1      -5.183   7.634  -1.157  1.00  0.00    -0.376 OA
BRANCH  36  37
ATOM     37  C   UNL     1      -6.185   6.782  -1.678  1.00  0.00     0.202 C 
BRANCH  37  38
ATOM     38  C   UNL     1      -5.835   6.001  -2.950  1.00  0.00     0.261 C 
BRANCH  38  39
ATOM     39  O   UNL     1      -5.332   6.777  -4.046  1.00  0.00    -0.460 OA
BRANCH  39  40
ATOM     40  C   UNL     1      -6.173   7.662  -4.626  1.00  0.00     0.338 C 
ATOM     41  O   UNL     1      -7.326   7.894  -4.332  1.00  0.00    -0.246 OA
BRANCH  40  42
ATOM     42  C   UNL     1      -5.369   8.434  -5.597  1.00  0.00     0.060 A 
ATOM     43  C   UNL     1      -5.222   9.819  -5.435  1.00  0.00     0.016 A 
ATOM     44  C   UNL     1      -4.734   7.770  -6.648  1.00  0.00     0.016 A 
ATOM     45  C   UNL     1      -4.455  10.550  -6.346  1.00  0.00     0.010 A 
ATOM     46  C   UNL     1      -3.987   8.503  -7.568  1.00  0.00     0.010 A 
ATOM     47  C   UNL     1      -3.867   9.899  -7.438  1.00  0.00    -0.014 A 
BRANCH  47  48
ATOM     48  C   UNL     1      -3.300  10.666  -8.572  1.00  0.00     0.031 A 
ATOM     49  C   UNL     1      -4.162  10.854  -9.788  1.00  0.00     0.074 A 
ATOM     50  C   UNL     1      -2.039  11.128  -8.553  1.00  0.00     0.049 A 
ATOM     51  N   UNL     1      -3.847  11.308 -10.973  1.00  0.00    -0.248 NA
ATOM     52  C   UNL     1      -5.573  10.459  -9.647  1.00  0.00     0.031 C 
ATOM     53  C   UNL     1      -1.125  11.050  -7.417  1.00  0.00     0.029 A 
ATOM     54  N   UNL     1      -1.300  11.729  -9.543  1.00  0.00    -0.354 N 
ATOM     55  C   UNL     1      -5.013  11.231 -11.723  1.00  0.00     0.074 A 
ATOM     56  C   UNL     1      -6.035  10.668 -10.870  1.00  0.00     0.031 C 
ATOM     57  C   UNL     1       0.066  11.558  -7.783  1.00  0.00     0.029 A 
ATOM     58  C   UNL     1       0.010  11.948  -9.192  1.00  0.00     0.049 A 
ATOM     59  H   UNL     1      -1.673  11.978 -10.420  1.00  0.00     0.167 HD
ATOM     60  C   UNL     1      -5.209  11.598 -13.011  1.00  0.00     0.037 A 
ATOM     61  C   UNL     1       1.048  12.373  -9.939  1.00  0.00     0.037 A 
ATOM     62  C   UNL     1      -4.184  12.152 -13.853  1.00  0.00     0.049 A 
ATOM     63  C   UNL     1       0.827  12.693 -11.398  1.00  0.00     0.074 A 
ATOM     64  C   UNL     1      -4.282  12.574 -15.167  1.00  0.00     0.029 A 
ATOM     65  N   UNL     1      -2.867  12.351 -13.464  1.00  0.00    -0.354 N 
ATOM     66  N   UNL     1      -0.278  12.637 -12.102  1.00  0.00    -0.248 NA
ATOM     67  C   UNL     1       2.001  13.131 -12.169  1.00  0.00     0.031 C 
ATOM     68  C   UNL     1      -3.010  12.967 -15.593  1.00  0.00     0.029 A 
ATOM     69  C   UNL     1      -2.135  12.862 -14.523  1.00  0.00     0.049 A 
ATOM     70  H   UNL     1      -2.506  12.158 -12.569  1.00  0.00     0.167 HD
ATOM     71  C   UNL     1       0.057  13.069 -13.380  1.00  0.00     0.074 A 
ATOM     72  C   UNL     1       1.469  13.387 -13.356  1.00  0.00     0.031 C 
ATOM     73  C   UNL     1      -0.735  13.197 -14.474  1.00  0.00     0.037 A 
BRANCH  60  74
ATOM     74  C   UNL     1      -6.573  11.375 -13.597  1.00  0.00     0.064 A 
ATOM     75  C   UNL     1      -7.687  12.122 -13.186  1.00  0.00     0.173 A 
ATOM     76  C   UNL     1      -6.761  10.418 -14.606  1.00  0.00     0.173 A 
ATOM     77  F   UNL     1      -7.565  13.038 -12.214  1.00  0.00    -0.203 F 
ATOM     78  C   UNL     1      -8.944  11.899 -13.743  1.00  0.00     0.198 A 
ATOM     79  C   UNL     1      -8.011  10.222 -15.185  1.00  0.00     0.198 A 
ATOM     80  F   UNL     1      -5.729   9.678 -15.038  1.00  0.00    -0.203 F 
ATOM     81  F   UNL     1     -10.004  12.586 -13.297  1.00  0.00    -0.200 F 
ATOM     82  C   UNL     1      -9.103  10.956 -14.748  1.00  0.00     0.200 A 
ATOM     83  F   UNL     1      -8.159   9.321 -16.166  1.00  0.00    -0.200 F 
ATOM     84  F   UNL     1     -10.311  10.749 -15.289  1.00  0.00    -0.200 F 
ENDBRANCH  60  74
BRANCH  61  85
ATOM     85  C   UNL     1       2.402  12.498  -9.335  1.00  0.00     0.064 A 
ATOM     86  C   UNL     1       3.015  13.751  -9.189  1.00  0.00     0.173 A 
ATOM     87  C   UNL     1       3.125  11.370  -8.918  1.00  0.00     0.173 A 
ATOM     88  F   UNL     1       2.378  14.858  -9.598  1.00  0.00    -0.203 F 
ATOM     89  C   UNL     1       4.303  13.869  -8.671  1.00  0.00     0.198 A 
ATOM     90  C   UNL     1       4.401  11.492  -8.370  1.00  0.00     0.198 A 
ATOM     91  F   UNL     1       2.590  10.146  -9.039  1.00  0.00    -0.203 F 
ATOM     92  F   UNL     1       4.885  15.074  -8.596  1.00  0.00    -0.200 F 
ATOM     93  C   UNL     1       4.993  12.740  -8.256  1.00  0.00     0.200 A 
ATOM     94  F   UNL     1       5.059  10.399  -7.959  1.00  0.00    -0.200 F 
ATOM     95  F   UNL     1       6.231  12.854  -7.758  1.00  0.00    -0.200 F 
ENDBRANCH  61  85
BRANCH  73  96
ATOM     96  C   UNL     1      -0.122  13.763 -15.724  1.00  0.00     0.064 A 
ATOM     97  C   UNL     1       0.781  13.030 -16.507  1.00  0.00     0.173 A 
ATOM     98  C   UNL     1      -0.515  15.029 -16.187  1.00  0.00     0.173 A 
ATOM     99  F   UNL     1       1.198  11.820 -16.103  1.00  0.00    -0.203 F 
ATOM    100  C   UNL     1       1.278  13.549 -17.700  1.00  0.00     0.198 A 
ATOM    101  C   UNL     1      -0.043  15.530 -17.396  1.00  0.00     0.198 A 
ATOM    102  F   UNL     1      -1.383  15.768 -15.480  1.00  0.00    -0.203 F 
ATOM    103  F   UNL     1       2.167  12.846 -18.415  1.00  0.00    -0.200 F 
ATOM    104  C   UNL     1       0.857  14.792 -18.149  1.00  0.00     0.200 A 
ATOM    105  F   UNL     1      -0.467  16.723 -17.837  1.00  0.00    -0.200 F 
ATOM    106  F   UNL     1       1.319  15.280 -19.309  1.00  0.00    -0.200 F 
ENDBRANCH  73  96
ENDBRANCH  47  48
ENDBRANCH  40  42
ENDBRANCH  39  40
ENDBRANCH  38  39
ENDBRANCH  37  38
ENDBRANCH  36  37
ENDBRANCH  35  36
ENDBRANCH  34  35
ENDBRANCH   1  34
TORSDOF 23
