REMARK SMILES C[C@@H](C(=O)OCCOCCOCCOCCOC(=O)c1ccc(-c2c3nc(c(-c4c(F)c(F)c(F)c(F)c4F)c4ccc([nH]4)c(-c4c(F)c(F)c(F)c(F)c4F)c4nc(c(-c5c(F)c(F)c(F)c(F)c5F)c5ccc2[nH]5)C=C4)C=C3)cc1)c1ccc(-c2cccc(OC(=O)NCCCc3ccccc3)c2)c(F)c1
REMARK SMILES IDX 8 1 7 2 6 3 5 4 3 5 4 6 2 7 1 8 83 9 84 10 108 11 85 12
REMARK SMILES IDX 106 13 86 14 107 15 87 16 88 17 105 18 89 19 91 20 90 21
REMARK SMILES IDX 92 22 93 23 94 24 95 25 96 27 97 28 98 29 99 30 100 31
REMARK SMILES IDX 104 32 101 33 103 34 102 35 9 36 10 37 11 38 12 39 13 40
REMARK SMILES IDX 14 41 15 42 16 43 17 44 18 45 19 46 20 47 21 48 82 49 22 50
REMARK SMILES IDX 81 51 23 52 24 53 25 54 75 55 26 56 80 57 74 58 76 59 27 60
REMARK SMILES IDX 79 61 73 62 72 63 28 65 60 66 40 67 59 68 41 69 44 70 58 71
REMARK SMILES IDX 77 72 42 73 43 74 57 76 78 77 45 78 29 79 30 80 38 81 31 82
REMARK SMILES IDX 32 83 36 84 39 85 33 86 34 87 37 88 35 89 61 90 62 91 70 92
REMARK SMILES IDX 63 93 64 94 68 95 71 96 65 97 66 98 69 99 67 100 46 101
REMARK SMILES IDX 47 102 55 103 48 104 49 105 53 106 56 107 50 108 51 109
REMARK SMILES IDX 54 110 52 111
REMARK H PARENT 95 26 76 64 44 75
REMARK Flexibility Score: inf
ROOT
ATOM      1  O   UNL     1       0.772  -1.101  -4.553  1.00  0.00    -0.376 OA
ENDROOT
BRANCH   1   2
ATOM      2  C   UNL     1       2.024  -0.470  -4.767  1.00  0.00     0.202 C 
BRANCH   2   3
ATOM      3  C   UNL     1       2.421   0.818  -4.020  1.00  0.00     0.261 C 
BRANCH   3   4
ATOM      4  O   UNL     1       2.030   0.916  -2.638  1.00  0.00    -0.463 OA
BRANCH   4   5
ATOM      5  C   UNL     1       1.032   1.790  -2.360  1.00  0.00     0.313 C 
ATOM      6  O   UNL     1       0.506   2.510  -3.204  1.00  0.00    -0.252 OA
BRANCH   5   7
ATOM      7  C   UNL     1       0.583   1.794  -0.885  1.00  0.00     0.126 C 
ATOM      8  C   UNL     1       1.403   1.003   0.145  1.00  0.00     0.025 C 
BRANCH   7   9
ATOM      9  C   UNL     1      -0.922   1.548  -0.812  1.00  0.00    -0.031 A 
ATOM     10  C   UNL     1      -1.784   2.638  -0.997  1.00  0.00     0.005 A 
ATOM     11  C   UNL     1      -1.494   0.273  -0.704  1.00  0.00     0.044 A 
ATOM     12  C   UNL     1      -3.168   2.463  -1.069  1.00  0.00     0.012 A 
ATOM     13  C   UNL     1      -2.874   0.102  -0.809  1.00  0.00     0.131 A 
ATOM     14  C   UNL     1      -3.742   1.188  -0.973  1.00  0.00     0.018 A 
ATOM     15  F   UNL     1      -3.354  -1.151  -0.747  1.00  0.00    -0.206 F 
BRANCH  14  16
ATOM     16  C   UNL     1      -5.202   1.032  -0.931  1.00  0.00    -0.012 A 
ATOM     17  C   UNL     1      -6.058   1.666  -1.845  1.00  0.00     0.009 A 
ATOM     18  C   UNL     1      -5.775   0.290   0.112  1.00  0.00     0.056 A 
ATOM     19  C   UNL     1      -7.446   1.586  -1.699  1.00  0.00     0.004 A 
ATOM     20  C   UNL     1      -7.152   0.222   0.266  1.00  0.00     0.133 A 
ATOM     21  C   UNL     1      -7.995   0.871  -0.636  1.00  0.00     0.047 A 
BRANCH  20  22
ATOM     22  O   UNL     1      -7.789  -0.481   1.312  1.00  0.00    -0.410 OA
BRANCH  22  23
ATOM     23  C   UNL     1      -7.154  -1.079   2.399  1.00  0.00     0.412 C 
ATOM     24  O   UNL     1      -5.955  -1.084   2.646  1.00  0.00    -0.224 OA
ATOM     25  N   UNL     1      -8.027  -1.692   3.251  1.00  0.00    -0.321 N 
ATOM     26  H   UNL     1      -7.643  -2.227   3.983  1.00  0.00     0.167 HD
BRANCH  25  27
ATOM     27  C   UNL     1      -9.464  -1.622   3.167  1.00  0.00     0.120 C 
BRANCH  27  28
ATOM     28  C   UNL     1     -10.179  -2.868   3.683  1.00  0.00     0.026 C 
BRANCH  28  29
ATOM     29  C   UNL     1      -9.641  -3.541   4.953  1.00  0.00     0.037 C 
BRANCH  29  30
ATOM     30  C   UNL     1      -9.785  -2.874   6.301  1.00  0.00    -0.048 A 
ATOM     31  C   UNL     1      -9.985  -1.505   6.498  1.00  0.00     0.004 A 
ATOM     32  C   UNL     1      -9.642  -3.686   7.442  1.00  0.00     0.004 A 
ATOM     33  C   UNL     1     -10.027  -0.960   7.786  1.00  0.00     0.000 A 
ATOM     34  C   UNL     1      -9.696  -3.146   8.729  1.00  0.00     0.000 A 
ATOM     35  C   UNL     1      -9.882  -1.779   8.901  1.00  0.00     0.000 A 
ENDBRANCH  29  30
ENDBRANCH  28  29
ENDBRANCH  27  28
ENDBRANCH  25  27
ENDBRANCH  22  23
ENDBRANCH  20  22
ENDBRANCH  14  16
ENDBRANCH   7   9
ENDBRANCH   5   7
ENDBRANCH   4   5
ENDBRANCH   3   4
ENDBRANCH   2   3
ENDBRANCH   1   2
BRANCH   1  36
ATOM     36  C   UNL     1       0.296  -1.316  -3.233  1.00  0.00     0.188 C 
BRANCH  36  37
ATOM     37  C   UNL     1       1.260  -1.743  -2.106  1.00  0.00     0.188 C 
BRANCH  37  38
ATOM     38  O   UNL     1       2.627  -1.778  -2.469  1.00  0.00    -0.377 OA
BRANCH  38  39
ATOM     39  C   UNL     1       3.145  -3.070  -2.745  1.00  0.00     0.188 C 
BRANCH  39  40
ATOM     40  C   UNL     1       2.288  -3.974  -3.652  1.00  0.00     0.188 C 
BRANCH  40  41
ATOM     41  O   UNL     1       0.965  -4.174  -3.164  1.00  0.00    -0.376 OA
BRANCH  41  42
ATOM     42  C   UNL     1       0.676  -5.376  -2.464  1.00  0.00     0.202 C 
BRANCH  42  43
ATOM     43  C   UNL     1       1.271  -5.514  -1.052  1.00  0.00     0.261 C 
BRANCH  43  44
ATOM     44  O   UNL     1       2.705  -5.478  -0.962  1.00  0.00    -0.460 OA
BRANCH  44  45
ATOM     45  C   UNL     1       3.409  -6.371  -1.687  1.00  0.00     0.338 C 
ATOM     46  O   UNL     1       2.968  -7.291  -2.355  1.00  0.00    -0.246 OA
BRANCH  45  47
ATOM     47  C   UNL     1       4.814  -5.915  -1.724  1.00  0.00     0.060 A 
ATOM     48  C   UNL     1       5.412  -5.682  -2.970  1.00  0.00     0.016 A 
ATOM     49  C   UNL     1       5.531  -5.697  -0.544  1.00  0.00     0.016 A 
ATOM     50  C   UNL     1       6.739  -5.262  -3.042  1.00  0.00     0.010 A 
ATOM     51  C   UNL     1       6.871  -5.305  -0.618  1.00  0.00     0.010 A 
ATOM     52  C   UNL     1       7.489  -5.121  -1.868  1.00  0.00    -0.014 A 
BRANCH  52  53
ATOM     53  C   UNL     1       8.965  -5.010  -1.959  1.00  0.00     0.031 A 
ATOM     54  C   UNL     1       9.776  -6.268  -1.810  1.00  0.00     0.074 A 
ATOM     55  C   UNL     1       9.572  -3.836  -2.204  1.00  0.00     0.049 A 
ATOM     56  N   UNL     1      11.074  -6.429  -1.806  1.00  0.00    -0.248 NA
ATOM     57  C   UNL     1       9.014  -7.516  -1.639  1.00  0.00     0.031 C 
ATOM     58  C   UNL     1       8.892  -2.562  -2.422  1.00  0.00     0.029 A 
ATOM     59  N   UNL     1      10.906  -3.530  -2.304  1.00  0.00    -0.354 N 
ATOM     60  C   UNL     1      11.282  -7.790  -1.625  1.00  0.00     0.074 A 
ATOM     61  C   UNL     1       9.981  -8.407  -1.491  1.00  0.00     0.031 C 
ATOM     62  C   UNL     1       9.817  -1.605  -2.619  1.00  0.00     0.029 A 
ATOM     63  C   UNL     1      11.151  -2.194  -2.504  1.00  0.00     0.049 A 
ATOM     64  H   UNL     1      11.620  -4.205  -2.239  1.00  0.00     0.167 HD
ATOM     65  C   UNL     1      12.454  -8.467  -1.583  1.00  0.00     0.037 A 
ATOM     66  C   UNL     1      12.320  -1.526  -2.560  1.00  0.00     0.037 A 
ATOM     67  C   UNL     1      13.745  -7.848  -1.714  1.00  0.00     0.049 A 
ATOM     68  C   UNL     1      13.614  -2.291  -2.421  1.00  0.00     0.074 A 
ATOM     69  C   UNL     1      14.993  -8.445  -1.698  1.00  0.00     0.029 A 
ATOM     70  N   UNL     1      13.955  -6.486  -1.873  1.00  0.00    -0.354 N 
ATOM     71  N   UNL     1      13.806  -3.580  -2.272  1.00  0.00    -0.248 NA
ATOM     72  C   UNL     1      14.856  -1.505  -2.460  1.00  0.00     0.031 C 
ATOM     73  C   UNL     1      15.959  -7.437  -1.781  1.00  0.00     0.029 A 
ATOM     74  C   UNL     1      15.313  -6.220  -1.923  1.00  0.00     0.049 A 
ATOM     75  H   UNL     1      13.243  -5.809  -1.940  1.00  0.00     0.167 HD
ATOM     76  C   UNL     1      15.184  -3.762  -2.236  1.00  0.00     0.074 A 
ATOM     77  C   UNL     1      15.780  -2.452  -2.392  1.00  0.00     0.031 C 
ATOM     78  C   UNL     1      15.892  -4.910  -2.090  1.00  0.00     0.037 A 
BRANCH  65  79
ATOM     79  C   UNL     1      12.391  -9.949  -1.349  1.00  0.00     0.064 A 
ATOM     80  C   UNL     1      11.887 -10.833  -2.316  1.00  0.00     0.173 A 
ATOM     81  C   UNL     1      12.864 -10.494  -0.146  1.00  0.00     0.173 A 
ATOM     82  F   UNL     1      11.405 -10.363  -3.476  1.00  0.00    -0.203 F 
ATOM     83  C   UNL     1      11.834 -12.204  -2.074  1.00  0.00     0.198 A 
ATOM     84  C   UNL     1      12.842 -11.868   0.078  1.00  0.00     0.198 A 
ATOM     85  F   UNL     1      13.357  -9.694   0.812  1.00  0.00    -0.203 F 
ATOM     86  F   UNL     1      11.298 -13.023  -2.990  1.00  0.00    -0.200 F 
ATOM     87  C   UNL     1      12.319 -12.720  -0.882  1.00  0.00     0.200 A 
ATOM     88  F   UNL     1      13.323 -12.366   1.225  1.00  0.00    -0.200 F 
ATOM     89  F   UNL     1      12.274 -14.040  -0.655  1.00  0.00    -0.200 F 
ENDBRANCH  65  79
BRANCH  66  90
ATOM     90  C   UNL     1      12.329  -0.049  -2.738  1.00  0.00     0.064 A 
ATOM     91  C   UNL     1      12.856   0.540  -3.896  1.00  0.00     0.173 A 
ATOM     92  C   UNL     1      11.843   0.808  -1.738  1.00  0.00     0.173 A 
ATOM     93  F   UNL     1      13.359  -0.233  -4.870  1.00  0.00    -0.203 F 
ATOM     94  C   UNL     1      12.916   1.925  -4.038  1.00  0.00     0.198 A 
ATOM     95  C   UNL     1      11.874   2.192  -1.895  1.00  0.00     0.198 A 
ATOM     96  F   UNL     1      11.334   0.299  -0.606  1.00  0.00    -0.203 F 
ATOM     97  F   UNL     1      13.476   2.461  -5.132  1.00  0.00    -0.200 F 
ATOM     98  C   UNL     1      12.419   2.750  -3.040  1.00  0.00     0.200 A 
ATOM     99  F   UNL     1      11.382   2.984  -0.932  1.00  0.00    -0.200 F 
ATOM    100  F   UNL     1      12.477   4.082  -3.177  1.00  0.00    -0.200 F 
ENDBRANCH  66  90
BRANCH  78 101
ATOM    101  C   UNL     1      17.392  -4.813  -2.141  1.00  0.00     0.064 A 
ATOM    102  C   UNL     1      18.132  -4.212  -1.113  1.00  0.00     0.173 A 
ATOM    103  C   UNL     1      18.100  -5.375  -3.216  1.00  0.00     0.173 A 
ATOM    104  F   UNL     1      17.505  -3.650  -0.068  1.00  0.00    -0.203 F 
ATOM    105  C   UNL     1      19.523  -4.150  -1.173  1.00  0.00     0.198 A 
ATOM    106  C   UNL     1      19.491  -5.344  -3.255  1.00  0.00     0.198 A 
ATOM    107  F   UNL     1      17.442  -5.972  -4.221  1.00  0.00    -0.203 F 
ATOM    108  F   UNL     1      20.206  -3.523  -0.206  1.00  0.00    -0.200 F 
ATOM    109  C   UNL     1      20.201  -4.723  -2.239  1.00  0.00     0.200 A 
ATOM    110  F   UNL     1      20.144  -5.916  -4.276  1.00  0.00    -0.200 F 
ATOM    111  F   UNL     1      21.539  -4.672  -2.290  1.00  0.00    -0.200 F 
ENDBRANCH  78 101
ENDBRANCH  52  53
ENDBRANCH  45  47
ENDBRANCH  44  45
ENDBRANCH  43  44
ENDBRANCH  42  43
ENDBRANCH  41  42
ENDBRANCH  40  41
ENDBRANCH  39  40
ENDBRANCH  38  39
ENDBRANCH  37  38
ENDBRANCH  36  37
ENDBRANCH   1  36
TORSDOF 28
