REMARK SMILES Cc1c(C(=O)OCCOCCOCCOCCOC(=O)c2ccc(-c3c4nc(c(-c5c(F)c(F)c(F)c(F)c5F)c5ccc([nH]5)c(-c5c(F)c(F)c(F)c(F)c5F)c5nc(c(-c6c(F)c(F)c(F)c(F)c6F)c6ccc3[nH]6)C=C5)C=C4)cc2)cccc1N1[C@@H](C)C=C(/C=C(\C#N)C(=O)NCCc2c[nH]c3ccccc23)[C@@H]1C
REMARK SMILES IDX 10 1 9 2 8 3 7 4 6 5 4 6 5 7 3 8 1 9 2 10 87 11 84 12 86 13
REMARK SMILES IDX 85 14 88 15 89 16 111 17 91 18 90 19 92 20 112 21 93 22
REMARK SMILES IDX 94 23 95 24 96 25 97 26 98 27 99 28 100 30 101 31 102 32
REMARK SMILES IDX 103 33 110 34 104 35 105 36 109 37 106 39 108 40 107 41
REMARK SMILES IDX 11 42 12 43 13 44 14 45 15 46 16 47 17 48 18 49 19 50 20 51
REMARK SMILES IDX 21 52 22 53 83 54 23 55 82 56 24 57 25 58 26 59 76 60 27 61
REMARK SMILES IDX 81 62 75 63 77 64 28 65 80 66 74 67 73 68 29 70 61 71 41 72
REMARK SMILES IDX 60 73 42 74 45 75 59 76 78 77 43 78 44 79 58 81 79 82 46 83
REMARK SMILES IDX 30 84 31 85 39 86 32 87 33 88 37 89 40 90 34 91 35 92 38 93
REMARK SMILES IDX 36 94 62 95 63 96 71 97 64 98 65 99 69 100 72 101 66 102
REMARK SMILES IDX 67 103 70 104 68 105 47 106 48 107 56 108 49 109 50 110
REMARK SMILES IDX 54 111 57 112 51 113 52 114 55 115 53 116
REMARK H PARENT 99 29 104 38 77 69 45 80
REMARK Flexibility Score: inf
ROOT
ATOM      1  C   UNL     1      -1.042  -2.377   2.159  1.00  0.00     0.188 C 
ENDROOT
BRANCH   1   2
ATOM      2  O   UNL     1      -0.783  -3.758   1.983  1.00  0.00    -0.376 OA
BRANCH   2   3
ATOM      3  C   UNL     1       0.104  -4.083   0.928  1.00  0.00     0.202 C 
BRANCH   3   4
ATOM      4  C   UNL     1      -0.320  -3.764  -0.486  1.00  0.00     0.261 C 
BRANCH   4   5
ATOM      5  O   UNL     1      -0.148  -2.375  -0.734  1.00  0.00    -0.460 OA
BRANCH   5   6
ATOM      6  C   UNL     1      -1.238  -1.782  -1.220  1.00  0.00     0.338 C 
ATOM      7  O   UNL     1      -2.184  -2.356  -1.743  1.00  0.00    -0.246 OA
BRANCH   6   8
ATOM      8  C   UNL     1      -1.309  -0.365  -0.782  1.00  0.00     0.065 A 
ATOM      9  C   UNL     1       1.085   0.116   0.066  1.00  0.00     0.047 C 
ATOM     10  C   UNL     1      -0.268   0.537  -0.446  1.00  0.00    -0.013 A 
ATOM     11  C   UNL     1      -0.586   1.897  -0.242  1.00  0.00     0.041 A 
ATOM     12  C   UNL     1      -2.641   0.010  -0.554  1.00  0.00     0.016 A 
ATOM     13  C   UNL     1      -1.945   2.236  -0.102  1.00  0.00     0.026 A 
ATOM     14  C   UNL     1      -2.957   1.292  -0.169  1.00  0.00     0.003 A 
BRANCH  11  15
ATOM     15  N   UNL     1       0.379   2.848   0.022  1.00  0.00    -0.358 N 
ATOM     16  C   UNL     1       0.241   3.680   1.210  1.00  0.00     0.103 C 
ATOM     17  C   UNL     1       1.551   3.207  -0.806  1.00  0.00     0.110 C 
ATOM     18  C   UNL     1       1.457   4.520   1.130  1.00  0.00     0.003 C 
ATOM     19  C   UNL     1       0.290   2.872   2.506  1.00  0.00     0.035 C 
ATOM     20  C   UNL     1       2.252   4.215   0.097  1.00  0.00    -0.026 C 
ATOM     21  C   UNL     1       1.101   3.822  -2.134  1.00  0.00     0.036 C 
BRANCH  20  22
ATOM     22  C   UNL     1       3.571   4.764  -0.164  1.00  0.00     0.031 C 
ATOM     23  C   UNL     1       4.320   5.549   0.651  1.00  0.00     0.117 C 
BRANCH  23  24
ATOM     24  C   UNL     1       3.915   5.950   1.941  1.00  0.00     0.105 C 
ATOM     25  N   UNL     1       3.568   6.318   3.003  1.00  0.00    -0.192 NA
ENDBRANCH  23  24
BRANCH  23  26
ATOM     26  C   UNL     1       5.488   6.235   0.031  1.00  0.00     0.261 C 
ATOM     27  O   UNL     1       5.743   6.106  -1.168  1.00  0.00    -0.268 OA
ATOM     28  N   UNL     1       6.127   7.221   0.718  1.00  0.00    -0.351 N 
ATOM     29  H   UNL     1       6.240   8.047   0.195  1.00  0.00     0.163 HD
BRANCH  28  30
ATOM     30  C   UNL     1       6.686   7.314   2.080  1.00  0.00     0.121 C 
BRANCH  30  31
ATOM     31  C   UNL     1       8.069   6.625   2.304  1.00  0.00     0.059 C 
BRANCH  31  32
ATOM     32  C   UNL     1       9.255   7.254   1.554  1.00  0.00    -0.021 A 
ATOM     33  C   UNL     1       9.288   8.617   1.256  1.00  0.00     0.087 A 
ATOM     34  C   UNL     1       9.831   6.759   0.337  1.00  0.00     0.003 A 
ATOM     35  N   UNL     1       8.607   8.552   0.029  1.00  0.00    -0.361 N 
ATOM     36  C   UNL     1       9.110   7.451  -0.638  1.00  0.00     0.046 A 
ATOM     37  C   UNL     1      10.849   5.891  -0.089  1.00  0.00     0.010 A 
ATOM     38  H   UNL     1       7.909   9.167  -0.292  1.00  0.00     0.166 HD
ATOM     39  C   UNL     1       9.061   7.071  -1.974  1.00  0.00     0.026 A 
ATOM     40  C   UNL     1      10.984   5.664  -1.470  1.00  0.00     0.001 A 
ATOM     41  C   UNL     1      10.049   6.171  -2.380  1.00  0.00     0.002 A 
ENDBRANCH  31  32
ENDBRANCH  30  31
ENDBRANCH  28  30
ENDBRANCH  23  26
ENDBRANCH  20  22
ENDBRANCH  11  15
ENDBRANCH   6   8
ENDBRANCH   5   6
ENDBRANCH   4   5
ENDBRANCH   3   4
ENDBRANCH   2   3
ENDBRANCH   1   2
BRANCH   1  42
ATOM     42  C   UNL     1      -0.114  -1.482   2.998  1.00  0.00     0.188 C 
BRANCH  42  43
ATOM     43  O   UNL     1       1.232  -1.289   2.605  1.00  0.00    -0.377 OA
BRANCH  43  44
ATOM     44  C   UNL     1       2.223  -2.176   3.063  1.00  0.00     0.188 C 
BRANCH  44  45
ATOM     45  C   UNL     1       2.063  -2.889   4.362  1.00  0.00     0.188 C 
BRANCH  45  46
ATOM     46  O   UNL     1       0.956  -3.772   4.274  1.00  0.00    -0.376 OA
BRANCH  46  47
ATOM     47  C   UNL     1       0.240  -3.963   5.486  1.00  0.00     0.202 C 
BRANCH  47  48
ATOM     48  C   UNL     1       1.160  -4.246   6.679  1.00  0.00     0.261 C 
BRANCH  48  49
ATOM     49  O   UNL     1       1.878  -5.479   6.412  1.00  0.00    -0.460 OA
BRANCH  49  50
ATOM     50  C   UNL     1       3.196  -5.377   6.063  1.00  0.00     0.338 C 
ATOM     51  O   UNL     1       4.017  -4.685   6.645  1.00  0.00    -0.246 OA
BRANCH  50  52
ATOM     52  C   UNL     1       3.427  -5.944   4.680  1.00  0.00     0.060 A 
ATOM     53  C   UNL     1       4.628  -5.692   3.986  1.00  0.00     0.016 A 
ATOM     54  C   UNL     1       2.319  -6.308   3.938  1.00  0.00     0.016 A 
ATOM     55  C   UNL     1       4.641  -5.559   2.571  1.00  0.00     0.010 A 
ATOM     56  C   UNL     1       2.328  -6.061   2.570  1.00  0.00     0.010 A 
ATOM     57  C   UNL     1       3.453  -5.600   1.854  1.00  0.00    -0.014 A 
BRANCH  57  58
ATOM     58  C   UNL     1       3.237  -5.165   0.426  1.00  0.00     0.031 A 
ATOM     59  C   UNL     1       2.452  -6.126  -0.459  1.00  0.00     0.074 A 
ATOM     60  C   UNL     1       3.373  -3.851   0.040  1.00  0.00     0.049 A 
ATOM     61  N   UNL     1       1.970  -5.875  -1.629  1.00  0.00    -0.248 NA
ATOM     62  C   UNL     1       2.038  -7.457  -0.020  1.00  0.00     0.031 C 
ATOM     63  C   UNL     1       2.677  -3.179  -1.063  1.00  0.00     0.029 A 
ATOM     64  N   UNL     1       4.083  -2.760   0.584  1.00  0.00    -0.354 N 
ATOM     65  C   UNL     1       0.918  -6.749  -1.901  1.00  0.00     0.074 A 
ATOM     66  C   UNL     1       1.052  -7.751  -0.876  1.00  0.00     0.031 C 
ATOM     67  C   UNL     1       3.046  -1.900  -1.214  1.00  0.00     0.029 A 
ATOM     68  C   UNL     1       4.232  -1.778  -0.433  1.00  0.00     0.049 A 
ATOM     69  H   UNL     1       4.417  -2.691   1.508  1.00  0.00     0.167 HD
ATOM     70  C   UNL     1       0.001  -6.420  -2.880  1.00  0.00     0.037 A 
ATOM     71  C   UNL     1       5.452  -1.514  -0.972  1.00  0.00     0.037 A 
ATOM     72  C   UNL     1       0.406  -5.156  -3.557  1.00  0.00     0.049 A 
ATOM     73  C   UNL     1       5.429  -2.056  -2.421  1.00  0.00     0.074 A 
ATOM     74  C   UNL     1      -0.181  -3.925  -3.805  1.00  0.00     0.029 A 
ATOM     75  N   UNL     1       1.750  -4.976  -3.903  1.00  0.00    -0.354 N 
ATOM     76  N   UNL     1       4.579  -2.974  -2.853  1.00  0.00    -0.248 NA
ATOM     77  C   UNL     1       6.145  -1.464  -3.540  1.00  0.00     0.031 C 
ATOM     78  C   UNL     1       0.833  -3.010  -4.237  1.00  0.00     0.029 A 
ATOM     79  C   UNL     1       2.044  -3.688  -4.303  1.00  0.00     0.049 A 
ATOM     80  H   UNL     1       2.419  -5.697  -3.865  1.00  0.00     0.167 HD
ATOM     81  C   UNL     1       4.418  -2.901  -4.214  1.00  0.00     0.074 A 
ATOM     82  C   UNL     1       5.565  -2.078  -4.594  1.00  0.00     0.031 C 
ATOM     83  C   UNL     1       3.336  -3.394  -4.929  1.00  0.00     0.037 A 
BRANCH  70  84
ATOM     84  C   UNL     1      -1.371  -7.108  -3.162  1.00  0.00     0.064 A 
ATOM     85  C   UNL     1      -2.320  -6.540  -4.057  1.00  0.00     0.173 A 
ATOM     86  C   UNL     1      -1.827  -8.324  -2.602  1.00  0.00     0.173 A 
ATOM     87  F   UNL     1      -2.046  -5.444  -4.772  1.00  0.00    -0.203 F 
ATOM     88  C   UNL     1      -3.594  -7.088  -4.306  1.00  0.00     0.198 A 
ATOM     89  C   UNL     1      -3.097  -8.882  -2.860  1.00  0.00     0.198 A 
ATOM     90  F   UNL     1      -1.059  -9.072  -1.812  1.00  0.00    -0.203 F 
ATOM     91  F   UNL     1      -4.432  -6.473  -5.155  1.00  0.00    -0.200 F 
ATOM     92  C   UNL     1      -3.986  -8.260  -3.705  1.00  0.00     0.200 A 
ATOM     93  F   UNL     1      -3.439 -10.046  -2.287  1.00  0.00    -0.200 F 
ATOM     94  F   UNL     1      -5.185  -8.801  -3.961  1.00  0.00    -0.200 F 
ENDBRANCH  70  84
BRANCH  71  95
ATOM     95  C   UNL     1       6.426  -1.453   0.185  1.00  0.00     0.064 A 
ATOM     96  C   UNL     1       6.116  -0.444   1.155  1.00  0.00     0.173 A 
ATOM     97  C   UNL     1       6.968  -2.641   0.697  1.00  0.00     0.173 A 
ATOM     98  F   UNL     1       5.620   0.739   0.751  1.00  0.00    -0.203 F 
ATOM     99  C   UNL     1       6.045  -0.736   2.524  1.00  0.00     0.198 A 
ATOM    100  C   UNL     1       6.950  -2.901   2.081  1.00  0.00     0.198 A 
ATOM    101  F   UNL     1       7.293  -3.639  -0.136  1.00  0.00    -0.203 F 
ATOM    102  F   UNL     1       5.487   0.141   3.375  1.00  0.00    -0.200 F 
ATOM    103  C   UNL     1       6.405  -1.989   2.976  1.00  0.00     0.200 A 
ATOM    104  F   UNL     1       7.343  -4.098   2.539  1.00  0.00    -0.200 F 
ATOM    105  F   UNL     1       6.154  -2.347   4.245  1.00  0.00    -0.200 F 
ENDBRANCH  71  95
BRANCH  83 106
ATOM    106  C   UNL     1       3.394  -3.768  -6.396  1.00  0.00     0.064 A 
ATOM    107  C   UNL     1       4.155  -3.093  -7.341  1.00  0.00     0.173 A 
ATOM    108  C   UNL     1       2.716  -4.921  -6.885  1.00  0.00     0.173 A 
ATOM    109  F   UNL     1       4.546  -1.831  -7.136  1.00  0.00    -0.203 F 
ATOM    110  C   UNL     1       4.476  -3.683  -8.562  1.00  0.00     0.198 A 
ATOM    111  C   UNL     1       2.971  -5.470  -8.131  1.00  0.00     0.198 A 
ATOM    112  F   UNL     1       1.786  -5.582  -6.186  1.00  0.00    -0.203 F 
ATOM    113  F   UNL     1       5.351  -3.074  -9.372  1.00  0.00    -0.200 F 
ATOM    114  C   UNL     1       3.914  -4.889  -8.940  1.00  0.00     0.200 A 
ATOM    115  F   UNL     1       2.322  -6.579  -8.512  1.00  0.00    -0.200 F 
ATOM    116  F   UNL     1       4.255  -5.473 -10.094  1.00  0.00    -0.200 F 
ENDBRANCH  83 106
ENDBRANCH  57  58
ENDBRANCH  50  52
ENDBRANCH  49  50
ENDBRANCH  48  49
ENDBRANCH  47  48
ENDBRANCH  46  47
ENDBRANCH  45  46
ENDBRANCH  44  45
ENDBRANCH  43  44
ENDBRANCH  42  43
ENDBRANCH   1  42
TORSDOF 27
