REMARK SMILES CCCCCCNC(=O)Oc1cccc(-c2ccc([C@@H](C)C(=O)OCCOCCOCCOCCOC(=O)c3ccc(-c4c5nc(c(-c6c(F)c(F)c(F)c(F)c6F)c6ccc([nH]6)c(-c6c(F)c(F)c(F)c(F)c6F)c6nc(c(-c7c(F)c(F)c(F)c(F)c7F)c7ccc4[nH]7)C=C6)C=C5)cc3)cc2C(F)(F)F)c1
REMARK SMILES IDX 26 1 25 2 24 3 22 4 23 5 20 6 21 7 19 8 16 9 17 10 103 11
REMARK SMILES IDX 18 12 102 13 15 14 11 15 12 16 108 17 13 18 14 19 10 20 8 21
REMARK SMILES IDX 7 22 9 24 6 25 5 26 4 27 3 28 2 29 1 30 104 31 105 32 106 33
REMARK SMILES IDX 107 34 27 35 28 36 29 37 30 38 31 39 32 40 33 41 34 42 35 43
REMARK SMILES IDX 36 44 37 45 38 46 39 47 40 48 101 49 41 50 100 51 42 52
REMARK SMILES IDX 43 53 44 54 94 55 45 56 99 57 93 58 95 59 46 60 98 61 92 62
REMARK SMILES IDX 91 63 47 65 79 66 59 67 78 68 60 69 63 70 77 71 96 72 61 73
REMARK SMILES IDX 62 74 76 76 97 77 64 78 48 79 49 80 57 81 50 82 51 83 55 84
REMARK SMILES IDX 58 85 52 86 53 87 56 88 54 89 80 90 81 91 89 92 82 93 83 94
REMARK SMILES IDX 87 95 90 96 84 97 85 98 88 99 86 100 65 101 66 102 74 103
REMARK SMILES IDX 67 104 68 105 72 106 75 107 69 108 70 109 73 110 71 111
REMARK H PARENT 7 23 95 64 63 75
REMARK Flexibility Score: inf
ROOT
ATOM      1  C   UNL     1      -1.233   8.265 -13.379  1.00  0.00     0.202 C 
ENDROOT
BRANCH   1   2
ATOM      2  C   UNL     1      -2.699   8.669 -13.629  1.00  0.00     0.261 C 
BRANCH   2   3
ATOM      3  O   UNL     1      -3.704   8.056 -12.792  1.00  0.00    -0.463 OA
BRANCH   3   4
ATOM      4  C   UNL     1      -4.468   7.106 -13.377  1.00  0.00     0.313 C 
ATOM      5  O   UNL     1      -4.355   6.782 -14.559  1.00  0.00    -0.252 OA
BRANCH   4   6
ATOM      6  C   UNL     1      -5.532   6.456 -12.492  1.00  0.00     0.126 C 
ATOM      7  C   UNL     1      -6.902   6.941 -12.952  1.00  0.00     0.025 C 
BRANCH   6   8
ATOM      8  C   UNL     1      -5.421   6.465 -10.965  1.00  0.00    -0.033 A 
ATOM      9  C   UNL     1      -5.177   6.321  -8.095  1.00  0.00    -0.006 A 
ATOM     10  C   UNL     1      -5.234   7.550  -8.792  1.00  0.00     0.009 A 
ATOM     11  C   UNL     1      -5.247   5.140  -8.862  1.00  0.00     0.064 A 
ATOM     12  C   UNL     1      -5.357   7.625 -10.194  1.00  0.00     0.005 A 
ATOM     13  C   UNL     1      -5.374   5.234 -10.274  1.00  0.00     0.018 A 
BRANCH   9  14
ATOM     14  C   UNL     1      -5.136   6.330  -6.613  1.00  0.00    -0.014 A 
ATOM     15  C   UNL     1      -4.163   5.698  -4.472  1.00  0.00     0.133 A 
ATOM     16  C   UNL     1      -5.254   6.228  -3.785  1.00  0.00     0.047 A 
ATOM     17  C   UNL     1      -4.088   5.752  -5.871  1.00  0.00     0.056 A 
ATOM     18  C   UNL     1      -6.279   6.834  -4.502  1.00  0.00     0.004 A 
ATOM     19  C   UNL     1      -6.221   6.879  -5.899  1.00  0.00     0.009 A 
BRANCH  15  20
ATOM     20  O   UNL     1      -3.244   4.966  -3.692  1.00  0.00    -0.410 OA
BRANCH  20  21
ATOM     21  C   UNL     1      -1.888   5.230  -3.797  1.00  0.00     0.412 C 
ATOM     22  N   UNL     1      -1.117   4.441  -2.987  1.00  0.00    -0.321 N 
ATOM     23  H   UNL     1      -0.142   4.562  -3.058  1.00  0.00     0.167 HD
ATOM     24  O   UNL     1      -1.380   6.085  -4.514  1.00  0.00    -0.224 OA
BRANCH  22  25
ATOM     25  C   UNL     1      -1.574   3.444  -2.035  1.00  0.00     0.119 C 
BRANCH  25  26
ATOM     26  C   UNL     1      -0.971   2.063  -2.300  1.00  0.00     0.021 C 
BRANCH  26  27
ATOM     27  C   UNL     1       0.557   1.984  -2.178  1.00  0.00     0.002 C 
BRANCH  27  28
ATOM     28  C   UNL     1       1.132   2.329  -0.799  1.00  0.00    -0.000 C 
BRANCH  28  29
ATOM     29  C   UNL     1       0.666   1.435   0.353  1.00  0.00    -0.003 C 
ATOM     30  C   UNL     1       1.075  -0.022   0.193  1.00  0.00     0.004 C 
ENDBRANCH  28  29
ENDBRANCH  27  28
ENDBRANCH  26  27
ENDBRANCH  25  26
ENDBRANCH  22  25
ENDBRANCH  20  21
ENDBRANCH  15  20
ENDBRANCH   9  14
BRANCH  11  31
ATOM     31  C   UNL     1      -5.145   3.749  -8.271  1.00  0.00     0.417 C 
ATOM     32  F   UNL     1      -5.859   2.827  -8.984  1.00  0.00    -0.166 F 
ATOM     33  F   UNL     1      -3.858   3.293  -8.283  1.00  0.00    -0.166 F 
ATOM     34  F   UNL     1      -5.581   3.612  -6.992  1.00  0.00    -0.166 F 
ENDBRANCH  11  31
ENDBRANCH   6   8
ENDBRANCH   4   6
ENDBRANCH   3   4
ENDBRANCH   2   3
ENDBRANCH   1   2
BRANCH   1  35
ATOM     35  O   UNL     1      -0.847   6.901 -13.324  1.00  0.00    -0.376 OA
BRANCH  35  36
ATOM     36  C   UNL     1      -1.525   5.985 -12.476  1.00  0.00     0.188 C 
BRANCH  36  37
ATOM     37  C   UNL     1      -2.031   6.415 -11.092  1.00  0.00     0.188 C 
BRANCH  37  38
ATOM     38  O   UNL     1      -1.927   7.796 -10.813  1.00  0.00    -0.377 OA
BRANCH  38  39
ATOM     39  C   UNL     1      -0.854   8.196  -9.977  1.00  0.00     0.188 C 
BRANCH  39  40
ATOM     40  C   UNL     1       0.499   7.488 -10.178  1.00  0.00     0.188 C 
BRANCH  40  41
ATOM     41  O   UNL     1       0.424   6.068 -10.131  1.00  0.00    -0.376 OA
BRANCH  41  42
ATOM     42  C   UNL     1       0.703   5.410  -8.902  1.00  0.00     0.202 C 
BRANCH  42  43
ATOM     43  C   UNL     1      -0.260   5.634  -7.724  1.00  0.00     0.261 C 
BRANCH  43  44
ATOM     44  O   UNL     1      -0.444   6.991  -7.300  1.00  0.00    -0.460 OA
BRANCH  44  45
ATOM     45  C   UNL     1       0.641   7.677  -6.879  1.00  0.00     0.338 C 
ATOM     46  O   UNL     1       1.779   7.272  -6.790  1.00  0.00    -0.246 OA
BRANCH  45  47
ATOM     47  C   UNL     1       0.250   9.102  -6.763  1.00  0.00     0.060 A 
ATOM     48  C   UNL     1       0.931  10.048  -7.541  1.00  0.00     0.016 A 
ATOM     49  C   UNL     1      -0.765   9.505  -5.894  1.00  0.00     0.016 A 
ATOM     50  C   UNL     1       0.636  11.405  -7.412  1.00  0.00     0.010 A 
ATOM     51  C   UNL     1      -1.045  10.868  -5.748  1.00  0.00     0.010 A 
ATOM     52  C   UNL     1      -0.316  11.828  -6.475  1.00  0.00    -0.014 A 
BRANCH  52  53
ATOM     53  C   UNL     1      -0.381  13.264  -6.104  1.00  0.00     0.031 A 
ATOM     54  C   UNL     1       0.354  13.716  -4.870  1.00  0.00     0.074 A 
ATOM     55  C   UNL     1      -1.029  14.163  -6.865  1.00  0.00     0.049 A 
ATOM     56  N   UNL     1       0.440  14.908  -4.336  1.00  0.00    -0.248 NA
ATOM     57  C   UNL     1       1.095  12.675  -4.139  1.00  0.00     0.031 C 
ATOM     58  C   UNL     1      -1.734  13.865  -8.108  1.00  0.00     0.029 A 
ATOM     59  N   UNL     1      -1.199  15.516  -6.696  1.00  0.00    -0.354 N 
ATOM     60  C   UNL     1       1.236  14.758  -3.208  1.00  0.00     0.074 A 
ATOM     61  C   UNL     1       1.577  13.356  -3.111  1.00  0.00     0.031 C 
ATOM     62  C   UNL     1      -2.269  15.002  -8.588  1.00  0.00     0.029 A 
ATOM     63  C   UNL     1      -1.971  16.100  -7.669  1.00  0.00     0.049 A 
ATOM     64  H   UNL     1      -0.803  16.019  -5.947  1.00  0.00     0.167 HD
ATOM     65  C   UNL     1       1.655  15.706  -2.335  1.00  0.00     0.037 A 
ATOM     66  C   UNL     1      -2.403  17.372  -7.789  1.00  0.00     0.037 A 
ATOM     67  C   UNL     1       1.309  17.099  -2.428  1.00  0.00     0.049 A 
ATOM     68  C   UNL     1      -1.996  18.394  -6.755  1.00  0.00     0.074 A 
ATOM     69  C   UNL     1       1.692  18.141  -1.601  1.00  0.00     0.029 A 
ATOM     70  N   UNL     1       0.485  17.645  -3.402  1.00  0.00    -0.354 N 
ATOM     71  N   UNL     1      -1.223  18.252  -5.706  1.00  0.00    -0.248 NA
ATOM     72  C   UNL     1      -2.521  19.757  -6.928  1.00  0.00     0.031 C 
ATOM     73  C   UNL     1       1.048  19.303  -2.036  1.00  0.00     0.029 A 
ATOM     74  C   UNL     1       0.322  19.003  -3.178  1.00  0.00     0.049 A 
ATOM     75  H   UNL     1       0.077  17.141  -4.144  1.00  0.00     0.167 HD
ATOM     76  C   UNL     1      -1.139  19.508  -5.116  1.00  0.00     0.074 A 
ATOM     77  C   UNL     1      -1.933  20.403  -5.932  1.00  0.00     0.031 C 
ATOM     78  C   UNL     1      -0.464  19.887  -4.003  1.00  0.00     0.037 A 
BRANCH  65  79
ATOM     79  C   UNL     1       2.504  15.255  -1.180  1.00  0.00     0.064 A 
ATOM     80  C   UNL     1       3.816  14.789  -1.360  1.00  0.00     0.173 A 
ATOM     81  C   UNL     1       2.002  15.304   0.130  1.00  0.00     0.173 A 
ATOM     82  F   UNL     1       4.340  14.708  -2.592  1.00  0.00    -0.203 F 
ATOM     83  C   UNL     1       4.579  14.357  -0.278  1.00  0.00     0.198 A 
ATOM     84  C   UNL     1       2.780  14.905   1.213  1.00  0.00     0.198 A 
ATOM     85  F   UNL     1       0.756  15.744   0.361  1.00  0.00    -0.203 F 
ATOM     86  F   UNL     1       5.807  13.861  -0.482  1.00  0.00    -0.200 F 
ATOM     87  C   UNL     1       4.063  14.422   1.008  1.00  0.00     0.200 A 
ATOM     88  F   UNL     1       2.285  14.983   2.456  1.00  0.00    -0.200 F 
ATOM     89  F   UNL     1       4.800  14.011   2.049  1.00  0.00    -0.200 F 
ENDBRANCH  65  79
BRANCH  66  90
ATOM     90  C   UNL     1      -3.278  17.756  -8.929  1.00  0.00     0.064 A 
ATOM     91  C   UNL     1      -2.830  18.638  -9.923  1.00  0.00     0.173 A 
ATOM     92  C   UNL     1      -4.588  17.265  -9.037  1.00  0.00     0.173 A 
ATOM     93  F   UNL     1      -1.596  19.157  -9.850  1.00  0.00    -0.203 F 
ATOM     94  C   UNL     1      -3.664  19.028 -10.970  1.00  0.00     0.198 A 
ATOM     95  C   UNL     1      -5.410  17.631 -10.102  1.00  0.00     0.198 A 
ATOM     96  F   UNL     1      -5.069  16.423  -8.111  1.00  0.00    -0.203 F 
ATOM     97  F   UNL     1      -3.227  19.911 -11.877  1.00  0.00    -0.200 F 
ATOM     98  C   UNL     1      -4.951  18.518 -11.062  1.00  0.00     0.200 A 
ATOM     99  F   UNL     1      -6.648  17.127 -10.193  1.00  0.00    -0.200 F 
ATOM    100  F   UNL     1      -5.750  18.890 -12.071  1.00  0.00    -0.200 F 
ENDBRANCH  66  90
BRANCH  78 101
ATOM    101  C   UNL     1      -0.508  21.341  -3.621  1.00  0.00     0.064 A 
ATOM    102  C   UNL     1      -1.675  21.946  -3.131  1.00  0.00     0.173 A 
ATOM    103  C   UNL     1       0.652  22.128  -3.703  1.00  0.00     0.173 A 
ATOM    104  F   UNL     1      -2.814  21.243  -3.043  1.00  0.00    -0.203 F 
ATOM    105  C   UNL     1      -1.687  23.290  -2.767  1.00  0.00     0.198 A 
ATOM    106  C   UNL     1       0.646  23.462  -3.304  1.00  0.00     0.198 A 
ATOM    107  F   UNL     1       1.799  21.599  -4.154  1.00  0.00    -0.203 F 
ATOM    108  F   UNL     1      -2.827  23.860  -2.352  1.00  0.00    -0.200 F 
ATOM    109  C   UNL     1      -0.525  24.044  -2.845  1.00  0.00     0.200 A 
ATOM    110  F   UNL     1       1.774  24.183  -3.362  1.00  0.00    -0.200 F 
ATOM    111  F   UNL     1      -0.537  25.335  -2.484  1.00  0.00    -0.200 F 
ENDBRANCH  78 101
ENDBRANCH  52  53
ENDBRANCH  45  47
ENDBRANCH  44  45
ENDBRANCH  43  44
ENDBRANCH  42  43
ENDBRANCH  41  42
ENDBRANCH  40  41
ENDBRANCH  39  40
ENDBRANCH  38  39
ENDBRANCH  37  38
ENDBRANCH  36  37
ENDBRANCH  35  36
ENDBRANCH   1  35
TORSDOF 30
