REMARK SMILES Cc1nn(C)c2nc(C3CC3)c(Cl)c(C(=O)OCCOCCOCCOCCOC(=O)c3ccc(-c4c5nc(c(-c6c(F)c(F)c(F)c(F)c6F)c6ccc([nH]6)c(-c6c(F)c(F)c(F)c(F)c6F)c6nc(c(-c7c(F)c(F)c(F)c(F)c7F)c7ccc4[nH]7)C=C6)C=C5)cc3)c12
REMARK SMILES IDX 24 1 23 2 22 3 21 4 20 5 19 6 18 7 17 8 15 9 16 10 14 11
REMARK SMILES IDX 1 12 2 13 3 14 95 15 4 16 6 17 5 18 7 19 12 20 8 21 13 22
REMARK SMILES IDX 9 23 10 24 11 25 25 26 26 27 27 28 28 29 29 30 30 31 31 32
REMARK SMILES IDX 32 33 33 34 94 35 34 36 93 37 35 38 36 39 37 40 87 41 38 42
REMARK SMILES IDX 92 43 86 44 88 45 39 46 91 47 85 48 84 49 40 51 72 52 52 53
REMARK SMILES IDX 71 54 53 55 56 56 70 57 89 58 54 59 55 60 69 62 90 63 57 64
REMARK SMILES IDX 41 65 42 66 50 67 43 68 44 69 48 70 51 71 45 72 46 73 49 74
REMARK SMILES IDX 47 75 73 76 74 77 82 78 75 79 76 80 80 81 83 82 77 83 78 84
REMARK SMILES IDX 81 85 79 86 58 87 59 88 67 89 60 90 61 91 65 92 68 93 62 94
REMARK SMILES IDX 63 95 66 96 64 97
REMARK H PARENT 88 50 56 61
REMARK Flexibility Score: inf
ROOT
ATOM      1  C   UNL     1      -0.684   4.327   3.085  1.00  0.00     0.188 C 
ENDROOT
BRANCH   1   2
ATOM      2  O   UNL     1      -0.862   4.285   1.675  1.00  0.00    -0.377 OA
BRANCH   2   3
ATOM      3  C   UNL     1      -0.713   3.055   0.976  1.00  0.00     0.188 C 
BRANCH   3   4
ATOM      4  C   UNL     1       0.183   1.921   1.520  1.00  0.00     0.188 C 
BRANCH   4   5
ATOM      5  O   UNL     1       0.944   2.257   2.668  1.00  0.00    -0.376 OA
BRANCH   5   6
ATOM      6  C   UNL     1       2.353   2.309   2.566  1.00  0.00     0.202 C 
BRANCH   6   7
ATOM      7  C   UNL     1       2.906   3.394   1.645  1.00  0.00     0.261 C 
BRANCH   7   8
ATOM      8  O   UNL     1       2.297   3.401   0.349  1.00  0.00    -0.460 OA
BRANCH   8   9
ATOM      9  C   UNL     1       2.725   2.495  -0.559  1.00  0.00     0.340 C 
ATOM     10  O   UNL     1       3.582   1.652  -0.398  1.00  0.00    -0.246 OA
BRANCH   9  11
ATOM     11  C   UNL     1       1.820   2.584  -1.723  1.00  0.00     0.093 A 
ATOM     12  C   UNL     1       1.681  -0.770  -0.748  1.00  0.00     0.069 C 
ATOM     13  C   UNL     1       1.075   0.021  -1.853  1.00  0.00     0.070 A 
ATOM     14  N   UNL     1       0.285  -0.631  -2.720  1.00  0.00    -0.176 NA
ATOM     15  C   UNL     1       1.183   1.412  -2.175  1.00  0.00     0.058 A 
ATOM     16  N   UNL     1      -0.104   0.320  -3.587  1.00  0.00    -0.250 N 
ATOM     17  C   UNL     1       0.341   1.569  -3.263  1.00  0.00     0.159 A 
ATOM     18  C   UNL     1      -0.856  -0.036  -4.764  1.00  0.00     0.176 C 
ATOM     19  N   UNL     1       0.027   2.708  -3.897  1.00  0.00    -0.231 NA
ATOM     20  C   UNL     1       1.538   3.813  -2.371  1.00  0.00     0.078 A 
ATOM     21  C   UNL     1       0.607   3.849  -3.434  1.00  0.00     0.065 A 
ATOM     22  Cl  UNL     1       2.393   5.241  -1.865  1.00  0.00    -0.081 Cl
BRANCH  21  23
ATOM     23  C   UNL     1       0.110   5.076  -4.209  1.00  0.00     0.040 C 
ATOM     24  C   UNL     1      -0.090   6.453  -3.632  1.00  0.00     0.011 C 
ATOM     25  C   UNL     1       0.996   6.210  -4.649  1.00  0.00     0.011 C 
ENDBRANCH  21  23
ENDBRANCH   9  11
ENDBRANCH   8   9
ENDBRANCH   7   8
ENDBRANCH   6   7
ENDBRANCH   5   6
ENDBRANCH   4   5
ENDBRANCH   3   4
ENDBRANCH   2   3
ENDBRANCH   1   2
BRANCH   1  26
ATOM     26  C   UNL     1      -1.270   3.192   3.953  1.00  0.00     0.188 C 
BRANCH  26  27
ATOM     27  O   UNL     1      -1.994   2.209   3.229  1.00  0.00    -0.376 OA
BRANCH  27  28
ATOM     28  C   UNL     1      -3.410   2.298   3.262  1.00  0.00     0.202 C 
BRANCH  28  29
ATOM     29  C   UNL     1      -4.011   3.608   2.735  1.00  0.00     0.261 C 
BRANCH  29  30
ATOM     30  O   UNL     1      -3.657   4.781   3.490  1.00  0.00    -0.460 OA
BRANCH  30  31
ATOM     31  C   UNL     1      -4.030   4.772   4.785  1.00  0.00     0.338 C 
ATOM     32  O   UNL     1      -4.650   3.910   5.381  1.00  0.00    -0.246 OA
BRANCH  31  33
ATOM     33  C   UNL     1      -3.526   5.979   5.439  1.00  0.00     0.060 A 
ATOM     34  C   UNL     1      -2.356   5.943   6.209  1.00  0.00     0.016 A 
ATOM     35  C   UNL     1      -4.345   7.100   5.421  1.00  0.00     0.016 A 
ATOM     36  C   UNL     1      -2.023   7.034   7.003  1.00  0.00     0.010 A 
ATOM     37  C   UNL     1      -4.029   8.170   6.245  1.00  0.00     0.010 A 
ATOM     38  C   UNL     1      -2.881   8.138   7.056  1.00  0.00    -0.014 A 
BRANCH  38  39
ATOM     39  C   UNL     1      -2.561   9.242   7.986  1.00  0.00     0.031 A 
ATOM     40  C   UNL     1      -2.805  10.606   7.433  1.00  0.00     0.074 A 
ATOM     41  C   UNL     1      -2.654   9.055   9.324  1.00  0.00     0.049 A 
ATOM     42  N   UNL     1      -4.008  11.096   7.357  1.00  0.00    -0.248 NA
ATOM     43  C   UNL     1      -1.817  11.354   6.660  1.00  0.00     0.031 C 
ATOM     44  C   UNL     1      -3.494   8.012   9.935  1.00  0.00     0.029 A 
ATOM     45  N   UNL     1      -2.259   9.835  10.389  1.00  0.00    -0.354 N 
ATOM     46  C   UNL     1      -3.976  12.130   6.446  1.00  0.00     0.074 A 
ATOM     47  C   UNL     1      -2.585  12.296   6.082  1.00  0.00     0.031 C 
ATOM     48  C   UNL     1      -3.705   8.327  11.227  1.00  0.00     0.029 A 
ATOM     49  C   UNL     1      -2.916   9.505  11.577  1.00  0.00     0.049 A 
ATOM     50  H   UNL     1      -1.586  10.550  10.321  1.00  0.00     0.167 HD
ATOM     51  C   UNL     1      -5.109  12.738   6.010  1.00  0.00     0.037 A 
ATOM     52  C   UNL     1      -3.296  10.399  12.532  1.00  0.00     0.037 A 
ATOM     53  C   UNL     1      -6.340  12.191   6.505  1.00  0.00     0.049 A 
ATOM     54  C   UNL     1      -4.375  11.166  11.807  1.00  0.00     0.074 A 
ATOM     55  C   UNL     1      -7.297  11.305   6.060  1.00  0.00     0.029 A 
ATOM     56  N   UNL     1      -6.736  12.525   7.778  1.00  0.00    -0.354 N 
ATOM     57  N   UNL     1      -5.606  10.773  11.613  1.00  0.00    -0.248 NA
ATOM     58  C   UNL     1      -3.952  12.288  10.966  1.00  0.00     0.031 C 
ATOM     59  C   UNL     1      -7.936  10.810   7.240  1.00  0.00     0.029 A 
ATOM     60  C   UNL     1      -7.295  11.399   8.328  1.00  0.00     0.049 A 
ATOM     61  H   UNL     1      -6.637  13.403   8.212  1.00  0.00     0.167 HD
ATOM     62  C   UNL     1      -6.020  11.421  10.448  1.00  0.00     0.074 A 
ATOM     63  C   UNL     1      -4.972  12.366  10.125  1.00  0.00     0.031 C 
ATOM     64  C   UNL     1      -7.095  11.026   9.708  1.00  0.00     0.037 A 
BRANCH  51  65
ATOM     65  C   UNL     1      -5.166  13.952   5.182  1.00  0.00     0.064 A 
ATOM     66  C   UNL     1      -5.474  15.154   5.835  1.00  0.00     0.173 A 
ATOM     67  C   UNL     1      -5.183  13.928   3.786  1.00  0.00     0.173 A 
ATOM     68  F   UNL     1      -5.485  15.201   7.178  1.00  0.00    -0.203 F 
ATOM     69  C   UNL     1      -5.838  16.286   5.120  1.00  0.00     0.198 A 
ATOM     70  C   UNL     1      -5.538  15.070   3.068  1.00  0.00     0.198 A 
ATOM     71  F   UNL     1      -4.916  12.793   3.123  1.00  0.00    -0.203 F 
ATOM     72  F   UNL     1      -6.186  17.402   5.773  1.00  0.00    -0.200 F 
ATOM     73  C   UNL     1      -5.880  16.241   3.736  1.00  0.00     0.200 A 
ATOM     74  F   UNL     1      -5.588  15.031   1.730  1.00  0.00    -0.200 F 
ATOM     75  F   UNL     1      -6.271  17.321   3.045  1.00  0.00    -0.200 F 
ENDBRANCH  51  65
BRANCH  52  76
ATOM     76  C   UNL     1      -2.192  11.058  13.300  1.00  0.00     0.064 A 
ATOM     77  C   UNL     1      -1.156  10.255  13.825  1.00  0.00     0.173 A 
ATOM     78  C   UNL     1      -2.098  12.431  13.571  1.00  0.00     0.173 A 
ATOM     79  F   UNL     1      -1.225   8.918  13.732  1.00  0.00    -0.203 F 
ATOM     80  C   UNL     1      -0.037  10.806  14.451  1.00  0.00     0.198 A 
ATOM     81  C   UNL     1      -0.965  12.986  14.171  1.00  0.00     0.198 A 
ATOM     82  F   UNL     1      -3.094  13.269  13.252  1.00  0.00    -0.203 F 
ATOM     83  F   UNL     1       0.940  10.005  14.899  1.00  0.00    -0.200 F 
ATOM     84  C   UNL     1       0.074  12.176  14.591  1.00  0.00     0.200 A 
ATOM     85  F   UNL     1      -0.876  14.316  14.319  1.00  0.00    -0.200 F 
ATOM     86  F   UNL     1       1.173  12.714  15.136  1.00  0.00    -0.200 F 
ENDBRANCH  52  76
BRANCH  64  87
ATOM     87  C   UNL     1      -7.940   9.963  10.318  1.00  0.00     0.064 A 
ATOM     88  C   UNL     1      -8.777  10.268  11.398  1.00  0.00     0.173 A 
ATOM     89  C   UNL     1      -7.962   8.655   9.812  1.00  0.00     0.173 A 
ATOM     90  F   UNL     1      -8.797  11.510  11.909  1.00  0.00    -0.203 F 
ATOM     91  C   UNL     1      -9.624   9.306  11.937  1.00  0.00     0.198 A 
ATOM     92  C   UNL     1      -8.829   7.702  10.338  1.00  0.00     0.198 A 
ATOM     93  F   UNL     1      -7.168   8.301   8.789  1.00  0.00    -0.203 F 
ATOM     94  F   UNL     1     -10.427   9.621  12.963  1.00  0.00    -0.200 F 
ATOM     95  C   UNL     1      -9.661   8.028  11.398  1.00  0.00     0.200 A 
ATOM     96  F   UNL     1      -8.878   6.473   9.803  1.00  0.00    -0.200 F 
ATOM     97  F   UNL     1     -10.509   7.115  11.891  1.00  0.00    -0.200 F 
ENDBRANCH  64  87
ENDBRANCH  38  39
ENDBRANCH  31  33
ENDBRANCH  30  31
ENDBRANCH  29  30
ENDBRANCH  28  29
ENDBRANCH  27  28
ENDBRANCH  26  27
ENDBRANCH   1  26
TORSDOF 21
