REMARK SMILES O=C(OCCOCCOCCOCCOC(=O)c1ccc(-c2c3nc(c(-c4c(F)c(F)c(F)c(F)c4F)c4ccc([nH]4)c(-c4c(F)c(F)c(F)c(F)c4F)c4nc(c(-c5c(F)c(F)c(F)c(F)c5F)c5ccc2[nH]5)C=C4)C=C3)cc1)C1=Cc2cc(Cl)cc(-c3ccc(O)cc3)c2O[C@@H]1C(F)(F)F
REMARK SMILES IDX 9 1 8 2 7 3 6 4 5 5 4 6 3 7 2 8 1 9 81 10 82 11 98 12 83 13
REMARK SMILES IDX 97 14 84 15 96 16 85 17 88 18 86 19 87 20 99 21 100 22
REMARK SMILES IDX 101 23 102 24 89 25 90 26 95 27 91 28 94 29 92 30 93 31
REMARK SMILES IDX 10 33 11 34 12 35 13 36 14 37 15 38 16 39 17 40 18 41 19 42
REMARK SMILES IDX 80 43 20 44 79 45 21 46 22 47 23 48 73 49 24 50 78 51 72 52
REMARK SMILES IDX 74 53 25 54 77 55 71 56 70 57 26 59 58 60 38 61 57 62 39 63
REMARK SMILES IDX 42 64 56 65 75 66 40 67 41 68 55 70 76 71 43 72 27 73 28 74
REMARK SMILES IDX 36 75 29 76 30 77 34 78 37 79 31 80 32 81 35 82 33 83 59 84
REMARK SMILES IDX 60 85 68 86 61 87 62 88 66 89 69 90 63 91 64 92 67 93 65 94
REMARK SMILES IDX 44 95 45 96 53 97 46 98 47 99 51 100 54 101 48 102 49 103
REMARK SMILES IDX 52 104 50 105
REMARK H PARENT 93 32 74 58 42 69
REMARK Flexibility Score: inf
ROOT
ATOM      1  O   UNL     1       2.674   4.203   0.142  1.00  0.00    -0.377 OA
ENDROOT
BRANCH   1   2
ATOM      2  C   UNL     1       1.919   3.018   0.045  1.00  0.00     0.188 C 
BRANCH   2   3
ATOM      3  C   UNL     1       2.292   2.031   1.149  1.00  0.00     0.188 C 
BRANCH   3   4
ATOM      4  O   UNL     1       3.656   1.541   1.192  1.00  0.00    -0.376 OA
BRANCH   4   5
ATOM      5  C   UNL     1       4.299   0.062   0.964  1.00  0.00     0.202 C 
BRANCH   5   6
ATOM      6  C   UNL     1       3.678  -1.502  -0.419  1.00  0.00     0.261 C 
BRANCH   6   7
ATOM      7  O   UNL     1       2.948  -2.818  -0.031  1.00  0.00    -0.460 OA
BRANCH   7   8
ATOM      8  C   UNL     1       3.190  -3.211   1.224  1.00  0.00     0.338 C 
ATOM      9  O   UNL     1       2.759  -4.137   1.859  1.00  0.00    -0.246 OA
BRANCH   8  10
ATOM     10  C   UNL     1       3.869  -2.003   1.606  1.00  0.00     0.087 C 
ATOM     11  C   UNL     1       5.258  -2.012   1.105  1.00  0.00     0.027 C 
ATOM     12  C   UNL     1       2.494  -0.757   1.052  1.00  0.00     0.316 C 
ATOM     13  C   UNL     1       5.837  -0.969  -0.250  1.00  0.00     0.019 A 
ATOM     14  O   UNL     1       3.079   0.317  -0.460  1.00  0.00    -0.475 OA
ATOM     15  C   UNL     1       7.120  -1.165  -0.695  1.00  0.00     0.032 A 
ATOM     16  C   UNL     1       4.786   0.130  -1.097  1.00  0.00     0.135 A 
ATOM     17  C   UNL     1       7.469  -0.439  -1.837  1.00  0.00     0.042 A 
ATOM     18  C   UNL     1       5.216   0.749  -2.260  1.00  0.00     0.026 A 
ATOM     19  Cl  UNL     1       9.078  -0.647  -2.449  1.00  0.00    -0.084 Cl
ATOM     20  C   UNL     1       6.583   0.443  -2.565  1.00  0.00     0.033 A 
BRANCH  12  21
ATOM     21  C   UNL     1       1.979  -0.356   2.536  1.00  0.00     0.430 C 
ATOM     22  F   UNL     1       0.885   0.428   2.603  1.00  0.00    -0.167 F 
ATOM     23  F   UNL     1       1.600  -1.516   3.153  1.00  0.00    -0.167 F 
ATOM     24  F   UNL     1       2.924   0.175   3.343  1.00  0.00    -0.167 F 
ENDBRANCH  12  21
BRANCH  18  25
ATOM     25  C   UNL     1       4.505   1.602  -3.197  1.00  0.00    -0.014 A 
ATOM     26  C   UNL     1       3.819   1.091  -4.306  1.00  0.00     0.012 A 
ATOM     27  C   UNL     1       4.657   2.985  -3.123  1.00  0.00     0.012 A 
ATOM     28  C   UNL     1       3.205   1.951  -5.228  1.00  0.00     0.047 A 
ATOM     29  C   UNL     1       3.930   3.837  -3.946  1.00  0.00     0.047 A 
ATOM     30  C   UNL     1       3.226   3.319  -5.013  1.00  0.00     0.115 A 
BRANCH  30  31
ATOM     31  O   UNL     1       2.592   4.137  -5.895  1.00  0.00    -0.508 OA
ATOM     32  H   UNL     1       2.118   3.772  -6.616  1.00  0.00     0.293 HD
ENDBRANCH  30  31
ENDBRANCH  18  25
ENDBRANCH   8  10
ENDBRANCH   7   8
ENDBRANCH   6   7
ENDBRANCH   5   6
ENDBRANCH   4   5
ENDBRANCH   3   4
ENDBRANCH   2   3
ENDBRANCH   1   2
BRANCH   1  33
ATOM     33  C   UNL     1       3.997   4.006  -0.309  1.00  0.00     0.188 C 
BRANCH  33  34
ATOM     34  C   UNL     1       5.142   4.193   0.692  1.00  0.00     0.188 C 
BRANCH  34  35
ATOM     35  O   UNL     1       5.074   5.104   1.776  1.00  0.00    -0.376 OA
BRANCH  35  36
ATOM     36  C   UNL     1       3.827   5.691   2.091  1.00  0.00     0.202 C 
BRANCH  36  37
ATOM     37  C   UNL     1       3.456   6.907   1.220  1.00  0.00     0.261 C 
BRANCH  37  38
ATOM     38  O   UNL     1       3.901   6.868  -0.151  1.00  0.00    -0.460 OA
BRANCH  38  39
ATOM     39  C   UNL     1       5.176   7.266  -0.391  1.00  0.00     0.338 C 
ATOM     40  O   UNL     1       5.980   7.707   0.409  1.00  0.00    -0.246 OA
BRANCH  39  41
ATOM     41  C   UNL     1       5.509   6.985  -1.812  1.00  0.00     0.060 A 
ATOM     42  C   UNL     1       6.701   6.311  -2.121  1.00  0.00     0.016 A 
ATOM     43  C   UNL     1       4.661   7.397  -2.843  1.00  0.00     0.016 A 
ATOM     44  C   UNL     1       7.052   6.048  -3.455  1.00  0.00     0.010 A 
ATOM     45  C   UNL     1       5.019   7.150  -4.175  1.00  0.00     0.010 A 
ATOM     46  C   UNL     1       6.224   6.483  -4.497  1.00  0.00    -0.014 A 
BRANCH  46  47
ATOM     47  C   UNL     1       6.686   6.492  -5.915  1.00  0.00     0.031 A 
ATOM     48  C   UNL     1       7.116   7.818  -6.476  1.00  0.00     0.074 A 
ATOM     49  C   UNL     1       6.687   5.410  -6.720  1.00  0.00     0.049 A 
ATOM     50  N   UNL     1       7.430   8.147  -7.701  1.00  0.00    -0.248 NA
ATOM     51  C   UNL     1       7.192   8.929  -5.512  1.00  0.00     0.031 C 
ATOM     52  C   UNL     1       6.384   4.043  -6.318  1.00  0.00     0.029 A 
ATOM     53  N   UNL     1       6.910   5.307  -8.076  1.00  0.00    -0.354 N 
ATOM     54  C   UNL     1       7.758   9.493  -7.647  1.00  0.00     0.074 A 
ATOM     55  C   UNL     1       7.510   9.943  -6.296  1.00  0.00     0.031 C 
ATOM     56  C   UNL     1       6.326   3.258  -7.409  1.00  0.00     0.029 A 
ATOM     57  C   UNL     1       6.622   4.063  -8.591  1.00  0.00     0.049 A 
ATOM     58  H   UNL     1       7.242   6.053  -8.625  1.00  0.00     0.167 HD
ATOM     59  C   UNL     1       8.270  10.279  -8.621  1.00  0.00     0.037 A 
ATOM     60  C   UNL     1       6.592   3.627  -9.867  1.00  0.00     0.037 A 
ATOM     61  C   UNL     1       8.515   9.842  -9.966  1.00  0.00     0.049 A 
ATOM     62  C   UNL     1       7.027   4.555 -10.975  1.00  0.00     0.074 A 
ATOM     63  C   UNL     1       9.066  10.552 -11.015  1.00  0.00     0.029 A 
ATOM     64  N   UNL     1       8.204   8.580 -10.450  1.00  0.00    -0.354 N 
ATOM     65  N   UNL     1       7.421   5.803 -10.900  1.00  0.00    -0.248 NA
ATOM     66  C   UNL     1       7.057   4.002 -12.338  1.00  0.00     0.031 C 
ATOM     67  C   UNL     1       9.032   9.740 -12.153  1.00  0.00     0.029 A 
ATOM     68  C   UNL     1       8.518   8.503 -11.796  1.00  0.00     0.049 A 
ATOM     69  H   UNL     1       7.819   7.848  -9.916  1.00  0.00     0.167 HD
ATOM     70  C   UNL     1       7.806   6.162 -12.186  1.00  0.00     0.074 A 
ATOM     71  C   UNL     1       7.585   5.005 -13.027  1.00  0.00     0.031 C 
ATOM     72  C   UNL     1       8.318   7.339 -12.622  1.00  0.00     0.037 A 
BRANCH  59  73
ATOM     73  C   UNL     1       8.585  11.694  -8.242  1.00  0.00     0.064 A 
ATOM     74  C   UNL     1       9.622  11.998  -7.344  1.00  0.00     0.173 A 
ATOM     75  C   UNL     1       7.816  12.752  -8.744  1.00  0.00     0.173 A 
ATOM     76  F   UNL     1      10.369  11.016  -6.817  1.00  0.00    -0.203 F 
ATOM     77  C   UNL     1       9.843  13.306  -6.925  1.00  0.00     0.198 A 
ATOM     78  C   UNL     1       8.065  14.063  -8.350  1.00  0.00     0.198 A 
ATOM     79  F   UNL     1       6.813  12.513  -9.602  1.00  0.00    -0.203 F 
ATOM     80  F   UNL     1      10.783  13.562  -6.005  1.00  0.00    -0.200 F 
ATOM     81  C   UNL     1       9.066  14.337  -7.430  1.00  0.00     0.200 A 
ATOM     82  F   UNL     1       7.319  15.061  -8.844  1.00  0.00    -0.200 F 
ATOM     83  F   UNL     1       9.272  15.595  -7.018  1.00  0.00    -0.200 F 
ENDBRANCH  59  73
BRANCH  60  84
ATOM     84  C   UNL     1       6.156   2.238 -10.184  1.00  0.00     0.064 A 
ATOM     85  C   UNL     1       7.066   1.277 -10.648  1.00  0.00     0.173 A 
ATOM     86  C   UNL     1       4.807   1.862 -10.090  1.00  0.00     0.173 A 
ATOM     87  F   UNL     1       8.361   1.596 -10.785  1.00  0.00    -0.203 F 
ATOM     88  C   UNL     1       6.641   0.006 -11.033  1.00  0.00     0.198 A 
ATOM     89  C   UNL     1       4.387   0.582 -10.452  1.00  0.00     0.198 A 
ATOM     90  F   UNL     1       3.892   2.744  -9.664  1.00  0.00    -0.203 F 
ATOM     91  F   UNL     1       7.525  -0.872 -11.527  1.00  0.00    -0.200 F 
ATOM     92  C   UNL     1       5.303  -0.342 -10.933  1.00  0.00     0.200 A 
ATOM     93  F   UNL     1       3.093   0.247 -10.352  1.00  0.00    -0.200 F 
ATOM     94  F   UNL     1       4.895  -1.560 -11.314  1.00  0.00    -0.200 F 
ENDBRANCH  60  84
BRANCH  72  95
ATOM     95  C   UNL     1       8.745   7.432 -14.059  1.00  0.00     0.064 A 
ATOM     96  C   UNL     1       7.818   7.475 -15.109  1.00  0.00     0.173 A 
ATOM     97  C   UNL     1      10.107   7.560 -14.379  1.00  0.00     0.173 A 
ATOM     98  F   UNL     1       6.507   7.342 -14.858  1.00  0.00    -0.203 F 
ATOM     99  C   UNL     1       8.238   7.630 -16.428  1.00  0.00     0.198 A 
ATOM    100  C   UNL     1      10.520   7.750 -15.694  1.00  0.00     0.198 A 
ATOM    101  F   UNL     1      11.035   7.531 -13.411  1.00  0.00    -0.203 F 
ATOM    102  F   UNL     1       7.337   7.632 -17.420  1.00  0.00    -0.200 F 
ATOM    103  C   UNL     1       9.586   7.780 -16.718  1.00  0.00     0.200 A 
ATOM    104  F   UNL     1      11.822   7.913 -15.969  1.00  0.00    -0.200 F 
ATOM    105  F   UNL     1       9.986   7.952 -17.985  1.00  0.00    -0.200 F 
ENDBRANCH  72  95
ENDBRANCH  46  47
ENDBRANCH  39  41
ENDBRANCH  38  39
ENDBRANCH  37  38
ENDBRANCH  36  37
ENDBRANCH  35  36
ENDBRANCH  34  35
ENDBRANCH  33  34
ENDBRANCH   1  33
TORSDOF 23
