REMARK SMILES Cc1c(CC(=O)OCCOCCOCCOCCOC(=O)c2ccc(-c3c4nc(c(-c5c(F)c(F)c(F)c(F)c5F)c5ccc([nH]5)c(-c5c(F)c(F)c(F)c(F)c5F)c5nc(c(-c6c(F)c(F)c(F)c(F)c6F)c6ccc3[nH]6)C=C5)C=C4)cc2)c2ccccc2n1C(=O)c1ccc(Cl)cc1
REMARK SMILES IDX 12 1 11 2 10 3 9 4 8 5 7 6 5 7 6 8 4 9 3 10 1 11 2 12 91 13
REMARK SMILES IDX 85 14 90 15 86 16 89 17 87 18 88 19 92 20 93 21 94 22 95 23
REMARK SMILES IDX 100 24 96 25 99 26 97 27 98 28 13 29 14 30 15 31 16 32 17 33
REMARK SMILES IDX 18 34 19 35 20 36 21 37 22 38 23 39 84 40 24 41 83 42 25 43
REMARK SMILES IDX 26 44 27 45 77 46 28 47 82 48 76 49 78 50 29 51 81 52 75 53
REMARK SMILES IDX 74 54 30 56 62 57 42 58 61 59 43 60 46 61 60 62 79 63 44 64
REMARK SMILES IDX 45 65 59 67 80 68 47 69 31 70 32 71 40 72 33 73 34 74 38 75
REMARK SMILES IDX 41 76 35 77 36 78 39 79 37 80 63 81 64 82 72 83 65 84 66 85
REMARK SMILES IDX 70 86 73 87 67 88 68 89 71 90 69 91 48 92 49 93 57 94 50 95
REMARK SMILES IDX 51 96 55 97 58 98 52 99 53 100 56 101 54 102
REMARK H PARENT 78 55 46 66
REMARK Flexibility Score: inf
ROOT
ATOM      1  C   UNL     1       1.078  -2.998   4.212  1.00  0.00     0.188 C 
ENDROOT
BRANCH   1   2
ATOM      2  C   UNL     1       0.925  -4.506   4.011  1.00  0.00     0.188 C 
BRANCH   2   3
ATOM      3  O   UNL     1       2.071  -5.338   3.875  1.00  0.00    -0.376 OA
BRANCH   3   4
ATOM      4  C   UNL     1       3.256  -4.833   3.276  1.00  0.00     0.202 C 
BRANCH   4   5
ATOM      5  C   UNL     1       3.214  -4.094   1.920  1.00  0.00     0.261 C 
BRANCH   5   6
ATOM      6  O   UNL     1       2.120  -3.180   1.664  1.00  0.00    -0.463 OA
BRANCH   6   7
ATOM      7  C   UNL     1       1.216  -3.553   0.728  1.00  0.00     0.310 C 
ATOM      8  O   UNL     1       1.317  -4.589   0.071  1.00  0.00    -0.252 OA
BRANCH   7   9
ATOM      9  C   UNL     1      -0.011  -2.667   0.554  1.00  0.00     0.160 C 
BRANCH   9  10
ATOM     10  C   UNL     1      -0.172  -1.347   1.283  1.00  0.00    -0.008 A 
ATOM     11  C   UNL     1       1.169   0.218  -0.282  1.00  0.00     0.065 C 
ATOM     12  C   UNL     1       0.343  -0.108   0.921  1.00  0.00     0.028 A 
ATOM     13  N   UNL     1      -0.053   0.863   1.859  1.00  0.00    -0.280 N 
ATOM     14  C   UNL     1      -1.013  -1.110   2.422  1.00  0.00     0.004 A 
ATOM     15  C   UNL     1      -0.857   0.224   2.819  1.00  0.00     0.056 A 
ATOM     16  C   UNL     1      -1.847  -1.959   3.197  1.00  0.00     0.010 A 
ATOM     17  C   UNL     1      -1.477   0.683   4.005  1.00  0.00     0.027 A 
ATOM     18  C   UNL     1      -2.421  -1.505   4.386  1.00  0.00     0.001 A 
ATOM     19  C   UNL     1      -2.228  -0.197   4.788  1.00  0.00     0.002 A 
BRANCH  13  20
ATOM     20  C   UNL     1       0.282   2.251   1.817  1.00  0.00     0.262 C 
ATOM     21  O   UNL     1       1.004   2.666   0.911  1.00  0.00    -0.268 OA
BRANCH  20  22
ATOM     22  C   UNL     1      -0.183   3.279   2.764  1.00  0.00     0.040 A 
ATOM     23  C   UNL     1       0.478   3.457   3.985  1.00  0.00     0.015 A 
ATOM     24  C   UNL     1      -1.266   4.093   2.413  1.00  0.00     0.015 A 
ATOM     25  C   UNL     1       0.004   4.413   4.888  1.00  0.00     0.021 A 
ATOM     26  C   UNL     1      -1.727   5.056   3.315  1.00  0.00     0.021 A 
ATOM     27  C   UNL     1      -1.099   5.202   4.553  1.00  0.00     0.041 A 
ATOM     28  Cl  UNL     1      -1.692   6.361   5.679  1.00  0.00    -0.084 Cl
ENDBRANCH  20  22
ENDBRANCH  13  20
ENDBRANCH   9  10
ENDBRANCH   7   9
ENDBRANCH   6   7
ENDBRANCH   5   6
ENDBRANCH   4   5
ENDBRANCH   3   4
ENDBRANCH   2   3
ENDBRANCH   1   2
BRANCH   1  29
ATOM     29  O   UNL     1       2.400  -2.538   4.273  1.00  0.00    -0.377 OA
BRANCH  29  30
ATOM     30  C   UNL     1       2.945  -2.359   5.553  1.00  0.00     0.188 C 
BRANCH  30  31
ATOM     31  C   UNL     1       2.483  -3.262   6.700  1.00  0.00     0.188 C 
BRANCH  31  32
ATOM     32  O   UNL     1       1.082  -3.196   6.936  1.00  0.00    -0.376 OA
BRANCH  32  33
ATOM     33  C   UNL     1       0.611  -2.295   7.933  1.00  0.00     0.202 C 
BRANCH  33  34
ATOM     34  C   UNL     1       0.776  -0.781   7.695  1.00  0.00     0.261 C 
BRANCH  34  35
ATOM     35  O   UNL     1       2.134  -0.346   7.526  1.00  0.00    -0.460 OA
BRANCH  35  36
ATOM     36  C   UNL     1       2.952  -0.224   8.604  1.00  0.00     0.338 C 
ATOM     37  O   UNL     1       2.635  -0.191   9.760  1.00  0.00    -0.246 OA
BRANCH  36  38
ATOM     38  C   UNL     1       4.312  -0.532   8.067  1.00  0.00     0.060 A 
ATOM     39  C   UNL     1       4.745  -0.013   6.842  1.00  0.00     0.016 A 
ATOM     40  C   UNL     1       4.961  -1.635   8.640  1.00  0.00     0.016 A 
ATOM     41  C   UNL     1       5.707  -0.716   6.120  1.00  0.00     0.010 A 
ATOM     42  C   UNL     1       5.912  -2.346   7.905  1.00  0.00     0.010 A 
ATOM     43  C   UNL     1       6.235  -1.930   6.615  1.00  0.00    -0.014 A 
BRANCH  43  44
ATOM     44  C   UNL     1       7.250  -2.608   5.790  1.00  0.00     0.031 A 
ATOM     45  C   UNL     1       8.429  -1.733   5.575  1.00  0.00     0.074 A 
ATOM     46  C   UNL     1       7.277  -3.890   5.356  1.00  0.00     0.049 A 
ATOM     47  N   UNL     1       8.924  -1.307   4.461  1.00  0.00    -0.248 NA
ATOM     48  C   UNL     1       9.041  -1.148   6.780  1.00  0.00     0.031 C 
ATOM     49  C   UNL     1       6.389  -4.984   5.753  1.00  0.00     0.029 A 
ATOM     50  N   UNL     1       8.185  -4.519   4.531  1.00  0.00    -0.354 N 
ATOM     51  C   UNL     1      10.014  -0.524   4.825  1.00  0.00     0.074 A 
ATOM     52  C   UNL     1       9.941  -0.326   6.248  1.00  0.00     0.031 C 
ATOM     53  C   UNL     1       6.927  -6.163   5.359  1.00  0.00     0.029 A 
ATOM     54  C   UNL     1       8.127  -5.909   4.574  1.00  0.00     0.049 A 
ATOM     55  H   UNL     1       8.819  -4.028   3.960  1.00  0.00     0.167 HD
ATOM     56  C   UNL     1      11.051  -0.316   3.975  1.00  0.00     0.037 A 
ATOM     57  C   UNL     1       9.027  -6.793   4.068  1.00  0.00     0.037 A 
ATOM     58  C   UNL     1      10.716  -0.627   2.617  1.00  0.00     0.049 A 
ATOM     59  C   UNL     1       9.832  -6.121   3.020  1.00  0.00     0.074 A 
ATOM     60  C   UNL     1      10.143   0.025   1.550  1.00  0.00     0.029 A 
ATOM     61  N   UNL     1      10.718  -1.961   2.328  1.00  0.00    -0.354 N 
ATOM     62  N   UNL     1       9.365  -5.734   1.867  1.00  0.00    -0.248 NA
ATOM     63  C   UNL     1      11.173  -5.642   3.345  1.00  0.00     0.031 C 
ATOM     64  C   UNL     1       9.715  -0.985   0.638  1.00  0.00     0.029 A 
ATOM     65  C   UNL     1      10.049  -2.228   1.163  1.00  0.00     0.049 A 
ATOM     66  H   UNL     1      11.148  -2.647   2.888  1.00  0.00     0.167 HD
ATOM     67  C   UNL     1      10.153  -4.655   1.530  1.00  0.00     0.074 A 
ATOM     68  C   UNL     1      11.340  -4.754   2.364  1.00  0.00     0.031 C 
ATOM     69  C   UNL     1       9.631  -3.581   0.877  1.00  0.00     0.037 A 
BRANCH  56  70
ATOM     70  C   UNL     1      12.483  -0.253   4.437  1.00  0.00     0.064 A 
ATOM     71  C   UNL     1      13.479   0.230   3.572  1.00  0.00     0.173 A 
ATOM     72  C   UNL     1      12.945  -0.916   5.597  1.00  0.00     0.173 A 
ATOM     73  F   UNL     1      13.149   0.825   2.416  1.00  0.00    -0.203 F 
ATOM     74  C   UNL     1      14.838   0.050   3.846  1.00  0.00     0.198 A 
ATOM     75  C   UNL     1      14.298  -1.040   5.897  1.00  0.00     0.198 A 
ATOM     76  F   UNL     1      12.110  -1.564   6.421  1.00  0.00    -0.203 F 
ATOM     77  F   UNL     1      15.756   0.441   2.951  1.00  0.00    -0.200 F 
ATOM     78  C   UNL     1      15.246  -0.576   5.012  1.00  0.00     0.200 A 
ATOM     79  F   UNL     1      14.669  -1.678   7.016  1.00  0.00    -0.200 F 
ATOM     80  F   UNL     1      16.547  -0.778   5.259  1.00  0.00    -0.200 F 
ENDBRANCH  56  70
BRANCH  57  81
ATOM     81  C   UNL     1       9.432  -8.128   4.590  1.00  0.00     0.064 A 
ATOM     82  C   UNL     1      10.171  -9.027   3.796  1.00  0.00     0.173 A 
ATOM     83  C   UNL     1       9.377  -8.420   5.965  1.00  0.00     0.173 A 
ATOM     84  F   UNL     1      10.308  -8.812   2.479  1.00  0.00    -0.203 F 
ATOM     85  C   UNL     1      10.855 -10.115   4.352  1.00  0.00     0.198 A 
ATOM     86  C   UNL     1      10.050  -9.512   6.518  1.00  0.00     0.198 A 
ATOM     87  F   UNL     1       8.756  -7.594   6.819  1.00  0.00    -0.203 F 
ATOM     88  F   UNL     1      11.616 -10.897   3.574  1.00  0.00    -0.200 F 
ATOM     89  C   UNL     1      10.806 -10.347   5.716  1.00  0.00     0.200 A 
ATOM     90  F   UNL     1      10.020  -9.707   7.844  1.00  0.00    -0.200 F 
ATOM     91  F   UNL     1      11.521 -11.340   6.262  1.00  0.00    -0.200 F 
ENDBRANCH  57  81
BRANCH  69  92
ATOM     92  C   UNL     1       8.467  -3.805  -0.031  1.00  0.00     0.064 A 
ATOM     93  C   UNL     1       7.212  -4.275   0.376  1.00  0.00     0.173 A 
ATOM     94  C   UNL     1       8.628  -3.474  -1.386  1.00  0.00     0.173 A 
ATOM     95  F   UNL     1       6.949  -4.538   1.665  1.00  0.00    -0.203 F 
ATOM     96  C   UNL     1       6.184  -4.444  -0.550  1.00  0.00     0.198 A 
ATOM     97  C   UNL     1       7.578  -3.581  -2.291  1.00  0.00     0.198 A 
ATOM     98  F   UNL     1       9.807  -3.011  -1.830  1.00  0.00    -0.203 F 
ATOM     99  F   UNL     1       5.016  -4.965  -0.165  1.00  0.00    -0.200 F 
ATOM    100  C   UNL     1       6.357  -4.075  -1.874  1.00  0.00     0.200 A 
ATOM    101  F   UNL     1       7.749  -3.198  -3.563  1.00  0.00    -0.200 F 
ATOM    102  F   UNL     1       5.341  -4.184  -2.742  1.00  0.00    -0.200 F 
ENDBRANCH  69  92
ENDBRANCH  43  44
ENDBRANCH  36  38
ENDBRANCH  35  36
ENDBRANCH  34  35
ENDBRANCH  33  34
ENDBRANCH  32  33
ENDBRANCH  31  32
ENDBRANCH  30  31
ENDBRANCH  29  30
ENDBRANCH   1  29
TORSDOF 23
