REMARK SMILES Cc1c(N[C@@H]2CC[C@@H]([NH3+])C2)cccc1C(=O)OCCOCCOCCOCCOC(=O)c1ccc(-c2c3nc(c(-c4c(F)c(F)c(F)c(F)c4F)c4ccc([nH]4)c(-c4c(F)c(F)c(F)c(F)c4F)c4nc(c(-c5c(F)c(F)c(F)c(F)c5F)c5ccc2[nH]5)C=C4)C=C3)cc1
REMARK SMILES IDX 22 1 21 2 20 3 19 4 18 5 17 6 15 7 16 8 14 9 1 10 2 11 3 12
REMARK SMILES IDX 11 13 13 14 12 15 4 16 5 18 6 19 10 20 7 21 8 22 9 23 23 27
REMARK SMILES IDX 24 28 25 29 26 30 27 31 28 32 29 33 30 34 31 35 32 36 33 37
REMARK SMILES IDX 94 38 34 39 93 40 35 41 36 42 37 43 87 44 38 45 92 46 86 47
REMARK SMILES IDX 88 48 39 49 91 50 85 51 84 52 40 54 72 55 52 56 71 57 53 58
REMARK SMILES IDX 56 59 70 60 89 61 54 62 55 63 69 65 90 66 57 67 41 68 42 69
REMARK SMILES IDX 50 70 43 71 44 72 48 73 51 74 45 75 46 76 49 77 47 78 73 79
REMARK SMILES IDX 74 80 82 81 75 82 76 83 80 84 83 85 77 86 78 87 81 88 79 89
REMARK SMILES IDX 58 90 59 91 67 92 60 93 61 94 65 95 68 96 62 97 63 98 66 99
REMARK SMILES IDX 64 100
REMARK H PARENT 4 17 9 24 9 25 9 26 88 53 56 64
REMARK Flexibility Score: inf
ROOT
ATOM      1  C   UNL     1      -0.136   1.332  -2.952  1.00  0.00     0.188 C 
ENDROOT
BRANCH   1   2
ATOM      2  C   UNL     1      -1.002   2.292  -2.120  1.00  0.00     0.188 C 
BRANCH   2   3
ATOM      3  O   UNL     1      -0.665   3.667  -2.031  1.00  0.00    -0.376 OA
BRANCH   3   4
ATOM      4  C   UNL     1       0.196   4.028  -0.957  1.00  0.00     0.202 C 
BRANCH   4   5
ATOM      5  C   UNL     1      -0.300   3.820   0.462  1.00  0.00     0.261 C 
BRANCH   5   6
ATOM      6  O   UNL     1      -0.117   2.453   0.803  1.00  0.00    -0.460 OA
BRANCH   6   7
ATOM      7  C   UNL     1      -1.135   1.909   1.482  1.00  0.00     0.338 C 
ATOM      8  O   UNL     1      -1.940   2.498   2.174  1.00  0.00    -0.246 OA
BRANCH   7   9
ATOM      9  C   UNL     1      -1.352   0.547   0.941  1.00  0.00     0.065 A 
ATOM     10  C   UNL     1       1.102  -0.070   0.410  1.00  0.00     0.047 C 
ATOM     11  C   UNL     1      -0.369  -0.384   0.519  1.00  0.00    -0.013 A 
ATOM     12  C   UNL     1      -0.790  -1.673   0.142  1.00  0.00     0.038 A 
ATOM     13  C   UNL     1      -2.159  -1.865  -0.087  1.00  0.00     0.026 A 
ATOM     14  C   UNL     1      -2.714   0.297   0.719  1.00  0.00     0.016 A 
ATOM     15  C   UNL     1      -3.115  -0.889   0.155  1.00  0.00     0.003 A 
BRANCH  12  16
ATOM     16  N   UNL     1       0.146  -2.683  -0.015  1.00  0.00    -0.382 N 
ATOM     17  H   UNL     1       1.089  -2.401  -0.024  1.00  0.00     0.160 HD
BRANCH  16  18
ATOM     18  C   UNL     1      -0.094  -4.105  -0.170  1.00  0.00     0.085 C 
ATOM     19  C   UNL     1      -0.757  -4.472  -1.497  1.00  0.00     0.031 C 
ATOM     20  C   UNL     1      -0.937  -4.695   0.960  1.00  0.00     0.089 C 
ATOM     21  C   UNL     1      -1.994  -5.290  -1.128  1.00  0.00     0.067 C 
ATOM     22  C   UNL     1      -1.752  -5.799   0.294  1.00  0.00     0.182 C 
BRANCH  22  23
ATOM     23  N   UNL     1      -1.014  -7.059   0.268  1.00  0.00    -0.355 N 
ATOM     24  H   UNL     1      -0.132  -6.926  -0.226  1.00  0.00     0.344 HD
ATOM     25  H   UNL     1      -1.569  -7.768  -0.211  1.00  0.00     0.344 HD
ATOM     26  H   UNL     1      -0.826  -7.362   1.224  1.00  0.00     0.344 HD
ENDBRANCH  22  23
ENDBRANCH  16  18
ENDBRANCH  12  16
ENDBRANCH   7   9
ENDBRANCH   6   7
ENDBRANCH   5   6
ENDBRANCH   4   5
ENDBRANCH   3   4
ENDBRANCH   2   3
ENDBRANCH   1   2
BRANCH   1  27
ATOM     27  O   UNL     1       1.206   1.087  -2.557  1.00  0.00    -0.377 OA
BRANCH  27  28
ATOM     28  C   UNL     1       2.229   1.929  -3.073  1.00  0.00     0.188 C 
BRANCH  28  29
ATOM     29  C   UNL     1       2.074   2.475  -4.485  1.00  0.00     0.188 C 
BRANCH  29  30
ATOM     30  O   UNL     1       1.127   3.539  -4.438  1.00  0.00    -0.376 OA
BRANCH  30  31
ATOM     31  C   UNL     1       0.378   3.755  -5.629  1.00  0.00     0.202 C 
BRANCH  31  32
ATOM     32  C   UNL     1       1.246   4.102  -6.843  1.00  0.00     0.261 C 
BRANCH  32  33
ATOM     33  O   UNL     1       1.886   5.375  -6.624  1.00  0.00    -0.460 OA
BRANCH  33  34
ATOM     34  C   UNL     1       3.207   5.314  -6.303  1.00  0.00     0.338 C 
ATOM     35  O   UNL     1       4.061   4.730  -6.948  1.00  0.00    -0.246 OA
BRANCH  34  36
ATOM     36  C   UNL     1       3.414   5.822  -4.915  1.00  0.00     0.060 A 
ATOM     37  C   UNL     1       4.641   5.625  -4.260  1.00  0.00     0.016 A 
ATOM     38  C   UNL     1       2.304   6.199  -4.175  1.00  0.00     0.016 A 
ATOM     39  C   UNL     1       4.701   5.623  -2.854  1.00  0.00     0.010 A 
ATOM     40  C   UNL     1       2.355   6.096  -2.801  1.00  0.00     0.010 A 
ATOM     41  C   UNL     1       3.529   5.753  -2.114  1.00  0.00    -0.014 A 
BRANCH  41  42
ATOM     42  C   UNL     1       3.364   5.405  -0.683  1.00  0.00     0.031 A 
ATOM     43  C   UNL     1       2.564   6.316   0.208  1.00  0.00     0.074 A 
ATOM     44  C   UNL     1       3.600   4.122  -0.297  1.00  0.00     0.049 A 
ATOM     45  N   UNL     1       2.193   6.036   1.411  1.00  0.00    -0.248 NA
ATOM     46  C   UNL     1       2.061   7.626  -0.202  1.00  0.00     0.031 C 
ATOM     47  C   UNL     1       2.963   3.404   0.808  1.00  0.00     0.029 A 
ATOM     48  N   UNL     1       4.409   3.136  -0.859  1.00  0.00    -0.354 N 
ATOM     49  C   UNL     1       1.164   6.882   1.778  1.00  0.00     0.074 A 
ATOM     50  C   UNL     1       1.192   7.916   0.776  1.00  0.00     0.031 C 
ATOM     51  C   UNL     1       3.430   2.155   0.912  1.00  0.00     0.029 A 
ATOM     52  C   UNL     1       4.583   2.087   0.061  1.00  0.00     0.049 A 
ATOM     53  H   UNL     1       4.800   3.169  -1.763  1.00  0.00     0.167 HD
ATOM     54  C   UNL     1       0.344   6.512   2.814  1.00  0.00     0.037 A 
ATOM     55  C   UNL     1       5.819   1.831   0.583  1.00  0.00     0.037 A 
ATOM     56  C   UNL     1       0.877   5.320   3.513  1.00  0.00     0.049 A 
ATOM     57  C   UNL     1       5.838   2.270   2.047  1.00  0.00     0.074 A 
ATOM     58  C   UNL     1       0.367   4.084   3.872  1.00  0.00     0.029 A 
ATOM     59  N   UNL     1       2.246   5.250   3.796  1.00  0.00    -0.354 N 
ATOM     60  N   UNL     1       5.144   3.294   2.505  1.00  0.00    -0.248 NA
ATOM     61  C   UNL     1       6.331   1.411   3.124  1.00  0.00     0.031 C 
ATOM     62  C   UNL     1       1.466   3.227   4.190  1.00  0.00     0.029 A 
ATOM     63  C   UNL     1       2.639   3.971   4.136  1.00  0.00     0.049 A 
ATOM     64  H   UNL     1       2.856   6.021   3.758  1.00  0.00     0.167 HD
ATOM     65  C   UNL     1       4.938   3.127   3.852  1.00  0.00     0.074 A 
ATOM     66  C   UNL     1       5.753   1.970   4.203  1.00  0.00     0.031 C 
ATOM     67  C   UNL     1       3.985   3.727   4.633  1.00  0.00     0.037 A 
BRANCH  54  68
ATOM     68  C   UNL     1      -1.044   7.094   3.128  1.00  0.00     0.064 A 
ATOM     69  C   UNL     1      -1.730   6.724   4.312  1.00  0.00     0.173 A 
ATOM     70  C   UNL     1      -1.796   7.936   2.277  1.00  0.00     0.173 A 
ATOM     71  F   UNL     1      -1.149   5.947   5.235  1.00  0.00    -0.203 F 
ATOM     72  C   UNL     1      -3.040   7.141   4.604  1.00  0.00     0.198 A 
ATOM     73  C   UNL     1      -3.082   8.403   2.600  1.00  0.00     0.198 A 
ATOM     74  F   UNL     1      -1.349   8.311   1.075  1.00  0.00    -0.203 F 
ATOM     75  F   UNL     1      -3.645   6.710   5.721  1.00  0.00    -0.200 F 
ATOM     76  C   UNL     1      -3.711   7.995   3.756  1.00  0.00     0.200 A 
ATOM     77  F   UNL     1      -3.712   9.245   1.766  1.00  0.00    -0.200 F 
ATOM     78  F   UNL     1      -4.950   8.416   4.045  1.00  0.00    -0.200 F 
ENDBRANCH  54  68
BRANCH  55  79
ATOM     79  C   UNL     1       6.830   1.791  -0.522  1.00  0.00     0.064 A 
ATOM     80  C   UNL     1       6.615   0.713  -1.420  1.00  0.00     0.173 A 
ATOM     81  C   UNL     1       7.326   2.982  -1.079  1.00  0.00     0.173 A 
ATOM     82  F   UNL     1       6.179  -0.466  -0.946  1.00  0.00    -0.203 F 
ATOM     83  C   UNL     1       6.587   0.914  -2.802  1.00  0.00     0.198 A 
ATOM     84  C   UNL     1       7.347   3.159  -2.472  1.00  0.00     0.198 A 
ATOM     85  F   UNL     1       7.569   4.043  -0.296  1.00  0.00    -0.203 F 
ATOM     86  F   UNL     1       6.117  -0.049  -3.609  1.00  0.00    -0.200 F 
ATOM     87  C   UNL     1       6.900   2.155  -3.322  1.00  0.00     0.200 A 
ATOM     88  F   UNL     1       7.658   4.357  -2.990  1.00  0.00    -0.200 F 
ATOM     89  F   UNL     1       6.691   2.411  -4.622  1.00  0.00    -0.200 F 
ENDBRANCH  55  79
BRANCH  67  90
ATOM     90  C   UNL     1       4.306   4.210   6.031  1.00  0.00     0.064 A 
ATOM     91  C   UNL     1       5.623   4.321   6.505  1.00  0.00     0.173 A 
ATOM     92  C   UNL     1       3.310   4.803   6.851  1.00  0.00     0.173 A 
ATOM     93  F   UNL     1       6.667   3.885   5.787  1.00  0.00    -0.203 F 
ATOM     94  C   UNL     1       5.918   4.941   7.717  1.00  0.00     0.198 A 
ATOM     95  C   UNL     1       3.617   5.473   8.030  1.00  0.00     0.198 A 
ATOM     96  F   UNL     1       2.011   4.799   6.519  1.00  0.00    -0.203 F 
ATOM     97  F   UNL     1       7.190   4.994   8.134  1.00  0.00    -0.200 F 
ATOM     98  C   UNL     1       4.920   5.529   8.470  1.00  0.00     0.200 A 
ATOM     99  F   UNL     1       2.645   6.089   8.717  1.00  0.00    -0.200 F 
ATOM    100  F   UNL     1       5.219   6.166   9.609  1.00  0.00    -0.200 F 
ENDBRANCH  67  90
ENDBRANCH  41  42
ENDBRANCH  34  36
ENDBRANCH  33  34
ENDBRANCH  32  33
ENDBRANCH  31  32
ENDBRANCH  30  31
ENDBRANCH  29  30
ENDBRANCH  28  29
ENDBRANCH  27  28
ENDBRANCH   1  27
TORSDOF 23
