REMARK SMILES COc1ccc(N2C(=O)/C(=C/c3c(C(=O)OCCOCCOCCOCCOC(=O)c4ccc(-c5c6nc(c(-c7c(F)c(F)c(F)c(F)c7F)c7ccc([nH]7)c(-c7c(F)c(F)c(F)c(F)c7F)c7nc(c(-c8c(F)c(F)c(F)c(F)c8F)c8ccc5[nH]8)C=C7)C=C6)cc4)[nH]c4cc(OC)ccc34)SC2=S)cc1
REMARK SMILES IDX 21 1 20 2 19 3 18 4 17 5 16 6 14 7 15 8 13 9 12 10 102 11
REMARK SMILES IDX 94 12 95 13 101 14 96 16 100 17 97 18 11 19 7 20 8 21 104 22
REMARK SMILES IDX 9 23 10 24 103 25 105 26 6 27 3 28 4 29 107 30 5 31 106 32
REMARK SMILES IDX 2 33 1 34 98 35 99 36 22 37 23 38 24 39 25 40 26 41 27 42
REMARK SMILES IDX 28 43 29 44 30 45 31 46 32 47 93 48 33 49 92 50 34 51 35 52
REMARK SMILES IDX 36 53 86 54 37 55 91 56 85 57 87 58 38 59 90 60 84 61 83 62
REMARK SMILES IDX 39 64 71 65 51 66 70 67 52 68 55 69 69 70 88 71 53 72 54 73
REMARK SMILES IDX 68 75 89 76 56 77 40 78 41 79 49 80 42 81 43 82 47 83 50 84
REMARK SMILES IDX 44 85 45 86 48 87 46 88 72 89 73 90 81 91 74 92 75 93 79 94
REMARK SMILES IDX 82 95 76 96 77 97 80 98 78 99 57 100 58 101 66 102 59 103
REMARK SMILES IDX 60 104 64 105 67 106 61 107 62 108 65 109 63 110
REMARK H PARENT 94 15 87 63 55 74
REMARK Flexibility Score: inf
ROOT
ATOM      1  C   UNL     1       2.071   0.994  11.257  1.00  0.00     0.188 C 
ENDROOT
BRANCH   1   2
ATOM      2  C   UNL     1       3.477   0.620  10.796  1.00  0.00     0.188 C 
BRANCH   2   3
ATOM      3  O   UNL     1       4.353   1.745  10.670  1.00  0.00    -0.376 OA
BRANCH   3   4
ATOM      4  C   UNL     1       5.196   1.738   9.512  1.00  0.00     0.202 C 
BRANCH   4   5
ATOM      5  C   UNL     1       6.254   0.637   9.507  1.00  0.00     0.261 C 
BRANCH   5   6
ATOM      6  O   UNL     1       5.590  -0.632   9.582  1.00  0.00    -0.459 OA
BRANCH   6   7
ATOM      7  C   UNL     1       6.182  -1.522  10.412  1.00  0.00     0.355 C 
ATOM      8  O   UNL     1       7.365  -1.491  10.729  1.00  0.00    -0.244 OA
BRANCH   7   9
ATOM      9  C   UNL     1       5.195  -2.324  11.099  1.00  0.00     0.133 A 
ATOM     10  C   UNL     1       3.937  -2.875  10.834  1.00  0.00     0.016 A 
ATOM     11  C   UNL     1       3.479  -3.491  12.061  1.00  0.00     0.008 A 
ATOM     12  N   UNL     1       5.434  -2.530  12.444  1.00  0.00    -0.348 N 
ATOM     13  C   UNL     1       4.377  -3.130  13.062  1.00  0.00     0.050 A 
ATOM     14  C   UNL     1       2.348  -4.249  12.444  1.00  0.00     0.015 A 
ATOM     15  H   UNL     1       6.267  -2.273  12.901  1.00  0.00     0.167 HD
ATOM     16  C   UNL     1       4.160  -3.361  14.424  1.00  0.00     0.073 A 
ATOM     17  C   UNL     1       2.143  -4.555  13.800  1.00  0.00     0.047 A 
ATOM     18  C   UNL     1       3.027  -4.094  14.768  1.00  0.00     0.120 A 
BRANCH  10  19
ATOM     19  C   UNL     1       3.096  -2.716   9.668  1.00  0.00     0.032 C 
ATOM     20  N   UNL     1       3.116  -1.745   6.189  1.00  0.00    -0.261 N 
ATOM     21  C   UNL     1       2.420  -2.154   7.326  1.00  0.00     0.270 C 
ATOM     22  C   UNL     1       4.500  -1.823   6.289  1.00  0.00     0.152 C 
ATOM     23  O   UNL     1       1.211  -2.130   7.514  1.00  0.00    -0.268 OA
ATOM     24  C   UNL     1       3.402  -2.632   8.364  1.00  0.00     0.081 C 
ATOM     25  S   UNL     1       4.928  -2.876   7.624  1.00  0.00    -0.054 SA
ATOM     26  S   UNL     1       5.676  -0.977   5.446  1.00  0.00    -0.051 S 
BRANCH  20  27
ATOM     27  C   UNL     1       2.467  -1.240   5.019  1.00  0.00     0.051 A 
ATOM     28  C   UNL     1       1.486  -0.086   2.631  1.00  0.00     0.119 A 
ATOM     29  C   UNL     1       0.990   0.304   3.879  1.00  0.00     0.048 A 
ATOM     30  C   UNL     1       2.432  -1.098   2.574  1.00  0.00     0.048 A 
ATOM     31  C   UNL     1       1.445  -0.290   5.070  1.00  0.00     0.030 A 
ATOM     32  C   UNL     1       2.917  -1.663   3.756  1.00  0.00     0.030 A 
BRANCH  28  33
ATOM     33  O   UNL     1       0.963   0.563   1.547  1.00  0.00    -0.497 OA
ATOM     34  C   UNL     1       1.716   0.474   0.338  1.00  0.00     0.278 C 
ENDBRANCH  28  33
ENDBRANCH  20  27
ENDBRANCH  10  19
BRANCH  18  35
ATOM     35  O   UNL     1       2.720  -4.288  16.087  1.00  0.00    -0.497 OA
ATOM     36  C   UNL     1       3.529  -5.309  16.671  1.00  0.00     0.278 C 
ENDBRANCH  18  35
ENDBRANCH   7   9
ENDBRANCH   6   7
ENDBRANCH   5   6
ENDBRANCH   4   5
ENDBRANCH   3   4
ENDBRANCH   2   3
ENDBRANCH   1   2
BRANCH   1  37
ATOM     37  O   UNL     1       1.174   1.399  10.217  1.00  0.00    -0.377 OA
BRANCH  37  38
ATOM     38  C   UNL     1       1.687   2.280   9.227  1.00  0.00     0.188 C 
BRANCH  38  39
ATOM     39  C   UNL     1       2.155   3.676   9.675  1.00  0.00     0.188 C 
BRANCH  39  40
ATOM     40  O   UNL     1       2.379   3.813  11.069  1.00  0.00    -0.376 OA
BRANCH  40  41
ATOM     41  C   UNL     1       1.422   4.603  11.770  1.00  0.00     0.202 C 
BRANCH  41  42
ATOM     42  C   UNL     1       0.055   3.933  11.984  1.00  0.00     0.261 C 
BRANCH  42  43
ATOM     43  O   UNL     1      -0.671   3.627  10.782  1.00  0.00    -0.460 OA
BRANCH  43  44
ATOM     44  C   UNL     1      -1.026   4.669  10.005  1.00  0.00     0.338 C 
ATOM     45  O   UNL     1      -0.830   5.853  10.213  1.00  0.00    -0.246 OA
BRANCH  44  46
ATOM     46  C   UNL     1      -1.573   4.138   8.744  1.00  0.00     0.060 A 
ATOM     47  C   UNL     1      -0.993   4.548   7.539  1.00  0.00     0.016 A 
ATOM     48  C   UNL     1      -2.680   3.285   8.751  1.00  0.00     0.016 A 
ATOM     49  C   UNL     1      -1.552   4.138   6.330  1.00  0.00     0.010 A 
ATOM     50  C   UNL     1      -3.258   2.900   7.540  1.00  0.00     0.010 A 
ATOM     51  C   UNL     1      -2.718   3.356   6.328  1.00  0.00    -0.014 A 
BRANCH  51  52
ATOM     52  C   UNL     1      -3.474   3.203   5.064  1.00  0.00     0.031 A 
ATOM     53  C   UNL     1      -4.419   4.299   4.666  1.00  0.00     0.074 A 
ATOM     54  C   UNL     1      -3.306   2.131   4.273  1.00  0.00     0.049 A 
ATOM     55  N   UNL     1      -5.132   4.428   3.578  1.00  0.00    -0.248 NA
ATOM     56  C   UNL     1      -4.604   5.385   5.643  1.00  0.00     0.031 C 
ATOM     57  C   UNL     1      -2.447   0.995   4.576  1.00  0.00     0.029 A 
ATOM     58  N   UNL     1      -3.818   1.849   3.030  1.00  0.00    -0.354 N 
ATOM     59  C   UNL     1      -5.890   5.575   3.763  1.00  0.00     0.074 A 
ATOM     60  C   UNL     1      -5.525   6.128   5.049  1.00  0.00     0.031 C 
ATOM     61  C   UNL     1      -2.414   0.180   3.507  1.00  0.00     0.029 A 
ATOM     62  C   UNL     1      -3.262   0.731   2.455  1.00  0.00     0.049 A 
ATOM     63  H   UNL     1      -4.513   2.393   2.595  1.00  0.00     0.167 HD
ATOM     64  C   UNL     1      -6.837   6.096   2.948  1.00  0.00     0.037 A 
ATOM     65  C   UNL     1      -3.398   0.243   1.206  1.00  0.00     0.037 A 
ATOM     66  C   UNL     1      -7.198   5.542   1.671  1.00  0.00     0.049 A 
ATOM     67  C   UNL     1      -4.361   0.919   0.263  1.00  0.00     0.074 A 
ATOM     68  C   UNL     1      -8.171   5.969   0.785  1.00  0.00     0.029 A 
ATOM     69  N   UNL     1      -6.592   4.434   1.099  1.00  0.00    -0.354 N 
ATOM     70  N   UNL     1      -5.067   2.010   0.437  1.00  0.00    -0.248 NA
ATOM     71  C   UNL     1      -4.567   0.275  -1.044  1.00  0.00     0.031 C 
ATOM     72  C   UNL     1      -8.171   5.101  -0.314  1.00  0.00     0.029 A 
ATOM     73  C   UNL     1      -7.174   4.157  -0.126  1.00  0.00     0.049 A 
ATOM     74  H   UNL     1      -5.856   3.921   1.504  1.00  0.00     0.167 HD
ATOM     75  C   UNL     1      -5.816   2.168  -0.721  1.00  0.00     0.074 A 
ATOM     76  C   UNL     1      -5.426   1.102  -1.621  1.00  0.00     0.031 C 
ATOM     77  C   UNL     1      -6.773   3.087  -1.000  1.00  0.00     0.037 A 
BRANCH  64  78
ATOM     78  C   UNL     1      -7.599   7.277   3.464  1.00  0.00     0.064 A 
ATOM     79  C   UNL     1      -7.035   8.558   3.524  1.00  0.00     0.173 A 
ATOM     80  C   UNL     1      -8.914   7.111   3.927  1.00  0.00     0.173 A 
ATOM     81  F   UNL     1      -5.772   8.759   3.119  1.00  0.00    -0.203 F 
ATOM     82  C   UNL     1      -7.753   9.629   4.052  1.00  0.00     0.198 A 
ATOM     83  C   UNL     1      -9.636   8.188   4.432  1.00  0.00     0.198 A 
ATOM     84  F   UNL     1      -9.494   5.902   3.897  1.00  0.00    -0.203 F 
ATOM     85  F   UNL     1      -7.178  10.836   4.148  1.00  0.00    -0.200 F 
ATOM     86  C   UNL     1      -9.052   9.444   4.502  1.00  0.00     0.200 A 
ATOM     87  F   UNL     1     -10.892   8.007   4.863  1.00  0.00    -0.200 F 
ATOM     88  F   UNL     1      -9.739  10.474   5.014  1.00  0.00    -0.200 F 
ENDBRANCH  64  78
BRANCH  65  89
ATOM     89  C   UNL     1      -2.562  -0.896   0.740  1.00  0.00     0.064 A 
ATOM     90  C   UNL     1      -1.622  -0.702  -0.285  1.00  0.00     0.173 A 
ATOM     91  C   UNL     1      -2.676  -2.185   1.275  1.00  0.00     0.173 A 
ATOM     92  F   UNL     1      -1.486   0.506  -0.853  1.00  0.00    -0.203 F 
ATOM     93  C   UNL     1      -0.841  -1.753  -0.760  1.00  0.00     0.198 A 
ATOM     94  C   UNL     1      -1.867  -3.228   0.824  1.00  0.00     0.198 A 
ATOM     95  F   UNL     1      -3.571  -2.435   2.242  1.00  0.00    -0.203 F 
ATOM     96  F   UNL     1       0.020  -1.542  -1.765  1.00  0.00    -0.200 F 
ATOM     97  C   UNL     1      -0.954  -3.012  -0.196  1.00  0.00     0.200 A 
ATOM     98  F   UNL     1      -1.978  -4.446   1.372  1.00  0.00    -0.200 F 
ATOM     99  F   UNL     1      -0.189  -4.018  -0.642  1.00  0.00    -0.200 F 
ENDBRANCH  65  89
BRANCH  77 100
ATOM    100  C   UNL     1      -7.487   2.949  -2.311  1.00  0.00     0.064 A 
ATOM    101  C   UNL     1      -8.422   1.923  -2.518  1.00  0.00     0.173 A 
ATOM    102  C   UNL     1      -7.268   3.862  -3.351  1.00  0.00     0.173 A 
ATOM    103  F   UNL     1      -8.656   1.019  -1.555  1.00  0.00    -0.203 F 
ATOM    104  C   UNL     1      -9.095   1.803  -3.729  1.00  0.00     0.198 A 
ATOM    105  C   UNL     1      -7.960   3.752  -4.554  1.00  0.00     0.198 A 
ATOM    106  F   UNL     1      -6.388   4.863  -3.198  1.00  0.00    -0.203 F 
ATOM    107  F   UNL     1      -9.953   0.791  -3.920  1.00  0.00    -0.200 F 
ATOM    108  C   UNL     1      -8.868   2.720  -4.744  1.00  0.00     0.200 A 
ATOM    109  F   UNL     1      -7.747   4.643  -5.532  1.00  0.00    -0.200 F 
ATOM    110  F   UNL     1      -9.518   2.604  -5.910  1.00  0.00    -0.200 F 
ENDBRANCH  77 100
ENDBRANCH  51  52
ENDBRANCH  44  46
ENDBRANCH  43  44
ENDBRANCH  42  43
ENDBRANCH  41  42
ENDBRANCH  40  41
ENDBRANCH  39  40
ENDBRANCH  38  39
ENDBRANCH  37  38
ENDBRANCH   1  37
TORSDOF 24
