REMARK SMILES COc1ccc(OC)c([C@H](C(=O)OCCOCCOCCOCCOC(=O)c2ccc(-c3c4nc(c(-c5c(F)c(F)c(F)c(F)c5F)c5ccc([nH]5)c(-c5c(F)c(F)c(F)c(F)c5F)c5nc(c(-c6c(F)c(F)c(F)c(F)c6F)c6ccc3[nH]6)C=C5)C=C4)cc2)[NH+]2CC[NH+](Cc3nccn3C)CC2)c1
REMARK SMILES IDX 18 1 17 2 16 3 15 4 14 5 13 6 11 7 12 8 10 9 9 10 3 11 4 12
REMARK SMILES IDX 104 13 5 14 6 15 2 16 1 17 7 18 8 19 91 20 92 21 103 22
REMARK SMILES IDX 93 24 102 25 94 26 95 28 96 29 97 30 100 31 98 32 99 33
REMARK SMILES IDX 101 34 19 35 20 36 21 37 22 38 23 39 24 40 25 41 26 42 27 43
REMARK SMILES IDX 28 44 29 45 90 46 30 47 89 48 31 49 32 50 33 51 83 52 34 53
REMARK SMILES IDX 88 54 82 55 84 56 35 57 87 58 81 59 80 60 36 62 68 63 48 64
REMARK SMILES IDX 67 65 49 66 52 67 66 68 85 69 50 70 51 71 65 73 86 74 53 75
REMARK SMILES IDX 37 76 38 77 46 78 39 79 40 80 44 81 47 82 41 83 42 84 45 85
REMARK SMILES IDX 43 86 69 87 70 88 78 89 71 90 72 91 76 92 79 93 73 94 74 95
REMARK SMILES IDX 77 96 75 97 54 98 55 99 63 100 56 101 57 102 61 103 64 104
REMARK SMILES IDX 58 105 59 106 62 107 60 108
REMARK H PARENT 91 23 94 27 84 61 52 72
REMARK Flexibility Score: inf
ROOT
ATOM      1  C   UNL     1       1.646   0.506  -3.709  1.00  0.00     0.188 C 
ENDROOT
BRANCH   1   2
ATOM      2  C   UNL     1       0.700   0.280  -2.529  1.00  0.00     0.188 C 
BRANCH   2   3
ATOM      3  O   UNL     1      -0.574   0.897  -2.602  1.00  0.00    -0.376 OA
BRANCH   3   4
ATOM      4  C   UNL     1      -0.641   2.317  -2.492  1.00  0.00     0.202 C 
BRANCH   4   5
ATOM      5  C   UNL     1       0.416   3.082  -1.694  1.00  0.00     0.261 C 
BRANCH   5   6
ATOM      6  O   UNL     1       1.675   3.294  -2.382  1.00  0.00    -0.459 OA
BRANCH   6   7
ATOM      7  C   UNL     1       2.791   2.809  -1.770  1.00  0.00     0.370 C 
ATOM      8  O   UNL     1       2.749   2.005  -0.837  1.00  0.00    -0.245 OA
BRANCH   7   9
ATOM      9  C   UNL     1       4.104   3.514  -2.134  1.00  0.00     0.330 C 
BRANCH   9  10
ATOM     10  C   UNL     1       4.766   3.349  -3.501  1.00  0.00     0.067 A 
ATOM     11  C   UNL     1       4.622   3.357  -5.948  1.00  0.00     0.119 A 
ATOM     12  C   UNL     1       6.003   3.264  -6.054  1.00  0.00     0.050 A 
ATOM     13  C   UNL     1       4.012   3.394  -4.688  1.00  0.00     0.060 A 
ATOM     14  C   UNL     1       6.778   3.214  -4.899  1.00  0.00     0.051 A 
ATOM     15  C   UNL     1       6.173   3.258  -3.635  1.00  0.00     0.128 A 
BRANCH  11  16
ATOM     16  O   UNL     1       3.924   3.341  -7.125  1.00  0.00    -0.497 OA
ATOM     17  C   UNL     1       2.921   4.347  -7.201  1.00  0.00     0.278 C 
ENDBRANCH  11  16
BRANCH  15  18
ATOM     18  O   UNL     1       7.040   3.051  -2.590  1.00  0.00    -0.496 OA
ATOM     19  C   UNL     1       7.161   4.139  -1.678  1.00  0.00     0.278 C 
ENDBRANCH  15  18
ENDBRANCH   9  10
BRANCH   9  20
ATOM     20  N   UNL     1       4.120   4.919  -1.666  1.00  0.00    -0.310 N 
ATOM     21  C   UNL     1       3.480   5.925  -2.516  1.00  0.00     0.325 C 
ATOM     22  C   UNL     1       3.813   5.080  -0.245  1.00  0.00     0.325 C 
ATOM     23  H   UNL     1       5.108   5.147  -1.779  1.00  0.00     0.349 HD
ATOM     24  C   UNL     1       2.054   6.386  -2.143  1.00  0.00     0.324 C 
ATOM     25  C   UNL     1       2.357   5.467   0.101  1.00  0.00     0.324 C 
ATOM     26  N   UNL     1       1.722   6.509  -0.714  1.00  0.00    -0.319 N 
ATOM     27  H   UNL     1       0.721   6.333  -0.625  1.00  0.00     0.348 HD
BRANCH  26  28
ATOM     28  C   UNL     1       1.904   7.880  -0.205  1.00  0.00     0.339 C 
BRANCH  28  29
ATOM     29  C   UNL     1       3.323   8.358  -0.180  1.00  0.00     0.164 A 
ATOM     30  N   UNL     1       3.988   8.802  -1.233  1.00  0.00    -0.236 NA
ATOM     31  N   UNL     1       4.159   8.292   0.912  1.00  0.00    -0.333 N 
ATOM     32  C   UNL     1       5.305   8.825  -0.863  1.00  0.00     0.131 A 
ATOM     33  C   UNL     1       5.437   8.502   0.463  1.00  0.00     0.107 A 
ATOM     34  C   UNL     1       3.831   7.948   2.273  1.00  0.00     0.151 C 
ENDBRANCH  28  29
ENDBRANCH  26  28
ENDBRANCH   9  20
ENDBRANCH   7   9
ENDBRANCH   6   7
ENDBRANCH   5   6
ENDBRANCH   4   5
ENDBRANCH   3   4
ENDBRANCH   2   3
ENDBRANCH   1   2
BRANCH   1  35
ATOM     35  O   UNL     1       1.395   1.661  -4.493  1.00  0.00    -0.377 OA
BRANCH  35  36
ATOM     36  C   UNL     1       0.499   1.588  -5.596  1.00  0.00     0.188 C 
BRANCH  36  37
ATOM     37  C   UNL     1      -0.049   0.227  -6.013  1.00  0.00     0.188 C 
BRANCH  37  38
ATOM     38  O   UNL     1       0.892  -0.779  -6.391  1.00  0.00    -0.376 OA
BRANCH  38  39
ATOM     39  C   UNL     1       2.158  -0.381  -6.918  1.00  0.00     0.202 C 
BRANCH  39  40
ATOM     40  C   UNL     1       2.152  -0.143  -8.422  1.00  0.00     0.261 C 
BRANCH  40  41
ATOM     41  O   UNL     1       1.644   1.162  -8.734  1.00  0.00    -0.460 OA
BRANCH  41  42
ATOM     42  C   UNL     1       0.355   1.226  -9.133  1.00  0.00     0.338 C 
ATOM     43  O   UNL     1      -0.437   0.321  -9.283  1.00  0.00    -0.246 OA
BRANCH  42  44
ATOM     44  C   UNL     1       0.007   2.650  -9.274  1.00  0.00     0.060 A 
ATOM     45  C   UNL     1      -1.130   3.151  -8.628  1.00  0.00     0.016 A 
ATOM     46  C   UNL     1       0.783   3.466 -10.097  1.00  0.00     0.016 A 
ATOM     47  C   UNL     1      -1.529   4.470  -8.852  1.00  0.00     0.010 A 
ATOM     48  C   UNL     1       0.395   4.785 -10.307  1.00  0.00     0.010 A 
ATOM     49  C   UNL     1      -0.792   5.274  -9.732  1.00  0.00    -0.014 A 
BRANCH  49  50
ATOM     50  C   UNL     1      -1.360   6.522 -10.294  1.00  0.00     0.031 A 
ATOM     51  C   UNL     1      -1.881   6.464 -11.704  1.00  0.00     0.074 A 
ATOM     52  C   UNL     1      -1.354   7.680  -9.613  1.00  0.00     0.049 A 
ATOM     53  N   UNL     1      -2.209   7.434 -12.516  1.00  0.00    -0.248 NA
ATOM     54  C   UNL     1      -2.019   5.118 -12.288  1.00  0.00     0.031 C 
ATOM     55  C   UNL     1      -0.921   7.852  -8.230  1.00  0.00     0.029 A 
ATOM     56  N   UNL     1      -1.701   8.944 -10.020  1.00  0.00    -0.354 N 
ATOM     57  C   UNL     1      -2.559   6.817 -13.710  1.00  0.00     0.074 A 
ATOM     58  C   UNL     1      -2.368   5.396 -13.533  1.00  0.00     0.031 C 
ATOM     59  C   UNL     1      -1.006   9.155  -7.907  1.00  0.00     0.029 A 
ATOM     60  C   UNL     1      -1.452   9.911  -9.078  1.00  0.00     0.049 A 
ATOM     61  H   UNL     1      -2.090   9.139 -10.903  1.00  0.00     0.167 HD
ATOM     62  C   UNL     1      -3.010   7.388 -14.851  1.00  0.00     0.037 A 
ATOM     63  C   UNL     1      -1.540  11.253  -9.172  1.00  0.00     0.037 A 
ATOM     64  C   UNL     1      -3.210   8.801 -15.012  1.00  0.00     0.049 A 
ATOM     65  C   UNL     1      -1.978  11.872 -10.479  1.00  0.00     0.074 A 
ATOM     66  C   UNL     1      -3.674   9.486 -16.120  1.00  0.00     0.029 A 
ATOM     67  N   UNL     1      -2.956   9.747 -14.030  1.00  0.00    -0.354 N 
ATOM     68  N   UNL     1      -2.315  11.289 -11.605  1.00  0.00    -0.248 NA
ATOM     69  C   UNL     1      -2.047  13.341 -10.527  1.00  0.00     0.031 C 
ATOM     70  C   UNL     1      -3.651  10.852 -15.826  1.00  0.00     0.029 A 
ATOM     71  C   UNL     1      -3.242  11.012 -14.511  1.00  0.00     0.049 A 
ATOM     72  H   UNL     1      -2.623   9.547 -13.125  1.00  0.00     0.167 HD
ATOM     73  C   UNL     1      -2.684  12.311 -12.472  1.00  0.00     0.074 A 
ATOM     74  C   UNL     1      -2.527  13.552 -11.744  1.00  0.00     0.031 C 
ATOM     75  C   UNL     1      -3.120  12.231 -13.754  1.00  0.00     0.037 A 
BRANCH  62  76
ATOM     76  C   UNL     1      -3.298   6.484 -16.015  1.00  0.00     0.064 A 
ATOM     77  C   UNL     1      -4.369   5.579 -16.000  1.00  0.00     0.173 A 
ATOM     78  C   UNL     1      -2.509   6.547 -17.173  1.00  0.00     0.173 A 
ATOM     79  F   UNL     1      -5.144   5.467 -14.910  1.00  0.00    -0.203 F 
ATOM     80  C   UNL     1      -4.623   4.751 -17.090  1.00  0.00     0.198 A 
ATOM     81  C   UNL     1      -2.788   5.743 -18.275  1.00  0.00     0.198 A 
ATOM     82  F   UNL     1      -1.472   7.395 -17.242  1.00  0.00    -0.203 F 
ATOM     83  F   UNL     1      -5.619   3.856 -17.031  1.00  0.00    -0.200 F 
ATOM     84  C   UNL     1      -3.839   4.840 -18.230  1.00  0.00     0.200 A 
ATOM     85  F   UNL     1      -2.037   5.842 -19.381  1.00  0.00    -0.200 F 
ATOM     86  F   UNL     1      -4.092   4.051 -19.283  1.00  0.00    -0.200 F 
ENDBRANCH  62  76
BRANCH  63  87
ATOM     87  C   UNL     1      -1.200  12.114  -8.007  1.00  0.00     0.064 A 
ATOM     88  C   UNL     1      -2.183  12.889  -7.375  1.00  0.00     0.173 A 
ATOM     89  C   UNL     1       0.115  12.217  -7.529  1.00  0.00     0.173 A 
ATOM     90  F   UNL     1      -3.451  12.846  -7.811  1.00  0.00    -0.203 F 
ATOM     91  C   UNL     1      -1.860  13.757  -6.334  1.00  0.00     0.198 A 
ATOM     92  C   UNL     1       0.431  13.060  -6.465  1.00  0.00     0.198 A 
ATOM     93  F   UNL     1       1.095  11.499  -8.096  1.00  0.00    -0.203 F 
ATOM     94  F   UNL     1      -2.810  14.534  -5.794  1.00  0.00    -0.200 F 
ATOM     95  C   UNL     1      -0.554  13.839  -5.877  1.00  0.00     0.200 A 
ATOM     96  F   UNL     1       1.692  13.129  -6.019  1.00  0.00    -0.200 F 
ATOM     97  F   UNL     1      -0.243  14.678  -4.880  1.00  0.00    -0.200 F 
ENDBRANCH  63  87
BRANCH  75  98
ATOM     98  C   UNL     1      -3.550  13.501 -14.431  1.00  0.00     0.064 A 
ATOM     99  C   UNL     1      -2.631  14.475 -14.843  1.00  0.00     0.173 A 
ATOM    100  C   UNL     1      -4.904  13.700 -14.746  1.00  0.00     0.173 A 
ATOM    101  F   UNL     1      -1.327  14.338 -14.559  1.00  0.00    -0.203 F 
ATOM    102  C   UNL     1      -3.054  15.612 -15.529  1.00  0.00     0.198 A 
ATOM    103  C   UNL     1      -5.319  14.819 -15.461  1.00  0.00     0.198 A 
ATOM    104  F   UNL     1      -5.823  12.792 -14.384  1.00  0.00    -0.203 F 
ATOM    105  F   UNL     1      -2.164  16.550 -15.879  1.00  0.00    -0.200 F 
ATOM    106  C   UNL     1      -4.394  15.777 -15.847  1.00  0.00     0.200 A 
ATOM    107  F   UNL     1      -6.611  14.965 -15.785  1.00  0.00    -0.200 F 
ATOM    108  F   UNL     1      -4.795  16.861 -16.525  1.00  0.00    -0.200 F 
ENDBRANCH  75  98
ENDBRANCH  49  50
ENDBRANCH  42  44
ENDBRANCH  41  42
ENDBRANCH  40  41
ENDBRANCH  39  40
ENDBRANCH  38  39
ENDBRANCH  37  38
ENDBRANCH  36  37
ENDBRANCH  35  36
ENDBRANCH   1  35
TORSDOF 26
