REMARK SMILES CCSc1ccc(-c2cc(Cl)cc3c2O[C@@H](C(F)(F)F)C(C(=O)OCCOCCOCCOCCOC(=O)c2ccc(-c4c5nc(c(-c6c(F)c(F)c(F)c(F)c6F)c6ccc([nH]6)c(-c6c(F)c(F)c(F)c(F)c6F)c6nc(c(-c7c(F)c(F)c(F)c(F)c7F)c7ccc4[nH]7)C=C6)C=C5)cc2)=C3)cc1
REMARK SMILES IDX 29 1 28 2 27 3 26 4 25 5 24 6 22 7 23 8 21 9 8 10 9 11 14 12
REMARK SMILES IDX 10 13 13 14 15 15 11 16 12 17 102 18 16 19 7 20 4 21 5 22
REMARK SMILES IDX 104 23 6 24 103 25 3 26 2 27 1 28 17 29 18 30 19 31 20 32
REMARK SMILES IDX 30 33 31 34 32 35 33 36 34 37 35 38 36 39 37 40 38 41 39 42
REMARK SMILES IDX 40 43 101 44 41 45 100 46 42 47 43 48 44 49 94 50 45 51
REMARK SMILES IDX 99 52 93 53 95 54 46 55 98 56 92 57 91 58 47 60 79 61 59 62
REMARK SMILES IDX 78 63 60 64 63 65 77 66 96 67 61 68 62 69 76 71 97 72 64 73
REMARK SMILES IDX 48 74 49 75 57 76 50 77 51 78 55 79 58 80 52 81 53 82 56 83
REMARK SMILES IDX 54 84 80 85 81 86 89 87 82 88 83 89 87 90 90 91 84 92 85 93
REMARK SMILES IDX 88 94 86 95 65 96 66 97 74 98 67 99 68 100 72 101 75 102
REMARK SMILES IDX 69 103 70 104 73 105 71 106
REMARK H PARENT 95 59 63 70
REMARK Flexibility Score: inf
ROOT
ATOM      1  C   UNL     1      11.992  -2.208  -0.158  1.00  0.00     0.188 C 
ENDROOT
BRANCH   1   2
ATOM      2  C   UNL     1      11.481  -2.089  -1.600  1.00  0.00     0.188 C 
BRANCH   2   3
ATOM      3  O   UNL     1      12.472  -2.352  -2.589  1.00  0.00    -0.376 OA
BRANCH   3   4
ATOM      4  C   UNL     1      13.152  -1.232  -3.155  1.00  0.00     0.202 C 
BRANCH   4   5
ATOM      5  C   UNL     1      13.762  -0.218  -2.180  1.00  0.00     0.261 C 
BRANCH   5   6
ATOM      6  O   UNL     1      12.719   0.509  -1.492  1.00  0.00    -0.460 OA
BRANCH   6   7
ATOM      7  C   UNL     1      12.284   1.624  -2.101  1.00  0.00     0.338 C 
ATOM      8  O   UNL     1      12.812   2.136  -3.080  1.00  0.00    -0.246 OA
BRANCH   7   9
ATOM      9  C   UNL     1      10.973   2.083  -1.580  1.00  0.00     0.087 C 
ATOM     10  C   UNL     1       7.869  -0.646  -1.900  1.00  0.00     0.026 A 
ATOM     11  C   UNL     1       8.143  -1.466  -3.022  1.00  0.00     0.033 A 
ATOM     12  C   UNL     1       8.767   0.417  -1.685  1.00  0.00     0.135 A 
ATOM     13  C   UNL     1       9.011  -1.043  -4.026  1.00  0.00     0.042 A 
ATOM     14  C   UNL     1       9.451   0.951  -2.787  1.00  0.00     0.019 A 
ATOM     15  O   UNL     1       9.156   0.772  -0.398  1.00  0.00    -0.475 OA
ATOM     16  Cl  UNL     1       9.296  -2.049  -5.389  1.00  0.00    -0.084 Cl
ATOM     17  C   UNL     1       9.584   0.219  -3.962  1.00  0.00     0.032 A 
ATOM     18  C   UNL     1      10.133   2.252  -2.617  1.00  0.00     0.027 C 
ATOM     19  C   UNL     1      10.295   1.730  -0.266  1.00  0.00     0.316 C 
BRANCH  10  20
ATOM     20  C   UNL     1       6.413  -0.596  -1.527  1.00  0.00    -0.015 A 
ATOM     21  C   UNL     1       3.592  -0.561  -1.964  1.00  0.00     0.007 A 
ATOM     22  C   UNL     1       4.257  -1.754  -1.672  1.00  0.00     0.015 A 
ATOM     23  C   UNL     1       4.315   0.630  -1.928  1.00  0.00     0.015 A 
ATOM     24  C   UNL     1       5.642  -1.770  -1.432  1.00  0.00     0.010 A 
ATOM     25  C   UNL     1       5.703   0.613  -1.700  1.00  0.00     0.010 A 
BRANCH  21  26
ATOM     26  S   UNL     1       1.910  -0.647  -2.563  1.00  0.00    -0.126 SA
BRANCH  26  27
ATOM     27  C   UNL     1       1.037   0.484  -1.433  1.00  0.00     0.071 C 
ATOM     28  C   UNL     1       1.049  -0.040  -0.010  1.00  0.00     0.016 C 
ENDBRANCH  26  27
ENDBRANCH  21  26
ENDBRANCH  10  20
BRANCH  19  29
ATOM     29  C   UNL     1      11.190   1.530   0.983  1.00  0.00     0.430 C 
ATOM     30  F   UNL     1      11.708   2.730   1.364  1.00  0.00    -0.167 F 
ATOM     31  F   UNL     1      10.472   1.072   2.036  1.00  0.00    -0.167 F 
ATOM     32  F   UNL     1      12.235   0.704   0.834  1.00  0.00    -0.167 F 
ENDBRANCH  19  29
ENDBRANCH   7   9
ENDBRANCH   6   7
ENDBRANCH   5   6
ENDBRANCH   4   5
ENDBRANCH   3   4
ENDBRANCH   2   3
ENDBRANCH   1   2
BRANCH   1  33
ATOM     33  O   UNL     1      13.399  -2.338  -0.082  1.00  0.00    -0.377 OA
BRANCH  33  34
ATOM     34  C   UNL     1      13.951  -3.633  -0.292  1.00  0.00     0.188 C 
BRANCH  34  35
ATOM     35  C   UNL     1      13.188  -4.729  -1.071  1.00  0.00     0.188 C 
BRANCH  35  36
ATOM     36  O   UNL     1      11.813  -4.860  -0.715  1.00  0.00    -0.376 OA
BRANCH  36  37
ATOM     37  C   UNL     1      11.448  -6.003   0.046  1.00  0.00     0.202 C 
BRANCH  37  38
ATOM     38  C   UNL     1      11.745  -5.867   1.544  1.00  0.00     0.261 C 
BRANCH  38  39
ATOM     39  O   UNL     1      13.137  -5.730   1.869  1.00  0.00    -0.460 OA
BRANCH  39  40
ATOM     40  C   UNL     1      13.955  -6.740   1.504  1.00  0.00     0.338 C 
ATOM     41  O   UNL     1      13.640  -7.800   0.991  1.00  0.00    -0.246 OA
BRANCH  40  42
ATOM     42  C   UNL     1      15.345  -6.269   1.651  1.00  0.00     0.060 A 
ATOM     43  C   UNL     1      16.204  -6.352   0.547  1.00  0.00     0.016 A 
ATOM     44  C   UNL     1      15.789  -5.731   2.861  1.00  0.00     0.016 A 
ATOM     45  C   UNL     1      17.529  -5.934   0.666  1.00  0.00     0.010 A 
ATOM     46  C   UNL     1      17.120  -5.332   2.985  1.00  0.00     0.010 A 
ATOM     47  C   UNL     1      18.002  -5.467   1.900  1.00  0.00    -0.014 A 
BRANCH  47  48
ATOM     48  C   UNL     1      19.460  -5.337   2.126  1.00  0.00     0.031 A 
ATOM     49  C   UNL     1      20.186  -6.511   2.720  1.00  0.00     0.074 A 
ATOM     50  C   UNL     1      20.124  -4.212   1.815  1.00  0.00     0.049 A 
ATOM     51  N   UNL     1      21.444  -6.630   3.059  1.00  0.00    -0.248 NA
ATOM     52  C   UNL     1      19.378  -7.717   2.968  1.00  0.00     0.031 C 
ATOM     53  C   UNL     1      19.535  -3.020   1.209  1.00  0.00     0.029 A 
ATOM     54  N   UNL     1      21.447  -3.889   1.983  1.00  0.00    -0.354 N 
ATOM     55  C   UNL     1      21.576  -7.919   3.556  1.00  0.00     0.074 A 
ATOM     56  C   UNL     1      20.268  -8.533   3.509  1.00  0.00     0.031 C 
ATOM     57  C   UNL     1      20.492  -2.085   1.073  1.00  0.00     0.029 A 
ATOM     58  C   UNL     1      21.751  -2.605   1.606  1.00  0.00     0.049 A 
ATOM     59  H   UNL     1      22.115  -4.518   2.340  1.00  0.00     0.167 HD
ATOM     60  C   UNL     1      22.692  -8.540   4.003  1.00  0.00     0.037 A 
ATOM     61  C   UNL     1      22.911  -1.926   1.704  1.00  0.00     0.037 A 
ATOM     62  C   UNL     1      23.989  -7.923   4.066  1.00  0.00     0.049 A 
ATOM     63  C   UNL     1      24.125  -2.614   2.276  1.00  0.00     0.074 A 
ATOM     64  C   UNL     1      25.184  -8.467   4.500  1.00  0.00     0.029 A 
ATOM     65  N   UNL     1      24.254  -6.613   3.694  1.00  0.00    -0.354 N 
ATOM     66  N   UNL     1      24.253  -3.843   2.715  1.00  0.00    -0.248 NA
ATOM     67  C   UNL     1      25.359  -1.819   2.364  1.00  0.00     0.031 C 
ATOM     68  C   UNL     1      26.164  -7.471   4.435  1.00  0.00     0.029 A 
ATOM     69  C   UNL     1      25.591  -6.323   3.910  1.00  0.00     0.049 A 
ATOM     70  H   UNL     1      23.591  -5.983   3.330  1.00  0.00     0.167 HD
ATOM     71  C   UNL     1      25.581  -3.977   3.102  1.00  0.00     0.074 A 
ATOM     72  C   UNL     1      26.223  -2.707   2.835  1.00  0.00     0.031 C 
ATOM     73  C   UNL     1      26.214  -5.055   3.629  1.00  0.00     0.037 A 
BRANCH  60  74
ATOM     74  C   UNL     1      22.545  -9.954   4.481  1.00  0.00     0.064 A 
ATOM     75  C   UNL     1      22.307 -11.010   3.589  1.00  0.00     0.173 A 
ATOM     76  C   UNL     1      22.655 -10.257   5.846  1.00  0.00     0.173 A 
ATOM     77  F   UNL     1      22.174 -10.769   2.276  1.00  0.00    -0.203 F 
ATOM     78  C   UNL     1      22.158 -12.316   4.050  1.00  0.00     0.198 A 
ATOM     79  C   UNL     1      22.534 -11.567   6.300  1.00  0.00     0.198 A 
ATOM     80  F   UNL     1      22.881  -9.283   6.740  1.00  0.00    -0.203 F 
ATOM     81  F   UNL     1      21.880 -13.302   3.186  1.00  0.00    -0.200 F 
ATOM     82  C   UNL     1      22.278 -12.594   5.403  1.00  0.00     0.200 A 
ATOM     83  F   UNL     1      22.658 -11.836   7.607  1.00  0.00    -0.200 F 
ATOM     84  F   UNL     1      22.137 -13.851   5.845  1.00  0.00    -0.200 F 
ENDBRANCH  60  74
BRANCH  61  85
ATOM     85  C   UNL     1      22.982  -0.508   1.264  1.00  0.00     0.064 A 
ATOM     86  C   UNL     1      23.733  -0.134   0.141  1.00  0.00     0.173 A 
ATOM     87  C   UNL     1      22.322   0.506   1.974  1.00  0.00     0.173 A 
ATOM     88  F   UNL     1      24.406  -1.063  -0.553  1.00  0.00    -0.203 F 
ATOM     89  C   UNL     1      23.835   1.201  -0.245  1.00  0.00     0.198 A 
ATOM     90  C   UNL     1      22.402   1.838   1.571  1.00  0.00     0.198 A 
ATOM     91  F   UNL     1      21.596   0.203   3.059  1.00  0.00    -0.203 F 
ATOM     92  F   UNL     1      24.599   1.537  -1.293  1.00  0.00    -0.200 F 
ATOM     93  C   UNL     1      23.165   2.185   0.467  1.00  0.00     0.200 A 
ATOM     94  F   UNL     1      21.747   2.784   2.257  1.00  0.00    -0.200 F 
ATOM     95  F   UNL     1      23.265   3.469   0.096  1.00  0.00    -0.200 F 
ENDBRANCH  61  85
BRANCH  73  96
ATOM     96  C   UNL     1      27.682  -4.924   3.918  1.00  0.00     0.064 A 
ATOM     97  C   UNL     1      28.157  -4.153   4.989  1.00  0.00     0.173 A 
ATOM     98  C   UNL     1      28.621  -5.625   3.145  1.00  0.00     0.173 A 
ATOM     99  F   UNL     1      27.301  -3.454   5.750  1.00  0.00    -0.203 F 
ATOM    100  C   UNL     1      29.520  -4.069   5.260  1.00  0.00     0.198 A 
ATOM    101  C   UNL     1      29.980  -5.562   3.438  1.00  0.00     0.198 A 
ATOM    102  F   UNL     1      28.217  -6.385   2.116  1.00  0.00    -0.203 F 
ATOM    103  F   UNL     1      29.955  -3.291   6.261  1.00  0.00    -0.200 F 
ATOM    104  C   UNL     1      30.429  -4.779   4.490  1.00  0.00     0.200 A 
ATOM    105  F   UNL     1      30.855  -6.262   2.703  1.00  0.00    -0.200 F 
ATOM    106  F   UNL     1      31.740  -4.705   4.760  1.00  0.00    -0.200 F 
ENDBRANCH  73  96
ENDBRANCH  47  48
ENDBRANCH  40  42
ENDBRANCH  39  40
ENDBRANCH  38  39
ENDBRANCH  37  38
ENDBRANCH  36  37
ENDBRANCH  35  36
ENDBRANCH  34  35
ENDBRANCH  33  34
ENDBRANCH   1  33
TORSDOF 24
