REMARK SMILES C[C@@H](NC(=O)[C@H]1CC=CC[C@@H]1C(=O)OCCOCCOCCOCCOC(=O)c1ccc(-c2c3nc(c(-c4c(F)c(F)c(F)c(F)c4F)c4ccc([nH]4)c(-c4c(F)c(F)c(F)c(F)c4F)c4nc(c(-c5c(F)c(F)c(F)c(F)c5F)c5ccc2[nH]5)C=C4)C=C3)cc1)c1ccc(-n2ccnc2)cc1
REMARK SMILES IDX 19 1 18 2 17 3 16 4 15 5 14 6 12 7 13 8 11 9 6 10 7 11 8 12
REMARK SMILES IDX 10 13 9 14 4 15 3 16 5 18 2 19 1 20 92 21 93 22 102 23 94 24
REMARK SMILES IDX 101 25 95 26 96 27 97 28 100 29 98 30 99 31 20 32 21 33
REMARK SMILES IDX 22 34 23 35 24 36 25 37 26 38 27 39 28 40 29 41 30 42 91 43
REMARK SMILES IDX 31 44 90 45 32 46 33 47 34 48 84 49 35 50 89 51 83 52 85 53
REMARK SMILES IDX 36 54 88 55 82 56 81 57 37 59 69 60 49 61 68 62 50 63 53 64
REMARK SMILES IDX 67 65 86 66 51 67 52 68 66 70 87 71 54 72 38 73 39 74 47 75
REMARK SMILES IDX 40 76 41 77 45 78 48 79 42 80 43 81 46 82 44 83 70 84 71 85
REMARK SMILES IDX 79 86 72 87 73 88 77 89 80 90 74 91 75 92 78 93 76 94 55 95
REMARK SMILES IDX 56 96 64 97 57 98 58 99 62 100 65 101 59 102 60 103 63 104
REMARK SMILES IDX 61 105
REMARK H PARENT 3 17 85 58 53 69
REMARK Flexibility Score: inf
ROOT
ATOM      1  C   UNL     1      -4.598  -1.401   2.023  1.00  0.00     0.188 C 
ENDROOT
BRANCH   1   2
ATOM      2  C   UNL     1      -5.773  -1.388   1.078  1.00  0.00     0.188 C 
BRANCH   2   3
ATOM      3  O   UNL     1      -6.316  -2.583   0.507  1.00  0.00    -0.376 OA
BRANCH   3   4
ATOM      4  C   UNL     1      -5.642  -3.820   0.279  1.00  0.00     0.202 C 
BRANCH   4   5
ATOM      5  C   UNL     1      -4.939  -4.301  -1.182  1.00  0.00     0.261 C 
BRANCH   5   6
ATOM      6  O   UNL     1      -3.904  -3.492  -2.171  1.00  0.00    -0.463 OA
BRANCH   6   7
ATOM      7  C   UNL     1      -2.560  -2.568  -2.228  1.00  0.00     0.310 C 
ATOM      8  O   UNL     1      -2.236  -2.646  -3.438  1.00  0.00    -0.252 OA
BRANCH   7   9
ATOM      9  C   UNL     1      -1.736  -1.508  -0.477  1.00  0.00     0.115 C 
ATOM     10  C   UNL     1      -1.048  -2.346   1.068  1.00  0.00     0.097 C 
ATOM     11  C   UNL     1      -1.219  -1.719   2.468  1.00  0.00     0.041 C 
ATOM     12  C   UNL     1      -1.253  -0.255   2.530  1.00  0.00    -0.030 C 
ATOM     13  C   UNL     1      -2.036   0.080   0.139  1.00  0.00     0.043 C 
ATOM     14  C   UNL     1      -1.595   0.518   1.505  1.00  0.00    -0.030 C 
BRANCH  10  15
ATOM     15  C   UNL     1       0.411  -2.963   1.019  1.00  0.00     0.224 C 
ATOM     16  N   UNL     1       1.158  -3.113  -0.107  1.00  0.00    -0.349 N 
ATOM     17  H   UNL     1       1.890  -3.767  -0.038  1.00  0.00     0.164 HD
ATOM     18  O   UNL     1       0.881  -3.522   2.020  1.00  0.00    -0.275 OA
BRANCH  16  19
ATOM     19  C   UNL     1       1.040  -2.456  -1.394  1.00  0.00     0.109 C 
ATOM     20  C   UNL     1       1.629  -1.031  -1.189  1.00  0.00     0.036 C 
BRANCH  19  21
ATOM     21  C   UNL     1      -0.437  -2.540  -1.860  1.00  0.00    -0.026 A 
ATOM     22  C   UNL     1      -1.042  -1.006  -2.540  1.00  0.00     0.008 A 
ATOM     23  C   UNL     1      -1.524  -3.566  -0.869  1.00  0.00     0.008 A 
ATOM     24  C   UNL     1      -2.667  -0.457  -2.252  1.00  0.00     0.027 A 
ATOM     25  C   UNL     1      -3.148  -2.856  -0.365  1.00  0.00     0.027 A 
ATOM     26  C   UNL     1      -3.791  -1.338  -1.209  1.00  0.00     0.046 A 
BRANCH  26  27
ATOM     27  N   UNL     1      -5.180  -0.991  -1.700  1.00  0.00    -0.306 N 
ATOM     28  C   UNL     1      -6.359  -1.688  -1.905  1.00  0.00     0.113 A 
ATOM     29  C   UNL     1      -5.565   0.304  -2.044  1.00  0.00     0.204 A 
ATOM     30  C   UNL     1      -7.382  -0.769  -1.947  1.00  0.00     0.131 A 
ATOM     31  N   UNL     1      -6.870   0.475  -2.085  1.00  0.00    -0.245 NA
ENDBRANCH  26  27
ENDBRANCH  19  21
ENDBRANCH  16  19
ENDBRANCH  10  15
ENDBRANCH   7   9
ENDBRANCH   6   7
ENDBRANCH   5   6
ENDBRANCH   4   5
ENDBRANCH   3   4
ENDBRANCH   2   3
ENDBRANCH   1   2
BRANCH   1  32
ATOM     32  O   UNL     1      -4.819  -2.013   3.259  1.00  0.00    -0.377 OA
BRANCH  32  33
ATOM     33  C   UNL     1      -6.128  -1.824   3.739  1.00  0.00     0.188 C 
BRANCH  33  34
ATOM     34  C   UNL     1      -6.647  -0.376   3.931  1.00  0.00     0.188 C 
BRANCH  34  35
ATOM     35  O   UNL     1      -5.752   0.722   3.876  1.00  0.00    -0.376 OA
BRANCH  35  36
ATOM     36  C   UNL     1      -4.543   0.701   4.625  1.00  0.00     0.202 C 
BRANCH  36  37
ATOM     37  C   UNL     1      -4.593   0.395   6.123  1.00  0.00     0.261 C 
BRANCH  37  38
ATOM     38  O   UNL     1      -5.084  -0.924   6.415  1.00  0.00    -0.460 OA
BRANCH  38  39
ATOM     39  C   UNL     1      -6.319  -0.996   6.975  1.00  0.00     0.338 C 
ATOM     40  O   UNL     1      -7.033  -0.069   7.315  1.00  0.00    -0.246 OA
BRANCH  39  41
ATOM     41  C   UNL     1      -6.801  -2.393   6.873  1.00  0.00     0.060 A 
ATOM     42  C   UNL     1      -8.007  -2.642   6.185  1.00  0.00     0.016 A 
ATOM     43  C   UNL     1      -6.014  -3.452   7.326  1.00  0.00     0.016 A 
ATOM     44  C   UNL     1      -8.440  -3.947   5.976  1.00  0.00     0.010 A 
ATOM     45  C   UNL     1      -6.484  -4.757   7.184  1.00  0.00     0.010 A 
ATOM     46  C   UNL     1      -7.721  -4.998   6.555  1.00  0.00    -0.014 A 
BRANCH  46  47
ATOM     47  C   UNL     1      -8.444  -6.250   6.862  1.00  0.00     0.031 A 
ATOM     48  C   UNL     1      -9.141  -6.304   8.194  1.00  0.00     0.074 A 
ATOM     49  C   UNL     1      -8.499  -7.284   6.009  1.00  0.00     0.049 A 
ATOM     50  N   UNL     1      -9.763  -7.294   8.776  1.00  0.00    -0.248 NA
ATOM     51  C   UNL     1      -9.117  -5.061   8.986  1.00  0.00     0.031 C 
ATOM     52  C   UNL     1      -7.911  -7.316   4.674  1.00  0.00     0.029 A 
ATOM     53  N   UNL     1      -9.070  -8.521   6.162  1.00  0.00    -0.354 N 
ATOM     54  C   UNL     1     -10.193  -6.792   9.997  1.00  0.00     0.074 A 
ATOM     55  C   UNL     1      -9.726  -5.431  10.097  1.00  0.00     0.031 C 
ATOM     56  C   UNL     1      -8.122  -8.532   4.139  1.00  0.00     0.029 A 
ATOM     57  C   UNL     1      -8.826  -9.368   5.111  1.00  0.00     0.049 A 
ATOM     58  H   UNL     1      -9.602  -8.777   6.950  1.00  0.00     0.167 HD
ATOM     59  C   UNL     1     -10.924  -7.411  10.951  1.00  0.00     0.037 A 
ATOM     60  C   UNL     1      -9.111 -10.679   4.979  1.00  0.00     0.037 A 
ATOM     61  C   UNL     1     -11.358  -8.776  10.852  1.00  0.00     0.049 A 
ATOM     62  C   UNL     1      -9.845 -11.384   6.094  1.00  0.00     0.074 A 
ATOM     63  C   UNL     1     -12.094  -9.517  11.756  1.00  0.00     0.029 A 
ATOM     64  N   UNL     1     -11.074  -9.612   9.780  1.00  0.00    -0.354 N 
ATOM     65  N   UNL     1     -10.265 -10.908   7.243  1.00  0.00    -0.248 NA
ATOM     66  C   UNL     1     -10.150 -12.806   5.891  1.00  0.00     0.031 C 
ATOM     67  C   UNL     1     -12.198 -10.821  11.262  1.00  0.00     0.029 A 
ATOM     68  C   UNL     1     -11.596 -10.872  10.014  1.00  0.00     0.049 A 
ATOM     69  H   UNL     1     -10.575  -9.348   8.973  1.00  0.00     0.167 HD
ATOM     70  C   UNL     1     -10.908 -11.960   7.886  1.00  0.00     0.074 A 
ATOM     71  C   UNL     1     -10.833 -13.096   6.990  1.00  0.00     0.031 C 
ATOM     72  C   UNL     1     -11.509 -11.987   9.103  1.00  0.00     0.037 A 
BRANCH  59  73
ATOM     73  C   UNL     1     -11.243  -6.623  12.189  1.00  0.00     0.064 A 
ATOM     74  C   UNL     1     -12.088  -5.501  12.158  1.00  0.00     0.173 A 
ATOM     75  C   UNL     1     -10.675  -6.978  13.421  1.00  0.00     0.173 A 
ATOM     76  F   UNL     1     -12.638  -5.101  11.001  1.00  0.00    -0.203 F 
ATOM     77  C   UNL     1     -12.316  -4.741  13.302  1.00  0.00     0.198 A 
ATOM     78  C   UNL     1     -10.938  -6.240  14.572  1.00  0.00     0.198 A 
ATOM     79  F   UNL     1      -9.856  -8.036  13.510  1.00  0.00    -0.203 F 
ATOM     80  F   UNL     1     -13.063  -3.631  13.230  1.00  0.00    -0.200 F 
ATOM     81  C   UNL     1     -11.746  -5.115  14.510  1.00  0.00     0.200 A 
ATOM     82  F   UNL     1     -10.396  -6.611  15.741  1.00  0.00    -0.200 F 
ATOM     83  F   UNL     1     -11.966  -4.384  15.611  1.00  0.00    -0.200 F 
ENDBRANCH  59  73
BRANCH  60  84
ATOM     84  C   UNL     1      -8.677 -11.410   3.760  1.00  0.00     0.064 A 
ATOM     85  C   UNL     1      -9.607 -11.910   2.838  1.00  0.00     0.173 A 
ATOM     86  C   UNL     1      -7.316 -11.623   3.490  1.00  0.00     0.173 A 
ATOM     87  F   UNL     1     -10.920 -11.755   3.061  1.00  0.00    -0.203 F 
ATOM     88  C   UNL     1      -9.194 -12.607   1.703  1.00  0.00     0.198 A 
ATOM     89  C   UNL     1      -6.903 -12.290   2.338  1.00  0.00     0.198 A 
ATOM     90  F   UNL     1      -6.383 -11.166   4.338  1.00  0.00    -0.203 F 
ATOM     91  F   UNL     1     -10.106 -13.111   0.861  1.00  0.00    -0.200 F 
ATOM     92  C   UNL     1      -7.843 -12.788   1.449  1.00  0.00     0.200 A 
ATOM     93  F   UNL     1      -5.596 -12.447   2.089  1.00  0.00    -0.200 F 
ATOM     94  F   UNL     1      -7.447 -13.446   0.351  1.00  0.00    -0.200 F 
ENDBRANCH  60  84
BRANCH  72  95
ATOM     95  C   UNL     1     -12.171 -13.270   9.521  1.00  0.00     0.064 A 
ATOM     96  C   UNL     1     -11.432 -14.418   9.841  1.00  0.00     0.173 A 
ATOM     97  C   UNL     1     -13.568 -13.332   9.653  1.00  0.00     0.173 A 
ATOM     98  F   UNL     1     -10.095 -14.416   9.722  1.00  0.00    -0.203 F 
ATOM     99  C   UNL     1     -12.068 -15.589  10.245  1.00  0.00     0.198 A 
ATOM    100  C   UNL     1     -14.197 -14.491  10.096  1.00  0.00     0.198 A 
ATOM    101  F   UNL     1     -14.323 -12.259   9.373  1.00  0.00    -0.203 F 
ATOM    102  F   UNL     1     -11.345 -16.691  10.491  1.00  0.00    -0.200 F 
ATOM    103  C   UNL     1     -13.448 -15.622  10.382  1.00  0.00     0.200 A 
ATOM    104  F   UNL     1     -15.528 -14.513  10.249  1.00  0.00    -0.200 F 
ATOM    105  F   UNL     1     -14.057 -16.747  10.783  1.00  0.00    -0.200 F 
ENDBRANCH  72  95
ENDBRANCH  46  47
ENDBRANCH  39  41
ENDBRANCH  38  39
ENDBRANCH  37  38
ENDBRANCH  36  37
ENDBRANCH  35  36
ENDBRANCH  34  35
ENDBRANCH  33  34
ENDBRANCH  32  33
ENDBRANCH   1  32
TORSDOF 24
