REMARK SMILES CCN1C[C@@H](C(=O)OCCOCCOCCOCCOC(=O)c2ccc(-c3c4nc(c(-c5c(F)c(F)c(F)c(F)c5F)c5ccc([nH]5)c(-c5c(F)c(F)c(F)c(F)c5F)c5nc(c(-c6c(F)c(F)c(F)c(F)c6F)c6ccc3[nH]6)C=C5)C=C4)cc2)CC1=O
REMARK SMILES IDX 15 1 14 2 13 3 12 4 11 5 10 6 9 7 8 8 6 9 7 10 5 11 3 12
REMARK SMILES IDX 4 13 87 14 86 15 88 16 2 17 1 18 16 19 17 20 18 21 19 22
REMARK SMILES IDX 20 23 21 24 22 25 23 26 24 27 85 28 25 29 84 30 26 31 27 32
REMARK SMILES IDX 28 33 78 34 29 35 83 36 77 37 79 38 30 39 82 40 76 41 75 42
REMARK SMILES IDX 31 44 63 45 43 46 62 47 44 48 47 49 61 50 80 51 45 52 46 53
REMARK SMILES IDX 60 55 81 56 48 57 32 58 33 59 41 60 34 61 35 62 39 63 42 64
REMARK SMILES IDX 36 65 37 66 40 67 38 68 64 69 65 70 73 71 66 72 67 73 71 74
REMARK SMILES IDX 74 75 68 76 69 77 72 78 70 79 49 80 50 81 58 82 51 83 52 84
REMARK SMILES IDX 56 85 59 86 53 87 54 88 57 89 55 90
REMARK H PARENT 79 43 47 54
REMARK Flexibility Score: inf
ROOT
ATOM      1  C   UNL     1       2.025   7.461   4.727  1.00  0.00     0.188 C 
ENDROOT
BRANCH   1   2
ATOM      2  O   UNL     1       1.579   6.510   3.770  1.00  0.00    -0.377 OA
BRANCH   2   3
ATOM      3  C   UNL     1       2.263   6.485   2.534  1.00  0.00     0.188 C 
BRANCH   3   4
ATOM      4  C   UNL     1       1.554   7.212   1.381  1.00  0.00     0.188 C 
BRANCH   4   5
ATOM      5  O   UNL     1       0.502   8.133   1.631  1.00  0.00    -0.376 OA
BRANCH   5   6
ATOM      6  C   UNL     1      -0.526   7.848   2.567  1.00  0.00     0.202 C 
BRANCH   6   7
ATOM      7  C   UNL     1      -1.242   6.487   2.618  1.00  0.00     0.261 C 
BRANCH   7   8
ATOM      8  O   UNL     1      -0.406   5.325   2.499  1.00  0.00    -0.463 OA
BRANCH   8   9
ATOM      9  C   UNL     1      -0.488   4.654   1.332  1.00  0.00     0.311 C 
ATOM     10  O   UNL     1      -1.256   4.941   0.418  1.00  0.00    -0.252 OA
BRANCH   9  11
ATOM     11  C   UNL     1       0.463   3.491   1.216  1.00  0.00     0.128 C 
ATOM     12  N   UNL     1       0.492   1.198   1.580  1.00  0.00    -0.342 N 
ATOM     13  C   UNL     1      -0.392   2.244   1.150  1.00  0.00     0.135 C 
ATOM     14  C   UNL     1       1.582   1.670   2.278  1.00  0.00     0.223 C 
ATOM     15  C   UNL     1       1.482   3.169   2.312  1.00  0.00     0.117 C 
ATOM     16  O   UNL     1       2.488   1.014   2.763  1.00  0.00    -0.275 OA
BRANCH  12  17
ATOM     17  C   UNL     1       0.283  -0.187   1.225  1.00  0.00     0.116 C 
ATOM     18  C   UNL     1       0.879  -0.482  -0.141  1.00  0.00     0.027 C 
ENDBRANCH  12  17
ENDBRANCH   9  11
ENDBRANCH   8   9
ENDBRANCH   7   8
ENDBRANCH   6   7
ENDBRANCH   5   6
ENDBRANCH   4   5
ENDBRANCH   3   4
ENDBRANCH   2   3
ENDBRANCH   1   2
BRANCH   1  19
ATOM     19  C   UNL     1       2.521   8.829   4.215  1.00  0.00     0.188 C 
BRANCH  19  20
ATOM     20  O   UNL     1       3.486   8.748   3.175  1.00  0.00    -0.376 OA
BRANCH  20  21
ATOM     21  C   UNL     1       4.865   8.822   3.509  1.00  0.00     0.202 C 
BRANCH  21  22
ATOM     22  C   UNL     1       5.468   7.700   4.373  1.00  0.00     0.261 C 
BRANCH  22  23
ATOM     23  O   UNL     1       4.871   7.487   5.662  1.00  0.00    -0.460 OA
BRANCH  23  24
ATOM     24  C   UNL     1       4.839   8.520   6.526  1.00  0.00     0.338 C 
ATOM     25  O   UNL     1       5.329   9.627   6.371  1.00  0.00    -0.246 OA
BRANCH  24  26
ATOM     26  C   UNL     1       3.920   8.163   7.628  1.00  0.00     0.060 A 
ATOM     27  C   UNL     1       2.804   8.976   7.866  1.00  0.00     0.016 A 
ATOM     28  C   UNL     1       4.155   7.038   8.422  1.00  0.00     0.016 A 
ATOM     29  C   UNL     1       1.945   8.694   8.928  1.00  0.00     0.010 A 
ATOM     30  C   UNL     1       3.307   6.770   9.502  1.00  0.00     0.010 A 
ATOM     31  C   UNL     1       2.222   7.621   9.783  1.00  0.00    -0.014 A 
BRANCH  31  32
ATOM     32  C   UNL     1       1.513   7.521  11.082  1.00  0.00     0.031 A 
ATOM     33  C   UNL     1       2.197   8.059  12.309  1.00  0.00     0.074 A 
ATOM     34  C   UNL     1       0.279   6.995  11.173  1.00  0.00     0.049 A 
ATOM     35  N   UNL     1       1.805   8.049  13.557  1.00  0.00    -0.248 NA
ATOM     36  C   UNL     1       3.508   8.694  12.095  1.00  0.00     0.031 C 
ATOM     37  C   UNL     1      -0.506   6.484  10.053  1.00  0.00     0.029 A 
ATOM     38  N   UNL     1      -0.524   6.798  12.269  1.00  0.00    -0.354 N 
ATOM     39  C   UNL     1       2.823   8.661  14.276  1.00  0.00     0.074 A 
ATOM     40  C   UNL     1       3.864   9.003  13.332  1.00  0.00     0.031 C 
ATOM     41  C   UNL     1      -1.675   6.014  10.522  1.00  0.00     0.029 A 
ATOM     42  C   UNL     1      -1.704   6.160  11.977  1.00  0.00     0.049 A 
ATOM     43  H   UNL     1      -0.277   7.086  13.177  1.00  0.00     0.167 HD
ATOM     44  C   UNL     1       2.882   8.920  15.604  1.00  0.00     0.037 A 
ATOM     45  C   UNL     1      -2.679   5.720  12.797  1.00  0.00     0.037 A 
ATOM     46  C   UNL     1       1.845   8.575  16.540  1.00  0.00     0.049 A 
ATOM     47  C   UNL     1      -2.558   5.952  14.283  1.00  0.00     0.074 A 
ATOM     48  C   UNL     1       1.796   8.817  17.901  1.00  0.00     0.029 A 
ATOM     49  N   UNL     1       0.677   7.901  16.211  1.00  0.00    -0.354 N 
ATOM     50  N   UNL     1      -1.608   6.559  14.954  1.00  0.00    -0.248 NA
ATOM     51  C   UNL     1      -3.649   5.442  15.125  1.00  0.00     0.031 C 
ATOM     52  C   UNL     1       0.634   8.228  18.408  1.00  0.00     0.029 A 
ATOM     53  C   UNL     1      -0.081   7.686  17.351  1.00  0.00     0.049 A 
ATOM     54  H   UNL     1       0.425   7.617  15.303  1.00  0.00     0.167 HD
ATOM     55  C   UNL     1      -2.001   6.532  16.287  1.00  0.00     0.074 A 
ATOM     56  C   UNL     1      -3.283   5.860  16.328  1.00  0.00     0.031 C 
ATOM     57  C   UNL     1      -1.360   7.021  17.378  1.00  0.00     0.037 A 
BRANCH  44  58
ATOM     58  C   UNL     1       4.130   9.571  16.129  1.00  0.00     0.064 A 
ATOM     59  C   UNL     1       4.461  10.900  15.823  1.00  0.00     0.173 A 
ATOM     60  C   UNL     1       4.998   8.858  16.970  1.00  0.00     0.173 A 
ATOM     61  F   UNL     1       3.675  11.623  15.011  1.00  0.00    -0.203 F 
ATOM     62  C   UNL     1       5.630  11.479  16.313  1.00  0.00     0.198 A 
ATOM     63  C   UNL     1       6.146   9.451  17.487  1.00  0.00     0.198 A 
ATOM     64  F   UNL     1       4.729   7.585  17.297  1.00  0.00    -0.203 F 
ATOM     65  F   UNL     1       5.955  12.730  15.961  1.00  0.00    -0.200 F 
ATOM     66  C   UNL     1       6.466  10.757  17.151  1.00  0.00     0.200 A 
ATOM     67  F   UNL     1       6.945   8.755  18.308  1.00  0.00    -0.200 F 
ATOM     68  F   UNL     1       7.587  11.317  17.627  1.00  0.00    -0.200 F 
ENDBRANCH  44  58
BRANCH  45  69
ATOM     69  C   UNL     1      -3.851   4.996  12.235  1.00  0.00     0.064 A 
ATOM     70  C   UNL     1      -5.139   5.549  12.283  1.00  0.00     0.173 A 
ATOM     71  C   UNL     1      -3.710   3.726  11.656  1.00  0.00     0.173 A 
ATOM     72  F   UNL     1      -5.332   6.749  12.850  1.00  0.00    -0.203 F 
ATOM     73  C   UNL     1      -6.241   4.852  11.790  1.00  0.00     0.198 A 
ATOM     74  C   UNL     1      -4.808   3.044  11.134  1.00  0.00     0.198 A 
ATOM     75  F   UNL     1      -2.502   3.149  11.589  1.00  0.00    -0.203 F 
ATOM     76  F   UNL     1      -7.467   5.383  11.894  1.00  0.00    -0.200 F 
ATOM     77  C   UNL     1      -6.074   3.604  11.210  1.00  0.00     0.200 A 
ATOM     78  F   UNL     1      -4.638   1.845  10.562  1.00  0.00    -0.200 F 
ATOM     79  F   UNL     1      -7.133   2.938  10.731  1.00  0.00    -0.200 F 
ENDBRANCH  45  69
BRANCH  57  80
ATOM     80  C   UNL     1      -2.051   6.891  18.708  1.00  0.00     0.064 A 
ATOM     81  C   UNL     1      -2.217   5.651  19.342  1.00  0.00     0.173 A 
ATOM     82  C   UNL     1      -2.513   8.035  19.379  1.00  0.00     0.173 A 
ATOM     83  F   UNL     1      -1.804   4.525  18.741  1.00  0.00    -0.203 F 
ATOM     84  C   UNL     1      -2.848   5.558  20.580  1.00  0.00     0.198 A 
ATOM     85  C   UNL     1      -3.110   7.942  20.633  1.00  0.00     0.198 A 
ATOM     86  F   UNL     1      -2.371   9.249  18.824  1.00  0.00    -0.203 F 
ATOM     87  F   UNL     1      -3.045   4.356  21.140  1.00  0.00    -0.200 F 
ATOM     88  C   UNL     1      -3.286   6.703  21.228  1.00  0.00     0.200 A 
ATOM     89  F   UNL     1      -3.514   9.052  21.265  1.00  0.00    -0.200 F 
ATOM     90  F   UNL     1      -3.884   6.612  22.424  1.00  0.00    -0.200 F 
ENDBRANCH  57  80
ENDBRANCH  31  32
ENDBRANCH  24  26
ENDBRANCH  23  24
ENDBRANCH  22  23
ENDBRANCH  21  22
ENDBRANCH  20  21
ENDBRANCH  19  20
ENDBRANCH   1  19
TORSDOF 21
