REMARK SMILES CCCCCCCCNC(=O)Oc1cccc(-c2ccc([C@@H](C)C(=O)OCCOCCOCCOCCOC(=O)c3ccc(-c4c5nc(c(-c6c(F)c(F)c(F)c(F)c6F)c6ccc([nH]6)c(-c6c(F)c(F)c(F)c(F)c6F)c6nc(c(-c7c(F)c(F)c(F)c(F)c7F)c7ccc4[nH]7)C=C6)C=C5)cc3)cc2F)c1
REMARK SMILES IDX 27 1 26 2 24 3 25 4 22 5 23 6 21 7 18 8 19 9 105 10 20 11
REMARK SMILES IDX 104 12 106 13 17 14 13 15 14 16 107 17 15 18 16 19 12 20
REMARK SMILES IDX 10 21 9 22 11 24 8 25 7 26 6 27 5 28 4 29 3 30 2 31 1 32
REMARK SMILES IDX 28 33 29 34 30 35 31 36 32 37 33 38 34 39 35 40 36 41 37 42
REMARK SMILES IDX 38 43 39 44 40 45 41 46 42 47 103 48 43 49 102 50 44 51
REMARK SMILES IDX 45 52 46 53 96 54 47 55 101 56 95 57 97 58 48 59 100 60
REMARK SMILES IDX 94 61 93 62 49 64 81 65 61 66 80 67 62 68 65 69 79 70 98 71
REMARK SMILES IDX 63 72 64 73 78 75 99 76 66 77 50 78 51 79 59 80 52 81 53 82
REMARK SMILES IDX 57 83 60 84 54 85 55 86 58 87 56 88 82 89 83 90 91 91 84 92
REMARK SMILES IDX 85 93 89 94 92 95 86 96 87 97 90 98 88 99 67 100 68 101
REMARK SMILES IDX 76 102 69 103 70 104 74 105 77 106 71 107 72 108 75 109
REMARK SMILES IDX 73 110
REMARK H PARENT 9 23 97 63 65 74
REMARK Flexibility Score: inf
ROOT
ATOM      1  C   UNL     1     -12.675   4.043  11.538  1.00  0.00     0.261 C 
ENDROOT
BRANCH   1   2
ATOM      2  O   UNL     1     -11.299   4.311  11.879  1.00  0.00    -0.463 OA
BRANCH   2   3
ATOM      3  C   UNL     1     -10.813   3.655  12.959  1.00  0.00     0.313 C 
ATOM      4  O   UNL     1     -11.490   2.890  13.644  1.00  0.00    -0.252 OA
BRANCH   3   5
ATOM      5  C   UNL     1      -9.356   3.938  13.319  1.00  0.00     0.126 C 
ATOM      6  C   UNL     1      -9.327   4.746  14.612  1.00  0.00     0.025 C 
BRANCH   5   7
ATOM      7  C   UNL     1      -8.373   4.507  12.295  1.00  0.00    -0.031 A 
ATOM      8  C   UNL     1      -6.432   5.470  10.404  1.00  0.00     0.018 A 
ATOM      9  C   UNL     1      -7.594   6.202  10.713  1.00  0.00     0.012 A 
ATOM     10  C   UNL     1      -6.276   4.240  11.054  1.00  0.00     0.131 A 
ATOM     11  C   UNL     1      -8.547   5.734  11.642  1.00  0.00     0.005 A 
ATOM     12  C   UNL     1      -7.210   3.773  11.986  1.00  0.00     0.044 A 
ATOM     13  F   UNL     1      -5.197   3.478  10.812  1.00  0.00    -0.206 F 
BRANCH   8  14
ATOM     14  C   UNL     1      -5.391   6.007   9.501  1.00  0.00    -0.012 A 
ATOM     15  C   UNL     1      -3.839   5.793   7.638  1.00  0.00     0.133 A 
ATOM     16  C   UNL     1      -3.283   7.040   7.917  1.00  0.00     0.047 A 
ATOM     17  C   UNL     1      -4.878   5.269   8.416  1.00  0.00     0.056 A 
ATOM     18  C   UNL     1      -3.784   7.785   8.978  1.00  0.00     0.004 A 
ATOM     19  C   UNL     1      -4.824   7.272   9.759  1.00  0.00     0.009 A 
BRANCH  15  20
ATOM     20  O   UNL     1      -3.187   5.041   6.643  1.00  0.00    -0.410 OA
BRANCH  20  21
ATOM     21  C   UNL     1      -3.917   4.491   5.601  1.00  0.00     0.412 C 
ATOM     22  N   UNL     1      -3.134   3.824   4.696  1.00  0.00    -0.321 N 
ATOM     23  H   UNL     1      -3.599   3.402   3.938  1.00  0.00     0.167 HD
ATOM     24  O   UNL     1      -5.130   4.577   5.448  1.00  0.00    -0.224 OA
BRANCH  22  25
ATOM     25  C   UNL     1      -1.691   3.673   4.739  1.00  0.00     0.119 C 
BRANCH  25  26
ATOM     26  C   UNL     1      -1.267   2.205   4.808  1.00  0.00     0.021 C 
BRANCH  26  27
ATOM     27  C   UNL     1      -1.644   1.368   3.579  1.00  0.00     0.002 C 
BRANCH  27  28
ATOM     28  C   UNL     1      -1.048   1.851   2.251  1.00  0.00     0.000 C 
BRANCH  28  29
ATOM     29  C   UNL     1       0.482   1.825   2.180  1.00  0.00    -0.000 C 
BRANCH  29  30
ATOM     30  C   UNL     1       1.115   0.433   2.285  1.00  0.00    -0.000 C 
BRANCH  30  31
ATOM     31  C   UNL     1       0.679  -0.567   1.210  1.00  0.00    -0.003 C 
ATOM     32  C   UNL     1       1.031  -0.126  -0.203  1.00  0.00     0.004 C 
ENDBRANCH  30  31
ENDBRANCH  29  30
ENDBRANCH  28  29
ENDBRANCH  27  28
ENDBRANCH  26  27
ENDBRANCH  25  26
ENDBRANCH  22  25
ENDBRANCH  20  21
ENDBRANCH  15  20
ENDBRANCH   8  14
ENDBRANCH   5   7
ENDBRANCH   3   5
ENDBRANCH   2   3
ENDBRANCH   1   2
BRANCH   1  33
ATOM     33  C   UNL     1     -12.931   3.187  10.283  1.00  0.00     0.202 C 
BRANCH  33  34
ATOM     34  O   UNL     1     -12.283   1.938  10.098  1.00  0.00    -0.376 OA
BRANCH  34  35
ATOM     35  C   UNL     1     -10.872   1.823  10.227  1.00  0.00     0.188 C 
BRANCH  35  36
ATOM     36  C   UNL     1      -9.940   2.932   9.718  1.00  0.00     0.188 C 
BRANCH  36  37
ATOM     37  O   UNL     1     -10.585   4.120   9.309  1.00  0.00    -0.377 OA
BRANCH  37  38
ATOM     38  C   UNL     1     -10.736   4.312   7.912  1.00  0.00     0.188 C 
BRANCH  38  39
ATOM     39  C   UNL     1     -11.073   3.073   7.062  1.00  0.00     0.188 C 
BRANCH  39  40
ATOM     40  O   UNL     1     -10.151   2.000   7.217  1.00  0.00    -0.376 OA
BRANCH  40  41
ATOM     41  C   UNL     1      -9.083   1.886   6.285  1.00  0.00     0.202 C 
BRANCH  41  42
ATOM     42  C   UNL     1      -8.010   2.990   6.276  1.00  0.00     0.261 C 
BRANCH  42  43
ATOM     43  O   UNL     1      -8.462   4.322   5.987  1.00  0.00    -0.460 OA
BRANCH  43  44
ATOM     44  C   UNL     1      -9.114   4.545   4.826  1.00  0.00     0.338 C 
ATOM     45  O   UNL     1      -9.341   3.752   3.940  1.00  0.00    -0.246 OA
BRANCH  44  46
ATOM     46  C   UNL     1      -9.723   5.894   4.920  1.00  0.00     0.060 A 
ATOM     47  C   UNL     1     -11.116   6.010   4.829  1.00  0.00     0.016 A 
ATOM     48  C   UNL     1      -8.933   7.030   5.112  1.00  0.00     0.016 A 
ATOM     49  C   UNL     1     -11.723   7.265   4.901  1.00  0.00     0.010 A 
ATOM     50  C   UNL     1      -9.540   8.290   5.156  1.00  0.00     0.010 A 
ATOM     51  C   UNL     1     -10.935   8.417   5.023  1.00  0.00    -0.014 A 
BRANCH  51  52
ATOM     52  C   UNL     1     -11.552   9.755   4.839  1.00  0.00     0.031 A 
ATOM     53  C   UNL     1     -11.458  10.410   3.488  1.00  0.00     0.074 A 
ATOM     54  C   UNL     1     -12.207  10.370   5.839  1.00  0.00     0.049 A 
ATOM     55  N   UNL     1     -11.870  11.590   3.102  1.00  0.00    -0.248 NA
ATOM     56  C   UNL     1     -10.809   9.622   2.428  1.00  0.00     0.031 C 
ATOM     57  C   UNL     1     -12.415   9.821   7.177  1.00  0.00     0.029 A 
ATOM     58  N   UNL     1     -12.810  11.604   5.883  1.00  0.00    -0.354 N 
ATOM     59  C   UNL     1     -11.526  11.689   1.760  1.00  0.00     0.074 A 
ATOM     60  C   UNL     1     -10.846  10.462   1.405  1.00  0.00     0.031 C 
ATOM     61  C   UNL     1     -13.085  10.722   7.917  1.00  0.00     0.029 A 
ATOM     62  C   UNL     1     -13.320  11.924   7.117  1.00  0.00     0.049 A 
ATOM     63  H   UNL     1     -12.872  12.202   5.103  1.00  0.00     0.167 HD
ATOM     64  C   UNL     1     -11.761  12.709   0.900  1.00  0.00     0.037 A 
ATOM     65  C   UNL     1     -13.883  13.068   7.556  1.00  0.00     0.037 A 
ATOM     66  C   UNL     1     -12.430  13.932   1.257  1.00  0.00     0.049 A 
ATOM     67  C   UNL     1     -14.049  14.226   6.603  1.00  0.00     0.074 A 
ATOM     68  C   UNL     1     -12.729  15.018   0.453  1.00  0.00     0.029 A 
ATOM     69  N   UNL     1     -12.893  14.238   2.529  1.00  0.00    -0.354 N 
ATOM     70  N   UNL     1     -13.744  14.305   5.330  1.00  0.00    -0.248 NA
ATOM     71  C   UNL     1     -14.641  15.456   7.150  1.00  0.00     0.031 C 
ATOM     72  C   UNL     1     -13.313  16.007   1.252  1.00  0.00     0.029 A 
ATOM     73  C   UNL     1     -13.443  15.510   2.539  1.00  0.00     0.049 A 
ATOM     74  H   UNL     1     -12.839  13.639   3.309  1.00  0.00     0.167 HD
ATOM     75  C   UNL     1     -14.133  15.574   4.919  1.00  0.00     0.074 A 
ATOM     76  C   UNL     1     -14.712  16.227   6.074  1.00  0.00     0.031 C 
ATOM     77  C   UNL     1     -14.022  16.148   3.695  1.00  0.00     0.037 A 
BRANCH  64  78
ATOM     78  C   UNL     1     -11.257  12.560  -0.507  1.00  0.00     0.064 A 
ATOM     79  C   UNL     1     -11.831  11.650  -1.408  1.00  0.00     0.173 A 
ATOM     80  C   UNL     1     -10.206  13.366  -0.971  1.00  0.00     0.173 A 
ATOM     81  F   UNL     1     -12.829  10.846  -1.012  1.00  0.00    -0.203 F 
ATOM     82  C   UNL     1     -11.354  11.535  -2.711  1.00  0.00     0.198 A 
ATOM     83  C   UNL     1      -9.753  13.271  -2.284  1.00  0.00     0.198 A 
ATOM     84  F   UNL     1      -9.624  14.256  -0.152  1.00  0.00    -0.203 F 
ATOM     85  F   UNL     1     -11.884  10.624  -3.539  1.00  0.00    -0.200 F 
ATOM     86  C   UNL     1     -10.322  12.350  -3.150  1.00  0.00     0.200 A 
ATOM     87  F   UNL     1      -8.766  14.071  -2.710  1.00  0.00    -0.200 F 
ATOM     88  F   UNL     1      -9.870  12.245  -4.407  1.00  0.00    -0.200 F 
ENDBRANCH  64  78
BRANCH  65  89
ATOM     89  C   UNL     1     -14.312  13.192   8.976  1.00  0.00     0.064 A 
ATOM     90  C   UNL     1     -15.665  13.333   9.316  1.00  0.00     0.173 A 
ATOM     91  C   UNL     1     -13.375  13.207  10.020  1.00  0.00     0.173 A 
ATOM     92  F   UNL     1     -16.599  13.355   8.353  1.00  0.00    -0.203 F 
ATOM     93  C   UNL     1     -16.061  13.505  10.641  1.00  0.00     0.198 A 
ATOM     94  C   UNL     1     -13.775  13.346  11.347  1.00  0.00     0.198 A 
ATOM     95  F   UNL     1     -12.067  13.084   9.751  1.00  0.00    -0.203 F 
ATOM     96  F   UNL     1     -17.356  13.693  10.932  1.00  0.00    -0.200 F 
ATOM     97  C   UNL     1     -15.117  13.505  11.656  1.00  0.00     0.200 A 
ATOM     98  F   UNL     1     -12.859  13.334  12.325  1.00  0.00    -0.200 F 
ATOM     99  F   UNL     1     -15.498  13.668  12.930  1.00  0.00    -0.200 F 
ENDBRANCH  65  89
BRANCH  77 100
ATOM    100  C   UNL     1     -14.571  17.538   3.526  1.00  0.00     0.064 A 
ATOM    101  C   UNL     1     -13.961  18.653   4.119  1.00  0.00     0.173 A 
ATOM    102  C   UNL     1     -15.701  17.761   2.723  1.00  0.00     0.173 A 
ATOM    103  F   UNL     1     -12.886  18.496   4.906  1.00  0.00    -0.203 F 
ATOM    104  C   UNL     1     -14.480  19.934   3.941  1.00  0.00     0.198 A 
ATOM    105  C   UNL     1     -16.195  19.047   2.517  1.00  0.00     0.198 A 
ATOM    106  F   UNL     1     -16.319  16.733   2.123  1.00  0.00    -0.203 F 
ATOM    107  F   UNL     1     -13.912  20.977   4.562  1.00  0.00    -0.200 F 
ATOM    108  C   UNL     1     -15.590  20.131   3.134  1.00  0.00     0.200 A 
ATOM    109  F   UNL     1     -17.258  19.236   1.722  1.00  0.00    -0.200 F 
ATOM    110  F   UNL     1     -16.082  21.365   2.957  1.00  0.00    -0.200 F 
ENDBRANCH  77 100
ENDBRANCH  51  52
ENDBRANCH  44  46
ENDBRANCH  43  44
ENDBRANCH  42  43
ENDBRANCH  41  42
ENDBRANCH  40  41
ENDBRANCH  39  40
ENDBRANCH  38  39
ENDBRANCH  37  38
ENDBRANCH  36  37
ENDBRANCH  35  36
ENDBRANCH  34  35
ENDBRANCH  33  34
ENDBRANCH   1  33
TORSDOF 31
