REMARK SMILES C[C@H](C(=O)OCCOCCOCCOCCOC(=O)c1ccc(-c2c3nc(c(-c4c(F)c(F)c(F)c(F)c4F)c4ccc([nH]4)c(-c4c(F)c(F)c(F)c(F)c4F)c4nc(c(-c5c(F)c(F)c(F)c(F)c5F)c5ccc2[nH]5)C=C4)C=C3)cc1)c1ccc2c(c1)[nH]c1ccc(Cl)cc12
REMARK SMILES IDX 12 1 11 2 10 3 9 4 8 5 7 6 6 7 5 8 3 9 4 10 2 11 1 12 83 13
REMARK SMILES IDX 84 14 88 15 85 16 87 17 86 18 89 19 96 20 90 21 95 23 91 24
REMARK SMILES IDX 93 25 92 26 94 27 13 28 14 29 15 30 16 31 17 32 18 33 19 34
REMARK SMILES IDX 20 35 21 36 82 37 22 38 81 39 23 40 24 41 25 42 75 43 26 44
REMARK SMILES IDX 80 45 74 46 76 47 27 48 79 49 73 50 72 51 28 53 60 54 40 55
REMARK SMILES IDX 59 56 41 57 44 58 58 59 77 60 42 61 43 62 57 64 78 65 45 66
REMARK SMILES IDX 29 67 30 68 38 69 31 70 32 71 36 72 39 73 33 74 34 75 37 76
REMARK SMILES IDX 35 77 61 78 62 79 70 80 63 81 64 82 68 83 71 84 65 85 66 86
REMARK SMILES IDX 69 87 67 88 46 89 47 90 55 91 48 92 49 93 53 94 56 95 50 96
REMARK SMILES IDX 51 97 54 98 52 99
REMARK H PARENT 89 22 76 52 44 63
REMARK Flexibility Score: inf
ROOT
ATOM      1  C   UNL     1      -1.522  -1.756  -2.979  1.00  0.00     0.188 C 
ENDROOT
BRANCH   1   2
ATOM      2  O   UNL     1      -0.653  -1.375  -1.936  1.00  0.00    -0.377 OA
BRANCH   2   3
ATOM      3  C   UNL     1      -0.860  -0.084  -1.404  1.00  0.00     0.188 C 
BRANCH   3   4
ATOM      4  C   UNL     1       0.181   0.974  -1.809  1.00  0.00     0.188 C 
BRANCH   4   5
ATOM      5  O   UNL     1       1.365   0.605  -2.509  1.00  0.00    -0.376 OA
BRANCH   5   6
ATOM      6  C   UNL     1       1.863  -0.719  -2.408  1.00  0.00     0.202 C 
BRANCH   6   7
ATOM      7  C   UNL     1       2.216  -1.288  -1.016  1.00  0.00     0.261 C 
BRANCH   7   8
ATOM      8  O   UNL     1       1.315  -0.982   0.076  1.00  0.00    -0.463 OA
BRANCH   8   9
ATOM      9  C   UNL     1       1.727  -0.029   0.949  1.00  0.00     0.313 C 
ATOM     10  O   UNL     1       2.847   0.476   0.887  1.00  0.00    -0.252 OA
BRANCH   9  11
ATOM     11  C   UNL     1       0.736   0.353   2.070  1.00  0.00     0.126 C 
ATOM     12  C   UNL     1       0.989   1.842   2.373  1.00  0.00     0.025 C 
BRANCH  11  13
ATOM     13  C   UNL     1      -0.772   0.045   1.942  1.00  0.00    -0.032 A 
ATOM     14  C   UNL     1      -1.742   1.040   1.686  1.00  0.00     0.005 A 
ATOM     15  C   UNL     1      -1.226  -1.276   2.130  1.00  0.00     0.031 A 
ATOM     16  C   UNL     1      -3.119   0.750   1.590  1.00  0.00     0.011 A 
ATOM     17  C   UNL     1      -2.612  -1.537   2.098  1.00  0.00     0.047 A 
ATOM     18  C   UNL     1      -3.569  -0.564   1.815  1.00  0.00     0.007 A 
ATOM     19  N   UNL     1      -3.297  -2.704   2.345  1.00  0.00    -0.355 N 
ATOM     20  C   UNL     1      -4.862  -1.191   1.877  1.00  0.00     0.009 A 
ATOM     21  C   UNL     1      -4.657  -2.494   2.332  1.00  0.00     0.047 A 
ATOM     22  H   UNL     1      -2.870  -3.575   2.511  1.00  0.00     0.167 HD
ATOM     23  C   UNL     1      -6.191  -0.763   1.658  1.00  0.00     0.031 A 
ATOM     24  C   UNL     1      -5.704  -3.352   2.692  1.00  0.00     0.028 A 
ATOM     25  C   UNL     1      -7.247  -1.627   1.978  1.00  0.00     0.041 A 
ATOM     26  C   UNL     1      -7.011  -2.886   2.522  1.00  0.00     0.022 A 
ATOM     27  Cl  UNL     1      -8.873  -1.120   1.709  1.00  0.00    -0.084 Cl
ENDBRANCH  11  13
ENDBRANCH   9  11
ENDBRANCH   8   9
ENDBRANCH   7   8
ENDBRANCH   6   7
ENDBRANCH   5   6
ENDBRANCH   4   5
ENDBRANCH   3   4
ENDBRANCH   2   3
ENDBRANCH   1   2
BRANCH   1  28
ATOM     28  C   UNL     1      -1.722  -0.720  -4.095  1.00  0.00     0.188 C 
BRANCH  28  29
ATOM     29  O   UNL     1      -2.153   0.550  -3.620  1.00  0.00    -0.376 OA
BRANCH  29  30
ATOM     30  C   UNL     1      -3.537   0.865  -3.636  1.00  0.00     0.202 C 
BRANCH  30  31
ATOM     31  C   UNL     1      -4.488   0.104  -2.692  1.00  0.00     0.261 C 
BRANCH  31  32
ATOM     32  O   UNL     1      -4.484  -1.329  -2.764  1.00  0.00    -0.460 OA
BRANCH  32  33
ATOM     33  C   UNL     1      -4.782  -1.909  -3.948  1.00  0.00     0.338 C 
ATOM     34  O   UNL     1      -5.119  -1.357  -4.971  1.00  0.00    -0.246 OA
BRANCH  33  35
ATOM     35  C   UNL     1      -4.411  -3.344  -3.847  1.00  0.00     0.060 A 
ATOM     36  C   UNL     1      -3.466  -3.855  -4.748  1.00  0.00     0.016 A 
ATOM     37  C   UNL     1      -4.965  -4.169  -2.865  1.00  0.00     0.016 A 
ATOM     38  C   UNL     1      -3.097  -5.199  -4.692  1.00  0.00     0.010 A 
ATOM     39  C   UNL     1      -4.621  -5.525  -2.832  1.00  0.00     0.010 A 
ATOM     40  C   UNL     1      -3.712  -6.052  -3.768  1.00  0.00    -0.014 A 
BRANCH  40  41
ATOM     41  C   UNL     1      -3.578  -7.521  -3.936  1.00  0.00     0.031 A 
ATOM     42  C   UNL     1      -4.662  -8.245  -4.688  1.00  0.00     0.074 A 
ATOM     43  C   UNL     1      -2.511  -8.194  -3.472  1.00  0.00     0.049 A 
ATOM     44  N   UNL     1      -4.799  -9.523  -4.933  1.00  0.00    -0.248 NA
ATOM     45  C   UNL     1      -5.741  -7.408  -5.239  1.00  0.00     0.031 C 
ATOM     46  C   UNL     1      -1.369  -7.600  -2.783  1.00  0.00     0.029 A 
ATOM     47  N   UNL     1      -2.222  -9.537  -3.511  1.00  0.00    -0.354 N 
ATOM     48  C   UNL     1      -5.980  -9.642  -5.654  1.00  0.00     0.074 A 
ATOM     49  C   UNL     1      -6.537  -8.314  -5.784  1.00  0.00     0.031 C 
ATOM     50  C   UNL     1      -0.505  -8.577  -2.452  1.00  0.00     0.029 A 
ATOM     51  C   UNL     1      -1.052  -9.867  -2.873  1.00  0.00     0.049 A 
ATOM     52  H   UNL     1      -2.800 -10.200  -3.954  1.00  0.00     0.167 HD
ATOM     53  C   UNL     1      -6.547 -10.760  -6.167  1.00  0.00     0.037 A 
ATOM     54  C   UNL     1      -0.502 -11.075  -2.638  1.00  0.00     0.037 A 
ATOM     55  C   UNL     1      -5.990 -12.080  -6.035  1.00  0.00     0.049 A 
ATOM     56  C   UNL     1      -1.201 -12.315  -3.142  1.00  0.00     0.074 A 
ATOM     57  C   UNL     1      -6.477 -13.274  -6.534  1.00  0.00     0.029 A 
ATOM     58  N   UNL     1      -4.827 -12.379  -5.342  1.00  0.00    -0.354 N 
ATOM     59  N   UNL     1      -2.304 -12.421  -3.844  1.00  0.00    -0.248 NA
ATOM     60  C   UNL     1      -0.575 -13.606  -2.822  1.00  0.00     0.031 C 
ATOM     61  C   UNL     1      -5.646 -14.305  -6.085  1.00  0.00     0.029 A 
ATOM     62  C   UNL     1      -4.599 -13.746  -5.370  1.00  0.00     0.049 A 
ATOM     63  H   UNL     1      -4.248 -11.719  -4.896  1.00  0.00     0.167 HD
ATOM     64  C   UNL     1      -2.482 -13.779  -4.081  1.00  0.00     0.074 A 
ATOM     65  C   UNL     1      -1.366 -14.459  -3.457  1.00  0.00     0.031 C 
ATOM     66  C   UNL     1      -3.476 -14.408  -4.755  1.00  0.00     0.037 A 
BRANCH  53  67
ATOM     67  C   UNL     1      -7.858 -10.608  -6.884  1.00  0.00     0.064 A 
ATOM     68  C   UNL     1      -7.955  -9.969  -8.129  1.00  0.00     0.173 A 
ATOM     69  C   UNL     1      -9.031 -11.142  -6.327  1.00  0.00     0.173 A 
ATOM     70  F   UNL     1      -6.868  -9.426  -8.697  1.00  0.00    -0.203 F 
ATOM     71  C   UNL     1      -9.182  -9.846  -8.777  1.00  0.00     0.198 A 
ATOM     72  C   UNL     1     -10.249 -11.048  -6.994  1.00  0.00     0.198 A 
ATOM     73  F   UNL     1      -8.994 -11.765  -5.140  1.00  0.00    -0.203 F 
ATOM     74  F   UNL     1      -9.260  -9.186  -9.941  1.00  0.00    -0.200 F 
ATOM     75  C   UNL     1     -10.325 -10.394  -8.214  1.00  0.00     0.200 A 
ATOM     76  F   UNL     1     -11.349 -11.591  -6.455  1.00  0.00    -0.200 F 
ATOM     77  F   UNL     1     -11.503 -10.284  -8.844  1.00  0.00    -0.200 F 
ENDBRANCH  53  67
BRANCH  54  78
ATOM     78  C   UNL     1       0.769 -11.186  -1.872  1.00  0.00     0.064 A 
ATOM     79  C   UNL     1       1.939 -11.670  -2.475  1.00  0.00     0.173 A 
ATOM     80  C   UNL     1       0.832 -10.850  -0.511  1.00  0.00     0.173 A 
ATOM     81  F   UNL     1       1.926 -12.033  -3.766  1.00  0.00    -0.203 F 
ATOM     82  C   UNL     1       3.113 -11.837  -1.742  1.00  0.00     0.198 A 
ATOM     83  C   UNL     1       2.015 -10.985   0.212  1.00  0.00     0.198 A 
ATOM     84  F   UNL     1      -0.259 -10.387   0.118  1.00  0.00    -0.203 F 
ATOM     85  F   UNL     1       4.199 -12.358  -2.330  1.00  0.00    -0.200 F 
ATOM     86  C   UNL     1       3.152 -11.489  -0.401  1.00  0.00     0.200 A 
ATOM     87  F   UNL     1       2.050 -10.636   1.506  1.00  0.00    -0.200 F 
ATOM     88  F   UNL     1       4.280 -11.650   0.304  1.00  0.00    -0.200 F 
ENDBRANCH  54  78
BRANCH  66  89
ATOM     89  C   UNL     1      -3.382 -15.901  -4.904  1.00  0.00     0.064 A 
ATOM     90  C   UNL     1      -3.555 -16.768  -3.815  1.00  0.00     0.173 A 
ATOM     91  C   UNL     1      -3.162 -16.474  -6.167  1.00  0.00     0.173 A 
ATOM     92  F   UNL     1      -3.758 -16.275  -2.584  1.00  0.00    -0.203 F 
ATOM     93  C   UNL     1      -3.480 -18.150  -3.979  1.00  0.00     0.198 A 
ATOM     94  C   UNL     1      -3.125 -17.855  -6.334  1.00  0.00     0.198 A 
ATOM     95  F   UNL     1      -3.000 -15.692  -7.245  1.00  0.00    -0.203 F 
ATOM     96  F   UNL     1      -3.594 -18.956  -2.915  1.00  0.00    -0.200 F 
ATOM     97  C   UNL     1      -3.274 -18.692  -5.239  1.00  0.00     0.200 A 
ATOM     98  F   UNL     1      -2.946 -18.376  -7.556  1.00  0.00    -0.200 F 
ATOM     99  F   UNL     1      -3.213 -20.021  -5.397  1.00  0.00    -0.200 F 
ENDBRANCH  66  89
ENDBRANCH  40  41
ENDBRANCH  33  35
ENDBRANCH  32  33
ENDBRANCH  31  32
ENDBRANCH  30  31
ENDBRANCH  29  30
ENDBRANCH  28  29
ENDBRANCH   1  28
TORSDOF 21
