REMARK SMILES Cc1n[nH]c(C(=O)OCCOCCOCCOCCOC(=O)c2ccc(-c3c4nc(c(-c5c(F)c(F)c(F)c(F)c5F)c5ccc([nH]5)c(-c5c(F)c(F)c(F)c(F)c5F)c5nc(c(-c6c(F)c(F)c(F)c(F)c6F)c6ccc3[nH]6)C=C5)C=C4)cc2)c1Br
REMARK SMILES IDX 15 1 14 2 13 3 12 4 11 5 10 6 9 7 8 8 6 9 7 10 5 11 1 12
REMARK SMILES IDX 2 13 3 14 86 15 4 16 87 17 16 19 17 20 18 21 19 22 20 23
REMARK SMILES IDX 21 24 22 25 23 26 24 27 85 28 25 29 84 30 26 31 27 32 28 33
REMARK SMILES IDX 78 34 29 35 83 36 77 37 79 38 30 39 82 40 76 41 75 42 31 44
REMARK SMILES IDX 63 45 43 46 62 47 44 48 47 49 61 50 80 51 45 52 46 53 60 55
REMARK SMILES IDX 81 56 48 57 32 58 33 59 41 60 34 61 35 62 39 63 42 64 36 65
REMARK SMILES IDX 37 66 40 67 38 68 64 69 65 70 73 71 66 72 67 73 71 74 74 75
REMARK SMILES IDX 68 76 69 77 72 78 70 79 49 80 50 81 58 82 51 83 52 84 56 85
REMARK SMILES IDX 59 86 53 87 54 88 57 89 55 90
REMARK H PARENT 4 18 79 43 47 54
REMARK Flexibility Score: inf
ROOT
ATOM      1  C   UNL     1      -2.594   6.640  -2.454  1.00  0.00     0.188 C 
ENDROOT
BRANCH   1   2
ATOM      2  O   UNL     1      -2.186   5.274  -2.370  1.00  0.00    -0.377 OA
BRANCH   2   3
ATOM      3  C   UNL     1      -1.434   4.810  -1.258  1.00  0.00     0.188 C 
BRANCH   3   4
ATOM      4  C   UNL     1      -0.154   5.571  -0.855  1.00  0.00     0.188 C 
BRANCH   4   5
ATOM      5  O   UNL     1      -0.008   6.806  -1.531  1.00  0.00    -0.376 OA
BRANCH   5   6
ATOM      6  C   UNL     1       0.988   6.945  -2.520  1.00  0.00     0.202 C 
BRANCH   6   7
ATOM      7  C   UNL     1       0.945   6.004  -3.733  1.00  0.00     0.261 C 
BRANCH   7   8
ATOM      8  O   UNL     1       0.774   4.607  -3.449  1.00  0.00    -0.459 OA
BRANCH   8   9
ATOM      9  C   UNL     1       1.825   3.985  -2.832  1.00  0.00     0.357 C 
ATOM     10  O   UNL     1       2.896   4.483  -2.625  1.00  0.00    -0.244 OA
BRANCH   9  11
ATOM     11  C   UNL     1       1.349   2.711  -2.348  1.00  0.00     0.158 A 
ATOM     12  C   UNL     1       0.777  -0.213  -0.176  1.00  0.00     0.070 C 
ATOM     13  C   UNL     1       0.853   0.865  -1.194  1.00  0.00     0.074 A 
ATOM     14  N   UNL     1       0.070   0.826  -2.281  1.00  0.00    -0.179 NA
ATOM     15  C   UNL     1       1.654   2.027  -1.193  1.00  0.00     0.073 A 
ATOM     16  N   UNL     1       0.376   1.957  -2.943  1.00  0.00    -0.270 N 
ATOM     17  Br  UNL     1       2.789   2.549   0.204  1.00  0.00    -0.046 Br
ATOM     18  H   UNL     1      -0.064   2.220  -3.784  1.00  0.00     0.190 HD
ENDBRANCH   9  11
ENDBRANCH   8   9
ENDBRANCH   7   8
ENDBRANCH   6   7
ENDBRANCH   5   6
ENDBRANCH   4   5
ENDBRANCH   3   4
ENDBRANCH   2   3
ENDBRANCH   1   2
BRANCH   1  19
ATOM     19  C   UNL     1      -2.604   7.618  -1.247  1.00  0.00     0.188 C 
BRANCH  19  20
ATOM     20  O   UNL     1      -2.193   7.080  -0.006  1.00  0.00    -0.376 OA
BRANCH  20  21
ATOM     21  C   UNL     1      -3.090   6.758   1.032  1.00  0.00     0.202 C 
BRANCH  21  22
ATOM     22  C   UNL     1      -4.288   5.868   0.741  1.00  0.00     0.261 C 
BRANCH  22  23
ATOM     23  O   UNL     1      -4.861   6.048  -0.537  1.00  0.00    -0.460 OA
BRANCH  23  24
ATOM     24  C   UNL     1      -5.602   7.165  -0.647  1.00  0.00     0.338 C 
ATOM     25  O   UNL     1      -5.561   8.161   0.053  1.00  0.00    -0.246 OA
BRANCH  24  26
ATOM     26  C   UNL     1      -6.622   6.916  -1.658  1.00  0.00     0.060 A 
ATOM     27  C   UNL     1      -7.349   8.019  -2.099  1.00  0.00     0.016 A 
ATOM     28  C   UNL     1      -7.048   5.593  -1.861  1.00  0.00     0.016 A 
ATOM     29  C   UNL     1      -8.622   7.796  -2.563  1.00  0.00     0.010 A 
ATOM     30  C   UNL     1      -8.325   5.375  -2.301  1.00  0.00     0.010 A 
ATOM     31  C   UNL     1      -9.118   6.484  -2.571  1.00  0.00    -0.014 A 
BRANCH  31  32
ATOM     32  C   UNL     1     -10.461   6.280  -3.060  1.00  0.00     0.031 A 
ATOM     33  C   UNL     1     -10.521   6.502  -4.516  1.00  0.00     0.074 A 
ATOM     34  C   UNL     1     -11.477   5.874  -2.277  1.00  0.00     0.049 A 
ATOM     35  N   UNL     1     -11.078   7.498  -5.114  1.00  0.00    -0.248 NA
ATOM     36  C   UNL     1      -9.688   5.662  -5.395  1.00  0.00     0.031 C 
ATOM     37  C   UNL     1     -11.395   5.408  -0.890  1.00  0.00     0.029 A 
ATOM     38  N   UNL     1     -12.795   5.699  -2.582  1.00  0.00    -0.354 N 
ATOM     39  C   UNL     1     -10.897   7.252  -6.468  1.00  0.00     0.074 A 
ATOM     40  C   UNL     1      -9.859   6.264  -6.573  1.00  0.00     0.031 C 
ATOM     41  C   UNL     1     -12.553   4.794  -0.556  1.00  0.00     0.029 A 
ATOM     42  C   UNL     1     -13.497   4.940  -1.652  1.00  0.00     0.049 A 
ATOM     43  H   UNL     1     -13.213   6.078  -3.390  1.00  0.00     0.167 HD
ATOM     44  C   UNL     1     -11.893   7.588  -7.328  1.00  0.00     0.037 A 
ATOM     45  C   UNL     1     -14.747   4.434  -1.801  1.00  0.00     0.037 A 
ATOM     46  C   UNL     1     -12.784   8.546  -6.718  1.00  0.00     0.049 A 
ATOM     47  C   UNL     1     -15.425   5.227  -2.852  1.00  0.00     0.074 A 
ATOM     48  C   UNL     1     -12.734   9.876  -6.362  1.00  0.00     0.029 A 
ATOM     49  N   UNL     1     -13.786   7.968  -5.987  1.00  0.00    -0.354 N 
ATOM     50  N   UNL     1     -15.807   6.461  -2.680  1.00  0.00    -0.248 NA
ATOM     51  C   UNL     1     -15.384   4.773  -4.238  1.00  0.00     0.031 C 
ATOM     52  C   UNL     1     -13.671  10.043  -5.297  1.00  0.00     0.029 A 
ATOM     53  C   UNL     1     -14.305   8.826  -5.059  1.00  0.00     0.049 A 
ATOM     54  H   UNL     1     -14.096   7.042  -6.114  1.00  0.00     0.167 HD
ATOM     55  C   UNL     1     -15.597   7.048  -3.911  1.00  0.00     0.074 A 
ATOM     56  C   UNL     1     -15.540   5.945  -4.860  1.00  0.00     0.031 C 
ATOM     57  C   UNL     1     -15.135   8.330  -3.986  1.00  0.00     0.037 A 
BRANCH  44  58
ATOM     58  C   UNL     1     -12.389   6.659  -8.418  1.00  0.00     0.064 A 
ATOM     59  C   UNL     1     -13.379   7.129  -9.303  1.00  0.00     0.173 A 
ATOM     60  C   UNL     1     -12.192   5.258  -8.422  1.00  0.00     0.173 A 
ATOM     61  F   UNL     1     -13.681   8.436  -9.353  1.00  0.00    -0.203 F 
ATOM     62  C   UNL     1     -14.147   6.259 -10.083  1.00  0.00     0.198 A 
ATOM     63  C   UNL     1     -12.923   4.400  -9.240  1.00  0.00     0.198 A 
ATOM     64  F   UNL     1     -11.381   4.642  -7.556  1.00  0.00    -0.203 F 
ATOM     65  F   UNL     1     -15.159   6.741 -10.817  1.00  0.00    -0.200 F 
ATOM     66  C   UNL     1     -13.919   4.896 -10.049  1.00  0.00     0.200 A 
ATOM     67  F   UNL     1     -12.707   3.078  -9.163  1.00  0.00    -0.200 F 
ATOM     68  F   UNL     1     -14.690   4.055 -10.752  1.00  0.00    -0.200 F 
ENDBRANCH  44  58
BRANCH  45  69
ATOM     69  C   UNL     1     -15.357   3.201  -1.251  1.00  0.00     0.064 A 
ATOM     70  C   UNL     1     -16.750   3.008  -1.288  1.00  0.00     0.173 A 
ATOM     71  C   UNL     1     -14.577   2.067  -0.961  1.00  0.00     0.173 A 
ATOM     72  F   UNL     1     -17.568   4.028  -1.585  1.00  0.00    -0.203 F 
ATOM     73  C   UNL     1     -17.323   1.746  -1.102  1.00  0.00     0.198 A 
ATOM     74  C   UNL     1     -15.151   0.809  -0.767  1.00  0.00     0.198 A 
ATOM     75  F   UNL     1     -13.239   2.137  -0.959  1.00  0.00    -0.203 F 
ATOM     76  F   UNL     1     -18.648   1.589  -1.225  1.00  0.00    -0.200 F 
ATOM     77  C   UNL     1     -16.521   0.645  -0.858  1.00  0.00     0.200 A 
ATOM     78  F   UNL     1     -14.362  -0.256  -0.564  1.00  0.00    -0.200 F 
ATOM     79  F   UNL     1     -17.061  -0.578  -0.756  1.00  0.00    -0.200 F 
ENDBRANCH  45  69
BRANCH  57  80
ATOM     80  C   UNL     1     -15.413   9.217  -2.813  1.00  0.00     0.064 A 
ATOM     81  C   UNL     1     -14.916   9.011  -1.515  1.00  0.00     0.173 A 
ATOM     82  C   UNL     1     -16.216  10.345  -3.028  1.00  0.00     0.173 A 
ATOM     83  F   UNL     1     -14.070   8.006  -1.249  1.00  0.00    -0.203 F 
ATOM     84  C   UNL     1     -15.270   9.861  -0.468  1.00  0.00     0.198 A 
ATOM     85  C   UNL     1     -16.531  11.216  -1.992  1.00  0.00     0.198 A 
ATOM     86  F   UNL     1     -16.683  10.613  -4.258  1.00  0.00    -0.203 F 
ATOM     87  F   UNL     1     -14.823   9.622   0.773  1.00  0.00    -0.200 F 
ATOM     88  C   UNL     1     -16.075  10.963  -0.709  1.00  0.00     0.200 A 
ATOM     89  F   UNL     1     -17.273  12.303  -2.241  1.00  0.00    -0.200 F 
ATOM     90  F   UNL     1     -16.400  11.793   0.292  1.00  0.00    -0.200 F 
ENDBRANCH  57  80
ENDBRANCH  31  32
ENDBRANCH  24  26
ENDBRANCH  23  24
ENDBRANCH  22  23
ENDBRANCH  21  22
ENDBRANCH  20  21
ENDBRANCH  19  20
ENDBRANCH   1  19
TORSDOF 20
