REMARK SMILES Cc1oc(-c2ccc(Cl)cc2[N+](=O)[O-])cc1C(=O)Nc1ccc(C(=O)OCCOCCOCCOCCOC(=O)c2ccc(-c3c4nc(c(-c5c(F)c(F)c(F)c(F)c5F)c5ccc([nH]5)c(-c5c(F)c(F)c(F)c(F)c5F)c5nc(c(-c6c(F)c(F)c(F)c(F)c6F)c6ccc3[nH]6)C=C5)C=C4)cc2)cc1
REMARK SMILES IDX 31 1 30 2 29 3 28 4 27 5 26 6 24 7 25 8 23 9 20 10 21 11
REMARK SMILES IDX 105 12 22 13 104 14 19 15 17 16 18 17 16 19 1 20 2 21 3 22
REMARK SMILES IDX 4 23 15 24 5 25 6 26 11 27 7 28 10 29 8 30 9 31 12 32 13 33
REMARK SMILES IDX 14 34 32 35 33 36 34 37 35 38 36 39 37 40 38 41 39 42 40 43
REMARK SMILES IDX 41 44 42 45 103 46 43 47 102 48 44 49 45 50 46 51 96 52
REMARK SMILES IDX 47 53 101 54 95 55 97 56 48 57 100 58 94 59 93 60 49 62
REMARK SMILES IDX 81 63 61 64 80 65 62 66 65 67 79 68 98 69 63 70 64 71 78 73
REMARK SMILES IDX 99 74 66 75 50 76 51 77 59 78 52 79 53 80 57 81 60 82 54 83
REMARK SMILES IDX 55 84 58 85 56 86 82 87 83 88 91 89 84 90 85 91 89 92 92 93
REMARK SMILES IDX 86 94 87 95 90 96 88 97 67 98 68 99 76 100 69 101 70 102
REMARK SMILES IDX 74 103 77 104 71 105 72 106 75 107 73 108
REMARK H PARENT 19 18 97 61 65 72
REMARK Flexibility Score: inf
ROOT
ATOM      1  C   UNL     1       7.139  -0.317   1.702  1.00  0.00     0.188 C 
ENDROOT
BRANCH   1   2
ATOM      2  C   UNL     1       7.819   0.006   0.357  1.00  0.00     0.188 C 
BRANCH   2   3
ATOM      3  O   UNL     1       8.540   1.218   0.287  1.00  0.00    -0.376 OA
BRANCH   3   4
ATOM      4  C   UNL     1       7.946   2.491   0.100  1.00  0.00     0.202 C 
BRANCH   4   5
ATOM      5  C   UNL     1       6.448   2.850   0.146  1.00  0.00     0.261 C 
BRANCH   5   6
ATOM      6  O   UNL     1       5.538   1.810   0.460  1.00  0.00    -0.460 OA
BRANCH   6   7
ATOM      7  C   UNL     1       5.102   1.104  -0.597  1.00  0.00     0.338 C 
ATOM      8  O   UNL     1       5.323   1.329  -1.775  1.00  0.00    -0.246 OA
BRANCH   7   9
ATOM      9  C   UNL     1       4.422  -0.118  -0.118  1.00  0.00     0.060 A 
ATOM     10  C   UNL     1       2.642  -2.161   0.249  1.00  0.00     0.041 A 
ATOM     11  C   UNL     1       3.647  -2.321  -0.705  1.00  0.00     0.027 A 
ATOM     12  C   UNL     1       2.705  -1.146   1.205  1.00  0.00     0.027 A 
ATOM     13  C   UNL     1       4.515  -1.261  -0.923  1.00  0.00     0.018 A 
ATOM     14  C   UNL     1       3.623  -0.116   1.033  1.00  0.00     0.018 A 
BRANCH  10  15
ATOM     15  N   UNL     1       1.498  -2.931   0.075  1.00  0.00    -0.322 N 
ATOM     16  C   UNL     1       0.179  -2.527   0.035  1.00  0.00     0.259 C 
ATOM     17  O   UNL     1      -0.665  -3.427  -0.004  1.00  0.00    -0.269 OA
ATOM     18  H   UNL     1       1.649  -3.897  -0.035  1.00  0.00     0.170 HD
BRANCH  16  19
ATOM     19  C   UNL     1      -0.255  -1.122  -0.017  1.00  0.00     0.081 A 
ATOM     20  C   UNL     1       1.489   0.475  -1.311  1.00  0.00     0.088 C 
ATOM     21  C   UNL     1       0.315   0.042  -0.531  1.00  0.00     0.114 A 
ATOM     22  O   UNL     1      -0.510   1.099  -0.332  1.00  0.00    -0.460 OA
ATOM     23  C   UNL     1      -1.712   0.624   0.044  1.00  0.00     0.142 A 
ATOM     24  C   UNL     1      -1.600  -0.716   0.326  1.00  0.00     0.065 A 
BRANCH  23  25
ATOM     25  C   UNL     1      -2.763   1.620   0.013  1.00  0.00     0.095 A 
ATOM     26  C   UNL     1      -3.678   1.674   1.071  1.00  0.00     0.021 A 
ATOM     27  C   UNL     1      -2.876   2.583  -1.014  1.00  0.00     0.281 A 
ATOM     28  C   UNL     1      -4.658   2.672   1.111  1.00  0.00     0.022 A 
ATOM     29  C   UNL     1      -3.852   3.588  -0.977  1.00  0.00     0.107 A 
ATOM     30  C   UNL     1      -4.736   3.623   0.094  1.00  0.00     0.047 A 
ATOM     31  Cl  UNL     1      -5.938   4.849   0.161  1.00  0.00    -0.084 Cl
BRANCH  27  32
ATOM     32  N   UNL     1      -2.004   2.566  -2.188  1.00  0.00     0.063 N 
ATOM     33  O   UNL     1      -1.504   3.648  -2.529  1.00  0.00    -0.258 OA
ATOM     34  O   UNL     1      -1.890   1.500  -2.809  1.00  0.00    -0.258 OA
ENDBRANCH  27  32
ENDBRANCH  23  25
ENDBRANCH  16  19
ENDBRANCH  10  15
ENDBRANCH   7   9
ENDBRANCH   6   7
ENDBRANCH   5   6
ENDBRANCH   4   5
ENDBRANCH   3   4
ENDBRANCH   2   3
ENDBRANCH   1   2
BRANCH   1  35
ATOM     35  O   UNL     1       6.895   0.804   2.529  1.00  0.00    -0.377 OA
BRANCH  35  36
ATOM     36  C   UNL     1       7.978   1.324   3.293  1.00  0.00     0.188 C 
BRANCH  36  37
ATOM     37  C   UNL     1       9.446   0.919   3.014  1.00  0.00     0.188 C 
BRANCH  37  38
ATOM     38  O   UNL     1       9.640  -0.407   2.548  1.00  0.00    -0.376 OA
BRANCH  38  39
ATOM     39  C   UNL     1      10.053  -1.412   3.459  1.00  0.00     0.202 C 
BRANCH  39  40
ATOM     40  C   UNL     1       9.084  -1.779   4.594  1.00  0.00     0.261 C 
BRANCH  40  41
ATOM     41  O   UNL     1       8.687  -0.694   5.445  1.00  0.00    -0.460 OA
BRANCH  41  42
ATOM     42  C   UNL     1       9.666  -0.079   6.135  1.00  0.00     0.338 C 
ATOM     43  O   UNL     1      10.852  -0.377   6.161  1.00  0.00    -0.246 OA
BRANCH  42  44
ATOM     44  C   UNL     1       9.116   1.157   6.721  1.00  0.00     0.060 A 
ATOM     45  C   UNL     1       9.722   2.376   6.394  1.00  0.00     0.016 A 
ATOM     46  C   UNL     1       8.031   1.113   7.600  1.00  0.00     0.016 A 
ATOM     47  C   UNL     1       9.287   3.551   7.000  1.00  0.00     0.010 A 
ATOM     48  C   UNL     1       7.608   2.291   8.222  1.00  0.00     0.010 A 
ATOM     49  C   UNL     1       8.271   3.504   7.962  1.00  0.00    -0.014 A 
BRANCH  49  50
ATOM     50  C   UNL     1       8.079   4.676   8.849  1.00  0.00     0.031 A 
ATOM     51  C   UNL     1       8.736   4.660  10.202  1.00  0.00     0.074 A 
ATOM     52  C   UNL     1       7.412   5.765   8.433  1.00  0.00     0.049 A 
ATOM     53  N   UNL     1       8.763   5.584  11.129  1.00  0.00    -0.248 NA
ATOM     54  C   UNL     1       9.466   3.432  10.557  1.00  0.00     0.031 C 
ATOM     55  C   UNL     1       6.777   5.917   7.127  1.00  0.00     0.029 A 
ATOM     56  N   UNL     1       7.170   6.956   9.069  1.00  0.00    -0.354 N 
ATOM     57  C   UNL     1       9.511   5.050  12.171  1.00  0.00     0.074 A 
ATOM     58  C   UNL     1       9.876   3.705  11.785  1.00  0.00     0.031 C 
ATOM     59  C   UNL     1       6.226   7.140   7.053  1.00  0.00     0.029 A 
ATOM     60  C   UNL     1       6.444   7.843   8.316  1.00  0.00     0.049 A 
ATOM     61  H   UNL     1       7.488   7.154   9.980  1.00  0.00     0.167 HD
ATOM     62  C   UNL     1       9.877   5.633  13.337  1.00  0.00     0.037 A 
ATOM     63  C   UNL     1       6.004   9.080   8.620  1.00  0.00     0.037 A 
ATOM     64  C   UNL     1       9.500   6.968  13.722  1.00  0.00     0.049 A 
ATOM     65  C   UNL     1       6.343   9.675   9.963  1.00  0.00     0.074 A 
ATOM     66  C   UNL     1       9.816   7.655  14.880  1.00  0.00     0.029 A 
ATOM     67  N   UNL     1       8.707   7.814  12.958  1.00  0.00    -0.354 N 
ATOM     68  N   UNL     1       7.069   9.176  10.934  1.00  0.00    -0.248 NA
ATOM     69  C   UNL     1       5.804  11.012  10.248  1.00  0.00     0.031 C 
ATOM     70  C   UNL     1       9.161   8.891  14.847  1.00  0.00     0.029 A 
ATOM     71  C   UNL     1       8.498   9.005  13.634  1.00  0.00     0.049 A 
ATOM     72  H   UNL     1       8.346   7.599  12.068  1.00  0.00     0.167 HD
ATOM     73  C   UNL     1       7.109  10.150  11.925  1.00  0.00     0.074 A 
ATOM     74  C   UNL     1       6.337  11.272  11.433  1.00  0.00     0.031 C 
ATOM     75  C   UNL     1       7.734  10.120  13.129  1.00  0.00     0.037 A 
BRANCH  62  76
ATOM     76  C   UNL     1      10.695   4.808  14.291  1.00  0.00     0.064 A 
ATOM     77  C   UNL     1      12.013   4.421  13.997  1.00  0.00     0.173 A 
ATOM     78  C   UNL     1      10.150   4.390  15.514  1.00  0.00     0.173 A 
ATOM     79  F   UNL     1      12.579   4.780  12.835  1.00  0.00    -0.203 F 
ATOM     80  C   UNL     1      12.735   3.611  14.870  1.00  0.00     0.198 A 
ATOM     81  C   UNL     1      10.889   3.612  16.402  1.00  0.00     0.198 A 
ATOM     82  F   UNL     1       8.897   4.733  15.850  1.00  0.00    -0.203 F 
ATOM     83  F   UNL     1      13.964   3.195  14.534  1.00  0.00    -0.200 F 
ATOM     84  C   UNL     1      12.175   3.212  16.074  1.00  0.00     0.200 A 
ATOM     85  F   UNL     1      10.350   3.240  17.571  1.00  0.00    -0.200 F 
ATOM     86  F   UNL     1      12.869   2.430  16.912  1.00  0.00    -0.200 F 
ENDBRANCH  62  76
BRANCH  63  87
ATOM     87  C   UNL     1       5.209   9.847   7.625  1.00  0.00     0.064 A 
ATOM     88  C   UNL     1       5.728  11.001   7.021  1.00  0.00     0.173 A 
ATOM     89  C   UNL     1       3.916   9.444   7.259  1.00  0.00     0.173 A 
ATOM     90  F   UNL     1       6.950  11.441   7.356  1.00  0.00    -0.203 F 
ATOM     91  C   UNL     1       4.979  11.730   6.099  1.00  0.00     0.198 A 
ATOM     92  C   UNL     1       3.180  10.157   6.315  1.00  0.00     0.198 A 
ATOM     93  F   UNL     1       3.373   8.349   7.809  1.00  0.00    -0.203 F 
ATOM     94  F   UNL     1       5.482  12.852   5.569  1.00  0.00    -0.200 F 
ATOM     95  C   UNL     1       3.709  11.303   5.741  1.00  0.00     0.200 A 
ATOM     96  F   UNL     1       1.959   9.733   5.962  1.00  0.00    -0.200 F 
ATOM     97  F   UNL     1       2.993  11.999   4.848  1.00  0.00    -0.200 F 
ENDBRANCH  63  87
BRANCH  75  98
ATOM     98  C   UNL     1       7.659  11.357  13.981  1.00  0.00     0.064 A 
ATOM     99  C   UNL     1       6.466  11.771  14.591  1.00  0.00     0.173 A 
ATOM    100  C   UNL     1       8.815  12.118  14.223  1.00  0.00     0.173 A 
ATOM    101  F   UNL     1       5.330  11.088  14.385  1.00  0.00    -0.203 F 
ATOM    102  C   UNL     1       6.425  12.917  15.382  1.00  0.00     0.198 A 
ATOM    103  C   UNL     1       8.778  13.241  15.044  1.00  0.00     0.198 A 
ATOM    104  F   UNL     1       9.986  11.763  13.673  1.00  0.00    -0.203 F 
ATOM    105  F   UNL     1       5.261  13.325  15.907  1.00  0.00    -0.200 F 
ATOM    106  C   UNL     1       7.582  13.646  15.614  1.00  0.00     0.200 A 
ATOM    107  F   UNL     1       9.902  13.932  15.282  1.00  0.00    -0.200 F 
ATOM    108  F   UNL     1       7.542  14.744  16.382  1.00  0.00    -0.200 F 
ENDBRANCH  75  98
ENDBRANCH  49  50
ENDBRANCH  42  44
ENDBRANCH  41  42
ENDBRANCH  40  41
ENDBRANCH  39  40
ENDBRANCH  38  39
ENDBRANCH  37  38
ENDBRANCH  36  37
ENDBRANCH  35  36
ENDBRANCH   1  35
TORSDOF 24
