REMARK SMILES Cn1ccc(-c2n[nH]c(=O)n2-c2ccc(C(=O)OCCOCCOCCOCCOC(=O)c3ccc(-c4c5nc(c(-c6c(F)c(F)c(F)c(F)c6F)c6ccc([nH]6)c(-c6c(F)c(F)c(F)c(F)c6F)c6nc(c(-c7c(F)c(F)c(F)c(F)c7F)c7ccc4[nH]7)C=C6)C=C5)cc3)cc2)n1
REMARK SMILES IDX 24 1 23 2 22 3 21 4 20 5 19 6 18 7 16 8 17 9 15 10 12 11
REMARK SMILES IDX 13 12 97 13 14 14 96 15 11 16 6 17 7 18 8 19 9 20 10 22 5 23
REMARK SMILES IDX 1 24 2 25 3 26 98 27 4 28 25 29 26 30 27 31 28 32 29 33
REMARK SMILES IDX 30 34 31 35 32 36 33 37 34 38 95 39 35 40 94 41 36 42 37 43
REMARK SMILES IDX 38 44 88 45 39 46 93 47 87 48 89 49 40 50 92 51 86 52 85 53
REMARK SMILES IDX 41 55 73 56 53 57 72 58 54 59 57 60 71 61 90 62 55 63 56 64
REMARK SMILES IDX 70 66 91 67 58 68 42 69 43 70 51 71 44 72 45 73 49 74 52 75
REMARK SMILES IDX 46 76 47 77 50 78 48 79 74 80 75 81 83 82 76 83 77 84 81 85
REMARK SMILES IDX 84 86 78 87 79 88 82 89 80 90 59 91 60 92 68 93 61 94 62 95
REMARK SMILES IDX 66 96 69 97 63 98 64 99 67 100 65 101
REMARK H PARENT 8 21 89 54 57 65
REMARK Flexibility Score: inf
ROOT
ATOM      1  O   UNL     1       2.096   2.927   7.851  1.00  0.00    -0.377 OA
ENDROOT
BRANCH   1   2
ATOM      2  C   UNL     1       1.836   3.933   6.879  1.00  0.00     0.188 C 
BRANCH   2   3
ATOM      3  C   UNL     1       0.572   4.823   6.936  1.00  0.00     0.188 C 
BRANCH   3   4
ATOM      4  O   UNL     1      -0.250   4.581   8.060  1.00  0.00    -0.376 OA
BRANCH   4   5
ATOM      5  C   UNL     1      -1.520   3.997   7.900  1.00  0.00     0.202 C 
BRANCH   5   6
ATOM      6  C   UNL     1      -1.604   2.614   7.245  1.00  0.00     0.261 C 
BRANCH   6   7
ATOM      7  O   UNL     1      -0.767   2.413   6.101  1.00  0.00    -0.460 OA
BRANCH   7   8
ATOM      8  C   UNL     1      -1.153   3.022   4.957  1.00  0.00     0.338 C 
ATOM      9  O   UNL     1      -2.149   3.700   4.790  1.00  0.00    -0.246 OA
BRANCH   8  10
ATOM     10  C   UNL     1      -0.050   2.888   3.976  1.00  0.00     0.060 A 
ATOM     11  C   UNL     1       1.922   2.657   2.014  1.00  0.00     0.052 A 
ATOM     12  C   UNL     1       1.360   3.906   2.284  1.00  0.00     0.028 A 
ATOM     13  C   UNL     1       1.588   1.558   2.824  1.00  0.00     0.028 A 
ATOM     14  C   UNL     1       0.345   4.013   3.239  1.00  0.00     0.018 A 
ATOM     15  C   UNL     1       0.613   1.672   3.812  1.00  0.00     0.018 A 
BRANCH  11  16
ATOM     16  N   UNL     1       2.723   2.469   0.878  1.00  0.00    -0.242 N 
ATOM     17  C   UNL     1       2.616   1.481  -0.058  1.00  0.00     0.189 A 
ATOM     18  N   UNL     1       3.542   1.491  -0.978  1.00  0.00    -0.150 NA
ATOM     19  N   UNL     1       4.280   2.606  -0.672  1.00  0.00    -0.226 N 
ATOM     20  C   UNL     1       3.766   3.253   0.455  1.00  0.00     0.348 A 
ATOM     21  H   UNL     1       5.067   2.911  -1.180  1.00  0.00     0.195 HD
ATOM     22  O   UNL     1       4.216   4.279   0.942  1.00  0.00    -0.246 OA
BRANCH  17  23
ATOM     23  C   UNL     1       1.499   0.552  -0.097  1.00  0.00     0.130 A 
ATOM     24  C   UNL     1      -1.958  -0.004  -0.017  1.00  0.00     0.173 C 
ATOM     25  N   UNL     1      -0.520  -0.119  -0.053  1.00  0.00    -0.275 N 
ATOM     26  C   UNL     1       0.217  -1.260  -0.158  1.00  0.00     0.109 A 
ATOM     27  N   UNL     1       0.229   0.992   0.005  1.00  0.00    -0.170 NA
ATOM     28  C   UNL     1       1.532  -0.858  -0.228  1.00  0.00     0.054 A 
ENDBRANCH  17  23
ENDBRANCH  11  16
ENDBRANCH   8  10
ENDBRANCH   7   8
ENDBRANCH   6   7
ENDBRANCH   5   6
ENDBRANCH   4   5
ENDBRANCH   3   4
ENDBRANCH   2   3
ENDBRANCH   1   2
BRANCH   1  29
ATOM     29  C   UNL     1       1.662   3.079   9.196  1.00  0.00     0.188 C 
BRANCH  29  30
ATOM     30  C   UNL     1       1.716   4.449   9.921  1.00  0.00     0.188 C 
BRANCH  30  31
ATOM     31  O   UNL     1       1.962   5.575   9.101  1.00  0.00    -0.376 OA
BRANCH  31  32
ATOM     32  C   UNL     1       3.213   6.221   8.999  1.00  0.00     0.202 C 
BRANCH  32  33
ATOM     33  C   UNL     1       4.489   5.422   8.776  1.00  0.00     0.261 C 
BRANCH  33  34
ATOM     34  O   UNL     1       4.485   4.144   9.370  1.00  0.00    -0.460 OA
BRANCH  34  35
ATOM     35  C   UNL     1       4.608   4.165  10.709  1.00  0.00     0.338 C 
ATOM     36  O   UNL     1       4.506   5.121  11.454  1.00  0.00    -0.246 OA
BRANCH  35  37
ATOM     37  C   UNL     1       5.048   2.837  11.126  1.00  0.00     0.060 A 
ATOM     38  C   UNL     1       5.111   2.631  12.502  1.00  0.00     0.016 A 
ATOM     39  C   UNL     1       5.787   2.083  10.202  1.00  0.00     0.016 A 
ATOM     40  C   UNL     1       6.149   1.870  12.972  1.00  0.00     0.010 A 
ATOM     41  C   UNL     1       6.844   1.356  10.672  1.00  0.00     0.010 A 
ATOM     42  C   UNL     1       7.060   1.344  12.046  1.00  0.00    -0.014 A 
BRANCH  42  43
ATOM     43  C   UNL     1       8.204   0.642  12.566  1.00  0.00     0.031 A 
ATOM     44  C   UNL     1       7.822  -0.682  13.092  1.00  0.00     0.074 A 
ATOM     45  C   UNL     1       9.450   1.141  12.487  1.00  0.00     0.049 A 
ATOM     46  N   UNL     1       7.854  -1.074  14.320  1.00  0.00    -0.248 NA
ATOM     47  C   UNL     1       7.120  -1.602  12.180  1.00  0.00     0.031 C 
ATOM     48  C   UNL     1       9.917   2.317  11.748  1.00  0.00     0.029 A 
ATOM     49  N   UNL     1      10.598   0.626  12.996  1.00  0.00    -0.354 N 
ATOM     50  C   UNL     1       7.363  -2.373  14.302  1.00  0.00     0.074 A 
ATOM     51  C   UNL     1       6.739  -2.560  13.023  1.00  0.00     0.031 C 
ATOM     52  C   UNL     1      11.269   2.286  11.673  1.00  0.00     0.029 A 
ATOM     53  C   UNL     1      11.760   1.166  12.458  1.00  0.00     0.049 A 
ATOM     54  H   UNL     1      10.607  -0.072  13.689  1.00  0.00     0.167 HD
ATOM     55  C   UNL     1       7.787  -3.271  15.229  1.00  0.00     0.037 A 
ATOM     56  C   UNL     1      13.006   0.646  12.600  1.00  0.00     0.037 A 
ATOM     57  C   UNL     1       8.289  -2.592  16.399  1.00  0.00     0.049 A 
ATOM     58  C   UNL     1      12.963  -0.289  13.756  1.00  0.00     0.074 A 
ATOM     59  C   UNL     1       7.740  -1.720  17.320  1.00  0.00     0.029 A 
ATOM     60  N   UNL     1       9.650  -2.467  16.534  1.00  0.00    -0.354 N 
ATOM     61  N   UNL     1      12.828   0.093  14.995  1.00  0.00    -0.248 NA
ATOM     62  C   UNL     1      12.608  -1.676  13.489  1.00  0.00     0.031 C 
ATOM     63  C   UNL     1       8.781  -0.795  17.630  1.00  0.00     0.029 A 
ATOM     64  C   UNL     1       9.925  -1.186  16.936  1.00  0.00     0.049 A 
ATOM     65  H   UNL     1      10.313  -3.176  16.369  1.00  0.00     0.167 HD
ATOM     66  C   UNL     1      11.968  -0.839  15.557  1.00  0.00     0.074 A 
ATOM     67  C   UNL     1      11.936  -1.950  14.610  1.00  0.00     0.031 C 
ATOM     68  C   UNL     1      11.140  -0.489  16.585  1.00  0.00     0.037 A 
BRANCH  55  69
ATOM     69  C   UNL     1       8.154  -4.697  14.883  1.00  0.00     0.064 A 
ATOM     70  C   UNL     1       8.597  -5.542  15.919  1.00  0.00     0.173 A 
ATOM     71  C   UNL     1       8.388  -5.178  13.573  1.00  0.00     0.173 A 
ATOM     72  F   UNL     1       8.432  -5.191  17.203  1.00  0.00    -0.203 F 
ATOM     73  C   UNL     1       9.313  -6.713  15.662  1.00  0.00     0.198 A 
ATOM     74  C   UNL     1       9.057  -6.373  13.322  1.00  0.00     0.198 A 
ATOM     75  F   UNL     1       8.083  -4.481  12.474  1.00  0.00    -0.203 F 
ATOM     76  F   UNL     1       9.836  -7.405  16.683  1.00  0.00    -0.200 F 
ATOM     77  C   UNL     1       9.553  -7.122  14.364  1.00  0.00     0.200 A 
ATOM     78  F   UNL     1       9.289  -6.742  12.054  1.00  0.00    -0.200 F 
ATOM     79  F   UNL     1      10.299  -8.205  14.116  1.00  0.00    -0.200 F 
ENDBRANCH  55  69
BRANCH  56  80
ATOM     80  C   UNL     1      14.132   0.626  11.633  1.00  0.00     0.064 A 
ATOM     81  C   UNL     1      15.417   0.228  12.044  1.00  0.00     0.173 A 
ATOM     82  C   UNL     1      13.916   0.696  10.244  1.00  0.00     0.173 A 
ATOM     83  F   UNL     1      15.699   0.099  13.350  1.00  0.00    -0.203 F 
ATOM     84  C   UNL     1      16.408  -0.126  11.123  1.00  0.00     0.198 A 
ATOM     85  C   UNL     1      14.910   0.351   9.325  1.00  0.00     0.198 A 
ATOM     86  F   UNL     1      12.710   0.999   9.747  1.00  0.00    -0.203 F 
ATOM     87  F   UNL     1      17.593  -0.577  11.557  1.00  0.00    -0.200 F 
ATOM     88  C   UNL     1      16.148  -0.078   9.765  1.00  0.00     0.200 A 
ATOM     89  F   UNL     1      14.635   0.369   8.013  1.00  0.00    -0.200 F 
ATOM     90  F   UNL     1      17.072  -0.486   8.883  1.00  0.00    -0.200 F 
ENDBRANCH  56  80
BRANCH  68  91
ATOM     91  C   UNL     1      11.399   0.828  17.266  1.00  0.00     0.064 A 
ATOM     92  C   UNL     1      11.348   2.079  16.625  1.00  0.00     0.173 A 
ATOM     93  C   UNL     1      11.605   0.824  18.652  1.00  0.00     0.173 A 
ATOM     94  F   UNL     1      11.050   2.177  15.322  1.00  0.00    -0.203 F 
ATOM     95  C   UNL     1      11.556   3.263  17.332  1.00  0.00     0.198 A 
ATOM     96  C   UNL     1      11.769   2.009  19.362  1.00  0.00     0.198 A 
ATOM     97  F   UNL     1      11.609  -0.336  19.327  1.00  0.00    -0.203 F 
ATOM     98  F   UNL     1      11.532   4.442  16.694  1.00  0.00    -0.200 F 
ATOM     99  C   UNL     1      11.761   3.226  18.701  1.00  0.00     0.200 A 
ATOM    100  F   UNL     1      11.915   1.970  20.694  1.00  0.00    -0.200 F 
ATOM    101  F   UNL     1      11.927   4.365  19.389  1.00  0.00    -0.200 F 
ENDBRANCH  68  91
ENDBRANCH  42  43
ENDBRANCH  35  37
ENDBRANCH  34  35
ENDBRANCH  33  34
ENDBRANCH  32  33
ENDBRANCH  31  32
ENDBRANCH  30  31
ENDBRANCH  29  30
ENDBRANCH   1  29
TORSDOF 22
