REMARK SMILES CC[C@@H](C)S(=O)(=O)c1cc(C(=O)OCCOCCOCCOCCOC(=O)c2ccc(-c3c4nc(c(-c5c(F)c(F)c(F)c(F)c5F)c5ccc([nH]5)c(-c5c(F)c(F)c(F)c(F)c5F)c5nc(c(-c6c(F)c(F)c(F)c(F)c6F)c6ccc3[nH]6)C=C5)C=C4)cc2)c(C)cc1C
REMARK SMILES IDX 18 1 17 2 16 3 15 4 14 5 13 6 11 7 12 8 10 9 8 10 9 11 94 12
REMARK SMILES IDX 93 13 95 14 91 15 92 16 5 17 6 18 7 19 3 20 4 21 2 22 1 23
REMARK SMILES IDX 19 24 20 25 21 26 22 27 23 28 24 29 25 30 26 31 27 32 28 33
REMARK SMILES IDX 29 34 90 35 30 36 89 37 31 38 32 39 33 40 83 41 34 42 88 43
REMARK SMILES IDX 82 44 84 45 35 46 87 47 81 48 80 49 36 51 68 52 48 53 67 54
REMARK SMILES IDX 49 55 52 56 66 57 85 58 50 59 51 60 65 62 86 63 53 64 37 65
REMARK SMILES IDX 38 66 46 67 39 68 40 69 44 70 47 71 41 72 42 73 45 74 43 75
REMARK SMILES IDX 69 76 70 77 78 78 71 79 72 80 76 81 79 82 73 83 74 84 77 85
REMARK SMILES IDX 75 86 54 87 55 88 63 89 56 90 57 91 61 92 64 93 58 94 59 95
REMARK SMILES IDX 62 96 60 97
REMARK H PARENT 84 50 52 61
REMARK Flexibility Score: inf
ROOT
ATOM      1  C   UNL     1      -4.126  -1.161   3.167  1.00  0.00     0.188 C 
ENDROOT
BRANCH   1   2
ATOM      2  C   UNL     1      -3.620   0.031   2.324  1.00  0.00     0.188 C 
BRANCH   2   3
ATOM      3  O   UNL     1      -4.570   1.065   2.163  1.00  0.00    -0.376 OA
BRANCH   3   4
ATOM      4  C   UNL     1      -5.268   1.227   0.944  1.00  0.00     0.202 C 
BRANCH   4   5
ATOM      5  C   UNL     1      -5.859   0.040   0.165  1.00  0.00     0.261 C 
BRANCH   5   6
ATOM      6  O   UNL     1      -5.290  -1.241   0.437  1.00  0.00    -0.460 OA
BRANCH   6   7
ATOM      7  C   UNL     1      -4.286  -1.644  -0.364  1.00  0.00     0.338 C 
ATOM      8  O   UNL     1      -3.805  -1.010  -1.289  1.00  0.00    -0.246 OA
BRANCH   7   9
ATOM      9  C   UNL     1      -3.647  -2.869   0.190  1.00  0.00     0.064 A 
ATOM     10  C   UNL     1      -1.479  -3.888   0.714  1.00  0.00     0.071 A 
ATOM     11  C   UNL     1      -2.245  -2.792   0.319  1.00  0.00     0.036 A 
ATOM     12  C   UNL     1      -2.132  -5.111   0.954  1.00  0.00    -0.032 A 
ATOM     13  C   UNL     1      -3.544  -5.145   0.930  1.00  0.00     0.009 A 
ATOM     14  C   UNL     1      -1.437  -6.429   1.177  1.00  0.00     0.046 C 
ATOM     15  C   UNL     1      -4.324  -4.025   0.594  1.00  0.00    -0.036 A 
ATOM     16  C   UNL     1      -5.818  -4.169   0.639  1.00  0.00     0.045 C 
BRANCH  10  17
ATOM     17  S   UNL     1       0.303  -3.763   0.886  1.00  0.00     0.181 S 
ATOM     18  O   UNL     1       0.848  -4.316  -0.339  1.00  0.00    -0.223 OA
ATOM     19  O   UNL     1       0.612  -4.381   2.166  1.00  0.00    -0.223 OA
BRANCH  17  20
ATOM     20  C   UNL     1       0.881  -2.069   1.028  1.00  0.00     0.110 C 
ATOM     21  C   UNL     1       0.348  -1.382   2.285  1.00  0.00     0.025 C 
BRANCH  20  22
ATOM     22  C   UNL     1       0.796  -1.265  -0.282  1.00  0.00     0.016 C 
ATOM     23  C   UNL     1       1.241   0.186  -0.166  1.00  0.00     0.005 C 
ENDBRANCH  20  22
ENDBRANCH  17  20
ENDBRANCH  10  17
ENDBRANCH   7   9
ENDBRANCH   6   7
ENDBRANCH   5   6
ENDBRANCH   4   5
ENDBRANCH   3   4
ENDBRANCH   2   3
ENDBRANCH   1   2
BRANCH   1  24
ATOM     24  O   UNL     1      -5.526  -1.318   3.341  1.00  0.00    -0.377 OA
BRANCH  24  25
ATOM     25  C   UNL     1      -6.297  -0.248   3.882  1.00  0.00     0.188 C 
BRANCH  25  26
ATOM     26  C   UNL     1      -5.655   0.925   4.665  1.00  0.00     0.188 C 
BRANCH  26  27
ATOM     27  O   UNL     1      -4.294   0.744   5.011  1.00  0.00    -0.376 OA
BRANCH  27  28
ATOM     28  C   UNL     1      -3.978   0.479   6.365  1.00  0.00     0.202 C 
BRANCH  28  29
ATOM     29  C   UNL     1      -4.528  -0.820   6.971  1.00  0.00     0.261 C 
BRANCH  29  30
ATOM     30  O   UNL     1      -5.942  -1.028   6.838  1.00  0.00    -0.460 OA
BRANCH  30  31
ATOM     31  C   UNL     1      -6.755  -0.185   7.508  1.00  0.00     0.338 C 
ATOM     32  O   UNL     1      -6.428   0.749   8.224  1.00  0.00    -0.246 OA
BRANCH  31  33
ATOM     33  C   UNL     1      -8.139  -0.468   7.079  1.00  0.00     0.060 A 
ATOM     34  C   UNL     1      -8.874   0.535   6.433  1.00  0.00     0.016 A 
ATOM     35  C   UNL     1      -8.700  -1.726   7.306  1.00  0.00     0.016 A 
ATOM     36  C   UNL     1     -10.190   0.289   6.038  1.00  0.00     0.010 A 
ATOM     37  C   UNL     1     -10.024  -1.963   6.931  1.00  0.00     0.010 A 
ATOM     38  C   UNL     1     -10.785  -0.946   6.327  1.00  0.00    -0.014 A 
BRANCH  38  39
ATOM     39  C   UNL     1     -12.251  -1.110   6.184  1.00  0.00     0.031 A 
ATOM     40  C   UNL     1     -13.105  -0.962   7.412  1.00  0.00     0.074 A 
ATOM     41  C   UNL     1     -12.816  -1.374   4.994  1.00  0.00     0.049 A 
ATOM     42  N   UNL     1     -14.396  -1.119   7.556  1.00  0.00    -0.248 NA
ATOM     43  C   UNL     1     -12.401  -0.592   8.651  1.00  0.00     0.031 C 
ATOM     44  C   UNL     1     -12.101  -1.495   3.727  1.00  0.00     0.029 A 
ATOM     45  N   UNL     1     -14.130  -1.597   4.665  1.00  0.00    -0.354 N 
ATOM     46  C   UNL     1     -14.655  -0.879   8.899  1.00  0.00     0.074 A 
ATOM     47  C   UNL     1     -13.387  -0.599   9.534  1.00  0.00     0.031 C 
ATOM     48  C   UNL     1     -12.985  -1.782   2.755  1.00  0.00     0.029 A 
ATOM     49  C   UNL     1     -14.320  -1.902   3.340  1.00  0.00     0.049 A 
ATOM     50  H   UNL     1     -14.866  -1.545   5.317  1.00  0.00     0.167 HD
ATOM     51  C   UNL     1     -15.847  -0.885   9.543  1.00  0.00     0.037 A 
ATOM     52  C   UNL     1     -15.442  -2.260   2.685  1.00  0.00     0.037 A 
ATOM     53  C   UNL     1     -17.105  -1.170   8.906  1.00  0.00     0.049 A 
ATOM     54  C   UNL     1     -16.745  -2.343   3.441  1.00  0.00     0.074 A 
ATOM     55  C   UNL     1     -18.372  -1.178   9.463  1.00  0.00     0.029 A 
ATOM     56  N   UNL     1     -17.254  -1.512   7.569  1.00  0.00    -0.354 N 
ATOM     57  N   UNL     1     -16.991  -2.086   4.703  1.00  0.00    -0.248 NA
ATOM     58  C   UNL     1     -17.928  -2.766   2.677  1.00  0.00     0.031 C 
ATOM     59  C   UNL     1     -19.277  -1.593   8.482  1.00  0.00     0.029 A 
ATOM     60  C   UNL     1     -18.587  -1.769   7.292  1.00  0.00     0.049 A 
ATOM     61  H   UNL     1     -16.521  -1.564   6.914  1.00  0.00     0.167 HD
ATOM     62  C   UNL     1     -18.357  -2.280   4.876  1.00  0.00     0.074 A 
ATOM     63  C   UNL     1     -18.888  -2.666   3.585  1.00  0.00     0.031 C 
ATOM     64  C   UNL     1     -19.104  -2.147   6.000  1.00  0.00     0.037 A 
BRANCH  51  65
ATOM     65  C   UNL     1     -15.835  -0.618  11.021  1.00  0.00     0.064 A 
ATOM     66  C   UNL     1     -15.512   0.642  11.547  1.00  0.00     0.173 A 
ATOM     67  C   UNL     1     -16.166  -1.639  11.926  1.00  0.00     0.173 A 
ATOM     68  F   UNL     1     -15.173   1.650  10.728  1.00  0.00    -0.203 F 
ATOM     69  C   UNL     1     -15.486   0.860  12.923  1.00  0.00     0.198 A 
ATOM     70  C   UNL     1     -16.175  -1.407  13.299  1.00  0.00     0.198 A 
ATOM     71  F   UNL     1     -16.486  -2.862  11.479  1.00  0.00    -0.203 F 
ATOM     72  F   UNL     1     -15.114   2.055  13.403  1.00  0.00    -0.200 F 
ATOM     73  C   UNL     1     -15.824  -0.162  13.796  1.00  0.00     0.200 A 
ATOM     74  F   UNL     1     -16.517  -2.393  14.140  1.00  0.00    -0.200 F 
ATOM     75  F   UNL     1     -15.803   0.050  15.119  1.00  0.00    -0.200 F 
ENDBRANCH  51  65
BRANCH  52  76
ATOM     76  C   UNL     1     -15.386  -2.577   1.232  1.00  0.00     0.064 A 
ATOM     77  C   UNL     1     -16.024  -1.758   0.289  1.00  0.00     0.173 A 
ATOM     78  C   UNL     1     -14.710  -3.711   0.758  1.00  0.00     0.173 A 
ATOM     79  F   UNL     1     -16.707  -0.678   0.695  1.00  0.00    -0.203 F 
ATOM     80  C   UNL     1     -16.002  -2.071  -1.069  1.00  0.00     0.198 A 
ATOM     81  C   UNL     1     -14.662  -4.005  -0.603  1.00  0.00     0.198 A 
ATOM     82  F   UNL     1     -14.085  -4.529   1.617  1.00  0.00    -0.203 F 
ATOM     83  F   UNL     1     -16.662  -1.298  -1.942  1.00  0.00    -0.200 F 
ATOM     84  C   UNL     1     -15.315  -3.189  -1.515  1.00  0.00     0.200 A 
ATOM     85  F   UNL     1     -13.985  -5.079  -1.031  1.00  0.00    -0.200 F 
ATOM     86  F   UNL     1     -15.289  -3.486  -2.821  1.00  0.00    -0.200 F 
ENDBRANCH  52  76
BRANCH  64  87
ATOM     87  C   UNL     1     -20.586  -2.373   5.881  1.00  0.00     0.064 A 
ATOM     88  C   UNL     1     -21.128  -3.648   5.655  1.00  0.00     0.173 A 
ATOM     89  C   UNL     1     -21.481  -1.302   6.042  1.00  0.00     0.173 A 
ATOM     90  F   UNL     1     -20.319  -4.704   5.483  1.00  0.00    -0.203 F 
ATOM     91  C   UNL     1     -22.505  -3.836   5.564  1.00  0.00     0.198 A 
ATOM     92  C   UNL     1     -22.857  -1.500   5.987  1.00  0.00     0.198 A 
ATOM     93  F   UNL     1     -21.019  -0.064   6.270  1.00  0.00    -0.203 F 
ATOM     94  F   UNL     1     -22.997  -5.053   5.293  1.00  0.00    -0.200 F 
ATOM     95  C   UNL     1     -23.368  -2.764   5.739  1.00  0.00     0.200 A 
ATOM     96  F   UNL     1     -23.689  -0.467   6.176  1.00  0.00    -0.200 F 
ATOM     97  F   UNL     1     -24.693  -2.950   5.662  1.00  0.00    -0.200 F 
ENDBRANCH  64  87
ENDBRANCH  38  39
ENDBRANCH  31  33
ENDBRANCH  30  31
ENDBRANCH  29  30
ENDBRANCH  28  29
ENDBRANCH  27  28
ENDBRANCH  26  27
ENDBRANCH  25  26
ENDBRANCH  24  25
ENDBRANCH   1  24
TORSDOF 23
