REMARK SMILES CCc1cc(OC(F)(F)F)cc2c1O[C@@H](C(F)(F)F)C(C(=O)OCCOCCOCCOCCOC(=O)c1ccc(-c3c4nc(c(-c5c(F)c(F)c(F)c(F)c5F)c5ccc([nH]5)c(-c5c(F)c(F)c(F)c(F)c5F)c5nc(c(-c6c(F)c(F)c(F)c(F)c6F)c6ccc3[nH]6)C=C5)C=C4)cc1)=C2
REMARK SMILES IDX 29 1 28 2 27 3 26 4 25 5 24 6 23 7 21 8 22 9 20 10 3 11 4 12
REMARK SMILES IDX 13 13 5 14 12 15 14 16 11 17 101 18 15 19 2 20 1 21 6 22
REMARK SMILES IDX 7 23 8 24 9 25 10 26 16 27 17 28 18 29 19 30 30 31 31 32
REMARK SMILES IDX 32 33 33 34 34 35 35 36 36 37 37 38 38 39 39 40 100 41 40 42
REMARK SMILES IDX 99 43 41 44 42 45 43 46 93 47 44 48 98 49 92 50 94 51 45 52
REMARK SMILES IDX 97 53 91 54 90 55 46 57 78 58 58 59 77 60 59 61 62 62 76 63
REMARK SMILES IDX 95 64 60 65 61 66 75 68 96 69 63 70 47 71 48 72 56 73 49 74
REMARK SMILES IDX 50 75 54 76 57 77 51 78 52 79 55 80 53 81 79 82 80 83 88 84
REMARK SMILES IDX 81 85 82 86 86 87 89 88 83 89 84 90 87 91 85 92 64 93 65 94
REMARK SMILES IDX 73 95 66 96 67 97 71 98 74 99 68 100 69 101 72 102 70 103
REMARK H PARENT 94 56 62 67
REMARK Flexibility Score: inf
ROOT
ATOM      1  O   UNL     1       5.283  -0.952   6.646  1.00  0.00    -0.377 OA
ENDROOT
BRANCH   1   2
ATOM      2  C   UNL     1       4.997  -0.052   5.592  1.00  0.00     0.188 C 
BRANCH   2   3
ATOM      3  C   UNL     1       4.614   1.393   5.950  1.00  0.00     0.188 C 
BRANCH   3   4
ATOM      4  O   UNL     1       4.538   1.659   7.347  1.00  0.00    -0.376 OA
BRANCH   4   5
ATOM      5  C   UNL     1       3.235   1.918   7.856  1.00  0.00     0.202 C 
BRANCH   5   6
ATOM      6  C   UNL     1       2.422   0.640   8.084  1.00  0.00     0.261 C 
BRANCH   6   7
ATOM      7  O   UNL     1       2.164  -0.096   6.877  1.00  0.00    -0.460 OA
BRANCH   7   8
ATOM      8  C   UNL     1       1.348   0.494   5.977  1.00  0.00     0.338 C 
ATOM      9  O   UNL     1       0.763   1.553   6.121  1.00  0.00    -0.246 OA
BRANCH   8  10
ATOM     10  C   UNL     1       1.367  -0.268   4.720  1.00  0.00     0.087 C 
ATOM     11  C   UNL     1       0.730  -2.184   1.061  1.00  0.00    -0.002 A 
ATOM     12  C   UNL     1       0.780  -3.593   1.025  1.00  0.00     0.054 A 
ATOM     13  C   UNL     1       0.929  -1.556   2.295  1.00  0.00     0.131 A 
ATOM     14  C   UNL     1       1.031  -4.347   2.177  1.00  0.00     0.130 A 
ATOM     15  C   UNL     1       1.179  -2.301   3.462  1.00  0.00     0.021 A 
ATOM     16  O   UNL     1       0.787  -0.194   2.364  1.00  0.00    -0.475 OA
ATOM     17  C   UNL     1       1.252  -3.692   3.391  1.00  0.00     0.058 A 
ATOM     18  C   UNL     1       1.238  -1.606   4.749  1.00  0.00     0.027 C 
ATOM     19  C   UNL     1       1.575   0.438   3.404  1.00  0.00     0.316 C 
BRANCH  11  20
ATOM     20  C   UNL     1       0.366  -1.464  -0.223  1.00  0.00     0.036 C 
ATOM     21  C   UNL     1       0.879  -0.043  -0.426  1.00  0.00     0.009 C 
ENDBRANCH  11  20
BRANCH  14  22
ATOM     22  O   UNL     1       1.073  -5.711   2.249  1.00  0.00    -0.406 OA
BRANCH  22  23
ATOM     23  C   UNL     1       0.480  -6.437   1.183  1.00  0.00     0.573 C 
ATOM     24  F   UNL     1      -0.782  -6.019   0.944  1.00  0.00    -0.132 F 
ATOM     25  F   UNL     1       1.214  -6.323   0.056  1.00  0.00    -0.132 F 
ATOM     26  F   UNL     1       0.431  -7.744   1.522  1.00  0.00    -0.132 F 
ENDBRANCH  22  23
ENDBRANCH  14  22
BRANCH  19  27
ATOM     27  C   UNL     1       1.348   1.956   3.311  1.00  0.00     0.430 C 
ATOM     28  F   UNL     1       2.186   2.640   4.125  1.00  0.00    -0.167 F 
ATOM     29  F   UNL     1       1.629   2.388   2.052  1.00  0.00    -0.167 F 
ATOM     30  F   UNL     1       0.082   2.324   3.584  1.00  0.00    -0.167 F 
ENDBRANCH  19  27
ENDBRANCH   8  10
ENDBRANCH   7   8
ENDBRANCH   6   7
ENDBRANCH   5   6
ENDBRANCH   4   5
ENDBRANCH   3   4
ENDBRANCH   2   3
ENDBRANCH   1   2
BRANCH   1  31
ATOM     31  C   UNL     1       6.185  -0.559   7.674  1.00  0.00     0.188 C 
BRANCH  31  32
ATOM     32  C   UNL     1       7.237   0.547   7.444  1.00  0.00     0.188 C 
BRANCH  32  33
ATOM     33  O   UNL     1       7.548   0.805   6.081  1.00  0.00    -0.376 OA
BRANCH  33  34
ATOM     34  C   UNL     1       8.838   0.397   5.646  1.00  0.00     0.202 C 
BRANCH  34  35
ATOM     35  C   UNL     1       8.925  -1.105   5.358  1.00  0.00     0.261 C 
BRANCH  35  36
ATOM     36  O   UNL     1       8.739  -1.941   6.511  1.00  0.00    -0.460 OA
BRANCH  36  37
ATOM     37  C   UNL     1       9.636  -1.803   7.512  1.00  0.00     0.338 C 
ATOM     38  O   UNL     1      10.622  -1.090   7.534  1.00  0.00    -0.246 OA
BRANCH  37  39
ATOM     39  C   UNL     1       9.118  -2.536   8.681  1.00  0.00     0.060 A 
ATOM     40  C   UNL     1       8.947  -1.845   9.887  1.00  0.00     0.016 A 
ATOM     41  C   UNL     1       8.795  -3.892   8.582  1.00  0.00     0.016 A 
ATOM     42  C   UNL     1       8.486  -2.523  11.014  1.00  0.00     0.010 A 
ATOM     43  C   UNL     1       8.353  -4.574   9.716  1.00  0.00     0.010 A 
ATOM     44  C   UNL     1       8.232  -3.900  10.943  1.00  0.00    -0.014 A 
BRANCH  44  45
ATOM     45  C   UNL     1       8.059  -4.674  12.192  1.00  0.00     0.031 A 
ATOM     46  C   UNL     1       9.280  -5.296  12.810  1.00  0.00     0.074 A 
ATOM     47  C   UNL     1       6.856  -4.811  12.774  1.00  0.00     0.049 A 
ATOM     48  N   UNL     1       9.388  -6.023  13.892  1.00  0.00    -0.248 NA
ATOM     49  C   UNL     1      10.554  -5.066  12.109  1.00  0.00     0.031 C 
ATOM     50  C   UNL     1       5.607  -4.235  12.283  1.00  0.00     0.029 A 
ATOM     51  N   UNL     1       6.494  -5.491  13.909  1.00  0.00    -0.354 N 
ATOM     52  C   UNL     1      10.737  -6.330  14.002  1.00  0.00     0.074 A 
ATOM     53  C   UNL     1      11.405  -5.744  12.862  1.00  0.00     0.031 C 
ATOM     54  C   UNL     1       4.609  -4.596  13.110  1.00  0.00     0.029 A 
ATOM     55  C   UNL     1       5.148  -5.444  14.172  1.00  0.00     0.049 A 
ATOM     56  H   UNL     1       7.138  -5.967  14.481  1.00  0.00     0.167 HD
ATOM     57  C   UNL     1      11.366  -7.030  14.975  1.00  0.00     0.037 A 
ATOM     58  C   UNL     1       4.437  -6.034  15.153  1.00  0.00     0.037 A 
ATOM     59  C   UNL     1      10.701  -7.625  16.102  1.00  0.00     0.049 A 
ATOM     60  C   UNL     1       5.152  -6.870  16.185  1.00  0.00     0.074 A 
ATOM     61  C   UNL     1      11.251  -8.339  17.151  1.00  0.00     0.029 A 
ATOM     62  N   UNL     1       9.332  -7.583  16.318  1.00  0.00    -0.354 N 
ATOM     63  N   UNL     1       6.433  -7.120  16.309  1.00  0.00    -0.248 NA
ATOM     64  C   UNL     1       4.318  -7.504  17.218  1.00  0.00     0.031 C 
ATOM     65  C   UNL     1      10.208  -8.771  17.977  1.00  0.00     0.029 A 
ATOM     66  C   UNL     1       9.014  -8.283  17.470  1.00  0.00     0.049 A 
ATOM     67  H   UNL     1       8.681  -7.124  15.738  1.00  0.00     0.167 HD
ATOM     68  C   UNL     1       6.562  -7.913  17.443  1.00  0.00     0.074 A 
ATOM     69  C   UNL     1       5.229  -8.092  17.980  1.00  0.00     0.031 C 
ATOM     70  C   UNL     1       7.681  -8.447  17.991  1.00  0.00     0.037 A 
BRANCH  57  71
ATOM     71  C   UNL     1      12.848  -7.206  14.844  1.00  0.00     0.064 A 
ATOM     72  C   UNL     1      13.735  -6.138  15.052  1.00  0.00     0.173 A 
ATOM     73  C   UNL     1      13.389  -8.459  14.522  1.00  0.00     0.173 A 
ATOM     74  F   UNL     1      13.265  -4.916  15.342  1.00  0.00    -0.203 F 
ATOM     75  C   UNL     1      15.110  -6.315  14.919  1.00  0.00     0.198 A 
ATOM     76  C   UNL     1      14.766  -8.638  14.416  1.00  0.00     0.198 A 
ATOM     77  F   UNL     1      12.583  -9.510  14.312  1.00  0.00    -0.203 F 
ATOM     78  F   UNL     1      15.936  -5.272  15.076  1.00  0.00    -0.200 F 
ATOM     79  C   UNL     1      15.624  -7.565  14.608  1.00  0.00     0.200 A 
ATOM     80  F   UNL     1      15.262  -9.848  14.123  1.00  0.00    -0.200 F 
ATOM     81  F   UNL     1      16.948  -7.734  14.484  1.00  0.00    -0.200 F 
ENDBRANCH  57  71
BRANCH  58  82
ATOM     82  C   UNL     1       2.962  -5.864  15.210  1.00  0.00     0.064 A 
ATOM     83  C   UNL     1       2.357  -5.131  16.241  1.00  0.00     0.173 A 
ATOM     84  C   UNL     1       2.125  -6.458  14.254  1.00  0.00     0.173 A 
ATOM     85  F   UNL     1       3.114  -4.569  17.195  1.00  0.00    -0.203 F 
ATOM     86  C   UNL     1       0.971  -5.014  16.324  1.00  0.00     0.198 A 
ATOM     87  C   UNL     1       0.741  -6.318  14.323  1.00  0.00     0.198 A 
ATOM     88  F   UNL     1       2.653  -7.174  13.251  1.00  0.00    -0.203 F 
ATOM     89  F   UNL     1       0.417  -4.348  17.346  1.00  0.00    -0.200 F 
ATOM     90  C   UNL     1       0.164  -5.603  15.362  1.00  0.00     0.200 A 
ATOM     91  F   UNL     1      -0.035  -6.882  13.387  1.00  0.00    -0.200 F 
ATOM     92  F   UNL     1      -1.169  -5.492  15.443  1.00  0.00    -0.200 F 
ENDBRANCH  58  82
BRANCH  70  93
ATOM     93  C   UNL     1       7.520  -9.249  19.250  1.00  0.00     0.064 A 
ATOM     94  C   UNL     1       6.945 -10.528  19.238  1.00  0.00     0.173 A 
ATOM     95  C   UNL     1       7.989  -8.750  20.475  1.00  0.00     0.173 A 
ATOM     96  F   UNL     1       6.469 -11.043  18.094  1.00  0.00    -0.203 F 
ATOM     97  C   UNL     1       6.823 -11.268  20.411  1.00  0.00     0.198 A 
ATOM     98  C   UNL     1       7.892  -9.505  21.640  1.00  0.00     0.198 A 
ATOM     99  F   UNL     1       8.556  -7.536  20.538  1.00  0.00    -0.203 F 
ATOM    100  F   UNL     1       6.229 -12.469  20.384  1.00  0.00    -0.200 F 
ATOM    101  C   UNL     1       7.303 -10.759  21.609  1.00  0.00     0.200 A 
ATOM    102  F   UNL     1       8.369  -9.018  22.794  1.00  0.00    -0.200 F 
ATOM    103  F   UNL     1       7.191 -11.477  22.735  1.00  0.00    -0.200 F 
ENDBRANCH  70  93
ENDBRANCH  44  45
ENDBRANCH  37  39
ENDBRANCH  36  37
ENDBRANCH  35  36
ENDBRANCH  34  35
ENDBRANCH  33  34
ENDBRANCH  32  33
ENDBRANCH  31  32
ENDBRANCH   1  31
TORSDOF 24
