REMARK SMILES O=C(OCCOCCOCCOCCOC(=O)[C@@H]1[C@H](C(=O)NCc2ccncc2)[C@H]2C=C[C@@H]1O2)c1ccc(-c2c3nc(c(-c4c(F)c(F)c(F)c(F)c4F)c4ccc([nH]4)c(-c4c(F)c(F)c(F)c(F)c4F)c4nc(c(-c5c(F)c(F)c(F)c(F)c5F)c5ccc2[nH]5)C=C4)C=C3)cc1
REMARK SMILES IDX 10 1 9 2 8 3 7 4 6 5 5 6 4 7 3 8 2 9 1 10 35 11 36 12 97 13
REMARK SMILES IDX 37 14 96 15 38 16 39 17 40 18 90 19 41 20 95 21 89 22 91 23
REMARK SMILES IDX 42 24 94 25 88 26 87 27 43 29 75 30 55 31 74 32 56 33 59 34
REMARK SMILES IDX 73 35 92 36 57 37 58 38 72 40 93 41 60 42 44 43 45 44 53 45
REMARK SMILES IDX 46 46 47 47 51 48 54 49 48 50 49 51 52 52 50 53 76 54 77 55
REMARK SMILES IDX 85 56 78 57 79 58 83 59 86 60 80 61 81 62 84 63 82 64 61 65
REMARK SMILES IDX 62 66 70 67 63 68 64 69 68 70 71 71 65 72 66 73 69 74 67 75
REMARK SMILES IDX 11 76 12 77 13 78 14 79 15 80 16 81 17 82 18 83 19 84 33 85
REMARK SMILES IDX 30 86 32 87 34 88 31 89 20 90 21 91 22 92 23 94 24 95 25 96
REMARK SMILES IDX 29 97 26 98 28 99 27 100
REMARK H PARENT 91 28 59 39 22 93
REMARK Flexibility Score: inf
ROOT
ATOM      1  C   UNL     1       4.986   1.119   3.400  1.00  0.00     0.188 C 
ENDROOT
BRANCH   1   2
ATOM      2  O   UNL     1       3.976   1.683   2.581  1.00  0.00    -0.377 OA
BRANCH   2   3
ATOM      3  C   UNL     1       2.793   0.910   2.466  1.00  0.00     0.188 C 
BRANCH   3   4
ATOM      4  C   UNL     1       2.794   0.136   1.165  1.00  0.00     0.188 C 
BRANCH   4   5
ATOM      5  O   UNL     1       4.100  -0.119   0.669  1.00  0.00    -0.376 OA
BRANCH   5   6
ATOM      6  C   UNL     1       4.815   0.967   0.090  1.00  0.00     0.202 C 
BRANCH   6   7
ATOM      7  C   UNL     1       4.228   1.585  -1.175  1.00  0.00     0.261 C 
BRANCH   7   8
ATOM      8  O   UNL     1       2.978   1.097  -1.713  1.00  0.00    -0.460 OA
BRANCH   8   9
ATOM      9  C   UNL     1       2.470  -0.067  -2.163  1.00  0.00     0.338 C 
ATOM     10  O   UNL     1       1.321  -0.054  -2.608  1.00  0.00    -0.246 OA
BRANCH   9  11
ATOM     11  C   UNL     1       3.154  -1.389  -2.098  1.00  0.00     0.060 A 
ATOM     12  C   UNL     1       4.428  -1.584  -1.591  1.00  0.00     0.016 A 
ATOM     13  C   UNL     1       2.451  -2.526  -2.541  1.00  0.00     0.016 A 
ATOM     14  C   UNL     1       4.927  -2.844  -1.323  1.00  0.00     0.010 A 
ATOM     15  C   UNL     1       3.006  -3.805  -2.428  1.00  0.00     0.010 A 
ATOM     16  C   UNL     1       4.243  -3.955  -1.795  1.00  0.00    -0.014 A 
BRANCH  16  17
ATOM     17  C   UNL     1       5.044  -5.182  -1.871  1.00  0.00     0.031 A 
ATOM     18  C   UNL     1       5.877  -5.358  -3.104  1.00  0.00     0.074 A 
ATOM     19  C   UNL     1       5.206  -5.944  -0.778  1.00  0.00     0.049 A 
ATOM     20  N   UNL     1       6.681  -6.328  -3.434  1.00  0.00    -0.248 NA
ATOM     21  C   UNL     1       5.832  -4.256  -4.087  1.00  0.00     0.031 C 
ATOM     22  C   UNL     1       4.604  -5.681   0.531  1.00  0.00     0.029 A 
ATOM     23  N   UNL     1       5.957  -7.069  -0.583  1.00  0.00    -0.354 N 
ATOM     24  C   UNL     1       7.213  -5.966  -4.664  1.00  0.00     0.074 A 
ATOM     25  C   UNL     1       6.669  -4.678  -5.018  1.00  0.00     0.031 C 
ATOM     26  C   UNL     1       4.995  -6.636   1.391  1.00  0.00     0.029 A 
ATOM     27  C   UNL     1       5.816  -7.605   0.674  1.00  0.00     0.049 A 
ATOM     28  H   UNL     1       6.540  -7.457  -1.274  1.00  0.00     0.167 HD
ATOM     29  C   UNL     1       8.063  -6.677  -5.435  1.00  0.00     0.037 A 
ATOM     30  C   UNL     1       6.265  -8.783   1.145  1.00  0.00     0.037 A 
ATOM     31  C   UNL     1       8.558  -7.966  -5.046  1.00  0.00     0.049 A 
ATOM     32  C   UNL     1       7.073  -9.638   0.199  1.00  0.00     0.074 A 
ATOM     33  C   UNL     1       9.335  -8.852  -5.763  1.00  0.00     0.029 A 
ATOM     34  N   UNL     1       8.302  -8.551  -3.811  1.00  0.00    -0.354 N 
ATOM     35  N   UNL     1       7.497  -9.358  -1.013  1.00  0.00    -0.248 NA
ATOM     36  C   UNL     1       7.450 -10.974   0.670  1.00  0.00     0.031 C 
ATOM     37  C   UNL     1       9.496 -10.002  -4.984  1.00  0.00     0.029 A 
ATOM     38  C   UNL     1       8.880  -9.803  -3.755  1.00  0.00     0.049 A 
ATOM     39  H   UNL     1       7.785  -8.134  -3.084  1.00  0.00     0.167 HD
ATOM     40  C   UNL     1       8.209 -10.468  -1.439  1.00  0.00     0.074 A 
ATOM     41  C   UNL     1       8.178 -11.419  -0.344  1.00  0.00     0.031 C 
ATOM     42  C   UNL     1       8.829 -10.697  -2.624  1.00  0.00     0.037 A 
BRANCH  29  43
ATOM     43  C   UNL     1       8.383  -6.128  -6.792  1.00  0.00     0.064 A 
ATOM     44  C   UNL     1       9.219  -5.017  -6.977  1.00  0.00     0.173 A 
ATOM     45  C   UNL     1       7.801  -6.708  -7.929  1.00  0.00     0.173 A 
ATOM     46  F   UNL     1       9.765  -4.399  -5.920  1.00  0.00    -0.203 F 
ATOM     47  C   UNL     1       9.447  -4.498  -8.251  1.00  0.00     0.198 A 
ATOM     48  C   UNL     1       8.050  -6.203  -9.202  1.00  0.00     0.198 A 
ATOM     49  F   UNL     1       6.975  -7.758  -7.805  1.00  0.00    -0.203 F 
ATOM     50  F   UNL     1      10.204  -3.403  -8.401  1.00  0.00    -0.200 F 
ATOM     51  C   UNL     1       8.868  -5.095  -9.361  1.00  0.00     0.200 A 
ATOM     52  F   UNL     1       7.487  -6.780 -10.272  1.00  0.00    -0.200 F 
ATOM     53  F   UNL     1       9.085  -4.593 -10.585  1.00  0.00    -0.200 F 
ENDBRANCH  29  43
BRANCH  30  54
ATOM     54  C   UNL     1       5.885  -9.266   2.502  1.00  0.00     0.064 A 
ATOM     55  C   UNL     1       6.851  -9.569   3.471  1.00  0.00     0.173 A 
ATOM     56  C   UNL     1       4.540  -9.504   2.836  1.00  0.00     0.173 A 
ATOM     57  F   UNL     1       8.151  -9.382   3.203  1.00  0.00    -0.203 F 
ATOM     58  C   UNL     1       6.492 -10.126   4.700  1.00  0.00     0.198 A 
ATOM     59  C   UNL     1       4.181 -10.025   4.078  1.00  0.00     0.198 A 
ATOM     60  F   UNL     1       3.568  -9.242   1.950  1.00  0.00    -0.203 F 
ATOM     61  F   UNL     1       7.444 -10.473   5.578  1.00  0.00    -0.200 F 
ATOM     62  C   UNL     1       5.158 -10.351   5.003  1.00  0.00     0.200 A 
ATOM     63  F   UNL     1       2.889 -10.228   4.368  1.00  0.00    -0.200 F 
ATOM     64  F   UNL     1       4.817 -10.898   6.178  1.00  0.00    -0.200 F 
ENDBRANCH  30  54
BRANCH  42  65
ATOM     65  C   UNL     1       9.558 -11.997  -2.766  1.00  0.00     0.064 A 
ATOM     66  C   UNL     1       8.874 -13.213  -2.900  1.00  0.00     0.173 A 
ATOM     67  C   UNL     1      10.959 -12.011  -2.836  1.00  0.00     0.173 A 
ATOM     68  F   UNL     1       7.535 -13.247  -2.826  1.00  0.00    -0.203 F 
ATOM     69  C   UNL     1       9.570 -14.403  -3.074  1.00  0.00     0.198 A 
ATOM     70  C   UNL     1      11.649 -13.198  -3.049  1.00  0.00     0.198 A 
ATOM     71  F   UNL     1      11.654 -10.869  -2.724  1.00  0.00    -0.203 F 
ATOM     72  F   UNL     1       8.902 -15.562  -3.151  1.00  0.00    -0.200 F 
ATOM     73  C   UNL     1      10.955 -14.393  -3.160  1.00  0.00     0.200 A 
ATOM     74  F   UNL     1      12.985 -13.183  -3.154  1.00  0.00    -0.200 F 
ATOM     75  F   UNL     1      11.623 -15.539  -3.347  1.00  0.00    -0.200 F 
ENDBRANCH  42  65
ENDBRANCH  16  17
ENDBRANCH   9  11
ENDBRANCH   8   9
ENDBRANCH   7   8
ENDBRANCH   6   7
ENDBRANCH   5   6
ENDBRANCH   4   5
ENDBRANCH   3   4
ENDBRANCH   2   3
ENDBRANCH   1   2
BRANCH   1  76
ATOM     76  C   UNL     1       5.839  -0.127   3.119  1.00  0.00     0.188 C 
BRANCH  76  77
ATOM     77  O   UNL     1       5.304  -1.432   2.994  1.00  0.00    -0.376 OA
BRANCH  77  78
ATOM     78  C   UNL     1       4.232  -1.945   3.766  1.00  0.00     0.202 C 
BRANCH  78  79
ATOM     79  C   UNL     1       4.220  -1.792   5.291  1.00  0.00     0.261 C 
BRANCH  79  80
ATOM     80  O   UNL     1       3.986  -0.430   5.712  1.00  0.00    -0.463 OA
BRANCH  80  81
ATOM     81  C   UNL     1       4.968   0.131   6.456  1.00  0.00     0.312 C 
ATOM     82  O   UNL     1       5.924  -0.492   6.891  1.00  0.00    -0.252 OA
BRANCH  81  83
ATOM     83  C   UNL     1       4.872   1.636   6.685  1.00  0.00     0.147 C 
ATOM     84  C   UNL     1       4.455   1.964   8.121  1.00  0.00     0.128 C 
ATOM     85  C   UNL     1       4.088   2.739   5.912  1.00  0.00     0.157 C 
ATOM     86  C   UNL     1       3.864   3.368   7.977  1.00  0.00     0.155 C 
ATOM     87  C   UNL     1       4.903   3.996   6.029  1.00  0.00     0.004 C 
ATOM     88  O   UNL     1       3.029   3.140   6.827  1.00  0.00    -0.365 OA
ATOM     89  C   UNL     1       4.816   4.348   7.324  1.00  0.00     0.004 C 
BRANCH  84  90
ATOM     90  C   UNL     1       3.518   0.931   8.759  1.00  0.00     0.227 C 
ATOM     91  O   UNL     1       3.830   0.476   9.867  1.00  0.00    -0.275 OA
ATOM     92  N   UNL     1       2.380   0.414   8.215  1.00  0.00    -0.352 N 
ATOM     93  H   UNL     1       2.054  -0.385   8.690  1.00  0.00     0.163 HD
BRANCH  92  94
ATOM     94  C   UNL     1       1.539   0.788   7.083  1.00  0.00     0.151 C 
BRANCH  94  95
ATOM     95  C   UNL     1       0.870  -0.330   6.313  1.00  0.00    -0.026 A 
ATOM     96  C   UNL     1       0.249  -0.001   5.094  1.00  0.00     0.025 A 
ATOM     97  C   UNL     1       0.885  -1.673   6.688  1.00  0.00     0.025 A 
ATOM     98  C   UNL     1      -0.265  -1.010   4.295  1.00  0.00     0.111 A 
ATOM     99  C   UNL     1       0.341  -2.613   5.820  1.00  0.00     0.111 A 
ATOM    100  N   UNL     1      -0.214  -2.313   4.626  1.00  0.00    -0.265 NA
ENDBRANCH  94  95
ENDBRANCH  92  94
ENDBRANCH  84  90
ENDBRANCH  81  83
ENDBRANCH  80  81
ENDBRANCH  79  80
ENDBRANCH  78  79
ENDBRANCH  77  78
ENDBRANCH  76  77
ENDBRANCH   1  76
TORSDOF 23
