REMARK SMILES Cc1cc(C)c(C(N)=O)c(N[C@H]2C=C[C@H](C(=O)OCCOCCOCCOCCOC(=O)c3ccc(-c4c5nc(c(-c6c(F)c(F)c(F)c(F)c6F)c6ccc([nH]6)c(-c6c(F)c(F)c(F)c(F)c6F)c6nc(c(-c7c(F)c(F)c(F)c(F)c7F)c7ccc4[nH]7)C=C6)C=C5)cc3)C2)n1
REMARK SMILES IDX 23 1 22 2 21 3 20 4 19 5 18 6 16 7 17 8 15 9 12 10 13 11
REMARK SMILES IDX 96 12 14 13 11 14 10 16 1 17 2 18 3 19 97 20 4 21 5 22 6 23
REMARK SMILES IDX 7 24 8 25 9 26 24 29 25 30 26 31 27 32 28 33 29 34 30 35
REMARK SMILES IDX 31 36 32 37 33 38 34 39 95 40 35 41 94 42 36 43 37 44 38 45
REMARK SMILES IDX 88 46 39 47 93 48 87 49 89 50 40 51 92 52 86 53 85 54 41 56
REMARK SMILES IDX 73 57 53 58 72 59 54 60 57 61 71 62 90 63 55 64 56 65 70 67
REMARK SMILES IDX 91 68 58 69 42 70 43 71 51 72 44 73 45 74 49 75 52 76 46 77
REMARK SMILES IDX 47 78 50 79 48 80 74 81 75 82 83 83 76 84 77 85 81 86 84 87
REMARK SMILES IDX 78 88 79 89 82 90 80 91 59 92 60 93 68 94 61 95 62 96 66 97
REMARK SMILES IDX 69 98 63 99 64 100 67 101 65 102
REMARK H PARENT 11 15 8 27 8 28 89 55 57 66
REMARK Flexibility Score: inf
ROOT
ATOM      1  C   UNL     1      -5.181  -3.167  -3.177  1.00  0.00     0.188 C 
ENDROOT
BRANCH   1   2
ATOM      2  C   UNL     1      -4.618  -4.592  -3.340  1.00  0.00     0.188 C 
BRANCH   2   3
ATOM      3  O   UNL     1      -5.591  -5.588  -3.579  1.00  0.00    -0.376 OA
BRANCH   3   4
ATOM      4  C   UNL     1      -6.208  -6.306  -2.524  1.00  0.00     0.202 C 
BRANCH   4   5
ATOM      5  C   UNL     1      -6.367  -5.831  -1.065  1.00  0.00     0.261 C 
BRANCH   5   6
ATOM      6  O   UNL     1      -5.664  -4.657  -0.676  1.00  0.00    -0.463 OA
BRANCH   6   7
ATOM      7  C   UNL     1      -4.457  -4.815  -0.080  1.00  0.00     0.312 C 
ATOM      8  O   UNL     1      -3.940  -5.890   0.192  1.00  0.00    -0.252 OA
BRANCH   7   9
ATOM      9  C   UNL     1      -3.788  -3.455   0.062  1.00  0.00     0.124 C 
ATOM     10  C   UNL     1      -1.398  -3.723   0.338  1.00  0.00     0.104 C 
ATOM     11  C   UNL     1      -2.045  -3.316   1.620  1.00  0.00    -0.006 C 
ATOM     12  C   UNL     1      -2.465  -3.452  -0.718  1.00  0.00     0.048 C 
ATOM     13  C   UNL     1      -3.368  -3.182   1.472  1.00  0.00    -0.014 C 
BRANCH  10  14
ATOM     14  N   UNL     1      -0.143  -3.057   0.066  1.00  0.00    -0.363 N 
ATOM     15  H   UNL     1       0.641  -3.618  -0.134  1.00  0.00     0.162 HD
BRANCH  14  16
ATOM     16  C   UNL     1       0.029  -1.677   0.069  1.00  0.00     0.139 A 
ATOM     17  C   UNL     1      -2.282   1.191   0.076  1.00  0.00     0.067 C 
ATOM     18  C   UNL     1      -0.997   0.422   0.095  1.00  0.00     0.040 A 
ATOM     19  C   UNL     1       0.224   1.069   0.061  1.00  0.00     0.028 A 
ATOM     20  N   UNL     1      -1.090  -0.919   0.128  1.00  0.00    -0.236 NA
ATOM     21  C   UNL     1       1.407   0.315   0.041  1.00  0.00    -0.033 A 
ATOM     22  C   UNL     1       2.693   1.093   0.037  1.00  0.00     0.045 C 
ATOM     23  C   UNL     1       1.312  -1.094   0.013  1.00  0.00     0.084 A 
BRANCH  23  24
ATOM     24  C   UNL     1       2.535  -1.949  -0.122  1.00  0.00     0.252 C 
ATOM     25  N   UNL     1       2.503  -3.205   0.424  1.00  0.00    -0.365 N 
ATOM     26  O   UNL     1       3.540  -1.579  -0.717  1.00  0.00    -0.269 OA
ATOM     27  H   UNL     1       1.701  -3.512   0.905  1.00  0.00     0.159 HD
ATOM     28  H   UNL     1       3.283  -3.800   0.336  1.00  0.00     0.159 HD
ENDBRANCH  23  24
ENDBRANCH  14  16
ENDBRANCH  10  14
ENDBRANCH   7   9
ENDBRANCH   6   7
ENDBRANCH   5   6
ENDBRANCH   4   5
ENDBRANCH   3   4
ENDBRANCH   2   3
ENDBRANCH   1   2
BRANCH   1  29
ATOM     29  O   UNL     1      -6.521  -3.135  -2.718  1.00  0.00    -0.377 OA
BRANCH  29  30
ATOM     30  C   UNL     1      -7.564  -3.333  -3.671  1.00  0.00     0.188 C 
BRANCH  30  31
ATOM     31  C   UNL     1      -7.303  -3.959  -5.064  1.00  0.00     0.188 C 
BRANCH  31  32
ATOM     32  O   UNL     1      -6.063  -3.601  -5.656  1.00  0.00    -0.376 OA
BRANCH  32  33
ATOM     33  C   UNL     1      -6.063  -2.671  -6.724  1.00  0.00     0.202 C 
BRANCH  33  34
ATOM     34  C   UNL     1      -6.461  -1.230  -6.377  1.00  0.00     0.261 C 
BRANCH  34  35
ATOM     35  O   UNL     1      -7.739  -1.072  -5.742  1.00  0.00    -0.460 OA
BRANCH  35  36
ATOM     36  C   UNL     1      -8.827  -1.440  -6.448  1.00  0.00     0.338 C 
ATOM     37  O   UNL     1      -8.858  -1.863  -7.593  1.00  0.00    -0.246 OA
BRANCH  36  38
ATOM     38  C   UNL     1      -9.986  -1.427  -5.534  1.00  0.00     0.060 A 
ATOM     39  C   UNL     1     -10.714  -2.609  -5.341  1.00  0.00     0.016 A 
ATOM     40  C   UNL     1     -10.354  -0.251  -4.877  1.00  0.00     0.016 A 
ATOM     41  C   UNL     1     -11.849  -2.604  -4.532  1.00  0.00     0.010 A 
ATOM     42  C   UNL     1     -11.503  -0.242  -4.083  1.00  0.00     0.010 A 
ATOM     43  C   UNL     1     -12.280  -1.406  -3.946  1.00  0.00    -0.014 A 
BRANCH  43  44
ATOM     44  C   UNL     1     -13.657  -1.311  -3.406  1.00  0.00     0.031 A 
ATOM     45  C   UNL     1     -14.721  -0.721  -4.291  1.00  0.00     0.074 A 
ATOM     46  C   UNL     1     -13.968  -1.755  -2.176  1.00  0.00     0.049 A 
ATOM     47  N   UNL     1     -15.979  -0.470  -4.034  1.00  0.00    -0.248 NA
ATOM     48  C   UNL     1     -14.303  -0.358  -5.656  1.00  0.00     0.031 C 
ATOM     49  C   UNL     1     -13.039  -2.390  -1.245  1.00  0.00     0.029 A 
ATOM     50  N   UNL     1     -15.162  -1.726  -1.498  1.00  0.00    -0.354 N 
ATOM     51  C   UNL     1     -16.495   0.088  -5.197  1.00  0.00     0.074 A 
ATOM     52  C   UNL     1     -15.410   0.173  -6.148  1.00  0.00     0.031 C 
ATOM     53  C   UNL     1     -13.695  -2.679  -0.107  1.00  0.00     0.029 A 
ATOM     54  C   UNL     1     -15.079  -2.216  -0.219  1.00  0.00     0.049 A 
ATOM     55  H   UNL     1     -15.997  -1.386  -1.892  1.00  0.00     0.167 HD
ATOM     56  C   UNL     1     -17.764   0.485  -5.452  1.00  0.00     0.037 A 
ATOM     57  C   UNL     1     -16.010  -2.259   0.755  1.00  0.00     0.037 A 
ATOM     58  C   UNL     1     -18.840   0.399  -4.501  1.00  0.00     0.049 A 
ATOM     59  C   UNL     1     -17.397  -1.735   0.474  1.00  0.00     0.074 A 
ATOM     60  C   UNL     1     -20.165   0.762  -4.663  1.00  0.00     0.029 A 
ATOM     61  N   UNL     1     -18.711  -0.076  -3.204  1.00  0.00    -0.354 N 
ATOM     62  N   UNL     1     -17.887  -1.228  -0.632  1.00  0.00    -0.248 NA
ATOM     63  C   UNL     1     -18.365  -1.794   1.579  1.00  0.00     0.031 C 
ATOM     64  C   UNL     1     -20.823   0.567  -3.445  1.00  0.00     0.029 A 
ATOM     65  C   UNL     1     -19.927   0.011  -2.546  1.00  0.00     0.049 A 
ATOM     66  H   UNL     1     -17.878  -0.424  -2.810  1.00  0.00     0.167 HD
ATOM     67  C   UNL     1     -19.223  -0.947  -0.369  1.00  0.00     0.074 A 
ATOM     68  C   UNL     1     -19.470  -1.349   0.999  1.00  0.00     0.031 C 
ATOM     69  C   UNL     1     -20.161  -0.409  -1.187  1.00  0.00     0.037 A 
BRANCH  56  70
ATOM     70  C   UNL     1     -18.047   1.081  -6.801  1.00  0.00     0.064 A 
ATOM     71  C   UNL     1     -18.020   0.310  -7.973  1.00  0.00     0.173 A 
ATOM     72  C   UNL     1     -18.372   2.441  -6.919  1.00  0.00     0.173 A 
ATOM     73  F   UNL     1     -17.698  -0.992  -7.919  1.00  0.00    -0.203 F 
ATOM     74  C   UNL     1     -18.280   0.884  -9.215  1.00  0.00     0.198 A 
ATOM     75  C   UNL     1     -18.666   3.004  -8.158  1.00  0.00     0.198 A 
ATOM     76  F   UNL     1     -18.413   3.224  -5.831  1.00  0.00    -0.203 F 
ATOM     77  F   UNL     1     -18.194   0.141 -10.327  1.00  0.00    -0.200 F 
ATOM     78  C   UNL     1     -18.610   2.228  -9.305  1.00  0.00     0.200 A 
ATOM     79  F   UNL     1     -18.999   4.299  -8.241  1.00  0.00    -0.200 F 
ATOM     80  F   UNL     1     -18.868   2.778 -10.500  1.00  0.00    -0.200 F 
ENDBRANCH  56  70
BRANCH  57  81
ATOM     81  C   UNL     1     -15.665  -2.804   2.095  1.00  0.00     0.064 A 
ATOM     82  C   UNL     1     -16.256  -3.983   2.573  1.00  0.00     0.173 A 
ATOM     83  C   UNL     1     -14.762  -2.142   2.941  1.00  0.00     0.173 A 
ATOM     84  F   UNL     1     -17.146  -4.640   1.815  1.00  0.00    -0.203 F 
ATOM     85  C   UNL     1     -15.977  -4.463   3.852  1.00  0.00     0.198 A 
ATOM     86  C   UNL     1     -14.459  -2.640   4.206  1.00  0.00     0.198 A 
ATOM     87  F   UNL     1     -14.171  -1.008   2.536  1.00  0.00    -0.203 F 
ATOM     88  F   UNL     1     -16.601  -5.559   4.303  1.00  0.00    -0.200 F 
ATOM     89  C   UNL     1     -15.074  -3.795   4.665  1.00  0.00     0.200 A 
ATOM     90  F   UNL     1     -13.576  -1.998   4.983  1.00  0.00    -0.200 F 
ATOM     91  F   UNL     1     -14.806  -4.257   5.893  1.00  0.00    -0.200 F 
ENDBRANCH  57  81
BRANCH  69  92
ATOM     92  C   UNL     1     -21.560  -0.277  -0.651  1.00  0.00     0.064 A 
ATOM     93  C   UNL     1     -21.889   0.647   0.352  1.00  0.00     0.173 A 
ATOM     94  C   UNL     1     -22.597  -1.058  -1.187  1.00  0.00     0.173 A 
ATOM     95  F   UNL     1     -20.936   1.411   0.906  1.00  0.00    -0.203 F 
ATOM     96  C   UNL     1     -23.196   0.761   0.820  1.00  0.00     0.198 A 
ATOM     97  C   UNL     1     -23.909  -0.915  -0.743  1.00  0.00     0.198 A 
ATOM     98  F   UNL     1     -22.341  -1.950  -2.156  1.00  0.00    -0.203 F 
ATOM     99  F   UNL     1     -23.477   1.611   1.817  1.00  0.00    -0.200 F 
ATOM    100  C   UNL     1     -24.206  -0.013   0.266  1.00  0.00     0.200 A 
ATOM    101  F   UNL     1     -24.885  -1.649  -1.294  1.00  0.00    -0.200 F 
ATOM    102  F   UNL     1     -25.464   0.106   0.711  1.00  0.00    -0.200 F 
ENDBRANCH  69  92
ENDBRANCH  43  44
ENDBRANCH  36  38
ENDBRANCH  35  36
ENDBRANCH  34  35
ENDBRANCH  33  34
ENDBRANCH  32  33
ENDBRANCH  31  32
ENDBRANCH  30  31
ENDBRANCH  29  30
ENDBRANCH   1  29
TORSDOF 23
