REMARK SMILES C[C@@H](CC(=O)OCCOCCOCCOCCOC(=O)c1ccc(-c2c3nc(c(-c4c(F)c(F)c(F)c(F)c4F)c4ccc([nH]4)c(-c4c(F)c(F)c(F)c(F)c4F)c4nc(c(-c5c(F)c(F)c(F)c(F)c5F)c5ccc2[nH]5)C=C4)C=C3)cc1)Cc1nnc(C2C(C)(C)C2(C)C)o1
REMARK SMILES IDX 11 1 10 2 9 3 8 4 7 5 6 6 4 7 5 8 3 9 2 10 1 11 84 12 85 13
REMARK SMILES IDX 86 14 96 15 87 16 88 17 89 18 90 19 93 20 91 21 92 22 94 23
REMARK SMILES IDX 95 24 12 25 13 26 14 27 15 28 16 29 17 30 18 31 19 32 20 33
REMARK SMILES IDX 21 34 22 35 83 36 23 37 82 38 24 39 25 40 26 41 76 42 27 43
REMARK SMILES IDX 81 44 75 45 77 46 28 47 80 48 74 49 73 50 29 52 61 53 41 54
REMARK SMILES IDX 60 55 42 56 45 57 59 58 78 59 43 60 44 61 58 63 79 64 46 65
REMARK SMILES IDX 30 66 31 67 39 68 32 69 33 70 37 71 40 72 34 73 35 74 38 75
REMARK SMILES IDX 36 76 62 77 63 78 71 79 64 80 65 81 69 82 72 83 66 84 67 85
REMARK SMILES IDX 70 86 68 87 47 88 48 89 56 90 49 91 50 92 54 93 57 94 51 95
REMARK SMILES IDX 52 96 55 97 53 98
REMARK H PARENT 77 51 45 62
REMARK Flexibility Score: inf
ROOT
ATOM      1  C   UNL     1      -1.605   2.512   1.758  1.00  0.00     0.188 C 
ENDROOT
BRANCH   1   2
ATOM      2  C   UNL     1      -1.169   3.783   2.494  1.00  0.00     0.188 C 
BRANCH   2   3
ATOM      3  O   UNL     1      -0.893   4.942   1.719  1.00  0.00    -0.376 OA
BRANCH   3   4
ATOM      4  C   UNL     1       0.124   4.878   0.716  1.00  0.00     0.202 C 
BRANCH   4   5
ATOM      5  C   UNL     1       1.419   4.094   1.002  1.00  0.00     0.261 C 
BRANCH   5   6
ATOM      6  O   UNL     1       1.264   2.649   0.965  1.00  0.00    -0.463 OA
BRANCH   6   7
ATOM      7  C   UNL     1       1.759   1.961   2.016  1.00  0.00     0.306 C 
ATOM      8  O   UNL     1       2.344   2.495   2.957  1.00  0.00    -0.252 OA
BRANCH   7   9
ATOM      9  C   UNL     1       1.490   0.458   2.051  1.00  0.00     0.126 C 
BRANCH   9  10
ATOM     10  C   UNL     1       1.008  -0.447   0.888  1.00  0.00     0.006 C 
ATOM     11  C   UNL     1       1.446   0.020  -0.496  1.00  0.00     0.009 C 
BRANCH  10  12
ATOM     12  C   UNL     1      -0.501  -0.777   0.955  1.00  0.00     0.103 C 
BRANCH  12  13
ATOM     13  C   UNL     1      -0.908  -1.987   0.181  1.00  0.00     0.216 A 
ATOM     14  N   UNL     1      -0.867  -3.264   0.498  1.00  0.00    -0.113 NA
ATOM     15  O   UNL     1      -1.532  -1.770  -1.012  1.00  0.00    -0.425 OA
ATOM     16  N   UNL     1      -1.484  -3.946  -0.544  1.00  0.00    -0.113 NA
ATOM     17  C   UNL     1      -1.874  -3.038  -1.416  1.00  0.00     0.220 A 
BRANCH  17  18
ATOM     18  C   UNL     1      -2.640  -3.359  -2.720  1.00  0.00     0.090 C 
ATOM     19  C   UNL     1      -3.779  -2.439  -3.183  1.00  0.00    -0.017 C 
ATOM     20  C   UNL     1      -2.442  -2.446  -3.940  1.00  0.00    -0.017 C 
ATOM     21  C   UNL     1      -4.991  -3.023  -3.888  1.00  0.00     0.012 C 
ATOM     22  C   UNL     1      -4.210  -1.373  -2.213  1.00  0.00     0.012 C 
ATOM     23  C   UNL     1      -1.437  -1.314  -3.854  1.00  0.00     0.012 C 
ATOM     24  C   UNL     1      -2.383  -3.113  -5.303  1.00  0.00     0.012 C 
ENDBRANCH  17  18
ENDBRANCH  12  13
ENDBRANCH  10  12
ENDBRANCH   9  10
ENDBRANCH   7   9
ENDBRANCH   6   7
ENDBRANCH   5   6
ENDBRANCH   4   5
ENDBRANCH   3   4
ENDBRANCH   2   3
ENDBRANCH   1   2
BRANCH   1  25
ATOM     25  O   UNL     1      -1.233   2.499   0.394  1.00  0.00    -0.377 OA
BRANCH  25  26
ATOM     26  C   UNL     1      -2.229   2.734  -0.592  1.00  0.00     0.188 C 
BRANCH  26  27
ATOM     27  C   UNL     1      -3.377   3.697  -0.247  1.00  0.00     0.188 C 
BRANCH  27  28
ATOM     28  O   UNL     1      -4.190   3.202   0.804  1.00  0.00    -0.376 OA
BRANCH  28  29
ATOM     29  C   UNL     1      -5.275   2.333   0.524  1.00  0.00     0.202 C 
BRANCH  29  30
ATOM     30  C   UNL     1      -5.207   1.267  -0.575  1.00  0.00     0.261 C 
BRANCH  30  31
ATOM     31  O   UNL     1      -4.518   1.619  -1.786  1.00  0.00    -0.460 OA
BRANCH  31  32
ATOM     32  C   UNL     1      -5.163   2.208  -2.801  1.00  0.00     0.338 C 
ATOM     33  O   UNL     1      -6.322   2.596  -2.819  1.00  0.00    -0.246 OA
BRANCH  32  34
ATOM     34  C   UNL     1      -4.194   2.324  -3.913  1.00  0.00     0.060 A 
ATOM     35  C   UNL     1      -3.653   3.565  -4.259  1.00  0.00     0.016 A 
ATOM     36  C   UNL     1      -3.840   1.187  -4.643  1.00  0.00     0.016 A 
ATOM     37  C   UNL     1      -2.815   3.674  -5.380  1.00  0.00     0.010 A 
ATOM     38  C   UNL     1      -2.977   1.291  -5.735  1.00  0.00     0.010 A 
ATOM     39  C   UNL     1      -2.505   2.543  -6.152  1.00  0.00    -0.014 A 
BRANCH  39  40
ATOM     40  C   UNL     1      -1.861   2.663  -7.490  1.00  0.00     0.031 A 
ATOM     41  C   UNL     1      -2.698   2.404  -8.721  1.00  0.00     0.074 A 
ATOM     42  C   UNL     1      -0.554   2.957  -7.624  1.00  0.00     0.049 A 
ATOM     43  N   UNL     1      -2.352   2.410  -9.985  1.00  0.00    -0.248 NA
ATOM     44  C   UNL     1      -4.112   2.061  -8.494  1.00  0.00     0.031 C 
ATOM     45  C   UNL     1       0.380   3.185  -6.525  1.00  0.00     0.029 A 
ATOM     46  N   UNL     1       0.216   3.096  -8.754  1.00  0.00    -0.354 N 
ATOM     47  C   UNL     1      -3.497   2.060 -10.692  1.00  0.00     0.074 A 
ATOM     48  C   UNL     1      -4.530   1.786  -9.719  1.00  0.00     0.031 C 
ATOM     49  C   UNL     1       1.599   3.439  -7.034  1.00  0.00     0.029 A 
ATOM     50  C   UNL     1       1.536   3.375  -8.494  1.00  0.00     0.049 A 
ATOM     51  H   UNL     1      -0.144   3.004  -9.666  1.00  0.00     0.167 HD
ATOM     52  C   UNL     1      -3.686   2.000 -12.032  1.00  0.00     0.037 A 
ATOM     53  C   UNL     1       2.572   3.557  -9.337  1.00  0.00     0.037 A 
ATOM     54  C   UNL     1      -2.671   2.303 -13.005  1.00  0.00     0.049 A 
ATOM     55  C   UNL     1       2.340   3.492 -10.827  1.00  0.00     0.074 A 
ATOM     56  C   UNL     1      -2.781   2.343 -14.383  1.00  0.00     0.029 A 
ATOM     57  N   UNL     1      -1.355   2.615 -12.698  1.00  0.00    -0.354 N 
ATOM     58  N   UNL     1       1.232   3.248 -11.484  1.00  0.00    -0.248 NA
ATOM     59  C   UNL     1       3.503   3.744 -11.692  1.00  0.00     0.031 C 
ATOM     60  C   UNL     1      -1.520   2.633 -14.914  1.00  0.00     0.029 A 
ATOM     61  C   UNL     1      -0.637   2.827 -13.863  1.00  0.00     0.049 A 
ATOM     62  H   UNL     1      -0.986   2.677 -11.787  1.00  0.00     0.167 HD
ATOM     63  C   UNL     1       1.555   3.349 -12.832  1.00  0.00     0.074 A 
ATOM     64  C   UNL     1       2.960   3.688 -12.901  1.00  0.00     0.031 C 
ATOM     65  C   UNL     1       0.758   3.178 -13.916  1.00  0.00     0.037 A 
BRANCH  52  66
ATOM     66  C   UNL     1      -5.047   1.601 -12.527  1.00  0.00     0.064 A 
ATOM     67  C   UNL     1      -6.162   2.439 -12.370  1.00  0.00     0.173 A 
ATOM     68  C   UNL     1      -5.233   0.384 -13.200  1.00  0.00     0.173 A 
ATOM     69  F   UNL     1      -6.043   3.609 -11.724  1.00  0.00    -0.203 F 
ATOM     70  C   UNL     1      -7.417   2.059 -12.839  1.00  0.00     0.198 A 
ATOM     71  C   UNL     1      -6.482   0.023 -13.697  1.00  0.00     0.198 A 
ATOM     72  F   UNL     1      -4.200  -0.452 -13.383  1.00  0.00    -0.203 F 
ATOM     73  F   UNL     1      -8.477   2.852 -12.630  1.00  0.00    -0.200 F 
ATOM     74  C   UNL     1      -7.575   0.856 -13.509  1.00  0.00     0.200 A 
ATOM     75  F   UNL     1      -6.630  -1.135 -14.357  1.00  0.00    -0.200 F 
ATOM     76  F   UNL     1      -8.781   0.495 -13.967  1.00  0.00    -0.200 F 
ENDBRANCH  52  66
BRANCH  53  77
ATOM     77  C   UNL     1       3.926   3.853  -8.798  1.00  0.00     0.064 A 
ATOM     78  C   UNL     1       4.505   5.120  -8.958  1.00  0.00     0.173 A 
ATOM     79  C   UNL     1       4.674   2.876  -8.126  1.00  0.00     0.173 A 
ATOM     80  F   UNL     1       3.840   6.081  -9.616  1.00  0.00    -0.203 F 
ATOM     81  C   UNL     1       5.786   5.394  -8.483  1.00  0.00     0.198 A 
ATOM     82  C   UNL     1       5.945   3.158  -7.627  1.00  0.00     0.198 A 
ATOM     83  F   UNL     1       4.167   1.647  -7.946  1.00  0.00    -0.203 F 
ATOM     84  F   UNL     1       6.332   6.600  -8.690  1.00  0.00    -0.200 F 
ATOM     85  C   UNL     1       6.503   4.414  -7.812  1.00  0.00     0.200 A 
ATOM     86  F   UNL     1       6.630   2.213  -6.969  1.00  0.00    -0.200 F 
ATOM     87  F   UNL     1       7.733   4.679  -7.351  1.00  0.00    -0.200 F 
ENDBRANCH  53  77
BRANCH  65  88
ATOM     88  C   UNL     1       1.370   3.393 -15.270  1.00  0.00     0.064 A 
ATOM     89  C   UNL     1       2.278   2.479 -15.823  1.00  0.00     0.173 A 
ATOM     90  C   UNL     1       0.999   4.502 -16.047  1.00  0.00     0.173 A 
ATOM     91  F   UNL     1       2.674   1.409 -15.117  1.00  0.00    -0.203 F 
ATOM     92  C   UNL     1       2.810   2.680 -17.095  1.00  0.00     0.198 A 
ATOM     93  C   UNL     1       1.510   4.684 -17.329  1.00  0.00     0.198 A 
ATOM     94  F   UNL     1       0.125   5.401 -15.568  1.00  0.00    -0.203 F 
ATOM     95  F   UNL     1       3.710   1.816 -17.586  1.00  0.00    -0.200 F 
ATOM     96  C   UNL     1       2.420   3.776 -17.849  1.00  0.00     0.200 A 
ATOM     97  F   UNL     1       1.119   5.735 -18.062  1.00  0.00    -0.200 F 
ATOM     98  F   UNL     1       2.926   3.962 -19.076  1.00  0.00    -0.200 F 
ENDBRANCH  65  88
ENDBRANCH  39  40
ENDBRANCH  32  34
ENDBRANCH  31  32
ENDBRANCH  30  31
ENDBRANCH  29  30
ENDBRANCH  28  29
ENDBRANCH  27  28
ENDBRANCH  26  27
ENDBRANCH  25  26
ENDBRANCH   1  25
TORSDOF 24
