REMARK SMILES CCC[NH+]1CCN(c2cc(C(=O)OCCOCCOCCOCCOC(=O)c3ccc(-c4c5nc(c(-c6c(F)c(F)c(F)c(F)c6F)c6ccc([nH]6)c(-c6c(F)c(F)c(F)c(F)c6F)c6nc(c(-c7c(F)c(F)c(F)c(F)c7F)c7ccc4[nH]7)C=C6)C=C5)cc3)c3cc(NC(=O)c4ccc(F)cc4)ccc3n2)CC1
REMARK SMILES IDX 18 1 17 2 16 3 15 4 14 5 13 6 11 7 12 8 10 9 8 10 9 11
REMARK SMILES IDX 107 12 106 13 91 14 105 15 92 16 104 17 93 18 7 19 4 20 5 21
REMARK SMILES IDX 109 22 6 24 108 25 3 26 2 27 1 28 94 29 95 30 96 32 97 33
REMARK SMILES IDX 98 34 103 35 99 36 102 37 100 38 101 39 19 40 20 41 21 42
REMARK SMILES IDX 22 43 23 44 24 45 25 46 26 47 27 48 28 49 29 50 90 51 30 52
REMARK SMILES IDX 89 53 31 54 32 55 33 56 83 57 34 58 88 59 82 60 84 61 35 62
REMARK SMILES IDX 87 63 81 64 80 65 36 67 68 68 48 69 67 70 49 71 52 72 66 73
REMARK SMILES IDX 85 74 50 75 51 76 65 78 86 79 53 80 37 81 38 82 46 83 39 84
REMARK SMILES IDX 40 85 44 86 47 87 41 88 42 89 45 90 43 91 69 92 70 93 78 94
REMARK SMILES IDX 71 95 72 96 76 97 79 98 73 99 74 100 77 101 75 102 54 103
REMARK SMILES IDX 55 104 63 105 56 106 57 107 61 108 64 109 58 110 59 111
REMARK SMILES IDX 62 112 60 113
REMARK H PARENT 4 23 94 31 84 66 52 77
REMARK Flexibility Score: inf
ROOT
ATOM      1  C   UNL     1       6.579   1.796   5.587  1.00  0.00     0.188 C 
ENDROOT
BRANCH   1   2
ATOM      2  C   UNL     1       7.221   1.357   4.253  1.00  0.00     0.188 C 
BRANCH   2   3
ATOM      3  O   UNL     1       8.493   1.886   3.883  1.00  0.00    -0.376 OA
BRANCH   3   4
ATOM      4  C   UNL     1       8.644   3.305   3.781  1.00  0.00     0.202 C 
BRANCH   4   5
ATOM      5  C   UNL     1       7.580   4.037   2.963  1.00  0.00     0.261 C 
BRANCH   5   6
ATOM      6  O   UNL     1       6.316   4.008   3.653  1.00  0.00    -0.460 OA
BRANCH   6   7
ATOM      7  C   UNL     1       5.237   3.942   2.846  1.00  0.00     0.339 C 
ATOM      8  O   UNL     1       5.219   4.145   1.643  1.00  0.00    -0.246 OA
BRANCH   7   9
ATOM      9  C   UNL     1       4.094   3.335   3.558  1.00  0.00     0.073 A 
ATOM     10  C   UNL     1       2.465   1.591   3.481  1.00  0.00     0.130 A 
ATOM     11  C   UNL     1       3.628   2.141   2.994  1.00  0.00     0.063 A 
ATOM     12  N   UNL     1       1.732   2.235   4.403  1.00  0.00    -0.231 NA
ATOM     13  C   UNL     1       2.200   3.345   4.979  1.00  0.00     0.074 A 
ATOM     14  C   UNL     1       3.439   3.919   4.667  1.00  0.00     0.017 A 
ATOM     15  C   UNL     1       1.399   3.934   5.934  1.00  0.00     0.031 A 
ATOM     16  C   UNL     1       3.913   4.991   5.483  1.00  0.00     0.037 A 
ATOM     17  C   UNL     1       1.838   5.030   6.673  1.00  0.00     0.028 A 
ATOM     18  C   UNL     1       3.128   5.535   6.503  1.00  0.00     0.042 A 
BRANCH  10  19
ATOM     19  N   UNL     1       1.933   0.427   3.002  1.00  0.00    -0.345 N 
ATOM     20  N   UNL     1       0.624  -1.931   1.875  1.00  0.00    -0.332 N 
ATOM     21  C   UNL     1       1.671  -2.026   2.930  1.00  0.00     0.284 C 
ATOM     22  C   UNL     1      -0.056  -0.629   2.017  1.00  0.00     0.284 C 
ATOM     23  H   UNL     1      -0.102  -2.640   1.985  1.00  0.00     0.348 HD
ATOM     24  C   UNL     1       2.668  -0.832   2.987  1.00  0.00     0.179 C 
ATOM     25  C   UNL     1       0.871   0.599   2.018  1.00  0.00     0.179 C 
BRANCH  20  26
ATOM     26  C   UNL     1       1.195  -2.227   0.555  1.00  0.00     0.262 C 
BRANCH  26  27
ATOM     27  C   UNL     1       0.338  -1.928  -0.687  1.00  0.00     0.058 C 
ATOM     28  C   UNL     1       0.575  -0.542  -1.276  1.00  0.00     0.010 C 
ENDBRANCH  26  27
ENDBRANCH  20  26
ENDBRANCH  10  19
BRANCH  18  29
ATOM     29  N   UNL     1       3.500   6.524   7.431  1.00  0.00    -0.322 N 
ATOM     30  C   UNL     1       4.663   7.157   7.779  1.00  0.00     0.255 C 
ATOM     31  H   UNL     1       2.733   6.838   7.963  1.00  0.00     0.170 HD
ATOM     32  O   UNL     1       4.676   7.874   8.781  1.00  0.00    -0.269 OA
BRANCH  30  33
ATOM     33  C   UNL     1       5.924   6.997   7.051  1.00  0.00     0.040 A 
ATOM     34  C   UNL     1       7.027   6.484   7.744  1.00  0.00     0.017 A 
ATOM     35  C   UNL     1       6.055   7.459   5.738  1.00  0.00     0.017 A 
ATOM     36  C   UNL     1       8.255   6.372   7.096  1.00  0.00     0.040 A 
ATOM     37  C   UNL     1       7.279   7.314   5.085  1.00  0.00     0.040 A 
ATOM     38  C   UNL     1       8.363   6.768   5.767  1.00  0.00     0.123 A 
ATOM     39  F   UNL     1       9.533   6.620   5.131  1.00  0.00    -0.207 F 
ENDBRANCH  30  33
ENDBRANCH  18  29
ENDBRANCH   7   9
ENDBRANCH   6   7
ENDBRANCH   5   6
ENDBRANCH   4   5
ENDBRANCH   3   4
ENDBRANCH   2   3
ENDBRANCH   1   2
BRANCH   1  40
ATOM     40  O   UNL     1       7.215   2.900   6.215  1.00  0.00    -0.377 OA
BRANCH  40  41
ATOM     41  C   UNL     1       8.064   2.539   7.302  1.00  0.00     0.188 C 
BRANCH  41  42
ATOM     42  C   UNL     1       9.151   1.500   6.982  1.00  0.00     0.188 C 
BRANCH  42  43
ATOM     43  O   UNL     1       8.598   0.224   6.655  1.00  0.00    -0.376 OA
BRANCH  43  44
ATOM     44  C   UNL     1       8.676  -0.782   7.660  1.00  0.00     0.202 C 
BRANCH  44  45
ATOM     45  C   UNL     1       7.650  -0.629   8.793  1.00  0.00     0.261 C 
BRANCH  45  46
ATOM     46  O   UNL     1       7.799   0.553   9.601  1.00  0.00    -0.460 OA
BRANCH  46  47
ATOM     47  C   UNL     1       8.986   0.723  10.224  1.00  0.00     0.338 C 
ATOM     48  O   UNL     1       9.915  -0.053  10.258  1.00  0.00    -0.246 OA
BRANCH  47  49
ATOM     49  C   UNL     1       9.055   2.114  10.724  1.00  0.00     0.060 A 
ATOM     50  C   UNL     1      10.209   2.856  10.446  1.00  0.00     0.016 A 
ATOM     51  C   UNL     1       8.030   2.660  11.503  1.00  0.00     0.016 A 
ATOM     52  C   UNL     1      10.379   4.115  11.019  1.00  0.00     0.010 A 
ATOM     53  C   UNL     1       8.206   3.920  12.085  1.00  0.00     0.010 A 
ATOM     54  C   UNL     1       9.407   4.623  11.893  1.00  0.00    -0.014 A 
BRANCH  54  55
ATOM     55  C   UNL     1       9.773   5.753  12.781  1.00  0.00     0.031 A 
ATOM     56  C   UNL     1      10.312   5.436  14.150  1.00  0.00     0.074 A 
ATOM     57  C   UNL     1       9.700   7.028  12.366  1.00  0.00     0.049 A 
ATOM     58  N   UNL     1      10.800   6.238  15.062  1.00  0.00    -0.248 NA
ATOM     59  C   UNL     1      10.305   4.016  14.539  1.00  0.00     0.031 C 
ATOM     60  C   UNL     1       9.221   7.463  11.059  1.00  0.00     0.029 A 
ATOM     61  N   UNL     1      10.047   8.191  13.006  1.00  0.00    -0.354 N 
ATOM     62  C   UNL     1      11.166   5.421  16.123  1.00  0.00     0.074 A 
ATOM     63  C   UNL     1      10.801   4.068  15.764  1.00  0.00     0.031 C 
ATOM     64  C   UNL     1       9.313   8.803  10.985  1.00  0.00     0.029 A 
ATOM     65  C   UNL     1       9.851   9.316  12.245  1.00  0.00     0.049 A 
ATOM     66  H   UNL     1      10.402   8.217  13.924  1.00  0.00     0.167 HD
ATOM     67  C   UNL     1      11.768   5.761  17.287  1.00  0.00     0.037 A 
ATOM     68  C   UNL     1      10.092  10.609  12.533  1.00  0.00     0.037 A 
ATOM     69  C   UNL     1      12.116   7.107  17.655  1.00  0.00     0.049 A 
ATOM     70  C   UNL     1      10.700  10.973  13.862  1.00  0.00     0.074 A 
ATOM     71  C   UNL     1      12.736   7.558  18.807  1.00  0.00     0.029 A 
ATOM     72  N   UNL     1      11.857   8.227  16.877  1.00  0.00    -0.354 N 
ATOM     73  N   UNL     1      11.092  10.191  14.840  1.00  0.00    -0.248 NA
ATOM     74  C   UNL     1      10.913  12.405  14.119  1.00  0.00     0.031 C 
ATOM     75  C   UNL     1      12.809   8.954  18.747  1.00  0.00     0.029 A 
ATOM     76  C   UNL     1      12.283   9.370  17.534  1.00  0.00     0.049 A 
ATOM     77  H   UNL     1      11.433   8.211  15.988  1.00  0.00     0.167 HD
ATOM     78  C   UNL     1      11.632  11.029  15.808  1.00  0.00     0.074 A 
ATOM     79  C   UNL     1      11.522  12.380  15.296  1.00  0.00     0.031 C 
ATOM     80  C   UNL     1      12.177  10.708  17.008  1.00  0.00     0.037 A 
BRANCH  67  81
ATOM     81  C   UNL     1      12.055   4.649  18.253  1.00  0.00     0.064 A 
ATOM     82  C   UNL     1      13.040   3.682  17.992  1.00  0.00     0.173 A 
ATOM     83  C   UNL     1      11.321   4.534  19.442  1.00  0.00     0.173 A 
ATOM     84  F   UNL     1      13.755   3.736  16.859  1.00  0.00    -0.203 F 
ATOM     85  C   UNL     1      13.249   2.619  18.867  1.00  0.00     0.198 A 
ATOM     86  C   UNL     1      11.555   3.487  20.330  1.00  0.00     0.198 A 
ATOM     87  F   UNL     1      10.370   5.431  19.739  1.00  0.00    -0.203 F 
ATOM     88  F   UNL     1      14.147   1.672  18.565  1.00  0.00    -0.200 F 
ATOM     89  C   UNL     1      12.509   2.524  20.036  1.00  0.00     0.200 A 
ATOM     90  F   UNL     1      10.844   3.400  21.462  1.00  0.00    -0.200 F 
ATOM     91  F   UNL     1      12.705   1.496  20.873  1.00  0.00    -0.200 F 
ENDBRANCH  67  81
BRANCH  68  92
ATOM     92  C   UNL     1       9.802  11.658  11.522  1.00  0.00     0.064 A 
ATOM     93  C   UNL     1      10.842  12.333  10.869  1.00  0.00     0.173 A 
ATOM     94  C   UNL     1       8.485  12.012  11.195  1.00  0.00     0.173 A 
ATOM     95  F   UNL     1      12.118  12.048  11.171  1.00  0.00    -0.203 F 
ATOM     96  C   UNL     1      10.577  13.331   9.934  1.00  0.00     0.198 A 
ATOM     97  C   UNL     1       8.221  12.994  10.243  1.00  0.00     0.198 A 
ATOM     98  F   UNL     1       7.457  11.402  11.801  1.00  0.00    -0.203 F 
ATOM     99  F   UNL     1      11.590  13.989   9.354  1.00  0.00    -0.200 F 
ATOM    100  C   UNL     1       9.267  13.656   9.617  1.00  0.00     0.200 A 
ATOM    101  F   UNL     1       6.954  13.305   9.936  1.00  0.00    -0.200 F 
ATOM    102  F   UNL     1       9.013  14.616   8.717  1.00  0.00    -0.200 F 
ENDBRANCH  68  92
BRANCH  80 103
ATOM    103  C   UNL     1      12.744  11.831  17.829  1.00  0.00     0.064 A 
ATOM    104  C   UNL     1      11.922  12.778  18.458  1.00  0.00     0.173 A 
ATOM    105  C   UNL     1      14.131  11.946  18.006  1.00  0.00     0.173 A 
ATOM    106  F   UNL     1      10.590  12.720  18.311  1.00  0.00    -0.203 F 
ATOM    107  C   UNL     1      12.470  13.819  19.204  1.00  0.00     0.198 A 
ATOM    108  C   UNL     1      14.674  12.969  18.778  1.00  0.00     0.198 A 
ATOM    109  F   UNL     1      14.962  11.061  17.434  1.00  0.00    -0.203 F 
ATOM    110  F   UNL     1      11.669  14.744  19.749  1.00  0.00    -0.200 F 
ATOM    111  C   UNL     1      13.845  13.910  19.368  1.00  0.00     0.200 A 
ATOM    112  F   UNL     1      16.002  13.048  18.947  1.00  0.00    -0.200 F 
ATOM    113  F   UNL     1      14.370  14.912  20.086  1.00  0.00    -0.200 F 
ENDBRANCH  80 103
ENDBRANCH  54  55
ENDBRANCH  47  49
ENDBRANCH  46  47
ENDBRANCH  45  46
ENDBRANCH  44  45
ENDBRANCH  43  44
ENDBRANCH  42  43
ENDBRANCH  41  42
ENDBRANCH  40  41
ENDBRANCH   1  40
TORSDOF 25
