REMARK SMILES COc1c[nH]c(C[N@H+]2CCC[C@@H](c3ccc(C(=O)OCCOCCOCCOCCOC(=O)c4ccc(-c5c6nc(c(-c7c(F)c(F)c(F)c(F)c7F)c7ccc([nH]7)c(-c7c(F)c(F)c(F)c(F)c7F)c7nc(c(-c8c(F)c(F)c(F)c(F)c8F)c8ccc5[nH]8)C=C7)C=C6)cc4)cc3)C2)cc1=O
REMARK SMILES IDX 24 1 23 2 22 3 21 4 20 5 19 6 17 7 18 8 16 9 13 10 14 11
REMARK SMILES IDX 98 12 15 13 97 14 12 15 8 16 9 17 99 18 10 20 11 21 7 22
REMARK SMILES IDX 6 23 3 24 4 25 101 26 5 27 100 28 102 29 2 31 1 32 25 33
REMARK SMILES IDX 26 34 27 35 28 36 29 37 30 38 31 39 32 40 33 41 34 42 35 43
REMARK SMILES IDX 96 44 36 45 95 46 37 47 38 48 39 49 89 50 40 51 94 52 88 53
REMARK SMILES IDX 90 54 41 55 93 56 87 57 86 58 42 60 74 61 54 62 73 63 55 64
REMARK SMILES IDX 58 65 72 66 91 67 56 68 57 69 71 71 92 72 59 73 43 74 44 75
REMARK SMILES IDX 52 76 45 77 46 78 50 79 53 80 47 81 48 82 51 83 49 84 75 85
REMARK SMILES IDX 76 86 84 87 77 88 78 89 82 90 85 91 79 92 80 93 83 94 81 95
REMARK SMILES IDX 60 96 61 97 69 98 62 99 63 100 67 101 70 102 64 103 65 104
REMARK SMILES IDX 68 105 66 106
REMARK H PARENT 8 19 5 30 90 59 58 70
REMARK Flexibility Score: inf
ROOT
ATOM      1  C   UNL     1      -6.397  -8.963   0.395  1.00  0.00     0.188 C 
ENDROOT
BRANCH   1   2
ATOM      2  C   UNL     1      -6.970  -7.615   0.883  1.00  0.00     0.188 C 
BRANCH   2   3
ATOM      3  O   UNL     1      -8.386  -7.554   0.850  1.00  0.00    -0.376 OA
BRANCH   3   4
ATOM      4  C   UNL     1      -9.022  -6.753  -0.127  1.00  0.00     0.202 C 
BRANCH   4   5
ATOM      5  C   UNL     1      -8.759  -7.021  -1.618  1.00  0.00     0.261 C 
BRANCH   5   6
ATOM      6  O   UNL     1      -7.407  -7.317  -1.979  1.00  0.00    -0.460 OA
BRANCH   6   7
ATOM      7  C   UNL     1      -6.550  -6.275  -2.014  1.00  0.00     0.338 C 
ATOM      8  O   UNL     1      -6.816  -5.104  -1.810  1.00  0.00    -0.246 OA
BRANCH   7   9
ATOM      9  C   UNL     1      -5.174  -6.812  -2.119  1.00  0.00     0.060 A 
ATOM     10  C   UNL     1      -2.519  -7.699  -2.293  1.00  0.00    -0.039 A 
ATOM     11  C   UNL     1      -2.899  -6.763  -1.314  1.00  0.00     0.005 A 
ATOM     12  C   UNL     1      -3.512  -8.269  -3.105  1.00  0.00     0.005 A 
ATOM     13  C   UNL     1      -4.208  -6.295  -1.252  1.00  0.00     0.016 A 
ATOM     14  C   UNL     1      -4.840  -7.838  -3.009  1.00  0.00     0.016 A 
BRANCH  10  15
ATOM     15  C   UNL     1      -1.044  -7.914  -2.624  1.00  0.00     0.074 C 
ATOM     16  N   UNL     1       0.940  -6.506  -3.375  1.00  0.00    -0.329 N 
ATOM     17  C   UNL     1       1.726  -7.004  -2.239  1.00  0.00     0.262 C 
ATOM     18  C   UNL     1      -0.493  -6.547  -3.088  1.00  0.00     0.270 C 
ATOM     19  H   UNL     1       1.117  -7.137  -4.157  1.00  0.00     0.348 HD
ATOM     20  C   UNL     1       1.284  -8.414  -1.825  1.00  0.00     0.062 C 
ATOM     21  C   UNL     1      -0.203  -8.459  -1.463  1.00  0.00     0.020 C 
BRANCH  16  22
ATOM     22  C   UNL     1       1.375  -5.160  -3.819  1.00  0.00     0.317 C 
BRANCH  22  23
ATOM     23  C   UNL     1       1.274  -4.021  -2.802  1.00  0.00     0.074 A 
ATOM     24  C   UNL     1       0.843  -2.081  -0.746  1.00  0.00     0.182 A 
ATOM     25  C   UNL     1      -0.161  -2.672  -1.407  1.00  0.00     0.133 A 
ATOM     26  C   UNL     1       2.236  -2.428  -1.200  1.00  0.00     0.223 A 
ATOM     27  N   UNL     1       0.024  -3.545  -2.444  1.00  0.00    -0.357 N 
ATOM     28  C   UNL     1       2.377  -3.479  -2.251  1.00  0.00     0.083 A 
ATOM     29  O   UNL     1       3.241  -1.903  -0.731  1.00  0.00    -0.286 OA
ATOM     30  H   UNL     1      -0.762  -3.846  -2.954  1.00  0.00     0.166 HD
BRANCH  24  31
ATOM     31  O   UNL     1       0.596  -1.266   0.341  1.00  0.00    -0.491 OA
ATOM     32  C   UNL     1       1.072   0.059   0.132  1.00  0.00     0.278 C 
ENDBRANCH  24  31
ENDBRANCH  22  23
ENDBRANCH  16  22
ENDBRANCH  10  15
ENDBRANCH   7   9
ENDBRANCH   6   7
ENDBRANCH   5   6
ENDBRANCH   4   5
ENDBRANCH   3   4
ENDBRANCH   2   3
ENDBRANCH   1   2
BRANCH   1  33
ATOM     33  O   UNL     1      -7.264  -9.858  -0.288  1.00  0.00    -0.377 OA
BRANCH  33  34
ATOM     34  C   UNL     1      -8.516 -10.217   0.292  1.00  0.00     0.188 C 
BRANCH  34  35
ATOM     35  C   UNL     1      -8.799 -10.073   1.808  1.00  0.00     0.188 C 
BRANCH  35  36
ATOM     36  O   UNL     1      -7.666  -9.762   2.599  1.00  0.00    -0.376 OA
BRANCH  36  37
ATOM     37  C   UNL     1      -7.141 -10.773   3.439  1.00  0.00     0.202 C 
BRANCH  37  38
ATOM     38  C   UNL     1      -6.578 -12.025   2.753  1.00  0.00     0.261 C 
BRANCH  38  39
ATOM     39  O   UNL     1      -7.442 -12.669   1.805  1.00  0.00    -0.460 OA
BRANCH  39  40
ATOM     40  C   UNL     1      -8.555 -13.256   2.287  1.00  0.00     0.338 C 
ATOM     41  O   UNL     1      -8.920 -13.308   3.453  1.00  0.00    -0.246 OA
BRANCH  40  42
ATOM     42  C   UNL     1      -9.375 -13.683   1.137  1.00  0.00     0.060 A 
ATOM     43  C   UNL     1     -10.667 -13.161   0.986  1.00  0.00     0.016 A 
ATOM     44  C   UNL     1      -8.869 -14.602   0.216  1.00  0.00     0.016 A 
ATOM     45  C   UNL     1     -11.477 -13.599  -0.061  1.00  0.00     0.010 A 
ATOM     46  C   UNL     1      -9.689 -15.056  -0.820  1.00  0.00     0.010 A 
ATOM     47  C   UNL     1     -11.011 -14.590  -0.933  1.00  0.00    -0.014 A 
BRANCH  47  48
ATOM     48  C   UNL     1     -11.975 -15.315  -1.797  1.00  0.00     0.031 A 
ATOM     49  C   UNL     1     -12.498 -16.639  -1.308  1.00  0.00     0.074 A 
ATOM     50  C   UNL     1     -12.401 -14.807  -2.966  1.00  0.00     0.049 A 
ATOM     51  N   UNL     1     -13.302 -17.488  -1.895  1.00  0.00    -0.248 NA
ATOM     52  C   UNL     1     -12.046 -17.063   0.027  1.00  0.00     0.031 C 
ATOM     53  C   UNL     1     -12.006 -13.515  -3.522  1.00  0.00     0.029 A 
ATOM     54  N   UNL     1     -13.260 -15.330  -3.900  1.00  0.00    -0.354 N 
ATOM     55  C   UNL     1     -13.442 -18.546  -1.006  1.00  0.00     0.074 A 
ATOM     56  C   UNL     1     -12.614 -18.253   0.142  1.00  0.00     0.031 C 
ATOM     57  C   UNL     1     -12.613 -13.350  -4.710  1.00  0.00     0.029 A 
ATOM     58  C   UNL     1     -13.410 -14.540  -5.013  1.00  0.00     0.049 A 
ATOM     59  H   UNL     1     -13.724 -16.190  -3.784  1.00  0.00     0.167 HD
ATOM     60  C   UNL     1     -14.203 -19.659  -1.131  1.00  0.00     0.037 A 
ATOM     61  C   UNL     1     -14.093 -14.768  -6.152  1.00  0.00     0.037 A 
ATOM     62  C   UNL     1     -15.025 -19.947  -2.276  1.00  0.00     0.049 A 
ATOM     63  C   UNL     1     -14.868 -16.055  -6.303  1.00  0.00     0.074 A 
ATOM     64  C   UNL     1     -15.842 -21.041  -2.497  1.00  0.00     0.029 A 
ATOM     65  N   UNL     1     -15.126 -19.137  -3.397  1.00  0.00    -0.354 N 
ATOM     66  N   UNL     1     -15.015 -17.042  -5.452  1.00  0.00    -0.248 NA
ATOM     67  C   UNL     1     -15.578 -16.255  -7.574  1.00  0.00     0.031 C 
ATOM     68  C   UNL     1     -16.389 -20.924  -3.779  1.00  0.00     0.029 A 
ATOM     69  C   UNL     1     -15.972 -19.721  -4.327  1.00  0.00     0.049 A 
ATOM     70  H   UNL     1     -14.666 -18.275  -3.515  1.00  0.00     0.167 HD
ATOM     71  C   UNL     1     -15.862 -17.957  -6.066  1.00  0.00     0.074 A 
ATOM     72  C   UNL     1     -16.206 -17.402  -7.358  1.00  0.00     0.031 C 
ATOM     73  C   UNL     1     -16.318 -19.148  -5.602  1.00  0.00     0.037 A 
BRANCH  60  74
ATOM     74  C   UNL     1     -14.155 -20.662  -0.014  1.00  0.00     0.064 A 
ATOM     75  C   UNL     1     -14.706 -20.392   1.248  1.00  0.00     0.173 A 
ATOM     76  C   UNL     1     -13.572 -21.921  -0.219  1.00  0.00     0.173 A 
ATOM     77  F   UNL     1     -15.260 -19.197   1.503  1.00  0.00    -0.203 F 
ATOM     78  C   UNL     1     -14.648 -21.335   2.271  1.00  0.00     0.198 A 
ATOM     79  C   UNL     1     -13.548 -22.875   0.795  1.00  0.00     0.198 A 
ATOM     80  F   UNL     1     -13.032 -22.232  -1.407  1.00  0.00    -0.203 F 
ATOM     81  F   UNL     1     -15.132 -21.036   3.485  1.00  0.00    -0.200 F 
ATOM     82  C   UNL     1     -14.077 -22.578   2.041  1.00  0.00     0.200 A 
ATOM     83  F   UNL     1     -13.009 -24.080   0.566  1.00  0.00    -0.200 F 
ATOM     84  F   UNL     1     -14.031 -23.488   3.024  1.00  0.00    -0.200 F 
ENDBRANCH  60  74
BRANCH  61  85
ATOM     85  C   UNL     1     -14.071 -13.766  -7.253  1.00  0.00     0.064 A 
ATOM     86  C   UNL     1     -15.234 -13.083  -7.635  1.00  0.00     0.173 A 
ATOM     87  C   UNL     1     -12.895 -13.500  -7.970  1.00  0.00     0.173 A 
ATOM     88  F   UNL     1     -16.390 -13.321  -6.999  1.00  0.00    -0.203 F 
ATOM     89  C   UNL     1     -15.228 -12.194  -8.709  1.00  0.00     0.198 A 
ATOM     90  C   UNL     1     -12.882 -12.585  -9.022  1.00  0.00     0.198 A 
ATOM     91  F   UNL     1     -11.754 -14.128  -7.649  1.00  0.00    -0.203 F 
ATOM     92  F   UNL     1     -16.367 -11.601  -9.091  1.00  0.00    -0.200 F 
ATOM     93  C   UNL     1     -14.051 -11.941  -9.398  1.00  0.00     0.200 A 
ATOM     94  F   UNL     1     -11.740 -12.335  -9.676  1.00  0.00    -0.200 F 
ATOM     95  F   UNL     1     -14.046 -11.088 -10.430  1.00  0.00    -0.200 F 
ENDBRANCH  61  85
BRANCH  73  96
ATOM     96  C   UNL     1     -17.285 -19.908  -6.467  1.00  0.00     0.064 A 
ATOM     97  C   UNL     1     -16.893 -20.513  -7.670  1.00  0.00     0.173 A 
ATOM     98  C   UNL     1     -18.619 -20.071  -6.057  1.00  0.00     0.173 A 
ATOM     99  F   UNL     1     -15.634 -20.379  -8.114  1.00  0.00    -0.203 F 
ATOM    100  C   UNL     1     -17.806 -21.224  -8.445  1.00  0.00     0.198 A 
ATOM    101  C   UNL     1     -19.518 -20.815  -6.815  1.00  0.00     0.198 A 
ATOM    102  F   UNL     1     -19.046 -19.523  -4.909  1.00  0.00    -0.203 F 
ATOM    103  F   UNL     1     -17.422 -21.746  -9.618  1.00  0.00    -0.200 F 
ATOM    104  C   UNL     1     -19.114 -21.382  -8.013  1.00  0.00     0.200 A 
ATOM    105  F   UNL     1     -20.777 -20.982  -6.385  1.00  0.00    -0.200 F 
ATOM    106  F   UNL     1     -19.988 -22.076  -8.756  1.00  0.00    -0.200 F 
ENDBRANCH  73  96
ENDBRANCH  47  48
ENDBRANCH  40  42
ENDBRANCH  39  40
ENDBRANCH  38  39
ENDBRANCH  37  38
ENDBRANCH  36  37
ENDBRANCH  35  36
ENDBRANCH  34  35
ENDBRANCH  33  34
ENDBRANCH   1  33
TORSDOF 24
