REMARK SMILES CC(C)[C@H]1CC[C@@H](C)C/C1=C(\F)C(=O)OCCOCCOCCOCCOC(=O)c1ccc(-c2c3nc(c(-c4c(F)c(F)c(F)c(F)c4F)c4ccc([nH]4)c(-c4c(F)c(F)c(F)c(F)c4F)c4nc(c(-c5c(F)c(F)c(F)c(F)c5F)c5ccc2[nH]5)C=C4)C=C3)cc1
REMARK SMILES IDX 22 1 21 2 20 3 19 4 18 5 17 6 16 7 15 8 13 9 14 10 11 11
REMARK SMILES IDX 4 12 5 13 10 14 6 15 9 16 7 17 12 18 8 19 2 20 1 21 3 22
REMARK SMILES IDX 23 23 24 24 25 25 26 26 27 27 28 28 29 29 30 30 31 31 92 32
REMARK SMILES IDX 32 33 91 34 33 35 34 36 35 37 85 38 36 39 90 40 84 41 86 42
REMARK SMILES IDX 37 43 89 44 83 45 82 46 38 48 70 49 50 50 69 51 51 52 54 53
REMARK SMILES IDX 68 54 87 55 52 56 53 57 67 59 88 60 55 61 39 62 40 63 48 64
REMARK SMILES IDX 41 65 42 66 46 67 49 68 43 69 44 70 47 71 45 72 71 73 72 74
REMARK SMILES IDX 80 75 73 76 74 77 78 78 81 79 75 80 76 81 79 82 77 83 56 84
REMARK SMILES IDX 57 85 65 86 58 87 59 88 63 89 66 90 60 91 61 92 64 93 62 94
REMARK H PARENT 86 47 54 58
REMARK Flexibility Score: inf
ROOT
ATOM      1  C   UNL     1      -6.848   3.224   1.944  1.00  0.00     0.188 C 
ENDROOT
BRANCH   1   2
ATOM      2  O   UNL     1      -6.170   2.455   0.964  1.00  0.00    -0.377 OA
BRANCH   2   3
ATOM      3  C   UNL     1      -4.751   2.404   1.054  1.00  0.00     0.188 C 
BRANCH   3   4
ATOM      4  C   UNL     1      -4.044   2.991   2.281  1.00  0.00     0.188 C 
BRANCH   4   5
ATOM      5  O   UNL     1      -4.174   4.412   2.351  1.00  0.00    -0.376 OA
BRANCH   5   6
ATOM      6  C   UNL     1      -2.912   5.066   2.495  1.00  0.00     0.202 C 
BRANCH   6   7
ATOM      7  C   UNL     1      -2.244   5.270   1.131  1.00  0.00     0.261 C 
BRANCH   7   8
ATOM      8  O   UNL     1      -2.029   4.042   0.406  1.00  0.00    -0.458 OA
BRANCH   8   9
ATOM      9  C   UNL     1      -1.044   3.206   0.838  1.00  0.00     0.367 C 
ATOM     10  O   UNL     1      -0.284   3.442   1.760  1.00  0.00    -0.243 OA
BRANCH   9  11
ATOM     11  C   UNL     1      -1.081   1.986  -0.026  1.00  0.00     0.207 C 
ATOM     12  C   UNL     1      -0.301  -0.108   1.422  1.00  0.00     0.021 C 
ATOM     13  C   UNL     1      -0.926  -1.535   1.469  1.00  0.00     0.009 C 
ATOM     14  C   UNL     1      -0.769   0.680   0.168  1.00  0.00    -0.023 C 
ATOM     15  C   UNL     1      -0.816  -2.311   0.165  1.00  0.00     0.004 C 
ATOM     16  C   UNL     1      -0.754  -0.176  -1.110  1.00  0.00     0.038 C 
ATOM     17  C   UNL     1      -1.432  -1.544  -0.998  1.00  0.00    -0.010 C 
ATOM     18  F   UNL     1      -1.501   2.332  -1.275  1.00  0.00    -0.199 F 
ATOM     19  C   UNL     1      -2.955  -1.432  -0.887  1.00  0.00     0.008 C 
BRANCH  12  20
ATOM     20  C   UNL     1      -0.454   0.534   2.837  1.00  0.00    -0.010 C 
ATOM     21  C   UNL     1      -1.907   0.619   3.308  1.00  0.00     0.008 C 
ATOM     22  C   UNL     1       0.355  -0.198   3.920  1.00  0.00     0.008 C 
ENDBRANCH  12  20
ENDBRANCH   9  11
ENDBRANCH   8   9
ENDBRANCH   7   8
ENDBRANCH   6   7
ENDBRANCH   5   6
ENDBRANCH   4   5
ENDBRANCH   3   4
ENDBRANCH   2   3
ENDBRANCH   1   2
BRANCH   1  23
ATOM     23  C   UNL     1      -6.912   2.557   3.329  1.00  0.00     0.188 C 
BRANCH  23  24
ATOM     24  O   UNL     1      -6.303   1.265   3.335  1.00  0.00    -0.376 OA
BRANCH  24  25
ATOM     25  C   UNL     1      -7.178   0.145   3.368  1.00  0.00     0.202 C 
BRANCH  25  26
ATOM     26  C   UNL     1      -8.067  -0.101   2.139  1.00  0.00     0.261 C 
BRANCH  26  27
ATOM     27  O   UNL     1      -8.876   1.003   1.710  1.00  0.00    -0.460 OA
BRANCH  27  28
ATOM     28  C   UNL     1      -9.876   1.437   2.506  1.00  0.00     0.338 C 
ATOM     29  O   UNL     1     -10.232   0.971   3.571  1.00  0.00    -0.246 OA
BRANCH  28  30
ATOM     30  C   UNL     1     -10.290   2.752   1.954  1.00  0.00     0.060 A 
ATOM     31  C   UNL     1     -10.264   3.874   2.794  1.00  0.00     0.016 A 
ATOM     32  C   UNL     1     -10.525   2.903   0.582  1.00  0.00     0.016 A 
ATOM     33  C   UNL     1     -10.452   5.151   2.257  1.00  0.00     0.010 A 
ATOM     34  C   UNL     1     -10.744   4.176   0.051  1.00  0.00     0.010 A 
ATOM     35  C   UNL     1     -10.722   5.303   0.889  1.00  0.00    -0.014 A 
BRANCH  35  36
ATOM     36  C   UNL     1     -11.232   6.596   0.376  1.00  0.00     0.031 A 
ATOM     37  C   UNL     1     -12.712   6.833   0.473  1.00  0.00     0.074 A 
ATOM     38  C   UNL     1     -10.428   7.519  -0.181  1.00  0.00     0.049 A 
ATOM     39  N   UNL     1     -13.425   7.850   0.065  1.00  0.00    -0.248 NA
ATOM     40  C   UNL     1     -13.497   5.768   1.122  1.00  0.00     0.031 C 
ATOM     41  C   UNL     1      -8.977   7.415  -0.312  1.00  0.00     0.029 A 
ATOM     42  N   UNL     1     -10.734   8.729  -0.756  1.00  0.00    -0.354 N 
ATOM     43  C   UNL     1     -14.733   7.552   0.418  1.00  0.00     0.074 A 
ATOM     44  C   UNL     1     -14.726   6.251   1.047  1.00  0.00     0.031 C 
ATOM     45  C   UNL     1      -8.519   8.510  -0.949  1.00  0.00     0.029 A 
ATOM     46  C   UNL     1      -9.647   9.376  -1.292  1.00  0.00     0.049 A 
ATOM     47  H   UNL     1     -11.646   9.098  -0.782  1.00  0.00     0.167 HD
ATOM     48  C   UNL     1     -15.845   8.299   0.238  1.00  0.00     0.037 A 
ATOM     49  C   UNL     1      -9.584  10.523  -1.998  1.00  0.00     0.037 A 
ATOM     50  C   UNL     1     -15.860   9.574  -0.421  1.00  0.00     0.049 A 
ATOM     51  C   UNL     1     -10.855  11.291  -2.275  1.00  0.00     0.074 A 
ATOM     52  C   UNL     1     -16.932  10.419  -0.641  1.00  0.00     0.029 A 
ATOM     53  N   UNL     1     -14.747  10.175  -0.988  1.00  0.00    -0.354 N 
ATOM     54  N   UNL     1     -12.082  11.032  -1.891  1.00  0.00    -0.248 NA
ATOM     55  C   UNL     1     -10.731  12.509  -3.091  1.00  0.00     0.031 C 
ATOM     56  C   UNL     1     -16.476  11.509  -1.389  1.00  0.00     0.029 A 
ATOM     57  C   UNL     1     -15.112  11.366  -1.592  1.00  0.00     0.049 A 
ATOM     58  H   UNL     1     -13.833   9.810  -0.964  1.00  0.00     0.167 HD
ATOM     59  C   UNL     1     -12.869  12.057  -2.400  1.00  0.00     0.074 A 
ATOM     60  C   UNL     1     -11.980  12.955  -3.107  1.00  0.00     0.031 C 
ATOM     61  C   UNL     1     -14.209  12.241  -2.295  1.00  0.00     0.037 A 
BRANCH  48  62
ATOM     62  C   UNL     1     -17.137   7.726   0.734  1.00  0.00     0.064 A 
ATOM     63  C   UNL     1     -17.424   7.644   2.105  1.00  0.00     0.173 A 
ATOM     64  C   UNL     1     -18.095   7.248  -0.171  1.00  0.00     0.173 A 
ATOM     65  F   UNL     1     -16.527   8.064   3.009  1.00  0.00    -0.203 F 
ATOM     66  C   UNL     1     -18.617   7.082   2.552  1.00  0.00     0.198 A 
ATOM     67  C   UNL     1     -19.297   6.710   0.279  1.00  0.00     0.198 A 
ATOM     68  F   UNL     1     -17.862   7.296  -1.491  1.00  0.00    -0.203 F 
ATOM     69  F   UNL     1     -18.851   6.969   3.867  1.00  0.00    -0.200 F 
ATOM     70  C   UNL     1     -19.554   6.622   1.639  1.00  0.00     0.200 A 
ATOM     71  F   UNL     1     -20.204   6.269  -0.604  1.00  0.00    -0.200 F 
ATOM     72  F   UNL     1     -20.702   6.082   2.071  1.00  0.00    -0.200 F 
ENDBRANCH  48  62
BRANCH  49  73
ATOM     73  C   UNL     1      -8.281  11.011  -2.523  1.00  0.00     0.064 A 
ATOM     74  C   UNL     1      -7.692  12.183  -2.027  1.00  0.00     0.173 A 
ATOM     75  C   UNL     1      -7.616  10.339  -3.560  1.00  0.00     0.173 A 
ATOM     76  F   UNL     1      -8.305  12.882  -1.060  1.00  0.00    -0.203 F 
ATOM     77  C   UNL     1      -6.497  12.670  -2.555  1.00  0.00     0.198 A 
ATOM     78  C   UNL     1      -6.409  10.813  -4.071  1.00  0.00     0.198 A 
ATOM     79  F   UNL     1      -8.143   9.221  -4.082  1.00  0.00    -0.203 F 
ATOM     80  F   UNL     1      -5.982  13.818  -2.094  1.00  0.00    -0.200 F 
ATOM     81  C   UNL     1      -5.854  11.982  -3.573  1.00  0.00     0.200 A 
ATOM     82  F   UNL     1      -5.789  10.143  -5.052  1.00  0.00    -0.200 F 
ATOM     83  F   UNL     1      -4.707  12.452  -4.082  1.00  0.00    -0.200 F 
ENDBRANCH  49  73
BRANCH  61  84
ATOM     84  C   UNL     1     -14.795  13.459  -2.946  1.00  0.00     0.064 A 
ATOM     85  C   UNL     1     -14.930  13.550  -4.339  1.00  0.00     0.173 A 
ATOM     86  C   UNL     1     -15.285  14.517  -2.167  1.00  0.00     0.173 A 
ATOM     87  F   UNL     1     -14.465  12.569  -5.128  1.00  0.00    -0.203 F 
ATOM     88  C   UNL     1     -15.518  14.665  -4.929  1.00  0.00     0.198 A 
ATOM     89  C   UNL     1     -15.899  15.618  -2.758  1.00  0.00     0.198 A 
ATOM     90  F   UNL     1     -15.188  14.473  -0.829  1.00  0.00    -0.203 F 
ATOM     91  F   UNL     1     -15.603  14.749  -6.264  1.00  0.00    -0.200 F 
ATOM     92  C   UNL     1     -16.010  15.694  -4.138  1.00  0.00     0.200 A 
ATOM     93  F   UNL     1     -16.387  16.603  -1.991  1.00  0.00    -0.200 F 
ATOM     94  F   UNL     1     -16.587  16.761  -4.707  1.00  0.00    -0.200 F 
ENDBRANCH  61  84
ENDBRANCH  35  36
ENDBRANCH  28  30
ENDBRANCH  27  28
ENDBRANCH  26  27
ENDBRANCH  25  26
ENDBRANCH  24  25
ENDBRANCH  23  24
ENDBRANCH   1  23
TORSDOF 21
