REMARK SMILES O=C(OCCOCCOCCOCCOC(=O)c1ccc(-c2c3nc(c(-c4c(F)c(F)c(F)c(F)c4F)c4ccc([nH]4)c(-c4c(F)c(F)c(F)c(F)c4F)c4nc(c(-c5c(F)c(F)c(F)c(F)c5F)c5ccc2[nH]5)C=C4)C=C3)cc1)C1=Cc2c(Cl)ccc(Cl)c2O[C@@H]1C(F)(F)F
REMARK SMILES IDX 10 1 9 2 8 3 7 4 6 5 5 6 4 7 3 8 2 9 1 10 81 11 82 12 92 13
REMARK SMILES IDX 83 14 91 15 84 16 90 17 85 18 86 19 88 20 87 21 89 22 93 23
REMARK SMILES IDX 94 24 95 25 96 26 11 27 12 28 13 29 14 30 15 31 16 32 17 33
REMARK SMILES IDX 18 34 19 35 80 36 20 37 79 38 21 39 22 40 23 41 73 42 24 43
REMARK SMILES IDX 78 44 72 45 74 46 25 47 77 48 71 49 70 50 26 52 58 53 38 54
REMARK SMILES IDX 57 55 39 56 42 57 56 58 75 59 40 60 41 61 55 63 76 64 43 65
REMARK SMILES IDX 27 66 28 67 36 68 29 69 30 70 34 71 37 72 31 73 32 74 35 75
REMARK SMILES IDX 33 76 59 77 60 78 68 79 61 80 62 81 66 82 69 83 63 84 64 85
REMARK SMILES IDX 67 86 65 87 44 88 45 89 53 90 46 91 47 92 51 93 54 94 48 95
REMARK SMILES IDX 49 96 52 97 50 98
REMARK H PARENT 74 51 42 62
REMARK Flexibility Score: inf
ROOT
ATOM      1  C   UNL     1       4.032   1.322   3.534  1.00  0.00     0.188 C 
ENDROOT
BRANCH   1   2
ATOM      2  O   UNL     1       2.694   1.214   3.958  1.00  0.00    -0.377 OA
BRANCH   2   3
ATOM      3  C   UNL     1       1.849   0.790   2.916  1.00  0.00     0.188 C 
BRANCH   3   4
ATOM      4  C   UNL     1       2.189  -0.582   2.318  1.00  0.00     0.188 C 
BRANCH   4   5
ATOM      5  O   UNL     1       3.519  -0.964   1.820  1.00  0.00    -0.376 OA
BRANCH   5   6
ATOM      6  C   UNL     1       4.252  -0.879   0.333  1.00  0.00     0.202 C 
BRANCH   6   7
ATOM      7  C   UNL     1       3.535   0.197  -1.426  1.00  0.00     0.261 C 
BRANCH   7   8
ATOM      8  O   UNL     1       2.590  -0.326  -2.478  1.00  0.00    -0.460 OA
BRANCH   8   9
ATOM      9  C   UNL     1       2.749  -1.638  -2.692  1.00  0.00     0.338 C 
ATOM     10  O   UNL     1       2.050  -2.371  -3.345  1.00  0.00    -0.246 OA
BRANCH   9  11
ATOM     11  C   UNL     1       3.625  -1.910  -1.560  1.00  0.00     0.087 C 
ATOM     12  C   UNL     1       5.012  -1.475  -1.752  1.00  0.00     0.029 C 
ATOM     13  C   UNL     1       2.402  -1.123  -0.311  1.00  0.00     0.316 C 
ATOM     14  C   UNL     1       5.739   0.017  -1.029  1.00  0.00     0.037 A 
ATOM     15  O   UNL     1       3.082   0.570   0.378  1.00  0.00    -0.474 OA
ATOM     16  C   UNL     1       7.029   0.390  -1.330  1.00  0.00     0.052 A 
ATOM     17  C   UNL     1       4.791   1.107  -0.059  1.00  0.00     0.148 A 
ATOM     18  Cl  UNL     1       8.071  -0.531  -2.331  1.00  0.00    -0.084 Cl
ATOM     19  C   UNL     1       7.462   1.620  -0.801  1.00  0.00     0.023 A 
ATOM     20  C   UNL     1       5.285   2.325   0.349  1.00  0.00     0.083 A 
ATOM     21  C   UNL     1       6.640   2.530  -0.018  1.00  0.00     0.026 A 
ATOM     22  Cl  UNL     1       4.404   3.581   1.086  1.00  0.00    -0.080 Cl
BRANCH  13  23
ATOM     23  C   UNL     1       2.094  -2.603   0.419  1.00  0.00     0.430 C 
ATOM     24  F   UNL     1       1.210  -2.644   1.432  1.00  0.00    -0.167 F 
ATOM     25  F   UNL     1       1.528  -3.397  -0.541  1.00  0.00    -0.167 F 
ATOM     26  F   UNL     1       3.195  -3.292   0.812  1.00  0.00    -0.167 F 
ENDBRANCH  13  23
ENDBRANCH   9  11
ENDBRANCH   8   9
ENDBRANCH   7   8
ENDBRANCH   6   7
ENDBRANCH   5   6
ENDBRANCH   4   5
ENDBRANCH   3   4
ENDBRANCH   2   3
ENDBRANCH   1   2
BRANCH   1  27
ATOM     27  C   UNL     1       5.018   0.292   4.095  1.00  0.00     0.188 C 
BRANCH  27  28
ATOM     28  O   UNL     1       4.612  -0.875   4.784  1.00  0.00    -0.376 OA
BRANCH  28  29
ATOM     29  C   UNL     1       3.420  -0.913   5.545  1.00  0.00     0.202 C 
BRANCH  29  30
ATOM     30  C   UNL     1       3.167   0.058   6.710  1.00  0.00     0.261 C 
BRANCH  30  31
ATOM     31  O   UNL     1       3.470   1.438   6.473  1.00  0.00    -0.460 OA
BRANCH  31  32
ATOM     32  C   UNL     1       4.722   1.823   6.795  1.00  0.00     0.338 C 
ATOM     33  O   UNL     1       5.584   1.148   7.332  1.00  0.00    -0.246 OA
BRANCH  32  34
ATOM     34  C   UNL     1       4.992   3.163   6.226  1.00  0.00     0.060 A 
ATOM     35  C   UNL     1       6.178   3.342   5.497  1.00  0.00     0.016 A 
ATOM     36  C   UNL     1       4.115   4.233   6.413  1.00  0.00     0.016 A 
ATOM     37  C   UNL     1       6.516   4.592   4.992  1.00  0.00     0.010 A 
ATOM     38  C   UNL     1       4.478   5.501   5.950  1.00  0.00     0.010 A 
ATOM     39  C   UNL     1       5.702   5.691   5.281  1.00  0.00    -0.014 A 
BRANCH  39  40
ATOM     40  C   UNL     1       6.263   7.051   5.120  1.00  0.00     0.031 A 
ATOM     41  C   UNL     1       6.846   7.718   6.334  1.00  0.00     0.074 A 
ATOM     42  C   UNL     1       6.307   7.658   3.922  1.00  0.00     0.049 A 
ATOM     43  N   UNL     1       7.344   8.920   6.468  1.00  0.00    -0.248 NA
ATOM     44  C   UNL     1       6.865   6.918   7.571  1.00  0.00     0.031 C 
ATOM     45  C   UNL     1       5.833   7.081   2.669  1.00  0.00     0.029 A 
ATOM     46  N   UNL     1       6.767   8.902   3.572  1.00  0.00    -0.354 N 
ATOM     47  C   UNL     1       7.716   9.024   7.802  1.00  0.00     0.074 A 
ATOM     48  C   UNL     1       7.359   7.780   8.445  1.00  0.00     0.031 C 
ATOM     49  C   UNL     1       6.010   7.978   1.683  1.00  0.00     0.029 A 
ATOM     50  C   UNL     1       6.570   9.205   2.248  1.00  0.00     0.049 A 
ATOM     51  H   UNL     1       7.198   9.518   4.209  1.00  0.00     0.167 HD
ATOM     52  C   UNL     1       8.308  10.067   8.431  1.00  0.00     0.037 A 
ATOM     53  C   UNL     1       6.784  10.358   1.583  1.00  0.00     0.037 A 
ATOM     54  C   UNL     1       8.651  11.304   7.781  1.00  0.00     0.049 A 
ATOM     55  C   UNL     1       7.355  11.539   2.329  1.00  0.00     0.074 A 
ATOM     56  C   UNL     1       9.264  12.420   8.322  1.00  0.00     0.029 A 
ATOM     57  N   UNL     1       8.397  11.593   6.448  1.00  0.00    -0.354 N 
ATOM     58  N   UNL     1       7.723  11.630   3.585  1.00  0.00    -0.248 NA
ATOM     59  C   UNL     1       7.541  12.778   1.562  1.00  0.00     0.031 C 
ATOM     60  C   UNL     1       9.306  13.412   7.339  1.00  0.00     0.029 A 
ATOM     61  C   UNL     1       8.804  12.885   6.159  1.00  0.00     0.049 A 
ATOM     62  H   UNL     1       7.987  10.972   5.803  1.00  0.00     0.167 HD
ATOM     63  C   UNL     1       8.214  12.920   3.749  1.00  0.00     0.074 A 
ATOM     64  C   UNL     1       8.114  13.568   2.458  1.00  0.00     0.031 C 
ATOM     65  C   UNL     1       8.704  13.515   4.866  1.00  0.00     0.037 A 
BRANCH  52  66
ATOM     66  C   UNL     1       8.574   9.931   9.903  1.00  0.00     0.064 A 
ATOM     67  C   UNL     1       9.519   9.025  10.410  1.00  0.00     0.173 A 
ATOM     68  C   UNL     1       7.886  10.738  10.822  1.00  0.00     0.173 A 
ATOM     69  F   UNL     1      10.196   8.219   9.578  1.00  0.00    -0.203 F 
ATOM     70  C   UNL     1       9.740   8.910  11.780  1.00  0.00     0.198 A 
ATOM     71  C   UNL     1       8.138  10.649  12.188  1.00  0.00     0.198 A 
ATOM     72  F   UNL     1       6.973  11.624  10.394  1.00  0.00    -0.203 F 
ATOM     73  F   UNL     1      10.604   7.996  12.244  1.00  0.00    -0.200 F 
ATOM     74  C   UNL     1       9.056   9.728  12.667  1.00  0.00     0.200 A 
ATOM     75  F   UNL     1       7.490  11.455  13.041  1.00  0.00    -0.200 F 
ATOM     76  F   UNL     1       9.277   9.624  13.985  1.00  0.00    -0.200 F 
ENDBRANCH  52  66
BRANCH  53  77
ATOM     77  C   UNL     1       6.435  10.464   0.141  1.00  0.00     0.064 A 
ATOM     78  C   UNL     1       7.424  10.675  -0.831  1.00  0.00     0.173 A 
ATOM     79  C   UNL     1       5.103  10.388  -0.295  1.00  0.00     0.173 A 
ATOM     80  F   UNL     1       8.710  10.778  -0.465  1.00  0.00    -0.203 F 
ATOM     81  C   UNL     1       7.093  10.831  -2.175  1.00  0.00     0.198 A 
ATOM     82  C   UNL     1       4.777  10.505  -1.644  1.00  0.00     0.198 A 
ATOM     83  F   UNL     1       4.116  10.189   0.591  1.00  0.00    -0.203 F 
ATOM     84  F   UNL     1       8.053  11.091  -3.073  1.00  0.00    -0.200 F 
ATOM     85  C   UNL     1       5.770  10.739  -2.582  1.00  0.00     0.200 A 
ATOM     86  F   UNL     1       3.500  10.397  -2.034  1.00  0.00    -0.200 F 
ATOM     87  F   UNL     1       5.453  10.884  -3.876  1.00  0.00    -0.200 F 
ENDBRANCH  53  77
BRANCH  65  88
ATOM     88  C   UNL     1       9.219  14.923   4.734  1.00  0.00     0.064 A 
ATOM     89  C   UNL     1       8.366  16.007   4.482  1.00  0.00     0.173 A 
ATOM     90  C   UNL     1      10.586  15.193   4.905  1.00  0.00     0.173 A 
ATOM     91  F   UNL     1       7.051  15.806   4.301  1.00  0.00    -0.203 F 
ATOM     92  C   UNL     1       8.866  17.302   4.368  1.00  0.00     0.198 A 
ATOM     93  C   UNL     1      11.077  16.494   4.834  1.00  0.00     0.198 A 
ATOM     94  F   UNL     1      11.448  14.196   5.159  1.00  0.00    -0.203 F 
ATOM     95  F   UNL     1       8.041  18.313   4.063  1.00  0.00    -0.200 F 
ATOM     96  C   UNL     1      10.219  17.545   4.553  1.00  0.00     0.200 A 
ATOM     97  F   UNL     1      12.381  16.728   5.036  1.00  0.00    -0.200 F 
ATOM     98  F   UNL     1      10.697  18.793   4.453  1.00  0.00    -0.200 F 
ENDBRANCH  65  88
ENDBRANCH  39  40
ENDBRANCH  32  34
ENDBRANCH  31  32
ENDBRANCH  30  31
ENDBRANCH  29  30
ENDBRANCH  28  29
ENDBRANCH  27  28
ENDBRANCH   1  27
TORSDOF 21
