REMARK SMILES CC(C)C(=O)Nc1ccc2c([C@H](C(=O)OCCOCCOCCOCCOC(=O)c3ccc(-c4c5nc(c(-c6c(F)c(F)c(F)c(F)c6F)c6ccc([nH]6)c(-c6c(F)c(F)c(F)c(F)c6F)c6nc(c(-c7c(F)c(F)c(F)c(F)c7F)c7ccc4[nH]7)C=C6)C=C5)cc3)[NH+]3CC[NH+](CC(=O)N(C)C)CC3)c[nH]c2c1
REMARK SMILES IDX 20 1 19 2 18 3 17 4 16 5 15 6 13 7 14 8 12 9 11 10 7 11 8 12
REMARK SMILES IDX 108 13 9 14 107 15 10 16 106 17 105 18 6 20 4 21 5 22 2 24
REMARK SMILES IDX 1 25 3 26 93 27 94 28 104 29 95 31 103 32 96 33 97 35 98 36
REMARK SMILES IDX 99 37 100 38 101 39 102 40 21 41 22 42 23 43 24 44 25 45
REMARK SMILES IDX 26 46 27 47 28 48 29 49 30 50 31 51 92 52 32 53 91 54 33 55
REMARK SMILES IDX 34 56 35 57 85 58 36 59 90 60 84 61 86 62 37 63 89 64 83 65
REMARK SMILES IDX 82 66 38 68 70 69 50 70 69 71 51 72 54 73 68 74 87 75 52 76
REMARK SMILES IDX 53 77 67 79 88 80 55 81 39 82 40 83 48 84 41 85 42 86 46 87
REMARK SMILES IDX 49 88 43 89 44 90 47 91 45 92 71 93 72 94 80 95 73 96 74 97
REMARK SMILES IDX 78 98 81 99 75 100 76 101 79 102 77 103 56 104 57 105 65 106
REMARK SMILES IDX 58 107 59 108 63 109 66 110 60 111 61 112 64 113 62 114
REMARK H PARENT 106 19 6 23 93 30 96 34 86 67 54 78
REMARK Flexibility Score: inf
ROOT
ATOM      1  C   UNL     1      -0.049  -2.726  -5.557  1.00  0.00     0.188 C 
ENDROOT
BRANCH   1   2
ATOM      2  C   UNL     1      -1.422  -3.391  -5.699  1.00  0.00     0.188 C 
BRANCH   2   3
ATOM      3  O   UNL     1      -2.385  -3.361  -4.650  1.00  0.00    -0.376 OA
BRANCH   3   4
ATOM      4  C   UNL     1      -2.137  -2.611  -3.476  1.00  0.00     0.202 C 
BRANCH   4   5
ATOM      5  C   UNL     1      -1.280  -3.292  -2.385  1.00  0.00     0.261 C 
BRANCH   5   6
ATOM      6  O   UNL     1       0.049  -3.800  -2.670  1.00  0.00    -0.459 OA
BRANCH   6   7
ATOM      7  C   UNL     1       0.097  -5.084  -3.155  1.00  0.00     0.370 C 
ATOM      8  O   UNL     1      -0.853  -5.597  -3.737  1.00  0.00    -0.245 OA
BRANCH   7   9
ATOM      9  C   UNL     1       1.410  -5.826  -2.765  1.00  0.00     0.328 C 
BRANCH   9  10
ATOM     10  C   UNL     1       1.211  -7.343  -2.630  1.00  0.00     0.046 A 
ATOM     11  C   UNL     1       3.752 -10.601  -1.902  1.00  0.00     0.043 A 
ATOM     12  C   UNL     1       4.394  -9.405  -2.178  1.00  0.00     0.027 A 
ATOM     13  C   UNL     1       2.383 -10.751  -2.135  1.00  0.00     0.052 A 
ATOM     14  C   UNL     1       3.659  -8.249  -2.417  1.00  0.00     0.013 A 
ATOM     15  C   UNL     1       1.659  -9.581  -2.388  1.00  0.00     0.048 A 
ATOM     16  C   UNL     1       2.254  -8.322  -2.468  1.00  0.00     0.009 A 
ATOM     17  N   UNL     1       0.313  -9.399  -2.568  1.00  0.00    -0.361 N 
ATOM     18  C   UNL     1       0.029  -8.066  -2.657  1.00  0.00     0.094 A 
ATOM     19  H   UNL     1      -0.352 -10.123  -2.625  1.00  0.00     0.166 HD
BRANCH  11  20
ATOM     20  N   UNL     1       4.441 -11.668  -1.330  1.00  0.00    -0.326 N 
ATOM     21  C   UNL     1       5.274 -11.665  -0.245  1.00  0.00     0.226 C 
ATOM     22  O   UNL     1       5.820 -12.737   0.045  1.00  0.00    -0.274 OA
ATOM     23  H   UNL     1       4.311 -12.542  -1.765  1.00  0.00     0.169 HD
BRANCH  21  24
ATOM     24  C   UNL     1       5.484 -10.444   0.673  1.00  0.00     0.072 C 
ATOM     25  C   UNL     1       6.489  -9.416   0.165  1.00  0.00     0.018 C 
ATOM     26  C   UNL     1       4.199  -9.803   1.200  1.00  0.00     0.018 C 
ENDBRANCH  21  24
ENDBRANCH  11  20
ENDBRANCH   9  10
BRANCH   9  27
ATOM     27  N   UNL     1       2.566  -5.601  -3.643  1.00  0.00    -0.310 N 
ATOM     28  C   UNL     1       2.653  -6.210  -4.961  1.00  0.00     0.325 C 
ATOM     29  C   UNL     1       3.409  -4.439  -3.481  1.00  0.00     0.325 C 
ATOM     30  H   UNL     1       3.001  -6.304  -3.046  1.00  0.00     0.349 HD
ATOM     31  C   UNL     1       2.473  -5.231  -6.125  1.00  0.00     0.325 C 
ATOM     32  C   UNL     1       3.183  -3.408  -4.591  1.00  0.00     0.325 C 
ATOM     33  N   UNL     1       3.079  -3.897  -5.976  1.00  0.00    -0.318 N 
ATOM     34  H   UNL     1       2.391  -3.246  -6.357  1.00  0.00     0.348 HD
BRANCH  33  35
ATOM     35  C   UNL     1       4.254  -3.692  -6.834  1.00  0.00     0.364 C 
BRANCH  35  36
ATOM     36  C   UNL     1       5.500  -4.423  -6.356  1.00  0.00     0.277 C 
ATOM     37  O   UNL     1       5.712  -5.576  -6.744  1.00  0.00    -0.268 OA
ATOM     38  N   UNL     1       6.351  -3.779  -5.462  1.00  0.00    -0.344 N 
ATOM     39  C   UNL     1       6.340  -2.367  -5.102  1.00  0.00     0.146 C 
ATOM     40  C   UNL     1       7.412  -4.569  -4.869  1.00  0.00     0.146 C 
ENDBRANCH  35  36
ENDBRANCH  33  35
ENDBRANCH   9  27
ENDBRANCH   7   9
ENDBRANCH   6   7
ENDBRANCH   5   6
ENDBRANCH   4   5
ENDBRANCH   3   4
ENDBRANCH   2   3
ENDBRANCH   1   2
BRANCH   1  41
ATOM     41  O   UNL     1      -0.025  -1.660  -4.630  1.00  0.00    -0.377 OA
BRANCH  41  42
ATOM     42  C   UNL     1       0.700  -0.478  -4.889  1.00  0.00     0.188 C 
BRANCH  42  43
ATOM     43  C   UNL     1       0.415   0.134  -6.258  1.00  0.00     0.188 C 
BRANCH  43  44
ATOM     44  O   UNL     1       1.061  -0.433  -7.395  1.00  0.00    -0.376 OA
BRANCH  44  45
ATOM     45  C   UNL     1       2.408  -0.868  -7.255  1.00  0.00     0.202 C 
BRANCH  45  46
ATOM     46  C   UNL     1       3.478   0.209  -7.394  1.00  0.00     0.261 C 
BRANCH  46  47
ATOM     47  O   UNL     1       3.517   1.015  -6.206  1.00  0.00    -0.460 OA
BRANCH  47  48
ATOM     48  C   UNL     1       3.011   2.256  -6.356  1.00  0.00     0.338 C 
ATOM     49  O   UNL     1       2.661   2.807  -7.389  1.00  0.00    -0.246 OA
BRANCH  48  50
ATOM     50  C   UNL     1       2.712   2.794  -5.024  1.00  0.00     0.060 A 
ATOM     51  C   UNL     1       1.405   3.245  -4.801  1.00  0.00     0.016 A 
ATOM     52  C   UNL     1       3.691   2.894  -4.033  1.00  0.00     0.016 A 
ATOM     53  C   UNL     1       1.069   3.822  -3.591  1.00  0.00     0.010 A 
ATOM     54  C   UNL     1       3.369   3.525  -2.832  1.00  0.00     0.010 A 
ATOM     55  C   UNL     1       2.070   4.027  -2.637  1.00  0.00    -0.014 A 
BRANCH  55  56
ATOM     56  C   UNL     1       1.802   5.037  -1.600  1.00  0.00     0.031 A 
ATOM     57  C   UNL     1       2.184   6.456  -1.909  1.00  0.00     0.074 A 
ATOM     58  C   UNL     1       1.139   4.710  -0.482  1.00  0.00     0.049 A 
ATOM     59  N   UNL     1       2.046   7.532  -1.183  1.00  0.00    -0.248 NA
ATOM     60  C   UNL     1       2.799   6.696  -3.227  1.00  0.00     0.031 C 
ATOM     61  C   UNL     1       0.651   3.373  -0.151  1.00  0.00     0.029 A 
ATOM     62  N   UNL     1       0.754   5.486   0.577  1.00  0.00    -0.354 N 
ATOM     63  C   UNL     1       2.559   8.569  -1.952  1.00  0.00     0.074 A 
ATOM     64  C   UNL     1       3.037   7.996  -3.188  1.00  0.00     0.031 C 
ATOM     65  C   UNL     1       0.040   3.419   1.046  1.00  0.00     0.029 A 
ATOM     66  C   UNL     1       0.130   4.779   1.572  1.00  0.00     0.049 A 
ATOM     67  H   UNL     1       0.910   6.457   0.619  1.00  0.00     0.167 HD
ATOM     68  C   UNL     1       2.617   9.885  -1.647  1.00  0.00     0.037 A 
ATOM     69  C   UNL     1      -0.290   5.196   2.781  1.00  0.00     0.037 A 
ATOM     70  C   UNL     1       2.140  10.428  -0.405  1.00  0.00     0.049 A 
ATOM     71  C   UNL     1      -0.122   6.651   3.136  1.00  0.00     0.074 A 
ATOM     72  C   UNL     1       2.155  11.740   0.027  1.00  0.00     0.029 A 
ATOM     73  N   UNL     1       1.568   9.674   0.611  1.00  0.00    -0.354 N 
ATOM     74  N   UNL     1       0.368   7.631   2.413  1.00  0.00    -0.248 NA
ATOM     75  C   UNL     1      -0.569   7.059   4.473  1.00  0.00     0.031 C 
ATOM     76  C   UNL     1       1.652  11.771   1.331  1.00  0.00     0.029 A 
ATOM     77  C   UNL     1       1.254  10.490   1.684  1.00  0.00     0.049 A 
ATOM     78  H   UNL     1       1.409   8.703   0.574  1.00  0.00     0.167 HD
ATOM     79  C   UNL     1       0.260   8.775   3.192  1.00  0.00     0.074 A 
ATOM     80  C   UNL     1      -0.358   8.367   4.438  1.00  0.00     0.031 C 
ATOM     81  C   UNL     1       0.633  10.049   2.908  1.00  0.00     0.037 A 
BRANCH  68  82
ATOM     82  C   UNL     1       3.262  10.802  -2.646  1.00  0.00     0.064 A 
ATOM     83  C   UNL     1       2.670  11.092  -3.884  1.00  0.00     0.173 A 
ATOM     84  C   UNL     1       4.495  11.404  -2.353  1.00  0.00     0.173 A 
ATOM     85  F   UNL     1       1.504  10.523  -4.226  1.00  0.00    -0.203 F 
ATOM     86  C   UNL     1       3.300  11.931  -4.801  1.00  0.00     0.198 A 
ATOM     87  C   UNL     1       5.105  12.269  -3.258  1.00  0.00     0.198 A 
ATOM     88  F   UNL     1       5.110  11.155  -1.187  1.00  0.00    -0.203 F 
ATOM     89  F   UNL     1       2.742  12.150  -6.000  1.00  0.00    -0.200 F 
ATOM     90  C   UNL     1       4.512  12.525  -4.484  1.00  0.00     0.200 A 
ATOM     91  F   UNL     1       6.272  12.848  -2.944  1.00  0.00    -0.200 F 
ATOM     92  F   UNL     1       5.114  13.337  -5.364  1.00  0.00    -0.200 F 
ENDBRANCH  68  82
BRANCH  69  93
ATOM     93  C   UNL     1      -0.879   4.225   3.740  1.00  0.00     0.064 A 
ATOM     94  C   UNL     1      -2.219   4.315   4.139  1.00  0.00     0.173 A 
ATOM     95  C   UNL     1      -0.104   3.191   4.290  1.00  0.00     0.173 A 
ATOM     96  F   UNL     1      -2.996   5.296   3.658  1.00  0.00    -0.203 F 
ATOM     97  C   UNL     1      -2.756   3.424   5.067  1.00  0.00     0.198 A 
ATOM     98  C   UNL     1      -0.651   2.281   5.192  1.00  0.00     0.198 A 
ATOM     99  F   UNL     1       1.184   3.057   3.941  1.00  0.00    -0.203 F 
ATOM    100  F   UNL     1      -4.026   3.564   5.469  1.00  0.00    -0.200 F 
ATOM    101  C   UNL     1      -1.973   2.404   5.588  1.00  0.00     0.200 A 
ATOM    102  F   UNL     1       0.106   1.287   5.678  1.00  0.00    -0.200 F 
ATOM    103  F   UNL     1      -2.491   1.545   6.476  1.00  0.00    -0.200 F 
ENDBRANCH  69  93
BRANCH  81 104
ATOM    104  C   UNL     1       0.342  11.095   3.946  1.00  0.00     0.064 A 
ATOM    105  C   UNL     1       1.038  11.145   5.162  1.00  0.00     0.173 A 
ATOM    106  C   UNL     1      -0.618  12.088   3.696  1.00  0.00     0.173 A 
ATOM    107  F   UNL     1       1.957  10.211   5.453  1.00  0.00    -0.203 F 
ATOM    108  C   UNL     1       0.759  12.130   6.104  1.00  0.00     0.198 A 
ATOM    109  C   UNL     1      -0.866  13.094   4.623  1.00  0.00     0.198 A 
ATOM    110  F   UNL     1      -1.303  12.093   2.542  1.00  0.00    -0.203 F 
ATOM    111  F   UNL     1       1.394  12.124   7.284  1.00  0.00    -0.200 F 
ATOM    112  C   UNL     1      -0.186  13.108   5.831  1.00  0.00     0.200 A 
ATOM    113  F   UNL     1      -1.764  14.050   4.348  1.00  0.00    -0.200 F 
ATOM    114  F   UNL     1      -0.446  14.062   6.736  1.00  0.00    -0.200 F 
ENDBRANCH  81 104
ENDBRANCH  55  56
ENDBRANCH  48  50
ENDBRANCH  47  48
ENDBRANCH  46  47
ENDBRANCH  45  46
ENDBRANCH  44  45
ENDBRANCH  43  44
ENDBRANCH  42  43
ENDBRANCH  41  42
ENDBRANCH   1  41
TORSDOF 26
