REMARK SMILES O=C(COc1ccc(/C=C2/C(=O)[NH+]=C(O)N=C2O)cc1Cl)OCCOCCOCCOCCOC(=O)c1ccc(-c2c3nc(c(-c4c(F)c(F)c(F)c(F)c4F)c4ccc([nH]4)c(-c4c(F)c(F)c(F)c(F)c4F)c4nc(c(-c5c(F)c(F)c(F)c(F)c5F)c5ccc2[nH]5)C=C4)C=C3)cc1
REMARK SMILES IDX 27 1 26 2 25 3 24 4 23 5 22 6 2 7 1 8 3 9 4 10 5 11 6 12
REMARK SMILES IDX 20 13 7 14 19 15 21 16 8 17 9 18 10 19 11 20 17 21 12 22
REMARK SMILES IDX 13 23 16 24 14 25 18 27 15 29 28 31 29 32 30 33 31 34 32 35
REMARK SMILES IDX 33 36 34 37 35 38 36 39 37 40 38 41 99 42 39 43 98 44 40 45
REMARK SMILES IDX 41 46 42 47 92 48 43 49 97 50 91 51 93 52 44 53 96 54 90 55
REMARK SMILES IDX 89 56 45 58 77 59 57 60 76 61 58 62 61 63 75 64 94 65 59 66
REMARK SMILES IDX 60 67 74 69 95 70 62 71 46 72 47 73 55 74 48 75 49 76 53 77
REMARK SMILES IDX 56 78 50 79 51 80 54 81 52 82 78 83 79 84 87 85 80 86 81 87
REMARK SMILES IDX 85 88 88 89 82 90 83 91 86 92 84 93 63 94 64 95 72 96 65 97
REMARK SMILES IDX 66 98 70 99 73 100 67 101 68 102 71 103 69 104
REMARK H PARENT 13 26 18 28 15 30 93 57 61 68
REMARK Flexibility Score: inf
ROOT
ATOM      1  C   UNL     1       2.161  -2.601  -0.691  1.00  0.00     0.188 C 
ENDROOT
BRANCH   1   2
ATOM      2  C   UNL     1       2.766  -1.531  -1.616  1.00  0.00     0.188 C 
BRANCH   2   3
ATOM      3  O   UNL     1       4.116  -1.180  -1.344  1.00  0.00    -0.376 OA
BRANCH   3   4
ATOM      4  C   UNL     1       4.529  -0.341  -0.285  1.00  0.00     0.202 C 
BRANCH   4   5
ATOM      5  C   UNL     1       3.767  -0.305   1.045  1.00  0.00     0.261 C 
BRANCH   5   6
ATOM      6  O   UNL     1       2.332  -0.163   0.984  1.00  0.00    -0.461 OA
BRANCH   6   7
ATOM      7  C   UNL     1       1.627   0.689   0.209  1.00  0.00     0.344 C 
ATOM      8  O   UNL     1       0.434   0.481  -0.009  1.00  0.00    -0.248 OA
BRANCH   7   9
ATOM      9  C   UNL     1       2.350   1.857  -0.420  1.00  0.00     0.352 C 
BRANCH   9  10
ATOM     10  O   UNL     1       3.466   2.304   0.344  1.00  0.00    -0.480 OA
BRANCH  10  11
ATOM     11  C   UNL     1       3.206   3.465   0.995  1.00  0.00     0.138 A 
ATOM     12  C   UNL     1       3.996   4.541   0.605  1.00  0.00     0.048 A 
ATOM     13  C   UNL     1       2.232   3.619   1.982  1.00  0.00     0.083 A 
ATOM     14  C   UNL     1       3.713   5.807   1.098  1.00  0.00     0.012 A 
ATOM     15  C   UNL     1       1.895   4.894   2.397  1.00  0.00     0.032 A 
ATOM     16  Cl  UNL     1       1.442   2.313   2.775  1.00  0.00    -0.080 Cl
ATOM     17  C   UNL     1       2.593   6.003   1.912  1.00  0.00    -0.023 A 
BRANCH  17  18
ATOM     18  C   UNL     1       2.122   7.310   2.359  1.00  0.00     0.032 C 
ATOM     19  C   UNL     1       2.178   8.506   1.751  1.00  0.00     0.154 C 
ATOM     20  C   UNL     1       1.712   9.661   2.558  1.00  0.00     0.349 C 
ATOM     21  C   UNL     1       2.737   8.908   0.465  1.00  0.00     0.345 C 
ATOM     22  O   UNL     1       0.809   9.544   3.380  1.00  0.00    -0.240 OA
ATOM     23  N   UNL     1       2.414  10.813   2.361  1.00  0.00    -0.168 N 
ATOM     24  N   UNL     1       3.188  10.087   0.239  1.00  0.00     0.036 NA
ATOM     25  C   UNL     1       3.087  10.945   1.278  1.00  0.00     0.500 C 
ATOM     26  H   UNL     1       2.404  11.528   3.037  1.00  0.00     0.319 HD
BRANCH  21  27
ATOM     27  O   UNL     1       2.712   8.027  -0.546  1.00  0.00    -0.474 OA
ATOM     28  H   UNL     1       2.386   7.160  -0.404  1.00  0.00     0.297 HD
ENDBRANCH  21  27
BRANCH  25  29
ATOM     29  O   UNL     1       3.792  12.065   1.108  1.00  0.00    -0.443 OA
ATOM     30  H   UNL     1       3.789  12.726   1.772  1.00  0.00     0.301 HD
ENDBRANCH  25  29
ENDBRANCH  17  18
ENDBRANCH  10  11
ENDBRANCH   9  10
ENDBRANCH   7   9
ENDBRANCH   6   7
ENDBRANCH   5   6
ENDBRANCH   4   5
ENDBRANCH   3   4
ENDBRANCH   2   3
ENDBRANCH   1   2
BRANCH   1  31
ATOM     31  O   UNL     1       2.848  -3.847  -0.619  1.00  0.00    -0.377 OA
BRANCH  31  32
ATOM     32  C   UNL     1       4.238  -3.773  -0.333  1.00  0.00     0.188 C 
BRANCH  32  33
ATOM     33  C   UNL     1       5.127  -3.788  -1.592  1.00  0.00     0.188 C 
BRANCH  33  34
ATOM     34  O   UNL     1       4.417  -3.563  -2.805  1.00  0.00    -0.376 OA
BRANCH  34  35
ATOM     35  C   UNL     1       4.034  -4.711  -3.553  1.00  0.00     0.202 C 
BRANCH  35  36
ATOM     36  C   UNL     1       3.008  -5.662  -2.911  1.00  0.00     0.261 C 
BRANCH  36  37
ATOM     37  O   UNL     1       3.432  -6.313  -1.698  1.00  0.00    -0.460 OA
BRANCH  37  38
ATOM     38  C   UNL     1       4.580  -7.015  -1.726  1.00  0.00     0.338 C 
ATOM     39  O   UNL     1       5.254  -7.296  -2.700  1.00  0.00    -0.246 OA
BRANCH  38  40
ATOM     40  C   UNL     1       5.033  -7.198  -0.329  1.00  0.00     0.060 A 
ATOM     41  C   UNL     1       6.350  -6.839  -0.013  1.00  0.00     0.016 A 
ATOM     42  C   UNL     1       4.172  -7.674   0.665  1.00  0.00     0.016 A 
ATOM     43  C   UNL     1       6.825  -7.003   1.285  1.00  0.00     0.010 A 
ATOM     44  C   UNL     1       4.657  -7.869   1.962  1.00  0.00     0.010 A 
ATOM     45  C   UNL     1       5.999  -7.575   2.261  1.00  0.00    -0.014 A 
BRANCH  45  46
ATOM     46  C   UNL     1       6.638  -8.110   3.485  1.00  0.00     0.031 A 
ATOM     47  C   UNL     1       7.125  -9.533   3.446  1.00  0.00     0.074 A 
ATOM     48  C   UNL     1       6.864  -7.340   4.563  1.00  0.00     0.049 A 
ATOM     49  N   UNL     1       7.800 -10.209   4.340  1.00  0.00    -0.248 NA
ATOM     50  C   UNL     1       6.817 -10.294   2.223  1.00  0.00     0.031 C 
ATOM     51  C   UNL     1       6.462  -5.943   4.706  1.00  0.00     0.029 A 
ATOM     52  N   UNL     1       7.499  -7.633   5.743  1.00  0.00    -0.354 N 
ATOM     53  C   UNL     1       8.018 -11.459   3.776  1.00  0.00     0.074 A 
ATOM     54  C   UNL     1       7.363 -11.470   2.487  1.00  0.00     0.031 C 
ATOM     55  C   UNL     1       6.854  -5.500   5.914  1.00  0.00     0.029 A 
ATOM     56  C   UNL     1       7.525  -6.585   6.630  1.00  0.00     0.049 A 
ATOM     57  H   UNL     1       7.899  -8.512   5.936  1.00  0.00     0.167 HD
ATOM     58  C   UNL     1       8.721 -12.501   4.277  1.00  0.00     0.037 A 
ATOM     59  C   UNL     1       8.031  -6.521   7.877  1.00  0.00     0.037 A 
ATOM     60  C   UNL     1       9.345 -12.503   5.571  1.00  0.00     0.049 A 
ATOM     61  C   UNL     1       8.747  -7.723   8.444  1.00  0.00     0.074 A 
ATOM     62  C   UNL     1      10.057 -13.516   6.186  1.00  0.00     0.029 A 
ATOM     63  N   UNL     1       9.320 -11.434   6.455  1.00  0.00    -0.354 N 
ATOM     64  N   UNL     1       8.978  -8.890   7.892  1.00  0.00    -0.248 NA
ATOM     65  C   UNL     1       9.288  -7.589   9.805  1.00  0.00     0.031 C 
ATOM     66  C   UNL     1      10.427 -13.076   7.462  1.00  0.00     0.029 A 
ATOM     67  C   UNL     1       9.991 -11.769   7.619  1.00  0.00     0.049 A 
ATOM     68  H   UNL     1       8.889 -10.566   6.281  1.00  0.00     0.167 HD
ATOM     69  C   UNL     1       9.708  -9.618   8.823  1.00  0.00     0.074 A 
ATOM     70  C   UNL     1       9.903  -8.752   9.967  1.00  0.00     0.031 C 
ATOM     71  C   UNL     1      10.174 -10.890   8.745  1.00  0.00     0.037 A 
BRANCH  58  72
ATOM     72  C   UNL     1       8.832 -13.726   3.420  1.00  0.00     0.064 A 
ATOM     73  C   UNL     1       9.628 -13.740   2.264  1.00  0.00     0.173 A 
ATOM     74  C   UNL     1       8.148 -14.901   3.762  1.00  0.00     0.173 A 
ATOM     75  F   UNL     1      10.284 -12.633   1.882  1.00  0.00    -0.203 F 
ATOM     76  C   UNL     1       9.718 -14.880   1.470  1.00  0.00     0.198 A 
ATOM     77  C   UNL     1       8.262 -16.048   2.981  1.00  0.00     0.198 A 
ATOM     78  F   UNL     1       7.371 -14.938   4.854  1.00  0.00    -0.203 F 
ATOM     79  F   UNL     1      10.447 -14.857   0.346  1.00  0.00    -0.200 F 
ATOM     80  C   UNL     1       9.041 -16.035   1.833  1.00  0.00     0.200 A 
ATOM     81  F   UNL     1       7.614 -17.166   3.336  1.00  0.00    -0.200 F 
ATOM     82  F   UNL     1       9.133 -17.134   1.072  1.00  0.00    -0.200 F 
ENDBRANCH  58  72
BRANCH  59  83
ATOM     83  C   UNL     1       7.877  -5.281   8.684  1.00  0.00     0.064 A 
ATOM     84  C   UNL     1       8.982  -4.495   9.036  1.00  0.00     0.173 A 
ATOM     85  C   UNL     1       6.617  -4.881   9.155  1.00  0.00     0.173 A 
ATOM     86  F   UNL     1      10.211  -4.848   8.632  1.00  0.00    -0.203 F 
ATOM     87  C   UNL     1       8.838  -3.371   9.848  1.00  0.00     0.198 A 
ATOM     88  C   UNL     1       6.470  -3.741   9.943  1.00  0.00     0.198 A 
ATOM     89  F   UNL     1       5.527  -5.600   8.850  1.00  0.00    -0.203 F 
ATOM     90  F   UNL     1       9.919  -2.669  10.215  1.00  0.00    -0.200 F 
ATOM     91  C   UNL     1       7.582  -2.993  10.297  1.00  0.00     0.200 A 
ATOM     92  F   UNL     1       5.253  -3.374  10.365  1.00  0.00    -0.200 F 
ATOM     93  F   UNL     1       7.444  -1.914  11.081  1.00  0.00    -0.200 F 
ENDBRANCH  59  83
BRANCH  71  94
ATOM     94  C   UNL     1      10.960 -11.407   9.915  1.00  0.00     0.064 A 
ATOM     95  C   UNL     1      10.349 -11.696  11.144  1.00  0.00     0.173 A 
ATOM     96  C   UNL     1      12.339 -11.642   9.796  1.00  0.00     0.173 A 
ATOM     97  F   UNL     1       9.036 -11.479  11.312  1.00  0.00    -0.203 F 
ATOM     98  C   UNL     1      11.095 -12.166  12.221  1.00  0.00     0.198 A 
ATOM     99  C   UNL     1      13.076 -12.143  10.865  1.00  0.00     0.198 A 
ATOM    100  F   UNL     1      12.971 -11.393   8.639  1.00  0.00    -0.203 F 
ATOM    101  F   UNL     1      10.500 -12.380  13.403  1.00  0.00    -0.200 F 
ATOM    102  C   UNL     1      12.456 -12.394  12.080  1.00  0.00     0.200 A 
ATOM    103  F   UNL     1      14.387 -12.377  10.722  1.00  0.00    -0.200 F 
ATOM    104  F   UNL     1      13.172 -12.847  13.118  1.00  0.00    -0.200 F 
ENDBRANCH  71  94
ENDBRANCH  45  46
ENDBRANCH  38  40
ENDBRANCH  37  38
ENDBRANCH  36  37
ENDBRANCH  35  36
ENDBRANCH  34  35
ENDBRANCH  33  34
ENDBRANCH  32  33
ENDBRANCH  31  32
ENDBRANCH   1  31
TORSDOF 25
