REMARK SMILES [NH3+]C1CC[NH+](CC(=O)Nc2cc(Cl)ccc2C(=O)OCCOCCOCCOCCOC(=O)c2ccc(-c3c4nc(c(-c5c(F)c(F)c(F)c(F)c5F)c5ccc([nH]5)c(-c5c(F)c(F)c(F)c(F)c5F)c5nc(c(-c6c(F)c(F)c(F)c(F)c6F)c6ccc3[nH]6)C=C5)C=C4)cc2)CC1
REMARK SMILES IDX 24 1 23 2 22 3 21 4 20 5 19 6 17 7 18 8 16 9 10 10 11 11
REMARK SMILES IDX 12 12 15 13 13 14 14 15 9 16 7 17 8 18 6 20 5 21 2 22 3 23
REMARK SMILES IDX 98 24 4 25 97 26 1 28 25 32 26 33 27 34 28 35 29 36 30 37
REMARK SMILES IDX 31 38 32 39 33 40 34 41 35 42 96 43 36 44 95 45 37 46 38 47
REMARK SMILES IDX 39 48 89 49 40 50 94 51 88 52 90 53 41 54 93 55 87 56 86 57
REMARK SMILES IDX 42 59 74 60 54 61 73 62 55 63 58 64 72 65 91 66 56 67 57 68
REMARK SMILES IDX 71 70 92 71 59 72 43 73 44 74 52 75 45 76 46 77 50 78 53 79
REMARK SMILES IDX 47 80 48 81 51 82 49 83 75 84 76 85 84 86 77 87 78 88 82 89
REMARK SMILES IDX 85 90 79 91 80 92 83 93 81 94 60 95 61 96 69 97 62 98 63 99
REMARK SMILES IDX 67 100 70 101 64 102 65 103 68 104 66 105
REMARK H PARENT 9 19 5 27 1 29 1 30 1 31 90 58 58 69
REMARK Flexibility Score: inf
ROOT
ATOM      1  C   UNL     1      -5.521   2.055   2.763  1.00  0.00     0.188 C 
ENDROOT
BRANCH   1   2
ATOM      2  C   UNL     1      -6.071   0.798   3.460  1.00  0.00     0.188 C 
BRANCH   2   3
ATOM      3  O   UNL     1      -5.846   0.762   4.866  1.00  0.00    -0.376 OA
BRANCH   3   4
ATOM      4  C   UNL     1      -5.055  -0.317   5.351  1.00  0.00     0.202 C 
BRANCH   4   5
ATOM      5  C   UNL     1      -3.550  -0.091   5.175  1.00  0.00     0.261 C 
BRANCH   5   6
ATOM      6  O   UNL     1      -3.177   0.093   3.802  1.00  0.00    -0.460 OA
BRANCH   6   7
ATOM      7  C   UNL     1      -3.256  -0.993   2.993  1.00  0.00     0.340 C 
ATOM      8  O   UNL     1      -3.455  -2.129   3.348  1.00  0.00    -0.246 OA
BRANCH   7   9
ATOM      9  C   UNL     1      -3.301  -0.520   1.570  1.00  0.00     0.083 A 
ATOM     10  C   UNL     1      -2.757   0.710   1.104  1.00  0.00     0.057 A 
ATOM     11  C   UNL     1      -3.020   1.065  -0.221  1.00  0.00     0.047 A 
ATOM     12  C   UNL     1      -3.733   0.215  -1.076  1.00  0.00     0.043 A 
ATOM     13  C   UNL     1      -4.038  -1.355   0.706  1.00  0.00     0.019 A 
ATOM     14  Cl  UNL     1      -3.986   0.673  -2.716  1.00  0.00    -0.084 Cl
ATOM     15  C   UNL     1      -4.246  -0.991  -0.620  1.00  0.00     0.021 A 
BRANCH  10  16
ATOM     16  N   UNL     1      -2.023   1.518   2.007  1.00  0.00    -0.320 N 
ATOM     17  C   UNL     1      -1.216   2.615   1.981  1.00  0.00     0.279 C 
ATOM     18  O   UNL     1      -0.718   2.942   3.070  1.00  0.00    -0.268 OA
ATOM     19  H   UNL     1      -2.128   1.189   2.929  1.00  0.00     0.170 HD
BRANCH  17  20
ATOM     20  C   UNL     1      -0.875   3.422   0.740  1.00  0.00     0.363 C 
BRANCH  20  21
ATOM     21  N   UNL     1       0.313   2.995  -0.018  1.00  0.00    -0.327 N 
ATOM     22  C   UNL     1       2.062   0.715   0.792  1.00  0.00     0.192 C 
ATOM     23  C   UNL     1       2.208   2.109   1.421  1.00  0.00     0.126 C 
ATOM     24  C   UNL     1       0.660   0.532   0.219  1.00  0.00     0.126 C 
ATOM     25  C   UNL     1       1.616   3.255   0.593  1.00  0.00     0.268 C 
ATOM     26  C   UNL     1       0.259   1.701  -0.678  1.00  0.00     0.268 C 
ATOM     27  H   UNL     1       0.238   3.668  -0.781  1.00  0.00     0.348 HD
BRANCH  22  28
ATOM     28  N   UNL     1       3.055   0.427  -0.246  1.00  0.00    -0.355 N 
ATOM     29  H   UNL     1       3.992   0.549   0.138  1.00  0.00     0.344 HD
ATOM     30  H   UNL     1       2.922   1.065  -1.030  1.00  0.00     0.344 HD
ATOM     31  H   UNL     1       2.942  -0.535  -0.567  1.00  0.00     0.344 HD
ENDBRANCH  22  28
ENDBRANCH  20  21
ENDBRANCH  17  20
ENDBRANCH  10  16
ENDBRANCH   7   9
ENDBRANCH   6   7
ENDBRANCH   5   6
ENDBRANCH   4   5
ENDBRANCH   3   4
ENDBRANCH   2   3
ENDBRANCH   1   2
BRANCH   1  32
ATOM     32  O   UNL     1      -4.704   2.936   3.511  1.00  0.00    -0.377 OA
BRANCH  32  33
ATOM     33  C   UNL     1      -5.199   3.447   4.747  1.00  0.00     0.188 C 
BRANCH  33  34
ATOM     34  C   UNL     1      -6.717   3.489   5.051  1.00  0.00     0.188 C 
BRANCH  34  35
ATOM     35  O   UNL     1      -7.575   3.297   3.935  1.00  0.00    -0.376 OA
BRANCH  35  36
ATOM     36  C   UNL     1      -8.231   4.445   3.415  1.00  0.00     0.202 C 
BRANCH  36  37
ATOM     37  C   UNL     1      -7.316   5.448   2.699  1.00  0.00     0.261 C 
BRANCH  37  38
ATOM     38  O   UNL     1      -6.317   6.050   3.534  1.00  0.00    -0.460 OA
BRANCH  38  39
ATOM     39  C   UNL     1      -6.767   6.768   4.585  1.00  0.00     0.338 C 
ATOM     40  O   UNL     1      -7.922   7.020   4.875  1.00  0.00    -0.246 OA
BRANCH  39  41
ATOM     41  C   UNL     1      -5.619   7.057   5.460  1.00  0.00     0.060 A 
ATOM     42  C   UNL     1      -5.668   6.631   6.793  1.00  0.00     0.016 A 
ATOM     43  C   UNL     1      -4.521   7.770   4.973  1.00  0.00     0.016 A 
ATOM     44  C   UNL     1      -4.641   6.974   7.665  1.00  0.00     0.010 A 
ATOM     45  C   UNL     1      -3.503   8.135   5.854  1.00  0.00     0.010 A 
ATOM     46  C   UNL     1      -3.590   7.783   7.213  1.00  0.00    -0.014 A 
BRANCH  46  47
ATOM     47  C   UNL     1      -2.756   8.485   8.212  1.00  0.00     0.031 A 
ATOM     48  C   UNL     1      -3.186   9.864   8.633  1.00  0.00     0.074 A 
ATOM     49  C   UNL     1      -1.679   7.905   8.765  1.00  0.00     0.049 A 
ATOM     50  N   UNL     1      -2.637  10.685   9.491  1.00  0.00    -0.248 NA
ATOM     51  C   UNL     1      -4.407  10.388   7.996  1.00  0.00     0.031 C 
ATOM     52  C   UNL     1      -1.192   6.562   8.464  1.00  0.00     0.029 A 
ATOM     53  N   UNL     1      -0.802   8.384   9.704  1.00  0.00    -0.354 N 
ATOM     54  C   UNL     1      -3.443  11.816   9.495  1.00  0.00     0.074 A 
ATOM     55  C   UNL     1      -4.498  11.595   8.531  1.00  0.00     0.031 C 
ATOM     56  C   UNL     1      -0.092   6.325   9.201  1.00  0.00     0.029 A 
ATOM     57  C   UNL     1       0.210   7.508  10.006  1.00  0.00     0.049 A 
ATOM     58  H   UNL     1      -0.890   9.271  10.121  1.00  0.00     0.167 HD
ATOM     59  C   UNL     1      -3.322  12.936  10.244  1.00  0.00     0.037 A 
ATOM     60  C   UNL     1       1.264   7.660  10.831  1.00  0.00     0.037 A 
ATOM     61  C   UNL     1      -2.268  13.156  11.195  1.00  0.00     0.049 A 
ATOM     62  C   UNL     1       1.410   8.942  11.612  1.00  0.00     0.074 A 
ATOM     63  C   UNL     1      -2.049  14.257  12.003  1.00  0.00     0.029 A 
ATOM     64  N   UNL     1      -1.248  12.254  11.460  1.00  0.00    -0.354 N 
ATOM     65  N   UNL     1       0.633   9.998  11.630  1.00  0.00    -0.248 NA
ATOM     66  C   UNL     1       2.578   9.045  12.499  1.00  0.00     0.031 C 
ATOM     67  C   UNL     1      -0.870  14.040  12.724  1.00  0.00     0.029 A 
ATOM     68  C   UNL     1      -0.388  12.780  12.409  1.00  0.00     0.049 A 
ATOM     69  H   UNL     1      -1.151  11.370  11.037  1.00  0.00     0.167 HD
ATOM     70  C   UNL     1       1.193  10.872  12.555  1.00  0.00     0.074 A 
ATOM     71  C   UNL     1       2.372  10.217  13.082  1.00  0.00     0.031 C 
ATOM     72  C   UNL     1       0.770  12.103  12.937  1.00  0.00     0.037 A 
BRANCH  59  73
ATOM     73  C   UNL     1      -4.343  14.015  10.037  1.00  0.00     0.064 A 
ATOM     74  C   UNL     1      -5.673  13.864  10.459  1.00  0.00     0.173 A 
ATOM     75  C   UNL     1      -3.984  15.219   9.414  1.00  0.00     0.173 A 
ATOM     76  F   UNL     1      -6.072  12.723  11.040  1.00  0.00    -0.203 F 
ATOM     77  C   UNL     1      -6.611  14.870  10.242  1.00  0.00     0.198 A 
ATOM     78  C   UNL     1      -4.918  16.235   9.226  1.00  0.00     0.198 A 
ATOM     79  F   UNL     1      -2.727  15.412   8.988  1.00  0.00    -0.203 F 
ATOM     80  F   UNL     1      -7.887  14.684  10.607  1.00  0.00    -0.200 F 
ATOM     81  C   UNL     1      -6.232  16.056   9.633  1.00  0.00     0.200 A 
ATOM     82  F   UNL     1      -4.548  17.384   8.644  1.00  0.00    -0.200 F 
ATOM     83  F   UNL     1      -7.135  17.025   9.428  1.00  0.00    -0.200 F 
ENDBRANCH  59  73
BRANCH  60  84
ATOM     84  C   UNL     1       2.265   6.570  10.970  1.00  0.00     0.064 A 
ATOM     85  C   UNL     1       2.398   5.855  12.168  1.00  0.00     0.173 A 
ATOM     86  C   UNL     1       3.131   6.242   9.916  1.00  0.00     0.173 A 
ATOM     87  F   UNL     1       1.611   6.150  13.214  1.00  0.00    -0.203 F 
ATOM     88  C   UNL     1       3.374   4.872  12.316  1.00  0.00     0.198 A 
ATOM     89  C   UNL     1       4.088   5.239  10.055  1.00  0.00     0.198 A 
ATOM     90  F   UNL     1       3.049   6.899   8.750  1.00  0.00    -0.203 F 
ATOM     91  F   UNL     1       3.515   4.243  13.491  1.00  0.00    -0.200 F 
ATOM     92  C   UNL     1       4.215   4.561  11.258  1.00  0.00     0.200 A 
ATOM     93  F   UNL     1       4.893   4.937   9.028  1.00  0.00    -0.200 F 
ATOM     94  F   UNL     1       5.156   3.618  11.402  1.00  0.00    -0.200 F 
ENDBRANCH  60  84
BRANCH  72  95
ATOM     95  C   UNL     1       1.547  12.796  14.019  1.00  0.00     0.064 A 
ATOM     96  C   UNL     1       2.833  13.308  13.799  1.00  0.00     0.173 A 
ATOM     97  C   UNL     1       0.976  12.977  15.289  1.00  0.00     0.173 A 
ATOM     98  F   UNL     1       3.427  13.152  12.606  1.00  0.00    -0.203 F 
ATOM     99  C   UNL     1       3.534  13.946  14.820  1.00  0.00     0.198 A 
ATOM    100  C   UNL     1       1.666  13.644  16.297  1.00  0.00     0.198 A 
ATOM    101  F   UNL     1      -0.257  12.517  15.549  1.00  0.00    -0.203 F 
ATOM    102  F   UNL     1       4.784  14.378  14.603  1.00  0.00    -0.200 F 
ATOM    103  C   UNL     1       2.948  14.119  16.065  1.00  0.00     0.200 A 
ATOM    104  F   UNL     1       1.091  13.825  17.494  1.00  0.00    -0.200 F 
ATOM    105  F   UNL     1       3.623  14.736  17.045  1.00  0.00    -0.200 F 
ENDBRANCH  72  95
ENDBRANCH  46  47
ENDBRANCH  39  41
ENDBRANCH  38  39
ENDBRANCH  37  38
ENDBRANCH  36  37
ENDBRANCH  35  36
ENDBRANCH  34  35
ENDBRANCH  33  34
ENDBRANCH  32  33
ENDBRANCH   1  32
TORSDOF 24
