REMARK SMILES CC(C)[C@@H]([NH3+])C(=O)N[C@@H](Cc1ccccc1)C(=O)OCCOCCOCCOCCOC(=O)c1ccc(-c2c3nc(c(-c4c(F)c(F)c(F)c(F)c4F)c4ccc([nH]4)c(-c4c(F)c(F)c(F)c(F)c4F)c4nc(c(-c5c(F)c(F)c(F)c(F)c5F)c5ccc2[nH]5)C=C4)C=C3)cc1
REMARK SMILES IDX 24 1 23 2 22 3 21 4 20 5 19 6 17 7 18 8 9 9 8 10 6 11 7 12
REMARK SMILES IDX 4 14 2 15 1 16 3 17 5 18 10 22 11 23 12 24 16 25 13 26 15 27
REMARK SMILES IDX 14 28 25 29 26 30 27 31 28 32 29 33 30 34 31 35 32 36 33 37
REMARK SMILES IDX 34 38 35 39 96 40 36 41 95 42 37 43 38 44 39 45 89 46 40 47
REMARK SMILES IDX 94 48 88 49 90 50 41 51 93 52 87 53 86 54 42 56 74 57 54 58
REMARK SMILES IDX 73 59 55 60 58 61 72 62 91 63 56 64 57 65 71 67 92 68 59 69
REMARK SMILES IDX 43 70 44 71 52 72 45 73 46 74 50 75 53 76 47 77 48 78 51 79
REMARK SMILES IDX 49 80 75 81 76 82 84 83 77 84 78 85 82 86 85 87 79 88 80 89
REMARK SMILES IDX 83 90 81 91 60 92 61 93 69 94 62 95 63 96 67 97 70 98 64 99
REMARK SMILES IDX 65 100 68 101 66 102
REMARK H PARENT 8 13 5 19 5 20 5 21 90 55 58 66
REMARK Flexibility Score: inf
ROOT
ATOM      1  C   UNL     1      -3.210  -2.055  -3.679  1.00  0.00     0.188 C 
ENDROOT
BRANCH   1   2
ATOM      2  C   UNL     1      -2.780  -0.755  -4.392  1.00  0.00     0.188 C 
BRANCH   2   3
ATOM      3  O   UNL     1      -2.988  -0.602  -5.792  1.00  0.00    -0.376 OA
BRANCH   3   4
ATOM      4  C   UNL     1      -2.678  -1.677  -6.668  1.00  0.00     0.202 C 
BRANCH   4   5
ATOM      5  C   UNL     1      -1.355  -2.439  -6.514  1.00  0.00     0.261 C 
BRANCH   5   6
ATOM      6  O   UNL     1      -1.009  -2.799  -5.164  1.00  0.00    -0.462 OA
BRANCH   6   7
ATOM      7  C   UNL     1       0.168  -2.335  -4.684  1.00  0.00     0.329 C 
ATOM      8  O   UNL     1       0.945  -1.640  -5.333  1.00  0.00    -0.250 OA
BRANCH   7   9
ATOM      9  C   UNL     1       0.537  -2.885  -3.289  1.00  0.00     0.196 C 
BRANCH   9  10
ATOM     10  N   UNL     1      -0.455  -3.453  -2.357  1.00  0.00    -0.337 N 
ATOM     11  C   UNL     1      -0.935  -3.024  -1.151  1.00  0.00     0.279 C 
ATOM     12  O   UNL     1      -1.763  -3.744  -0.579  1.00  0.00    -0.268 OA
ATOM     13  H   UNL     1      -0.847  -4.303  -2.661  1.00  0.00     0.164 HD
BRANCH  11  14
ATOM     14  C   UNL     1      -0.567  -1.649  -0.523  1.00  0.00     0.273 C 
BRANCH  14  15
ATOM     15  C   UNL     1       0.925  -1.467  -0.169  1.00  0.00     0.051 C 
ATOM     16  C   UNL     1       1.258  -0.045   0.301  1.00  0.00     0.014 C 
ATOM     17  C   UNL     1       1.340  -2.467   0.916  1.00  0.00     0.014 C 
ENDBRANCH  14  15
BRANCH  14  18
ATOM     18  N   UNL     1      -1.128  -0.583  -1.384  1.00  0.00    -0.347 N 
ATOM     19  H   UNL     1      -0.702  -0.635  -2.310  1.00  0.00     0.345 HD
ATOM     20  H   UNL     1      -0.930   0.328  -0.970  1.00  0.00     0.345 HD
ATOM     21  H   UNL     1      -2.137  -0.708  -1.467  1.00  0.00     0.345 HD
ENDBRANCH  14  18
ENDBRANCH  11  14
ENDBRANCH   9  10
BRANCH   9  22
ATOM     22  C   UNL     1       1.674  -3.915  -3.501  1.00  0.00     0.072 C 
BRANCH  22  23
ATOM     23  C   UNL     1       1.246  -5.325  -3.892  1.00  0.00    -0.045 A 
ATOM     24  C   UNL     1       0.400  -5.592  -4.978  1.00  0.00     0.004 A 
ATOM     25  C   UNL     1       1.731  -6.418  -3.161  1.00  0.00     0.004 A 
ATOM     26  C   UNL     1      -0.018  -6.891  -5.275  1.00  0.00     0.000 A 
ATOM     27  C   UNL     1       1.343  -7.723  -3.478  1.00  0.00     0.000 A 
ATOM     28  C   UNL     1       0.453  -7.959  -4.523  1.00  0.00     0.000 A 
ENDBRANCH  22  23
ENDBRANCH   9  22
ENDBRANCH   7   9
ENDBRANCH   6   7
ENDBRANCH   5   6
ENDBRANCH   4   5
ENDBRANCH   3   4
ENDBRANCH   2   3
ENDBRANCH   1   2
BRANCH   1  29
ATOM     29  O   UNL     1      -3.555  -3.130  -4.533  1.00  0.00    -0.377 OA
BRANCH  29  30
ATOM     30  C   UNL     1      -4.944  -3.365  -4.691  1.00  0.00     0.188 C 
BRANCH  30  31
ATOM     31  C   UNL     1      -5.827  -2.122  -4.913  1.00  0.00     0.188 C 
BRANCH  31  32
ATOM     32  O   UNL     1      -5.672  -1.127  -3.908  1.00  0.00    -0.376 OA
BRANCH  32  33
ATOM     33  C   UNL     1      -6.603  -1.071  -2.840  1.00  0.00     0.202 C 
BRANCH  33  34
ATOM     34  C   UNL     1      -6.642  -2.243  -1.844  1.00  0.00     0.261 C 
BRANCH  34  35
ATOM     35  O   UNL     1      -6.875  -3.550  -2.385  1.00  0.00    -0.460 OA
BRANCH  35  36
ATOM     36  C   UNL     1      -7.982  -3.756  -3.124  1.00  0.00     0.338 C 
ATOM     37  O   UNL     1      -8.874  -2.962  -3.364  1.00  0.00    -0.246 OA
BRANCH  36  38
ATOM     38  C   UNL     1      -7.836  -5.079  -3.767  1.00  0.00     0.060 A 
ATOM     39  C   UNL     1      -7.844  -5.171  -5.166  1.00  0.00     0.016 A 
ATOM     40  C   UNL     1      -7.681  -6.222  -2.981  1.00  0.00     0.016 A 
ATOM     41  C   UNL     1      -7.740  -6.418  -5.785  1.00  0.00     0.010 A 
ATOM     42  C   UNL     1      -7.607  -7.470  -3.598  1.00  0.00     0.010 A 
ATOM     43  C   UNL     1      -7.678  -7.575  -5.000  1.00  0.00    -0.014 A 
BRANCH  43  44
ATOM     44  C   UNL     1      -7.949  -8.901  -5.599  1.00  0.00     0.031 A 
ATOM     45  C   UNL     1      -9.352  -9.433  -5.496  1.00  0.00     0.074 A 
ATOM     46  C   UNL     1      -6.984  -9.628  -6.186  1.00  0.00     0.049 A 
ATOM     47  N   UNL     1      -9.820 -10.619  -5.783  1.00  0.00    -0.248 NA
ATOM     48  C   UNL     1     -10.364  -8.493  -4.983  1.00  0.00     0.031 C 
ATOM     49  C   UNL     1      -5.606  -9.195  -6.396  1.00  0.00     0.029 A 
ATOM     50  N   UNL     1      -7.021 -10.904  -6.690  1.00  0.00    -0.354 N 
ATOM     51  C   UNL     1     -11.171 -10.574  -5.464  1.00  0.00     0.074 A 
ATOM     52  C   UNL     1     -11.445  -9.255  -4.941  1.00  0.00     0.031 C 
ATOM     53  C   UNL     1      -4.918 -10.202  -6.962  1.00  0.00     0.029 A 
ATOM     54  C   UNL     1      -5.797 -11.362  -7.109  1.00  0.00     0.049 A 
ATOM     55  H   UNL     1      -7.846 -11.439  -6.746  1.00  0.00     0.167 HD
ATOM     56  C   UNL     1     -12.100 -11.549  -5.598  1.00  0.00     0.037 A 
ATOM     57  C   UNL     1      -5.429 -12.591  -7.524  1.00  0.00     0.037 A 
ATOM     58  C   UNL     1     -11.815 -12.861  -6.113  1.00  0.00     0.049 A 
ATOM     59  C   UNL     1      -6.464 -13.689  -7.585  1.00  0.00     0.074 A 
ATOM     60  C   UNL     1     -12.682 -13.922  -6.298  1.00  0.00     0.029 A 
ATOM     61  N   UNL     1     -10.559 -13.292  -6.517  1.00  0.00    -0.354 N 
ATOM     62  N   UNL     1      -7.742 -13.644  -7.292  1.00  0.00    -0.248 NA
ATOM     63  C   UNL     1      -6.003 -15.011  -8.033  1.00  0.00     0.031 C 
ATOM     64  C   UNL     1     -11.940 -15.014  -6.756  1.00  0.00     0.029 A 
ATOM     65  C   UNL     1     -10.625 -14.612  -6.929  1.00  0.00     0.049 A 
ATOM     66  H   UNL     1      -9.744 -12.740  -6.512  1.00  0.00     0.167 HD
ATOM     67  C   UNL     1      -8.244 -14.912  -7.562  1.00  0.00     0.074 A 
ATOM     68  C   UNL     1      -7.132 -15.705  -8.043  1.00  0.00     0.031 C 
ATOM     69  C   UNL     1      -9.511 -15.377  -7.431  1.00  0.00     0.037 A 
BRANCH  56  70
ATOM     70  C   UNL     1     -13.496 -11.244  -5.141  1.00  0.00     0.064 A 
ATOM     71  C   UNL     1     -14.316 -10.329  -5.819  1.00  0.00     0.173 A 
ATOM     72  C   UNL     1     -14.030 -11.892  -4.016  1.00  0.00     0.173 A 
ATOM     73  F   UNL     1     -13.849  -9.667  -6.889  1.00  0.00    -0.203 F 
ATOM     74  C   UNL     1     -15.605 -10.053  -5.371  1.00  0.00     0.198 A 
ATOM     75  C   UNL     1     -15.332 -11.640  -3.592  1.00  0.00     0.198 A 
ATOM     76  F   UNL     1     -13.290 -12.776  -3.330  1.00  0.00    -0.203 F 
ATOM     77  F   UNL     1     -16.349  -9.134  -6.002  1.00  0.00    -0.200 F 
ATOM     78  C   UNL     1     -16.115 -10.715  -4.264  1.00  0.00     0.200 A 
ATOM     79  F   UNL     1     -15.826 -12.292  -2.531  1.00  0.00    -0.200 F 
ATOM     80  F   UNL     1     -17.359 -10.455  -3.840  1.00  0.00    -0.200 F 
ENDBRANCH  56  70
BRANCH  57  81
ATOM     81  C   UNL     1      -4.014 -12.861  -7.896  1.00  0.00     0.064 A 
ATOM     82  C   UNL     1      -3.662 -13.169  -9.218  1.00  0.00     0.173 A 
ATOM     83  C   UNL     1      -2.990 -12.845  -6.938  1.00  0.00     0.173 A 
ATOM     84  F   UNL     1      -4.608 -13.224 -10.167  1.00  0.00    -0.203 F 
ATOM     85  C   UNL     1      -2.346 -13.473  -9.562  1.00  0.00     0.198 A 
ATOM     86  C   UNL     1      -1.669 -13.116  -7.289  1.00  0.00     0.198 A 
ATOM     87  F   UNL     1      -3.271 -12.559  -5.658  1.00  0.00    -0.203 F 
ATOM     88  F   UNL     1      -2.047 -13.818 -10.822  1.00  0.00    -0.200 F 
ATOM     89  C   UNL     1      -1.349 -13.440  -8.598  1.00  0.00     0.200 A 
ATOM     90  F   UNL     1      -0.707 -13.068  -6.357  1.00  0.00    -0.200 F 
ATOM     91  F   UNL     1      -0.084 -13.730  -8.929  1.00  0.00    -0.200 F 
ENDBRANCH  57  81
BRANCH  69  92
ATOM     92  C   UNL     1      -9.791 -16.784  -7.880  1.00  0.00     0.064 A 
ATOM     93  C   UNL     1      -9.327 -17.900  -7.170  1.00  0.00     0.173 A 
ATOM     94  C   UNL     1     -10.596 -17.012  -9.008  1.00  0.00     0.173 A 
ATOM     95  F   UNL     1      -8.545 -17.738  -6.093  1.00  0.00    -0.203 F 
ATOM     96  C   UNL     1      -9.640 -19.192  -7.586  1.00  0.00     0.198 A 
ATOM     97  C   UNL     1     -10.937 -18.303  -9.399  1.00  0.00     0.198 A 
ATOM     98  F   UNL     1     -11.075 -15.978  -9.718  1.00  0.00    -0.203 F 
ATOM     99  F   UNL     1      -9.149 -20.245  -6.919  1.00  0.00    -0.200 F 
ATOM    100  C   UNL     1     -10.452 -19.392  -8.693  1.00  0.00     0.200 A 
ATOM    101  F   UNL     1     -11.738 -18.492 -10.457  1.00  0.00    -0.200 F 
ATOM    102  F   UNL     1     -10.765 -20.636  -9.080  1.00  0.00    -0.200 F 
ENDBRANCH  69  92
ENDBRANCH  43  44
ENDBRANCH  36  38
ENDBRANCH  35  36
ENDBRANCH  34  35
ENDBRANCH  33  34
ENDBRANCH  32  33
ENDBRANCH  31  32
ENDBRANCH  30  31
ENDBRANCH  29  30
ENDBRANCH   1  29
TORSDOF 26
