REMARK SMILES Cc1ccc(F)c(C(=O)Nc2cccc(C(=O)OCCOCCOCCOCCOC(=O)c3ccc(-c4c5nc(c(-c6c(F)c(F)c(F)c(F)c6F)c6ccc([nH]6)c(-c6c(F)c(F)c(F)c(F)c6F)c6nc(c(-c7c(F)c(F)c(F)c(F)c7F)c7ccc4[nH]7)C=C6)C=C5)cc3)c2)c1
REMARK SMILES IDX 24 1 23 2 22 3 21 4 20 5 19 6 18 7 16 8 17 9 15 10 11 11
REMARK SMILES IDX 12 12 96 13 13 14 14 15 10 16 8 17 9 18 7 20 1 21 2 22 3 23
REMARK SMILES IDX 97 24 4 25 5 26 6 27 25 28 26 29 27 30 28 31 29 32 30 33
REMARK SMILES IDX 31 34 32 35 33 36 34 37 95 38 35 39 94 40 36 41 37 42 38 43
REMARK SMILES IDX 88 44 39 45 93 46 87 47 89 48 40 49 92 50 86 51 85 52 41 54
REMARK SMILES IDX 73 55 53 56 72 57 54 58 57 59 71 60 90 61 55 62 56 63 70 65
REMARK SMILES IDX 91 66 58 67 42 68 43 69 51 70 44 71 45 72 49 73 52 74 46 75
REMARK SMILES IDX 47 76 50 77 48 78 74 79 75 80 83 81 76 82 77 83 81 84 84 85
REMARK SMILES IDX 78 86 79 87 82 88 80 89 59 90 60 91 68 92 61 93 62 94 66 95
REMARK SMILES IDX 69 96 63 97 64 98 67 99 65 100
REMARK H PARENT 10 19 89 53 57 64
REMARK Flexibility Score: inf
ROOT
ATOM      1  O   UNL     1       3.005  -2.871   4.348  1.00  0.00    -0.377 OA
ENDROOT
BRANCH   1   2
ATOM      2  C   UNL     1       3.821  -3.582   3.424  1.00  0.00     0.188 C 
BRANCH   2   3
ATOM      3  C   UNL     1       5.224  -3.033   3.081  1.00  0.00     0.188 C 
BRANCH   3   4
ATOM      4  O   UNL     1       5.606  -1.875   3.810  1.00  0.00    -0.376 OA
BRANCH   4   5
ATOM      5  C   UNL     1       5.503  -0.613   3.167  1.00  0.00     0.202 C 
BRANCH   5   6
ATOM      6  C   UNL     1       4.118  -0.128   2.704  1.00  0.00     0.261 C 
BRANCH   6   7
ATOM      7  O   UNL     1       3.343  -1.065   1.948  1.00  0.00    -0.460 OA
BRANCH   7   8
ATOM      8  C   UNL     1       3.831  -1.491   0.775  1.00  0.00     0.338 C 
ATOM      9  O   UNL     1       4.870  -1.101   0.225  1.00  0.00    -0.246 OA
BRANCH   8  10
ATOM     10  C   UNL     1       3.016  -2.623   0.290  1.00  0.00     0.062 A 
ATOM     11  C   UNL     1       0.846  -3.590  -0.123  1.00  0.00     0.042 A 
ATOM     12  C   UNL     1       1.457  -4.695  -0.722  1.00  0.00     0.026 A 
ATOM     13  C   UNL     1       1.636  -2.644   0.519  1.00  0.00     0.041 A 
ATOM     14  C   UNL     1       2.849  -4.742  -0.850  1.00  0.00     0.003 A 
ATOM     15  C   UNL     1       3.625  -3.676  -0.397  1.00  0.00     0.016 A 
BRANCH  11  16
ATOM     16  N   UNL     1      -0.536  -3.425  -0.308  1.00  0.00    -0.322 N 
ATOM     17  C   UNL     1      -1.317  -2.282  -0.416  1.00  0.00     0.258 C 
ATOM     18  O   UNL     1      -2.533  -2.430  -0.539  1.00  0.00    -0.269 OA
ATOM     19  H   UNL     1      -1.041  -4.268  -0.371  1.00  0.00     0.170 HD
BRANCH  17  20
ATOM     20  C   UNL     1      -0.746  -0.905  -0.468  1.00  0.00     0.076 A 
ATOM     21  C   UNL     1       2.542   0.840  -1.289  1.00  0.00     0.044 C 
ATOM     22  C   UNL     1       1.107   0.627  -0.894  1.00  0.00    -0.050 A 
ATOM     23  C   UNL     1       0.414   1.641  -0.227  1.00  0.00     0.006 A 
ATOM     24  C   UNL     1       0.472  -0.608  -1.103  1.00  0.00     0.020 A 
ATOM     25  C   UNL     1      -0.869   1.404   0.263  1.00  0.00     0.040 A 
ATOM     26  C   UNL     1      -1.430   0.131   0.168  1.00  0.00     0.135 A 
ATOM     27  F   UNL     1      -2.625  -0.070   0.742  1.00  0.00    -0.206 F 
ENDBRANCH  17  20
ENDBRANCH  11  16
ENDBRANCH   8  10
ENDBRANCH   7   8
ENDBRANCH   6   7
ENDBRANCH   5   6
ENDBRANCH   4   5
ENDBRANCH   3   4
ENDBRANCH   2   3
ENDBRANCH   1   2
BRANCH   1  28
ATOM     28  C   UNL     1       3.629  -2.344   5.511  1.00  0.00     0.188 C 
BRANCH  28  29
ATOM     29  C   UNL     1       4.691  -3.183   6.268  1.00  0.00     0.188 C 
BRANCH  29  30
ATOM     30  O   UNL     1       5.185  -4.319   5.566  1.00  0.00    -0.376 OA
BRANCH  30  31
ATOM     31  C   UNL     1       4.885  -5.619   6.056  1.00  0.00     0.202 C 
BRANCH  31  32
ATOM     32  C   UNL     1       3.458  -6.153   5.852  1.00  0.00     0.261 C 
BRANCH  32  33
ATOM     33  O   UNL     1       2.444  -5.164   5.968  1.00  0.00    -0.460 OA
BRANCH  33  34
ATOM     34  C   UNL     1       2.296  -4.723   7.222  1.00  0.00     0.338 C 
ATOM     35  O   UNL     1       2.891  -5.135   8.218  1.00  0.00    -0.246 OA
BRANCH  34  36
ATOM     36  C   UNL     1       1.233  -3.683   7.251  1.00  0.00     0.060 A 
ATOM     37  C   UNL     1       1.436  -2.814   8.341  1.00  0.00     0.016 A 
ATOM     38  C   UNL     1       0.022  -4.345   7.074  1.00  0.00     0.016 A 
ATOM     39  C   UNL     1       0.782  -3.115   9.507  1.00  0.00     0.010 A 
ATOM     40  C   UNL     1      -0.607  -4.696   8.232  1.00  0.00     0.010 A 
ATOM     41  C   UNL     1      -0.138  -4.153   9.439  1.00  0.00    -0.014 A 
BRANCH  41  42
ATOM     42  C   UNL     1      -0.742  -4.702  10.613  1.00  0.00     0.031 A 
ATOM     43  C   UNL     1      -1.909  -3.981  11.105  1.00  0.00     0.074 A 
ATOM     44  C   UNL     1      -0.270  -5.866  11.096  1.00  0.00     0.049 A 
ATOM     45  N   UNL     1      -2.315  -4.012  12.319  1.00  0.00    -0.248 NA
ATOM     46  C   UNL     1      -2.671  -3.067  10.250  1.00  0.00     0.031 C 
ATOM     47  C   UNL     1      -0.928  -6.773  12.020  1.00  0.00     0.029 A 
ATOM     48  N   UNL     1       1.021  -6.384  10.943  1.00  0.00    -0.354 N 
ATOM     49  C   UNL     1      -3.561  -3.438  12.316  1.00  0.00     0.074 A 
ATOM     50  C   UNL     1      -3.684  -2.748  11.055  1.00  0.00     0.031 C 
ATOM     51  C   UNL     1      -0.006  -7.600  12.542  1.00  0.00     0.029 A 
ATOM     52  C   UNL     1       1.299  -7.138  12.095  1.00  0.00     0.049 A 
ATOM     53  H   UNL     1       1.620  -6.246  10.173  1.00  0.00     0.167 HD
ATOM     54  C   UNL     1      -4.436  -3.792  13.292  1.00  0.00     0.037 A 
ATOM     55  C   UNL     1       2.290  -6.731  12.943  1.00  0.00     0.037 A 
ATOM     56  C   UNL     1      -3.805  -4.713  14.231  1.00  0.00     0.049 A 
ATOM     57  C   UNL     1       1.763  -6.263  14.283  1.00  0.00     0.074 A 
ATOM     58  C   UNL     1      -3.763  -6.098  14.285  1.00  0.00     0.029 A 
ATOM     59  N   UNL     1      -2.727  -4.263  14.990  1.00  0.00    -0.354 N 
ATOM     60  N   UNL     1       0.545  -5.834  14.486  1.00  0.00    -0.248 NA
ATOM     61  C   UNL     1       2.557  -6.284  15.506  1.00  0.00     0.031 C 
ATOM     62  C   UNL     1      -2.624  -6.478  15.043  1.00  0.00     0.029 A 
ATOM     63  C   UNL     1      -1.982  -5.328  15.466  1.00  0.00     0.049 A 
ATOM     64  H   UNL     1      -2.522  -3.316  15.165  1.00  0.00     0.167 HD
ATOM     65  C   UNL     1       0.369  -5.555  15.818  1.00  0.00     0.074 A 
ATOM     66  C   UNL     1       1.657  -5.865  16.413  1.00  0.00     0.031 C 
ATOM     67  C   UNL     1      -0.824  -5.108  16.322  1.00  0.00     0.037 A 
BRANCH  54  68
ATOM     68  C   UNL     1      -5.907  -3.577  13.103  1.00  0.00     0.064 A 
ATOM     69  C   UNL     1      -6.831  -4.599  13.384  1.00  0.00     0.173 A 
ATOM     70  C   UNL     1      -6.450  -2.393  12.569  1.00  0.00     0.173 A 
ATOM     71  F   UNL     1      -6.446  -5.761  13.926  1.00  0.00    -0.203 F 
ATOM     72  C   UNL     1      -8.189  -4.473  13.088  1.00  0.00     0.198 A 
ATOM     73  C   UNL     1      -7.800  -2.287  12.224  1.00  0.00     0.198 A 
ATOM     74  F   UNL     1      -5.680  -1.312  12.370  1.00  0.00    -0.203 F 
ATOM     75  F   UNL     1      -9.026  -5.480  13.375  1.00  0.00    -0.200 F 
ATOM     76  C   UNL     1      -8.669  -3.329  12.484  1.00  0.00     0.200 A 
ATOM     77  F   UNL     1      -8.251  -1.174  11.627  1.00  0.00    -0.200 F 
ATOM     78  F   UNL     1      -9.966  -3.227  12.163  1.00  0.00    -0.200 F 
ENDBRANCH  54  68
BRANCH  55  79
ATOM     79  C   UNL     1       3.485  -6.204  12.229  1.00  0.00     0.064 A 
ATOM     80  C   UNL     1       4.232  -7.110  11.447  1.00  0.00     0.173 A 
ATOM     81  C   UNL     1       3.682  -4.838  11.991  1.00  0.00     0.173 A 
ATOM     82  F   UNL     1       4.083  -8.432  11.632  1.00  0.00    -0.203 F 
ATOM     83  C   UNL     1       5.064  -6.675  10.418  1.00  0.00     0.198 A 
ATOM     84  C   UNL     1       4.524  -4.403  10.962  1.00  0.00     0.198 A 
ATOM     85  F   UNL     1       3.001  -3.922  12.695  1.00  0.00    -0.203 F 
ATOM     86  F   UNL     1       5.679  -7.569   9.629  1.00  0.00    -0.200 F 
ATOM     87  C   UNL     1       5.202  -5.320  10.170  1.00  0.00     0.200 A 
ATOM     88  F   UNL     1       4.636  -3.093  10.694  1.00  0.00    -0.200 F 
ATOM     89  F   UNL     1       5.965  -4.896   9.153  1.00  0.00    -0.200 F 
ENDBRANCH  55  79
BRANCH  67  90
ATOM     90  C   UNL     1      -1.069  -4.515  17.698  1.00  0.00     0.064 A 
ATOM     91  C   UNL     1      -0.069  -3.966  18.516  1.00  0.00     0.173 A 
ATOM     92  C   UNL     1      -2.395  -4.347  18.183  1.00  0.00     0.173 A 
ATOM     93  F   UNL     1       1.212  -3.926  18.132  1.00  0.00    -0.203 F 
ATOM     94  C   UNL     1      -0.361  -3.367  19.746  1.00  0.00     0.198 A 
ATOM     95  C   UNL     1      -2.687  -3.674  19.367  1.00  0.00     0.198 A 
ATOM     96  F   UNL     1      -3.462  -4.803  17.512  1.00  0.00    -0.203 F 
ATOM     97  F   UNL     1       0.640  -2.916  20.514  1.00  0.00    -0.200 F 
ATOM     98  C   UNL     1      -1.668  -3.205  20.163  1.00  0.00     0.200 A 
ATOM     99  F   UNL     1      -3.965  -3.469  19.717  1.00  0.00    -0.200 F 
ATOM    100  F   UNL     1      -1.943  -2.578  21.313  1.00  0.00    -0.200 F 
ENDBRANCH  67  90
ENDBRANCH  41  42
ENDBRANCH  34  36
ENDBRANCH  33  34
ENDBRANCH  32  33
ENDBRANCH  31  32
ENDBRANCH  30  31
ENDBRANCH  29  30
ENDBRANCH  28  29
ENDBRANCH   1  28
TORSDOF 22
