REMARK SMILES O=C(OCCOCCOCCOCCOC(=O)c1ccc(C(F)(F)F)cc1NC(=O)c1ccon1)c1ccc(-c2c3nc(c(-c4c(F)c(F)c(F)c(F)c4F)c4ccc([nH]4)c(-c4c(F)c(F)c(F)c(F)c4F)c4nc(c(-c5c(F)c(F)c(F)c(F)c5F)c5ccc2[nH]5)C=C4)C=C3)cc1
REMARK SMILES IDX 9 1 8 2 7 3 6 4 5 5 4 6 3 7 2 8 1 9 36 10 37 11 98 12 38 13
REMARK SMILES IDX 97 14 39 15 40 16 41 17 91 18 42 19 96 20 90 21 92 22 43 23
REMARK SMILES IDX 95 24 89 25 88 26 44 28 76 29 56 30 75 31 57 32 60 33 74 34
REMARK SMILES IDX 93 35 58 36 59 37 73 39 94 40 61 41 45 42 46 43 54 44 47 45
REMARK SMILES IDX 48 46 52 47 55 48 49 49 50 50 53 51 51 52 77 53 78 54 86 55
REMARK SMILES IDX 79 56 80 57 84 58 87 59 81 60 82 61 85 62 83 63 62 64 63 65
REMARK SMILES IDX 71 66 64 67 65 68 69 69 72 70 66 71 67 72 70 73 68 74 10 75
REMARK SMILES IDX 11 76 12 77 13 78 14 79 15 80 16 81 17 82 18 83 19 84 27 85
REMARK SMILES IDX 20 86 26 87 21 88 28 89 29 90 30 92 31 93 32 94 35 95 33 96
REMARK SMILES IDX 34 97 22 98 23 99 24 100 25 101
REMARK H PARENT 92 27 60 38 28 91
REMARK Flexibility Score: inf
ROOT
ATOM      1  O   UNL     1       2.424   3.056  -2.424  1.00  0.00    -0.377 OA
ENDROOT
BRANCH   1   2
ATOM      2  C   UNL     1       1.716   2.313  -1.433  1.00  0.00     0.188 C 
BRANCH   2   3
ATOM      3  C   UNL     1       2.125   0.847  -1.302  1.00  0.00     0.188 C 
BRANCH   3   4
ATOM      4  O   UNL     1       3.463   0.736  -0.808  1.00  0.00    -0.376 OA
BRANCH   4   5
ATOM      5  C   UNL     1       4.248  -0.291  -1.413  1.00  0.00     0.202 C 
BRANCH   5   6
ATOM      6  C   UNL     1       4.090  -1.661  -0.750  1.00  0.00     0.261 C 
BRANCH   6   7
ATOM      7  O   UNL     1       2.742  -1.900  -0.324  1.00  0.00    -0.460 OA
BRANCH   7   8
ATOM      8  C   UNL     1       2.182  -1.609   0.877  1.00  0.00     0.338 C 
ATOM      9  O   UNL     1       0.999  -1.902   1.049  1.00  0.00    -0.246 OA
BRANCH   8  10
ATOM     10  C   UNL     1       2.911  -0.978   2.026  1.00  0.00     0.060 A 
ATOM     11  C   UNL     1       4.066  -0.197   1.939  1.00  0.00     0.016 A 
ATOM     12  C   UNL     1       2.342  -1.155   3.302  1.00  0.00     0.016 A 
ATOM     13  C   UNL     1       4.686   0.321   3.068  1.00  0.00     0.010 A 
ATOM     14  C   UNL     1       2.945  -0.622   4.445  1.00  0.00     0.010 A 
ATOM     15  C   UNL     1       4.145   0.086   4.327  1.00  0.00    -0.014 A 
BRANCH  15  16
ATOM     16  C   UNL     1       4.976   0.411   5.497  1.00  0.00     0.031 A 
ATOM     17  C   UNL     1       5.731  -0.712   6.142  1.00  0.00     0.074 A 
ATOM     18  C   UNL     1       5.168   1.691   5.857  1.00  0.00     0.049 A 
ATOM     19  N   UNL     1       6.500  -0.702   7.196  1.00  0.00    -0.248 NA
ATOM     20  C   UNL     1       5.615  -2.031   5.493  1.00  0.00     0.031 C 
ATOM     21  C   UNL     1       4.584   2.852   5.182  1.00  0.00     0.029 A 
ATOM     22  N   UNL     1       5.929   2.232   6.857  1.00  0.00    -0.354 N 
ATOM     23  C   UNL     1       6.931  -2.013   7.353  1.00  0.00     0.074 A 
ATOM     24  C   UNL     1       6.344  -2.794   6.290  1.00  0.00     0.031 C 
ATOM     25  C   UNL     1       5.019   3.971   5.784  1.00  0.00     0.029 A 
ATOM     26  C   UNL     1       5.855   3.601   6.922  1.00  0.00     0.049 A 
ATOM     27  H   UNL     1       6.478   1.691   7.471  1.00  0.00     0.167 HD
ATOM     28  C   UNL     1       7.741  -2.511   8.314  1.00  0.00     0.037 A 
ATOM     29  C   UNL     1       6.378   4.445   7.831  1.00  0.00     0.037 A 
ATOM     30  C   UNL     1       8.309  -1.702   9.356  1.00  0.00     0.049 A 
ATOM     31  C   UNL     1       7.197   3.852   8.949  1.00  0.00     0.074 A 
ATOM     32  C   UNL     1       9.084  -2.088  10.431  1.00  0.00     0.029 A 
ATOM     33  N   UNL     1       8.153  -0.324   9.442  1.00  0.00    -0.354 N 
ATOM     34  N   UNL     1       7.540   2.600   9.150  1.00  0.00    -0.248 NA
ATOM     35  C   UNL     1       7.689   4.780   9.975  1.00  0.00     0.031 C 
ATOM     36  C   UNL     1       9.360  -0.947  11.194  1.00  0.00     0.029 A 
ATOM     37  C   UNL     1       8.803   0.157  10.563  1.00  0.00     0.049 A 
ATOM     38  H   UNL     1       7.652   0.229   8.799  1.00  0.00     0.167 HD
ATOM     39  C   UNL     1       8.297   2.589  10.312  1.00  0.00     0.074 A 
ATOM     40  C   UNL     1       8.382   3.966  10.759  1.00  0.00     0.031 C 
ATOM     41  C   UNL     1       8.866   1.542  10.959  1.00  0.00     0.037 A 
BRANCH  28  42
ATOM     42  C   UNL     1       7.971  -3.993   8.311  1.00  0.00     0.064 A 
ATOM     43  C   UNL     1       8.756  -4.627   7.335  1.00  0.00     0.173 A 
ATOM     44  C   UNL     1       7.352  -4.800   9.279  1.00  0.00     0.173 A 
ATOM     45  F   UNL     1       9.341  -3.906   6.367  1.00  0.00    -0.203 F 
ATOM     46  C   UNL     1       8.885  -6.014   7.310  1.00  0.00     0.198 A 
ATOM     47  C   UNL     1       7.506  -6.184   9.267  1.00  0.00     0.198 A 
ATOM     48  F   UNL     1       6.582  -4.247  10.227  1.00  0.00    -0.203 F 
ATOM     49  F   UNL     1       9.586  -6.602   6.330  1.00  0.00    -0.200 F 
ATOM     50  C   UNL     1       8.264  -6.790   8.277  1.00  0.00     0.200 A 
ATOM     51  F   UNL     1       6.905  -6.931  10.202  1.00  0.00    -0.200 F 
ATOM     52  F   UNL     1       8.381  -8.125   8.245  1.00  0.00    -0.200 F 
ENDBRANCH  28  42
BRANCH  29  53
ATOM     53  C   UNL     1       6.098   5.904   7.755  1.00  0.00     0.064 A 
ATOM     54  C   UNL     1       7.121   6.838   7.538  1.00  0.00     0.173 A 
ATOM     55  C   UNL     1       4.793   6.400   7.911  1.00  0.00     0.173 A 
ATOM     56  F   UNL     1       8.389   6.422   7.405  1.00  0.00    -0.203 F 
ATOM     57  C   UNL     1       6.853   8.206   7.496  1.00  0.00     0.198 A 
ATOM     58  C   UNL     1       4.521   7.765   7.837  1.00  0.00     0.198 A 
ATOM     59  F   UNL     1       3.774   5.555   8.128  1.00  0.00    -0.203 F 
ATOM     60  F   UNL     1       7.857   9.078   7.334  1.00  0.00    -0.200 F 
ATOM     61  C   UNL     1       5.553   8.668   7.638  1.00  0.00     0.200 A 
ATOM     62  F   UNL     1       3.261   8.203   7.961  1.00  0.00    -0.200 F 
ATOM     63  F   UNL     1       5.296   9.983   7.593  1.00  0.00    -0.200 F 
ENDBRANCH  29  53
BRANCH  41  64
ATOM     64  C   UNL     1       9.654   1.858  12.195  1.00  0.00     0.064 A 
ATOM     65  C   UNL     1       9.024   2.220  13.393  1.00  0.00     0.173 A 
ATOM     66  C   UNL     1      11.051   1.738  12.189  1.00  0.00     0.173 A 
ATOM     67  F   UNL     1       7.690   2.359  13.441  1.00  0.00    -0.203 F 
ATOM     68  C   UNL     1       9.770   2.474  14.540  1.00  0.00     0.198 A 
ATOM     69  C   UNL     1      11.790   1.962  13.345  1.00  0.00     0.198 A 
ATOM     70  F   UNL     1      11.695   1.385  11.066  1.00  0.00    -0.203 F 
ATOM     71  F   UNL     1       9.153   2.862  15.665  1.00  0.00    -0.200 F 
ATOM     72  C   UNL     1      11.150   2.336  14.517  1.00  0.00     0.200 A 
ATOM     73  F   UNL     1      13.122   1.813  13.326  1.00  0.00    -0.200 F 
ATOM     74  F   UNL     1      11.865   2.570  15.626  1.00  0.00    -0.200 F 
ENDBRANCH  41  64
ENDBRANCH  15  16
ENDBRANCH   8  10
ENDBRANCH   7   8
ENDBRANCH   6   7
ENDBRANCH   5   6
ENDBRANCH   4   5
ENDBRANCH   3   4
ENDBRANCH   2   3
ENDBRANCH   1   2
BRANCH   1  75
ATOM     75  C   UNL     1       3.845   3.007  -2.376  1.00  0.00     0.188 C 
BRANCH  75  76
ATOM     76  C   UNL     1       4.565   3.425  -1.074  1.00  0.00     0.188 C 
BRANCH  76  77
ATOM     77  O   UNL     1       3.718   3.917  -0.045  1.00  0.00    -0.376 OA
BRANCH  77  78
ATOM     78  C   UNL     1       3.712   5.332   0.125  1.00  0.00     0.202 C 
BRANCH  78  79
ATOM     79  C   UNL     1       2.979   6.104  -0.979  1.00  0.00     0.261 C 
BRANCH  79  80
ATOM     80  O   UNL     1       3.566   6.009  -2.292  1.00  0.00    -0.460 OA
BRANCH  80  81
ATOM     81  C   UNL     1       4.840   6.426  -2.464  1.00  0.00     0.340 C 
ATOM     82  O   UNL     1       5.555   6.956  -1.631  1.00  0.00    -0.246 OA
BRANCH  81  83
ATOM     83  C   UNL     1       5.313   5.920  -3.779  1.00  0.00     0.083 A 
ATOM     84  C   UNL     1       6.506   5.170  -3.750  1.00  0.00     0.018 A 
ATOM     85  C   UNL     1       4.577   6.059  -4.976  1.00  0.00     0.056 A 
ATOM     86  C   UNL     1       6.969   4.527  -4.897  1.00  0.00     0.014 A 
ATOM     87  C   UNL     1       5.128   5.491  -6.130  1.00  0.00     0.040 A 
ATOM     88  C   UNL     1       6.293   4.699  -6.105  1.00  0.00     0.058 A 
BRANCH  85  89
ATOM     89  N   UNL     1       3.303   6.677  -4.940  1.00  0.00    -0.320 N 
ATOM     90  C   UNL     1       2.324   6.943  -5.877  1.00  0.00     0.277 C 
ATOM     91  H   UNL     1       3.059   6.990  -4.038  1.00  0.00     0.170 HD
ATOM     92  O   UNL     1       1.229   7.339  -5.474  1.00  0.00    -0.267 OA
BRANCH  90  93
ATOM     93  C   UNL     1       2.579   6.747  -7.292  1.00  0.00     0.171 A 
ATOM     94  C   UNL     1       2.289   5.603  -8.082  1.00  0.00     0.079 A 
ATOM     95  N   UNL     1       3.197   7.690  -8.022  1.00  0.00    -0.075 NA
ATOM     96  C   UNL     1       2.814   5.903  -9.312  1.00  0.00     0.232 A 
ATOM     97  O   UNL     1       3.340   7.152  -9.288  1.00  0.00    -0.364 OA
ENDBRANCH  90  93
ENDBRANCH  85  89
BRANCH  88  98
ATOM     98  C   UNL     1       6.759   3.994  -7.361  1.00  0.00     0.416 C 
ATOM     99  F   UNL     1       8.102   4.080  -7.549  1.00  0.00    -0.166 F 
ATOM    100  F   UNL     1       6.467   2.663  -7.332  1.00  0.00    -0.166 F 
ATOM    101  F   UNL     1       6.185   4.472  -8.499  1.00  0.00    -0.166 F 
ENDBRANCH  88  98
ENDBRANCH  81  83
ENDBRANCH  80  81
ENDBRANCH  79  80
ENDBRANCH  78  79
ENDBRANCH  77  78
ENDBRANCH  76  77
ENDBRANCH  75  76
ENDBRANCH   1  75
TORSDOF 23
