REMARK SMILES CCCC(=O)Nc1cccc(C(=O)N[C@@H](C(=O)OCCOCCOCCOCCOC(=O)c2ccc(-c3c4nc(c(-c5c(F)c(F)c(F)c(F)c5F)c5ccc([nH]5)c(-c5c(F)c(F)c(F)c(F)c5F)c5nc(c(-c6c(F)c(F)c(F)c(F)c6F)c6ccc3[nH]6)C=C5)C=C4)cc2)c2c(C)n[nH]c2C)c1
REMARK SMILES IDX 22 1 21 2 20 3 19 4 18 5 16 6 17 7 15 8 14 9 12 10 13 11
REMARK SMILES IDX 11 13 7 14 8 15 103 16 9 17 10 18 6 19 4 20 5 21 3 23 2 24
REMARK SMILES IDX 1 25 96 26 97 27 101 28 98 29 99 30 100 31 102 32 23 34
REMARK SMILES IDX 24 35 25 36 26 37 27 38 28 39 29 40 30 41 31 42 32 43 33 44
REMARK SMILES IDX 34 45 95 46 35 47 94 48 36 49 37 50 38 51 88 52 39 53 93 54
REMARK SMILES IDX 87 55 89 56 40 57 92 58 86 59 85 60 41 62 73 63 53 64 72 65
REMARK SMILES IDX 54 66 57 67 71 68 90 69 55 70 56 71 70 73 91 74 58 75 42 76
REMARK SMILES IDX 43 77 51 78 44 79 45 80 49 81 52 82 46 83 47 84 50 85 48 86
REMARK SMILES IDX 74 87 75 88 83 89 76 90 77 91 81 92 84 93 78 94 79 95 82 96
REMARK SMILES IDX 80 97 59 98 60 99 68 100 61 101 62 102 66 103 69 104 63 105
REMARK SMILES IDX 64 106 67 107 65 108
REMARK H PARENT 14 12 6 22 100 33 89 61 57 72
REMARK Flexibility Score: inf
ROOT
ATOM      1  C   UNL     1      -3.194   2.999   1.410  1.00  0.00     0.188 C 
ENDROOT
BRANCH   1   2
ATOM      2  O   UNL     1      -4.448   2.352   1.399  1.00  0.00    -0.376 OA
BRANCH   2   3
ATOM      3  C   UNL     1      -4.562   0.962   1.149  1.00  0.00     0.202 C 
BRANCH   3   4
ATOM      4  C   UNL     1      -3.414  -0.050   0.906  1.00  0.00     0.261 C 
BRANCH   4   5
ATOM      5  O   UNL     1      -2.052   0.390   0.951  1.00  0.00    -0.461 OA
BRANCH   5   6
ATOM      6  C   UNL     1      -1.527   0.896  -0.194  1.00  0.00     0.333 C 
ATOM      7  O   UNL     1      -2.145   0.923  -1.252  1.00  0.00    -0.249 OA
BRANCH   6   8
ATOM      8  C   UNL     1      -0.061   1.418   0.005  1.00  0.00     0.227 C 
BRANCH   8   9
ATOM      9  N   UNL     1       0.535   1.288   1.351  1.00  0.00    -0.335 N 
ATOM     10  C   UNL     1       1.105   0.285   2.092  1.00  0.00     0.252 C 
ATOM     11  O   UNL     1       1.412   0.548   3.256  1.00  0.00    -0.269 OA
ATOM     12  H   UNL     1       0.518   2.141   1.842  1.00  0.00     0.165 HD
BRANCH  10  13
ATOM     13  C   UNL     1       1.517  -1.027   1.537  1.00  0.00     0.041 A 
ATOM     14  C   UNL     1       1.508  -2.670  -0.215  1.00  0.00     0.041 A 
ATOM     15  C   UNL     1       2.759  -3.143   0.177  1.00  0.00     0.026 A 
ATOM     16  C   UNL     1       0.844  -1.675   0.509  1.00  0.00     0.040 A 
ATOM     17  C   UNL     1       3.368  -2.598   1.304  1.00  0.00     0.003 A 
ATOM     18  C   UNL     1       2.756  -1.535   1.974  1.00  0.00     0.014 A 
BRANCH  14  19
ATOM     19  N   UNL     1       0.912  -3.144  -1.386  1.00  0.00    -0.326 N 
ATOM     20  C   UNL     1       0.888  -2.426  -2.557  1.00  0.00     0.224 C 
ATOM     21  O   UNL     1      -0.117  -2.495  -3.268  1.00  0.00    -0.275 OA
ATOM     22  H   UNL     1       0.491  -4.034  -1.372  1.00  0.00     0.169 HD
BRANCH  20  23
ATOM     23  C   UNL     1       2.103  -1.605  -2.983  1.00  0.00     0.100 C 
BRANCH  23  24
ATOM     24  C   UNL     1       2.072  -0.128  -2.613  1.00  0.00     0.006 C 
ATOM     25  C   UNL     1       2.975   0.277  -1.457  1.00  0.00     0.004 C 
ENDBRANCH  23  24
ENDBRANCH  20  23
ENDBRANCH  14  19
ENDBRANCH  10  13
ENDBRANCH   8   9
BRANCH   8  26
ATOM     26  C   UNL     1       0.086   2.850  -0.557  1.00  0.00     0.029 A 
ATOM     27  C   UNL     1       0.196   4.154   0.073  1.00  0.00     0.065 A 
ATOM     28  C   UNL     1       0.082   3.187  -1.917  1.00  0.00     0.038 A 
ATOM     29  C   UNL     1       0.162   4.631   1.481  1.00  0.00     0.069 C 
ATOM     30  N   UNL     1       0.309   5.138  -0.826  1.00  0.00    -0.180 NA
ATOM     31  N   UNL     1       0.256   4.535  -2.001  1.00  0.00    -0.282 N 
ATOM     32  C   UNL     1      -0.088   2.435  -3.186  1.00  0.00     0.066 C 
ATOM     33  H   UNL     1       0.334   5.015  -2.857  1.00  0.00     0.190 HD
ENDBRANCH   8  26
ENDBRANCH   6   8
ENDBRANCH   5   6
ENDBRANCH   4   5
ENDBRANCH   3   4
ENDBRANCH   2   3
ENDBRANCH   1   2
BRANCH   1  34
ATOM     34  C   UNL     1      -2.277   2.623   2.582  1.00  0.00     0.188 C 
BRANCH  34  35
ATOM     35  O   UNL     1      -2.726   1.515   3.330  1.00  0.00    -0.377 OA
BRANCH  35  36
ATOM     36  C   UNL     1      -3.598   1.810   4.409  1.00  0.00     0.188 C 
BRANCH  36  37
ATOM     37  C   UNL     1      -4.487   3.077   4.362  1.00  0.00     0.188 C 
BRANCH  37  38
ATOM     38  O   UNL     1      -3.872   4.247   3.836  1.00  0.00    -0.376 OA
BRANCH  38  39
ATOM     39  C   UNL     1      -3.412   5.264   4.710  1.00  0.00     0.202 C 
BRANCH  39  40
ATOM     40  C   UNL     1      -2.174   4.944   5.563  1.00  0.00     0.261 C 
BRANCH  40  41
ATOM     41  O   UNL     1      -2.285   3.768   6.375  1.00  0.00    -0.460 OA
BRANCH  41  42
ATOM     42  C   UNL     1      -3.230   3.799   7.335  1.00  0.00     0.338 C 
ATOM     43  O   UNL     1      -3.953   4.738   7.632  1.00  0.00    -0.246 OA
BRANCH  42  44
ATOM     44  C   UNL     1      -3.416   2.427   7.837  1.00  0.00     0.060 A 
ATOM     45  C   UNL     1      -4.683   1.845   7.704  1.00  0.00     0.016 A 
ATOM     46  C   UNL     1      -2.362   1.718   8.420  1.00  0.00     0.016 A 
ATOM     47  C   UNL     1      -4.916   0.569   8.197  1.00  0.00     0.010 A 
ATOM     48  C   UNL     1      -2.607   0.451   8.956  1.00  0.00     0.010 A 
ATOM     49  C   UNL     1      -3.900  -0.100   8.889  1.00  0.00    -0.014 A 
BRANCH  49  50
ATOM     50  C   UNL     1      -4.305  -1.208   9.781  1.00  0.00     0.031 A 
ATOM     51  C   UNL     1      -4.624  -0.865  11.212  1.00  0.00     0.074 A 
ATOM     52  C   UNL     1      -4.507  -2.450   9.312  1.00  0.00     0.049 A 
ATOM     53  N   UNL     1      -5.086  -1.625  12.170  1.00  0.00    -0.248 NA
ATOM     54  C   UNL     1      -4.399   0.535  11.611  1.00  0.00     0.031 C 
ATOM     55  C   UNL     1      -4.296  -2.877   7.931  1.00  0.00     0.029 A 
ATOM     56  N   UNL     1      -4.958  -3.575   9.952  1.00  0.00    -0.354 N 
ATOM     57  C   UNL     1      -5.203  -0.797  13.280  1.00  0.00     0.074 A 
ATOM     58  C   UNL     1      -4.732   0.512  12.890  1.00  0.00     0.031 C 
ATOM     59  C   UNL     1      -4.622  -4.178   7.826  1.00  0.00     0.029 A 
ATOM     60  C   UNL     1      -5.041  -4.675   9.136  1.00  0.00     0.049 A 
ATOM     61  H   UNL     1      -5.200  -3.593  10.906  1.00  0.00     0.167 HD
ATOM     62  C   UNL     1      -5.672  -1.101  14.512  1.00  0.00     0.037 A 
ATOM     63  C   UNL     1      -5.408  -5.938   9.426  1.00  0.00     0.037 A 
ATOM     64  C   UNL     1      -6.135  -2.407  14.894  1.00  0.00     0.049 A 
ATOM     65  C   UNL     1      -5.852  -6.268  10.830  1.00  0.00     0.074 A 
ATOM     66  C   UNL     1      -6.632  -2.825  16.115  1.00  0.00     0.029 A 
ATOM     67  N   UNL     1      -6.146  -3.514  14.057  1.00  0.00    -0.354 N 
ATOM     68  N   UNL     1      -5.979  -5.480  11.871  1.00  0.00    -0.248 NA
ATOM     69  C   UNL     1      -6.217  -7.666  11.093  1.00  0.00     0.031 C 
ATOM     70  C   UNL     1      -6.880  -4.199  16.037  1.00  0.00     0.029 A 
ATOM     71  C   UNL     1      -6.615  -4.622  14.744  1.00  0.00     0.049 A 
ATOM     72  H   UNL     1      -5.862  -3.512  13.114  1.00  0.00     0.167 HD
ATOM     73  C   UNL     1      -6.481  -6.274  12.896  1.00  0.00     0.074 A 
ATOM     74  C   UNL     1      -6.645  -7.603  12.345  1.00  0.00     0.031 C 
ATOM     75  C   UNL     1      -6.784  -5.935  14.175  1.00  0.00     0.037 A 
BRANCH  62  76
ATOM     76  C   UNL     1      -5.654  -0.011  15.546  1.00  0.00     0.064 A 
ATOM     77  C   UNL     1      -6.501   1.107  15.467  1.00  0.00     0.173 A 
ATOM     78  C   UNL     1      -4.777  -0.091  16.638  1.00  0.00     0.173 A 
ATOM     79  F   UNL     1      -7.343   1.245  14.432  1.00  0.00    -0.203 F 
ATOM     80  C   UNL     1      -6.447   2.115  16.426  1.00  0.00     0.198 A 
ATOM     81  C   UNL     1      -4.752   0.901  17.613  1.00  0.00     0.198 A 
ATOM     82  F   UNL     1      -3.944  -1.136  16.761  1.00  0.00    -0.203 F 
ATOM     83  F   UNL     1      -7.222   3.201  16.299  1.00  0.00    -0.200 F 
ATOM     84  C   UNL     1      -5.579   2.008  17.502  1.00  0.00     0.200 A 
ATOM     85  F   UNL     1      -3.920   0.788  18.659  1.00  0.00    -0.200 F 
ATOM     86  F   UNL     1      -5.532   2.976  18.428  1.00  0.00    -0.200 F 
ENDBRANCH  62  76
BRANCH  63  87
ATOM     87  C   UNL     1      -5.377  -6.988   8.373  1.00  0.00     0.064 A 
ATOM     88  C   UNL     1      -6.555  -7.602   7.923  1.00  0.00     0.173 A 
ATOM     89  C   UNL     1      -4.164  -7.427   7.822  1.00  0.00     0.173 A 
ATOM     90  F   UNL     1      -7.739  -7.236   8.436  1.00  0.00    -0.203 F 
ATOM     91  C   UNL     1      -6.518  -8.632   6.984  1.00  0.00     0.198 A 
ATOM     92  C   UNL     1      -4.131  -8.434   6.859  1.00  0.00     0.198 A 
ATOM     93  F   UNL     1      -3.007  -6.877   8.220  1.00  0.00    -0.203 F 
ATOM     94  F   UNL     1      -7.653  -9.241   6.617  1.00  0.00    -0.200 F 
ATOM     95  C   UNL     1      -5.306  -9.043   6.449  1.00  0.00     0.200 A 
ATOM     96  F   UNL     1      -2.959  -8.819   6.336  1.00  0.00    -0.200 F 
ATOM     97  F   UNL     1      -5.271 -10.034   5.548  1.00  0.00    -0.200 F 
ENDBRANCH  63  87
BRANCH  75  98
ATOM     98  C   UNL     1      -7.390  -7.003  15.045  1.00  0.00     0.064 A 
ATOM     99  C   UNL     1      -6.665  -8.129  15.463  1.00  0.00     0.173 A 
ATOM    100  C   UNL     1      -8.722  -6.886  15.476  1.00  0.00     0.173 A 
ATOM    101  F   UNL     1      -5.391  -8.294  15.075  1.00  0.00    -0.203 F 
ATOM    102  C   UNL     1      -7.264  -9.122  16.233  1.00  0.00     0.198 A 
ATOM    103  C   UNL     1      -9.305  -7.860  16.282  1.00  0.00     0.198 A 
ATOM    104  F   UNL     1      -9.459  -5.824  15.120  1.00  0.00    -0.203 F 
ATOM    105  F   UNL     1      -6.574 -10.225  16.555  1.00  0.00    -0.200 F 
ATOM    106  C   UNL     1      -8.581  -8.984  16.647  1.00  0.00     0.200 A 
ATOM    107  F   UNL     1     -10.570  -7.714  16.698  1.00  0.00    -0.200 F 
ATOM    108  F   UNL     1      -9.156  -9.942  17.387  1.00  0.00    -0.200 F 
ENDBRANCH  75  98
ENDBRANCH  49  50
ENDBRANCH  42  44
ENDBRANCH  41  42
ENDBRANCH  40  41
ENDBRANCH  39  40
ENDBRANCH  38  39
ENDBRANCH  37  38
ENDBRANCH  36  37
ENDBRANCH  35  36
ENDBRANCH  34  35
ENDBRANCH   1  34
TORSDOF 26
