REMARK SMILES Cc1ccc(S(=O)(=O)n2cc(C(=O)C(=O)N[C@H](Cc3c[nH]c4ccccc34)C(=O)NCC(=O)OCCOCCOCCOCCOC(=O)c3ccc(-c4c5nc(c(-c6c(F)c(F)c(F)c(F)c6F)c6ccc([nH]6)c(-c6c(F)c(F)c(F)c(F)c6F)c6nc(c(-c7c(F)c(F)c(F)c(F)c7F)c7ccc4[nH]7)C=C6)C=C5)cc3)c3ccccc32)cc1
REMARK SMILES IDX 38 1 37 2 36 3 35 4 34 5 32 6 33 7 31 8 30 9 28 10 29 11
REMARK SMILES IDX 17 13 16 14 14 15 15 16 12 18 13 19 11 20 9 21 10 22 117 23
REMARK SMILES IDX 112 24 116 25 113 26 115 27 114 28 6 29 7 30 8 31 5 32 1 33
REMARK SMILES IDX 2 34 3 35 119 36 4 37 118 38 18 39 19 40 20 41 27 42 21 43
REMARK SMILES IDX 22 44 26 45 23 47 25 48 24 49 39 50 40 51 41 52 42 53 43 54
REMARK SMILES IDX 44 55 45 56 46 57 47 58 48 59 49 60 50 61 111 62 51 63
REMARK SMILES IDX 110 64 52 65 53 66 54 67 104 68 55 69 109 70 103 71 105 72
REMARK SMILES IDX 56 73 108 74 102 75 101 76 57 78 89 79 69 80 88 81 70 82
REMARK SMILES IDX 73 83 87 84 106 85 71 86 72 87 86 89 107 90 74 91 58 92
REMARK SMILES IDX 59 93 67 94 60 95 61 96 65 97 68 98 62 99 63 100 66 101
REMARK SMILES IDX 64 102 90 103 91 104 99 105 92 106 93 107 97 108 100 109
REMARK SMILES IDX 94 110 95 111 98 112 96 113 75 114 76 115 84 116 77 117
REMARK SMILES IDX 78 118 82 119 85 120 79 121 80 122 83 123 81 124
REMARK H PARENT 30 12 16 17 21 46 105 77 73 88
REMARK Flexibility Score: inf
ROOT
ATOM      1  C   UNL     1     -15.170   4.956  -3.289  1.00  0.00     0.188 C 
ENDROOT
BRANCH   1   2
ATOM      2  O   UNL     1     -14.055   5.461  -2.609  1.00  0.00    -0.376 OA
BRANCH   2   3
ATOM      3  C   UNL     1     -12.886   5.430  -3.372  1.00  0.00     0.202 C 
BRANCH   3   4
ATOM      4  C   UNL     1     -11.909   4.281  -3.076  1.00  0.00     0.261 C 
BRANCH   4   5
ATOM      5  O   UNL     1     -11.759   3.919  -1.701  1.00  0.00    -0.462 OA
BRANCH   5   6
ATOM      6  C   UNL     1     -12.799   4.109  -0.852  1.00  0.00     0.325 C 
ATOM      7  O   UNL     1     -13.066   5.154  -0.269  1.00  0.00    -0.250 OA
BRANCH   6   8
ATOM      8  C   UNL     1     -13.505   2.833  -0.528  1.00  0.00     0.238 C 
BRANCH   8   9
ATOM      9  N   UNL     1     -12.942   1.713  -1.236  1.00  0.00    -0.343 N 
ATOM     10  C   UNL     1     -11.831   0.986  -0.971  1.00  0.00     0.243 C 
ATOM     11  O   UNL     1     -11.587   0.131  -1.831  1.00  0.00    -0.273 OA
ATOM     12  H   UNL     1     -13.442   1.432  -2.036  1.00  0.00     0.164 HD
BRANCH  10  13
ATOM     13  C   UNL     1     -10.855   1.222   0.244  1.00  0.00     0.176 C 
BRANCH  13  14
ATOM     14  N   UNL     1     -11.457   1.795   1.549  1.00  0.00    -0.337 N 
ATOM     15  C   UNL     1     -11.532   3.008   2.291  1.00  0.00     0.293 C 
ATOM     16  O   UNL     1     -12.182   2.981   3.336  1.00  0.00    -0.265 OA
ATOM     17  H   UNL     1     -11.952   1.088   2.022  1.00  0.00     0.164 HD
BRANCH  15  18
ATOM     18  C   UNL     1     -10.881   4.345   1.837  1.00  0.00     0.252 C 
ATOM     19  O   UNL     1     -10.427   4.247   0.709  1.00  0.00    -0.283 OA
BRANCH  18  20
ATOM     20  C   UNL     1     -10.738   5.688   2.536  1.00  0.00     0.054 A 
ATOM     21  N   UNL     1     -11.292   7.532   3.948  1.00  0.00    -0.240 N 
ATOM     22  C   UNL     1     -11.309   6.117   3.750  1.00  0.00     0.117 A 
ATOM     23  C   UNL     1     -10.273   8.158   3.223  1.00  0.00     0.065 A 
ATOM     24  C   UNL     1     -10.175   6.951   1.920  1.00  0.00     0.012 A 
ATOM     25  C   UNL     1     -10.085   9.923   2.861  1.00  0.00     0.028 A 
ATOM     26  C   UNL     1     -10.127   7.617   0.185  1.00  0.00     0.011 A 
ATOM     27  C   UNL     1      -9.804  10.556   1.127  1.00  0.00     0.002 A 
ATOM     28  C   UNL     1      -9.864   9.402  -0.226  1.00  0.00     0.001 A 
BRANCH  21  29
ATOM     29  S   UNL     1     -12.420   8.346   4.991  1.00  0.00     0.268 S 
ATOM     30  O   UNL     1     -13.538   7.413   4.999  1.00  0.00    -0.201 OA
ATOM     31  O   UNL     1     -11.604   8.549   6.175  1.00  0.00    -0.201 OA
BRANCH  29  32
ATOM     32  C   UNL     1     -13.236   9.961   4.777  1.00  0.00     0.088 A 
ATOM     33  C   UNL     1     -14.857  13.927   5.655  1.00  0.00     0.044 C 
ATOM     34  C   UNL     1     -14.379  12.550   5.294  1.00  0.00    -0.051 A 
ATOM     35  C   UNL     1     -13.374  12.374   4.343  1.00  0.00     0.005 A 
ATOM     36  C   UNL     1     -14.891  11.415   5.915  1.00  0.00     0.005 A 
ATOM     37  C   UNL     1     -12.814  11.098   4.096  1.00  0.00     0.022 A 
ATOM     38  C   UNL     1     -14.328  10.151   5.659  1.00  0.00     0.022 A 
ENDBRANCH  29  32
ENDBRANCH  21  29
ENDBRANCH  18  20
ENDBRANCH  15  18
ENDBRANCH  13  14
BRANCH  13  39
ATOM     39  C   UNL     1      -9.507   1.829  -0.178  1.00  0.00     0.072 C 
BRANCH  39  40
ATOM     40  C   UNL     1      -8.501   1.204  -1.137  1.00  0.00    -0.020 A 
ATOM     41  C   UNL     1      -7.354   1.904  -1.499  1.00  0.00     0.087 A 
ATOM     42  C   UNL     1      -8.439  -0.006  -1.910  1.00  0.00     0.003 A 
ATOM     43  N   UNL     1      -6.861   1.365  -2.655  1.00  0.00    -0.361 N 
ATOM     44  C   UNL     1      -7.560   0.236  -2.975  1.00  0.00     0.046 A 
ATOM     45  C   UNL     1      -9.065  -1.265  -1.888  1.00  0.00     0.010 A 
ATOM     46  H   UNL     1      -6.114   1.736  -3.178  1.00  0.00     0.166 HD
ATOM     47  C   UNL     1      -7.454  -0.584  -4.106  1.00  0.00     0.026 A 
ATOM     48  C   UNL     1      -8.847  -2.175  -2.936  1.00  0.00     0.001 A 
ATOM     49  C   UNL     1      -8.101  -1.815  -4.055  1.00  0.00     0.002 A 
ENDBRANCH  39  40
ENDBRANCH  13  39
ENDBRANCH  10  13
ENDBRANCH   8   9
ENDBRANCH   6   8
ENDBRANCH   5   6
ENDBRANCH   4   5
ENDBRANCH   3   4
ENDBRANCH   2   3
ENDBRANCH   1   2
BRANCH   1  50
ATOM     50  C   UNL     1     -15.030   3.529  -3.875  1.00  0.00     0.188 C 
BRANCH  50  51
ATOM     51  O   UNL     1     -13.786   3.009  -4.320  1.00  0.00    -0.377 OA
BRANCH  51  52
ATOM     52  C   UNL     1     -13.249   3.035  -5.644  1.00  0.00     0.188 C 
BRANCH  52  53
ATOM     53  C   UNL     1     -12.969   4.379  -6.280  1.00  0.00     0.188 C 
BRANCH  53  54
ATOM     54  O   UNL     1     -14.132   5.199  -6.227  1.00  0.00    -0.376 OA
BRANCH  54  55
ATOM     55  C   UNL     1     -15.150   4.854  -7.152  1.00  0.00     0.202 C 
BRANCH  55  56
ATOM     56  C   UNL     1     -14.574   4.896  -8.567  1.00  0.00     0.261 C 
BRANCH  56  57
ATOM     57  O   UNL     1     -13.988   6.232  -8.729  1.00  0.00    -0.460 OA
BRANCH  57  58
ATOM     58  C   UNL     1     -12.626   6.390  -8.757  1.00  0.00     0.338 C 
ATOM     59  O   UNL     1     -11.883   5.792  -9.518  1.00  0.00    -0.246 OA
BRANCH  58  60
ATOM     60  C   UNL     1     -12.115   7.247  -7.613  1.00  0.00     0.060 A 
ATOM     61  C   UNL     1     -10.741   7.339  -7.296  1.00  0.00     0.016 A 
ATOM     62  C   UNL     1     -13.018   7.750  -6.689  1.00  0.00     0.016 A 
ATOM     63  C   UNL     1     -10.299   7.786  -6.022  1.00  0.00     0.010 A 
ATOM     64  C   UNL     1     -12.584   8.059  -5.407  1.00  0.00     0.010 A 
ATOM     65  C   UNL     1     -11.228   8.065  -5.022  1.00  0.00    -0.014 A 
BRANCH  65  66
ATOM     66  C   UNL     1     -10.992   8.184  -3.530  1.00  0.00     0.031 A 
ATOM     67  C   UNL     1     -11.952   9.178  -2.818  1.00  0.00     0.074 A 
ATOM     68  C   UNL     1     -10.290   7.132  -3.012  1.00  0.00     0.049 A 
ATOM     69  N   UNL     1     -12.437   9.174  -1.621  1.00  0.00    -0.248 NA
ATOM     70  C   UNL     1     -12.480  10.344  -3.567  1.00  0.00     0.031 C 
ATOM     71  C   UNL     1     -10.459   6.274  -1.845  1.00  0.00     0.029 A 
ATOM     72  N   UNL     1      -9.219   6.469  -3.579  1.00  0.00    -0.354 N 
ATOM     73  C   UNL     1     -13.326  10.265  -1.453  1.00  0.00     0.074 A 
ATOM     74  C   UNL     1     -13.377  10.896  -2.737  1.00  0.00     0.031 C 
ATOM     75  C   UNL     1      -9.366   5.583  -1.517  1.00  0.00     0.029 A 
ATOM     76  C   UNL     1      -8.463   5.934  -2.525  1.00  0.00     0.049 A 
ATOM     77  H   UNL     1      -9.024   6.387  -4.541  1.00  0.00     0.167 HD
ATOM     78  C   UNL     1     -13.924  10.510  -0.239  1.00  0.00     0.037 A 
ATOM     79  C   UNL     1      -7.156   5.688  -2.402  1.00  0.00     0.037 A 
ATOM     80  C   UNL     1     -13.262   9.682   0.714  1.00  0.00     0.049 A 
ATOM     81  C   UNL     1      -7.042   6.697  -1.099  1.00  0.00     0.074 A 
ATOM     82  C   UNL     1     -13.565   8.431   1.086  1.00  0.00     0.029 A 
ATOM     83  N   UNL     1     -12.027  10.046   1.194  1.00  0.00    -0.354 N 
ATOM     84  N   UNL     1      -7.755   7.795  -0.803  1.00  0.00    -0.248 NA
ATOM     85  C   UNL     1      -6.467   6.142   0.151  1.00  0.00     0.031 C 
ATOM     86  C   UNL     1     -12.310   7.923   1.401  1.00  0.00     0.029 A 
ATOM     87  C   UNL     1     -11.021   8.871   1.407  1.00  0.00     0.049 A 
ATOM     88  H   UNL     1     -11.793  10.982   1.390  1.00  0.00     0.167 HD
ATOM     89  C   UNL     1      -7.924   7.952   0.649  1.00  0.00     0.074 A 
ATOM     90  C   UNL     1      -7.096   6.817   1.137  1.00  0.00     0.031 C 
ATOM     91  C   UNL     1      -8.974   8.707   1.533  1.00  0.00     0.037 A 
BRANCH  78  92
ATOM     92  C   UNL     1     -15.093  11.347   0.282  1.00  0.00     0.064 A 
ATOM     93  C   UNL     1     -15.590  11.100   1.606  1.00  0.00     0.173 A 
ATOM     94  C   UNL     1     -15.803  12.330  -0.412  1.00  0.00     0.173 A 
ATOM     95  F   UNL     1     -15.093  10.126   2.379  1.00  0.00    -0.203 F 
ATOM     96  C   UNL     1     -16.641  11.803   2.194  1.00  0.00     0.198 A 
ATOM     97  C   UNL     1     -16.878  13.032   0.180  1.00  0.00     0.198 A 
ATOM     98  F   UNL     1     -15.496  12.637  -1.677  1.00  0.00    -0.203 F 
ATOM     99  F   UNL     1     -17.034  11.504   3.441  1.00  0.00    -0.200 F 
ATOM    100  C   UNL     1     -17.281  12.783   1.483  1.00  0.00     0.200 A 
ATOM    101  F   UNL     1     -17.537  13.959  -0.530  1.00  0.00    -0.200 F 
ATOM    102  F   UNL     1     -18.288  13.469   2.042  1.00  0.00    -0.200 F 
ENDBRANCH  78  92
BRANCH  79 103
ATOM    103  C   UNL     1      -6.999   5.247  -3.879  1.00  0.00     0.064 A 
ATOM    104  C   UNL     1      -7.752   4.025  -4.218  1.00  0.00     0.173 A 
ATOM    105  C   UNL     1      -6.793   6.064  -4.995  1.00  0.00     0.173 A 
ATOM    106  F   UNL     1      -8.375   3.365  -3.234  1.00  0.00    -0.203 F 
ATOM    107  C   UNL     1      -8.272   3.697  -5.479  1.00  0.00     0.198 A 
ATOM    108  C   UNL     1      -7.361   5.743  -6.269  1.00  0.00     0.198 A 
ATOM    109  F   UNL     1      -6.287   7.291  -4.830  1.00  0.00    -0.203 F 
ATOM    110  F   UNL     1      -9.134   2.672  -5.614  1.00  0.00    -0.200 F 
ATOM    111  C   UNL     1      -8.104   4.585  -6.503  1.00  0.00     0.200 A 
ATOM    112  F   UNL     1      -7.335   6.662  -7.246  1.00  0.00    -0.200 F 
ATOM    113  F   UNL     1      -8.776   4.407  -7.652  1.00  0.00    -0.200 F 
ENDBRANCH  79 103
BRANCH  91 114
ATOM    114  C   UNL     1      -7.699   9.800   2.321  1.00  0.00     0.064 A 
ATOM    115  C   UNL     1      -6.315   9.480   2.382  1.00  0.00     0.173 A 
ATOM    116  C   UNL     1      -7.870  11.117   2.956  1.00  0.00     0.173 A 
ATOM    117  F   UNL     1      -5.708   8.660   1.520  1.00  0.00    -0.203 F 
ATOM    118  C   UNL     1      -5.380  10.133   3.214  1.00  0.00     0.198 A 
ATOM    119  C   UNL     1      -6.953  11.756   3.788  1.00  0.00     0.198 A 
ATOM    120  F   UNL     1      -8.926  11.937   2.780  1.00  0.00    -0.203 F 
ATOM    121  F   UNL     1      -4.109   9.710   3.216  1.00  0.00    -0.200 F 
ATOM    122  C   UNL     1      -5.717  11.227   3.969  1.00  0.00     0.200 A 
ATOM    123  F   UNL     1      -7.301  12.913   4.370  1.00  0.00    -0.200 F 
ATOM    124  F   UNL     1      -4.830  11.835   4.763  1.00  0.00    -0.200 F 
ENDBRANCH  91 114
ENDBRANCH  65  66
ENDBRANCH  58  60
ENDBRANCH  57  58
ENDBRANCH  56  57
ENDBRANCH  55  56
ENDBRANCH  54  55
ENDBRANCH  53  54
ENDBRANCH  52  53
ENDBRANCH  51  52
ENDBRANCH  50  51
ENDBRANCH   1  50
TORSDOF 29
