REMARK SMILES O=C(OCCOCCOCCOCCOC(=O)c1cc(S(=O)(=O)NNC(=O)[C@H]2C=C(c3ccccc3)N=N2)ccc1F)c1ccc(-c2c3nc(c(-c4c(F)c(F)c(F)c(F)c4F)c4ccc([nH]4)c(-c4c(F)c(F)c(F)c(F)c4F)c4nc(c(-c5c(F)c(F)c(F)c(F)c5F)c5ccc2[nH]5)C=C4)C=C3)cc1
REMARK SMILES IDX 10 1 9 2 8 3 7 4 6 5 5 6 4 7 3 8 2 9 1 10 43 11 44 12 105 13
REMARK SMILES IDX 45 14 104 15 46 16 47 17 48 18 98 19 49 20 103 21 97 22
REMARK SMILES IDX 99 23 50 24 102 25 96 26 95 27 51 29 83 30 63 31 82 32 64 33
REMARK SMILES IDX 67 34 81 35 100 36 65 37 66 38 80 40 101 41 68 42 52 43
REMARK SMILES IDX 53 44 61 45 54 46 55 47 59 48 62 49 56 50 57 51 60 52 58 53
REMARK SMILES IDX 84 54 85 55 93 56 86 57 87 58 91 59 94 60 88 61 89 62 92 63
REMARK SMILES IDX 90 64 69 65 70 66 78 67 71 68 72 69 76 70 79 71 73 72 74 73
REMARK SMILES IDX 77 74 75 75 11 76 12 77 13 78 14 79 15 80 16 81 17 82 18 83
REMARK SMILES IDX 19 84 41 85 20 86 40 87 42 88 39 89 21 90 22 91 23 92 24 93
REMARK SMILES IDX 25 95 26 96 27 98 28 99 29 100 38 101 30 102 37 103 31 104
REMARK SMILES IDX 32 105 36 106 33 107 35 108 34 109
REMARK H PARENT 99 28 67 39 24 94 25 97
REMARK Flexibility Score: inf
ROOT
ATOM      1  C   UNL     1      13.195  17.130  -0.078  1.00  0.00     0.188 C 
ENDROOT
BRANCH   1   2
ATOM      2  O   UNL     1      14.011  18.275  -0.009  1.00  0.00    -0.377 OA
BRANCH   2   3
ATOM      3  C   UNL     1      13.323  19.491  -0.240  1.00  0.00     0.188 C 
BRANCH   3   4
ATOM      4  C   UNL     1      12.076  19.832   0.605  1.00  0.00     0.188 C 
BRANCH   4   5
ATOM      5  O   UNL     1      10.822  19.163   0.646  1.00  0.00    -0.376 OA
BRANCH   5   6
ATOM      6  C   UNL     1      10.182  18.333  -0.296  1.00  0.00     0.202 C 
BRANCH   6   7
ATOM      7  C   UNL     1      10.024  18.686  -1.772  1.00  0.00     0.261 C 
BRANCH   7   8
ATOM      8  O   UNL     1      11.055  19.488  -2.324  1.00  0.00    -0.460 OA
BRANCH   8   9
ATOM      9  C   UNL     1      11.176  20.827  -2.277  1.00  0.00     0.338 C 
ATOM     10  O   UNL     1      12.097  21.350  -2.905  1.00  0.00    -0.246 OA
BRANCH   9  11
ATOM     11  C   UNL     1      10.324  21.721  -1.449  1.00  0.00     0.060 A 
ATOM     12  C   UNL     1       9.038  21.449  -0.979  1.00  0.00     0.016 A 
ATOM     13  C   UNL     1      10.887  22.989  -1.198  1.00  0.00     0.016 A 
ATOM     14  C   UNL     1       8.247  22.478  -0.518  1.00  0.00     0.010 A 
ATOM     15  C   UNL     1      10.117  24.013  -0.696  1.00  0.00     0.010 A 
ATOM     16  C   UNL     1       8.770  23.766  -0.486  1.00  0.00    -0.014 A 
BRANCH  16  17
ATOM     17  C   UNL     1       7.841  24.847  -0.246  1.00  0.00     0.031 A 
ATOM     18  C   UNL     1       7.196  24.794   1.087  1.00  0.00     0.074 A 
ATOM     19  C   UNL     1       7.636  25.776  -1.200  1.00  0.00     0.049 A 
ATOM     20  N   UNL     1       5.937  24.686   1.358  1.00  0.00    -0.248 NA
ATOM     21  C   UNL     1       8.076  24.671   2.263  1.00  0.00     0.031 C 
ATOM     22  C   UNL     1       8.375  25.974  -2.454  1.00  0.00     0.029 A 
ATOM     23  N   UNL     1       6.757  26.812  -1.206  1.00  0.00    -0.354 N 
ATOM     24  C   UNL     1       5.851  24.684   2.747  1.00  0.00     0.074 A 
ATOM     25  C   UNL     1       7.189  24.512   3.244  1.00  0.00     0.031 C 
ATOM     26  C   UNL     1       8.083  27.192  -2.962  1.00  0.00     0.029 A 
ATOM     27  C   UNL     1       7.035  27.788  -2.159  1.00  0.00     0.049 A 
ATOM     28  H   UNL     1       5.992  26.868  -0.589  1.00  0.00     0.167 HD
ATOM     29  C   UNL     1       4.713  25.092   3.370  1.00  0.00     0.037 A 
ATOM     30  C   UNL     1       6.491  29.030  -2.183  1.00  0.00     0.037 A 
ATOM     31  C   UNL     1       3.568  24.921   2.514  1.00  0.00     0.049 A 
ATOM     32  C   UNL     1       5.236  28.962  -1.385  1.00  0.00     0.074 A 
ATOM     33  C   UNL     1       2.964  23.825   1.928  1.00  0.00     0.029 A 
ATOM     34  N   UNL     1       3.094  26.013   1.831  1.00  0.00    -0.354 N 
ATOM     35  N   UNL     1       4.191  28.268  -1.748  1.00  0.00    -0.248 NA
ATOM     36  C   UNL     1       5.337  29.247   0.040  1.00  0.00     0.031 C 
ATOM     37  C   UNL     1       2.566  24.270   0.634  1.00  0.00     0.029 A 
ATOM     38  C   UNL     1       2.876  25.626   0.533  1.00  0.00     0.049 A 
ATOM     39  H   UNL     1       2.938  26.911   2.205  1.00  0.00     0.167 HD
ATOM     40  C   UNL     1       3.732  27.681  -0.577  1.00  0.00     0.074 A 
ATOM     41  C   UNL     1       4.452  28.359   0.499  1.00  0.00     0.031 C 
ATOM     42  C   UNL     1       3.039  26.506  -0.600  1.00  0.00     0.037 A 
BRANCH  29  43
ATOM     43  C   UNL     1       4.721  26.015   4.566  1.00  0.00     0.064 A 
ATOM     44  C   UNL     1       5.832  26.798   4.955  1.00  0.00     0.173 A 
ATOM     45  C   UNL     1       3.495  26.373   5.161  1.00  0.00     0.173 A 
ATOM     46  F   UNL     1       7.049  26.636   4.426  1.00  0.00    -0.203 F 
ATOM     47  C   UNL     1       5.721  27.873   5.833  1.00  0.00     0.198 A 
ATOM     48  C   UNL     1       3.379  27.483   6.004  1.00  0.00     0.198 A 
ATOM     49  F   UNL     1       2.368  25.710   4.858  1.00  0.00    -0.203 F 
ATOM     50  F   UNL     1       6.809  28.602   6.120  1.00  0.00    -0.200 F 
ATOM     51  C   UNL     1       4.490  28.237   6.330  1.00  0.00     0.200 A 
ATOM     52  F   UNL     1       2.170  27.861   6.440  1.00  0.00    -0.200 F 
ATOM     53  F   UNL     1       4.371  29.340   7.081  1.00  0.00    -0.200 F 
ENDBRANCH  29  43
BRANCH  30  54
ATOM     54  C   UNL     1       7.203  30.308  -2.439  1.00  0.00     0.064 A 
ATOM     55  C   UNL     1       8.586  30.446  -2.205  1.00  0.00     0.173 A 
ATOM     56  C   UNL     1       6.486  31.500  -2.639  1.00  0.00     0.173 A 
ATOM     57  F   UNL     1       9.350  29.380  -1.929  1.00  0.00    -0.203 F 
ATOM     58  C   UNL     1       9.207  31.695  -2.146  1.00  0.00     0.198 A 
ATOM     59  C   UNL     1       7.108  32.752  -2.573  1.00  0.00     0.198 A 
ATOM     60  F   UNL     1       5.158  31.462  -2.824  1.00  0.00    -0.203 F 
ATOM     61  F   UNL     1      10.514  31.774  -1.858  1.00  0.00    -0.200 F 
ATOM     62  C   UNL     1       8.465  32.848  -2.314  1.00  0.00     0.200 A 
ATOM     63  F   UNL     1       6.378  33.869  -2.702  1.00  0.00    -0.200 F 
ATOM     64  F   UNL     1       9.049  34.048  -2.184  1.00  0.00    -0.200 F 
ENDBRANCH  30  54
BRANCH  42  65
ATOM     65  C   UNL     1       2.602  25.968  -1.935  1.00  0.00     0.064 A 
ATOM     66  C   UNL     1       1.238  25.723  -2.135  1.00  0.00     0.173 A 
ATOM     67  C   UNL     1       3.492  25.525  -2.930  1.00  0.00     0.173 A 
ATOM     68  F   UNL     1       0.349  26.074  -1.194  1.00  0.00    -0.203 F 
ATOM     69  C   UNL     1       0.782  25.056  -3.269  1.00  0.00     0.198 A 
ATOM     70  C   UNL     1       3.029  24.888  -4.083  1.00  0.00     0.198 A 
ATOM     71  F   UNL     1       4.816  25.636  -2.769  1.00  0.00    -0.203 F 
ATOM     72  F   UNL     1      -0.522  24.776  -3.395  1.00  0.00    -0.200 F 
ATOM     73  C   UNL     1       1.676  24.645  -4.245  1.00  0.00     0.200 A 
ATOM     74  F   UNL     1       3.898  24.468  -5.015  1.00  0.00    -0.200 F 
ATOM     75  F   UNL     1       1.234  23.983  -5.324  1.00  0.00    -0.200 F 
ENDBRANCH  42  65
ENDBRANCH  16  17
ENDBRANCH   9  11
ENDBRANCH   8   9
ENDBRANCH   7   8
ENDBRANCH   6   7
ENDBRANCH   5   6
ENDBRANCH   4   5
ENDBRANCH   3   4
ENDBRANCH   2   3
ENDBRANCH   1   2
BRANCH   1  76
ATOM     76  C   UNL     1      12.734  16.664   1.313  1.00  0.00     0.188 C 
BRANCH  76  77
ATOM     77  O   UNL     1      12.961  17.507   2.423  1.00  0.00    -0.376 OA
BRANCH  77  78
ATOM     78  C   UNL     1      14.270  17.946   2.757  1.00  0.00     0.202 C 
BRANCH  78  79
ATOM     79  C   UNL     1      15.594  17.263   2.337  1.00  0.00     0.261 C 
BRANCH  79  80
ATOM     80  O   UNL     1      15.578  16.300   1.278  1.00  0.00    -0.460 OA
BRANCH  80  81
ATOM     81  C   UNL     1      15.519  14.997   1.634  1.00  0.00     0.341 C 
ATOM     82  O   UNL     1      15.426  14.540   2.758  1.00  0.00    -0.246 OA
BRANCH  81  83
ATOM     83  C   UNL     1      15.302  14.207   0.410  1.00  0.00     0.097 A 
ATOM     84  C   UNL     1      14.044  13.635   0.200  1.00  0.00     0.040 A 
ATOM     85  C   UNL     1      16.282  14.095  -0.567  1.00  0.00     0.137 A 
ATOM     86  C   UNL     1      13.747  13.031  -1.025  1.00  0.00     0.085 A 
ATOM     87  C   UNL     1      16.013  13.410  -1.756  1.00  0.00     0.041 A 
ATOM     88  F   UNL     1      17.496  14.631  -0.385  1.00  0.00    -0.206 F 
ATOM     89  C   UNL     1      14.734  12.889  -2.001  1.00  0.00     0.025 A 
BRANCH  86  90
ATOM     90  S   UNL     1      12.073  12.516  -1.289  1.00  0.00     0.257 S 
ATOM     91  O   UNL     1      11.497  12.204   0.006  1.00  0.00    -0.205 OA
ATOM     92  O   UNL     1      11.464  13.473  -2.177  1.00  0.00    -0.205 OA
BRANCH  90  93
ATOM     93  N   UNL     1      12.174  11.056  -2.125  1.00  0.00    -0.123 NA
ATOM     94  H   UNL     1      12.589  11.268  -3.032  1.00  0.00     0.167 HD
BRANCH  93  95
ATOM     95  N   UNL     1      12.913   9.947  -1.587  1.00  0.00    -0.275 N 
ATOM     96  C   UNL     1      12.634   8.614  -1.798  1.00  0.00     0.265 C 
ATOM     97  H   UNL     1      13.687  10.159  -1.016  1.00  0.00     0.186 HD
ATOM     98  O   UNL     1      13.458   7.786  -1.408  1.00  0.00    -0.271 OA
BRANCH  96  99
ATOM     99  C   UNL     1      11.277   8.258  -2.417  1.00  0.00     0.244 C 
ATOM    100  C   UNL     1      11.183   8.580  -3.859  1.00  0.00     0.042 C 
ATOM    101  N   UNL     1      11.108   6.774  -2.414  1.00  0.00    -0.171 NA
ATOM    102  C   UNL     1      11.016   7.410  -4.473  1.00  0.00     0.091 C 
ATOM    103  N   UNL     1      10.954   6.357  -3.600  1.00  0.00    -0.155 NA
BRANCH 102 104
ATOM    104  C   UNL     1      10.881   7.282  -5.920  1.00  0.00     0.002 A 
ATOM    105  C   UNL     1       9.795   6.604  -6.483  1.00  0.00     0.010 A 
ATOM    106  C   UNL     1      11.832   7.874  -6.766  1.00  0.00     0.010 A 
ATOM    107  C   UNL     1       9.652   6.539  -7.871  1.00  0.00     0.001 A 
ATOM    108  C   UNL     1      11.691   7.803  -8.151  1.00  0.00     0.001 A 
ATOM    109  C   UNL     1      10.598   7.139  -8.702  1.00  0.00     0.000 A 
ENDBRANCH 102 104
ENDBRANCH  96  99
ENDBRANCH  93  95
ENDBRANCH  90  93
ENDBRANCH  86  90
ENDBRANCH  81  83
ENDBRANCH  80  81
ENDBRANCH  79  80
ENDBRANCH  78  79
ENDBRANCH  77  78
ENDBRANCH  76  77
ENDBRANCH   1  76
TORSDOF 25
