REMARK SMILES O=C(/C=C\c1ccc(OCc2ccc(Br)cc2)cc1)OCCOCCOCCOCCOC(=O)c1ccc(-c2c3nc(c(-c4c(F)c(F)c(F)c(F)c4F)c4ccc([nH]4)c(-c4c(F)c(F)c(F)c(F)c4F)c4nc(c(-c5c(F)c(F)c(F)c(F)c5F)c5ccc2[nH]5)C=C4)C=C3)cc1
REMARK SMILES IDX 25 1 24 2 23 3 22 4 21 5 20 6 2 7 1 8 3 9 4 10 5 11 6 12
REMARK SMILES IDX 19 13 7 14 18 15 8 16 9 17 10 18 11 19 12 20 17 21 13 22
REMARK SMILES IDX 16 23 14 24 15 25 26 26 27 27 28 28 29 29 30 30 31 31 32 32
REMARK SMILES IDX 33 33 34 34 35 35 36 36 97 37 37 38 96 39 38 40 39 41 40 42
REMARK SMILES IDX 90 43 41 44 95 45 89 46 91 47 42 48 94 49 88 50 87 51 43 53
REMARK SMILES IDX 75 54 55 55 74 56 56 57 59 58 73 59 92 60 57 61 58 62 72 64
REMARK SMILES IDX 93 65 60 66 44 67 45 68 53 69 46 70 47 71 51 72 54 73 48 74
REMARK SMILES IDX 49 75 52 76 50 77 76 78 77 79 85 80 78 81 79 82 83 83 86 84
REMARK SMILES IDX 80 85 81 86 84 87 82 88 61 89 62 90 70 91 63 92 64 93 68 94
REMARK SMILES IDX 71 95 65 96 66 97 69 98 67 99
REMARK H PARENT 91 52 59 63
REMARK Flexibility Score: inf
ROOT
ATOM      1  C   UNL     1       1.563  -1.220   2.614  1.00  0.00     0.188 C 
ENDROOT
BRANCH   1   2
ATOM      2  C   UNL     1       1.173  -1.514   1.155  1.00  0.00     0.188 C 
BRANCH   2   3
ATOM      3  O   UNL     1       2.204  -1.926   0.265  1.00  0.00    -0.376 OA
BRANCH   3   4
ATOM      4  C   UNL     1       3.332  -1.063   0.127  1.00  0.00     0.202 C 
BRANCH   4   5
ATOM      5  C   UNL     1       3.089   0.457   0.087  1.00  0.00     0.261 C 
BRANCH   5   6
ATOM      6  O   UNL     1       2.588   0.949  -1.160  1.00  0.00    -0.460 OA
BRANCH   6   7
ATOM      7  C   UNL     1       3.130   0.753  -2.371  1.00  0.00     0.330 C 
ATOM      8  O   UNL     1       2.449   0.969  -3.374  1.00  0.00    -0.247 OA
BRANCH   7   9
ATOM      9  C   UNL     1       4.471   0.164  -2.575  1.00  0.00     0.094 C 
ATOM     10  C   UNL     1       5.713   0.241  -2.061  1.00  0.00     0.015 C 
BRANCH  10  11
ATOM     11  C   UNL     1       6.308   1.038  -0.986  1.00  0.00    -0.025 A 
ATOM     12  C   UNL     1       6.909   2.264  -1.273  1.00  0.00     0.012 A 
ATOM     13  C   UNL     1       6.411   0.541   0.319  1.00  0.00     0.012 A 
ATOM     14  C   UNL     1       7.480   3.029  -0.249  1.00  0.00     0.047 A 
ATOM     15  C   UNL     1       6.935   1.327   1.354  1.00  0.00     0.047 A 
ATOM     16  C   UNL     1       7.420   2.602   1.078  1.00  0.00     0.119 A 
BRANCH  16  17
ATOM     17  O   UNL     1       7.882   3.496   2.004  1.00  0.00    -0.489 OA
BRANCH  17  18
ATOM     18  C   UNL     1       7.285   3.472   3.305  1.00  0.00     0.265 C 
BRANCH  18  19
ATOM     19  C   UNL     1       5.839   3.924   3.327  1.00  0.00    -0.011 A 
ATOM     20  C   UNL     1       4.804   2.989   3.482  1.00  0.00     0.008 A 
ATOM     21  C   UNL     1       5.505   5.279   3.180  1.00  0.00     0.008 A 
ATOM     22  C   UNL     1       3.467   3.391   3.484  1.00  0.00     0.016 A 
ATOM     23  C   UNL     1       4.166   5.686   3.197  1.00  0.00     0.016 A 
ATOM     24  C   UNL     1       3.154   4.739   3.345  1.00  0.00     0.017 A 
ATOM     25  Br  UNL     1       1.344   5.284   3.351  1.00  0.00    -0.051 Br
ENDBRANCH  18  19
ENDBRANCH  17  18
ENDBRANCH  16  17
ENDBRANCH  10  11
ENDBRANCH   7   9
ENDBRANCH   6   7
ENDBRANCH   5   6
ENDBRANCH   4   5
ENDBRANCH   3   4
ENDBRANCH   2   3
ENDBRANCH   1   2
BRANCH   1  26
ATOM     26  O   UNL     1       2.806  -0.533   2.733  1.00  0.00    -0.377 OA
BRANCH  26  27
ATOM     27  C   UNL     1       3.660  -1.030   3.754  1.00  0.00     0.188 C 
BRANCH  27  28
ATOM     28  C   UNL     1       4.718  -2.060   3.298  1.00  0.00     0.188 C 
BRANCH  28  29
ATOM     29  O   UNL     1       4.377  -3.344   2.805  1.00  0.00    -0.376 OA
BRANCH  29  30
ATOM     30  C   UNL     1       3.324  -4.120   3.342  1.00  0.00     0.202 C 
BRANCH  30  31
ATOM     31  C   UNL     1       3.165  -4.347   4.857  1.00  0.00     0.261 C 
BRANCH  31  32
ATOM     32  O   UNL     1       3.450  -3.212   5.687  1.00  0.00    -0.460 OA
BRANCH  32  33
ATOM     33  C   UNL     1       4.670  -3.215   6.269  1.00  0.00     0.338 C 
ATOM     34  O   UNL     1       5.489  -4.128   6.245  1.00  0.00    -0.246 OA
BRANCH  33  35
ATOM     35  C   UNL     1       5.012  -1.863   6.770  1.00  0.00     0.060 A 
ATOM     36  C   UNL     1       6.292  -1.374   6.464  1.00  0.00     0.016 A 
ATOM     37  C   UNL     1       4.140  -1.098   7.550  1.00  0.00     0.016 A 
ATOM     38  C   UNL     1       6.739  -0.173   7.005  1.00  0.00     0.010 A 
ATOM     39  C   UNL     1       4.599   0.100   8.118  1.00  0.00     0.010 A 
ATOM     40  C   UNL     1       5.924   0.527   7.902  1.00  0.00    -0.014 A 
BRANCH  40  41
ATOM     41  C   UNL     1       6.587   1.473   8.838  1.00  0.00     0.031 A 
ATOM     42  C   UNL     1       7.035   0.932  10.173  1.00  0.00     0.074 A 
ATOM     43  C   UNL     1       6.889   2.736   8.490  1.00  0.00     0.049 A 
ATOM     44  N   UNL     1       7.686   1.523  11.142  1.00  0.00    -0.248 NA
ATOM     45  C   UNL     1       6.701  -0.476  10.449  1.00  0.00     0.031 C 
ATOM     46  C   UNL     1       6.559   3.365   7.215  1.00  0.00     0.029 A 
ATOM     47  N   UNL     1       7.557   3.713   9.187  1.00  0.00    -0.354 N 
ATOM     48  C   UNL     1       7.828   0.565  12.139  1.00  0.00     0.074 A 
ATOM     49  C   UNL     1       7.169  -0.634  11.676  1.00  0.00     0.031 C 
ATOM     50  C   UNL     1       7.030   4.626   7.218  1.00  0.00     0.029 A 
ATOM     51  C   UNL     1       7.674   4.898   8.503  1.00  0.00     0.049 A 
ATOM     52  H   UNL     1       7.918   3.576  10.093  1.00  0.00     0.167 HD
ATOM     53  C   UNL     1       8.461   0.667  13.331  1.00  0.00     0.037 A 
ATOM     54  C   UNL     1       8.229   6.067   8.882  1.00  0.00     0.037 A 
ATOM     55  C   UNL     1       9.123   1.856  13.794  1.00  0.00     0.049 A 
ATOM     56  C   UNL     1       8.875   6.175  10.244  1.00  0.00     0.074 A 
ATOM     57  C   UNL     1       9.799   2.060  14.984  1.00  0.00     0.029 A 
ATOM     58  N   UNL     1       9.185   3.047  13.088  1.00  0.00    -0.354 N 
ATOM     59  N   UNL     1       9.025   5.258  11.170  1.00  0.00    -0.248 NA
ATOM     60  C   UNL     1       9.438   7.484  10.607  1.00  0.00     0.031 C 
ATOM     61  C   UNL     1      10.221   3.393  15.022  1.00  0.00     0.029 A 
ATOM     62  C   UNL     1       9.869   3.998  13.826  1.00  0.00     0.049 A 
ATOM     63  H   UNL     1       8.799   3.196  12.194  1.00  0.00     0.167 HD
ATOM     64  C   UNL     1       9.734   5.866  12.201  1.00  0.00     0.074 A 
ATOM     65  C   UNL     1       9.992   7.227  11.782  1.00  0.00     0.031 C 
ATOM     66  C   UNL     1      10.138   5.344  13.386  1.00  0.00     0.037 A 
BRANCH  53  67
ATOM     67  C   UNL     1       8.429  -0.533  14.234  1.00  0.00     0.064 A 
ATOM     68  C   UNL     1       9.140  -1.706  13.937  1.00  0.00     0.173 A 
ATOM     69  C   UNL     1       7.681  -0.503  15.421  1.00  0.00     0.173 A 
ATOM     70  F   UNL     1       9.854  -1.795  12.804  1.00  0.00    -0.203 F 
ATOM     71  C   UNL     1       9.078  -2.814  14.778  1.00  0.00     0.198 A 
ATOM     72  C   UNL     1       7.648  -1.601  16.276  1.00  0.00     0.198 A 
ATOM     73  F   UNL     1       6.982   0.593  15.752  1.00  0.00    -0.203 F 
ATOM     74  F   UNL     1       9.717  -3.944  14.444  1.00  0.00    -0.200 F 
ATOM     75  C   UNL     1       8.338  -2.758  15.950  1.00  0.00     0.200 A 
ATOM     76  F   UNL     1       6.942  -1.540  17.413  1.00  0.00    -0.200 F 
ATOM     77  F   UNL     1       8.282  -3.824  16.761  1.00  0.00    -0.200 F 
ENDBRANCH  53  67
BRANCH  54  78
ATOM     78  C   UNL     1       8.208   7.240   7.966  1.00  0.00     0.064 A 
ATOM     79  C   UNL     1       9.394   7.763   7.429  1.00  0.00     0.173 A 
ATOM     80  C   UNL     1       7.008   7.889   7.642  1.00  0.00     0.173 A 
ATOM     81  F   UNL     1      10.572   7.196   7.730  1.00  0.00    -0.203 F 
ATOM     82  C   UNL     1       9.382   8.902   6.626  1.00  0.00     0.198 A 
ATOM     83  C   UNL     1       6.994   9.008   6.812  1.00  0.00     0.198 A 
ATOM     84  F   UNL     1       5.845   7.434   8.132  1.00  0.00    -0.203 F 
ATOM     85  F   UNL     1      10.536   9.413   6.175  1.00  0.00    -0.200 F 
ATOM     86  C   UNL     1       8.182   9.520   6.313  1.00  0.00     0.200 A 
ATOM     87  F   UNL     1       5.830   9.595   6.502  1.00  0.00    -0.200 F 
ATOM     88  F   UNL     1       8.170  10.615   5.541  1.00  0.00    -0.200 F 
ENDBRANCH  54  78
BRANCH  66  89
ATOM     89  C   UNL     1      10.963   6.221  14.288  1.00  0.00     0.064 A 
ATOM     90  C   UNL     1      10.421   7.334  14.947  1.00  0.00     0.173 A 
ATOM     91  C   UNL     1      12.315   5.918  14.520  1.00  0.00     0.173 A 
ATOM     92  F   UNL     1       9.137   7.673  14.755  1.00  0.00    -0.203 F 
ATOM     93  C   UNL     1      11.210   8.133  15.771  1.00  0.00     0.198 A 
ATOM     94  C   UNL     1      13.091   6.698  15.373  1.00  0.00     0.198 A 
ATOM     95  F   UNL     1      12.882   4.857  13.926  1.00  0.00    -0.203 F 
ATOM     96  F   UNL     1      10.685   9.227  16.341  1.00  0.00    -0.200 F 
ATOM     97  C   UNL     1      12.541   7.812  15.988  1.00  0.00     0.200 A 
ATOM     98  F   UNL     1      14.372   6.373  15.596  1.00  0.00    -0.200 F 
ATOM     99  F   UNL     1      13.297   8.580  16.784  1.00  0.00    -0.200 F 
ENDBRANCH  66  89
ENDBRANCH  40  41
ENDBRANCH  33  35
ENDBRANCH  32  33
ENDBRANCH  31  32
ENDBRANCH  30  31
ENDBRANCH  29  30
ENDBRANCH  28  29
ENDBRANCH  27  28
ENDBRANCH  26  27
ENDBRANCH   1  26
TORSDOF 24
