REMARK SMILES Cc1nn(C)c(C)c1CCC(=O)Nc1sccc1C(=O)OCCOCCOCCOCCOC(=O)c1ccc(-c2c3nc(c(-c4c(F)c(F)c(F)c(F)c4F)c4ccc([nH]4)c(-c4c(F)c(F)c(F)c(F)c4F)c4nc(c(-c5c(F)c(F)c(F)c(F)c5F)c5ccc2[nH]5)C=C4)C=C3)cc1
REMARK SMILES IDX 26 1 25 2 24 3 23 4 22 5 21 6 19 7 20 8 18 9 14 10 15 11
REMARK SMILES IDX 16 12 17 13 13 14 11 15 12 16 10 18 9 19 8 20 1 21 2 22 3 23
REMARK SMILES IDX 4 24 6 25 5 26 7 27 27 28 28 29 29 30 30 31 31 32 32 33
REMARK SMILES IDX 33 34 34 35 35 36 36 37 37 38 98 39 38 40 97 41 39 42 40 43
REMARK SMILES IDX 41 44 91 45 42 46 96 47 90 48 92 49 43 50 95 51 89 52 88 53
REMARK SMILES IDX 44 55 76 56 56 57 75 58 57 59 60 60 74 61 93 62 58 63 59 64
REMARK SMILES IDX 73 66 94 67 61 68 45 69 46 70 54 71 47 72 48 73 52 74 55 75
REMARK SMILES IDX 49 76 50 77 53 78 51 79 77 80 78 81 86 82 79 83 80 84 84 85
REMARK SMILES IDX 87 86 81 87 82 88 85 89 83 90 62 91 63 92 71 93 64 94 65 95
REMARK SMILES IDX 69 96 72 97 66 98 67 99 70 100 68 101
REMARK H PARENT 13 17 92 54 60 65
REMARK Flexibility Score: inf
ROOT
ATOM      1  C   UNL     1       0.341   0.779  -3.264  1.00  0.00     0.188 C 
ENDROOT
BRANCH   1   2
ATOM      2  C   UNL     1      -1.143   0.836  -3.650  1.00  0.00     0.188 C 
BRANCH   2   3
ATOM      3  O   UNL     1      -1.868   2.050  -3.727  1.00  0.00    -0.376 OA
BRANCH   3   4
ATOM      4  C   UNL     1      -1.508   3.219  -3.026  1.00  0.00     0.202 C 
BRANCH   4   5
ATOM      5  C   UNL     1      -1.179   3.255  -1.533  1.00  0.00     0.261 C 
BRANCH   5   6
ATOM      6  O   UNL     1      -0.261   2.312  -0.959  1.00  0.00    -0.460 OA
BRANCH   6   7
ATOM      7  C   UNL     1      -0.870   1.057  -0.274  1.00  0.00     0.341 C 
ATOM      8  O   UNL     1      -1.902   0.867  -1.014  1.00  0.00    -0.246 OA
BRANCH   7   9
ATOM      9  C   UNL     1      -0.226   0.163   1.597  1.00  0.00     0.094 A 
ATOM     10  C   UNL     1       0.701   0.577   2.745  1.00  0.00     0.110 A 
ATOM     11  S   UNL     1       1.339  -0.714   3.691  1.00  0.00    -0.126 S 
ATOM     12  C   UNL     1       0.171  -1.814   3.235  1.00  0.00     0.068 A 
ATOM     13  C   UNL     1      -0.649  -1.303   2.270  1.00  0.00     0.029 A 
BRANCH  10  14
ATOM     14  N   UNL     1       1.420   1.700   3.185  1.00  0.00    -0.317 N 
ATOM     15  C   UNL     1       1.243   3.046   3.039  1.00  0.00     0.225 C 
ATOM     16  O   UNL     1       2.236   3.781   3.054  1.00  0.00    -0.275 OA
ATOM     17  H   UNL     1       2.220   1.468   3.709  1.00  0.00     0.170 HD
BRANCH  15  18
ATOM     18  C   UNL     1      -0.141   3.645   3.061  1.00  0.00     0.105 C 
BRANCH  18  19
ATOM     19  C   UNL     1      -0.965   3.383   1.836  1.00  0.00     0.049 C 
BRANCH  19  20
ATOM     20  C   UNL     1      -0.704   2.033   1.314  1.00  0.00    -0.004 A 
ATOM     21  C   UNL     1      -3.538   0.665   1.175  1.00  0.00     0.069 C 
ATOM     22  C   UNL     1      -2.050   0.592   1.125  1.00  0.00     0.063 A 
ATOM     23  N   UNL     1      -1.290  -0.717   0.193  1.00  0.00    -0.178 NA
ATOM     24  N   UNL     1       0.484  -0.269  -0.138  1.00  0.00    -0.272 N 
ATOM     25  C   UNL     1       0.863   1.407   0.532  1.00  0.00     0.038 A 
ATOM     26  C   UNL     1       1.493  -1.270  -0.425  1.00  0.00     0.174 C 
ATOM     27  C   UNL     1       2.211   2.001   0.234  1.00  0.00     0.066 C 
ENDBRANCH  19  20
ENDBRANCH  18  19
ENDBRANCH  15  18
ENDBRANCH  10  14
ENDBRANCH   7   9
ENDBRANCH   6   7
ENDBRANCH   5   6
ENDBRANCH   4   5
ENDBRANCH   3   4
ENDBRANCH   2   3
ENDBRANCH   1   2
BRANCH   1  28
ATOM     28  O   UNL     1       1.054   1.985  -3.147  1.00  0.00    -0.377 OA
BRANCH  28  29
ATOM     29  C   UNL     1       1.445   2.664  -4.316  1.00  0.00     0.188 C 
BRANCH  29  30
ATOM     30  C   UNL     1       0.833   2.292  -5.679  1.00  0.00     0.188 C 
BRANCH  30  31
ATOM     31  O   UNL     1       0.453   0.951  -5.883  1.00  0.00    -0.376 OA
BRANCH  31  32
ATOM     32  C   UNL     1       1.303  -0.123  -6.220  1.00  0.00     0.202 C 
BRANCH  32  33
ATOM     33  C   UNL     1       2.747  -0.287  -5.717  1.00  0.00     0.261 C 
BRANCH  33  34
ATOM     34  O   UNL     1       3.491   0.891  -5.422  1.00  0.00    -0.460 OA
BRANCH  34  35
ATOM     35  C   UNL     1       3.827   1.665  -6.476  1.00  0.00     0.338 C 
ATOM     36  O   UNL     1       3.556   1.472  -7.645  1.00  0.00    -0.246 OA
BRANCH  35  37
ATOM     37  C   UNL     1       4.431   2.905  -5.946  1.00  0.00     0.060 A 
ATOM     38  C   UNL     1       3.784   4.129  -6.175  1.00  0.00     0.016 A 
ATOM     39  C   UNL     1       5.611   2.853  -5.202  1.00  0.00     0.016 A 
ATOM     40  C   UNL     1       4.331   5.310  -5.690  1.00  0.00     0.010 A 
ATOM     41  C   UNL     1       6.193   4.045  -4.769  1.00  0.00     0.010 A 
ATOM     42  C   UNL     1       5.572   5.276  -5.050  1.00  0.00    -0.014 A 
BRANCH  42  43
ATOM     43  C   UNL     1       6.341   6.533  -4.937  1.00  0.00     0.031 A 
ATOM     44  C   UNL     1       7.332   6.838  -6.025  1.00  0.00     0.074 A 
ATOM     45  C   UNL     1       6.130   7.399  -3.933  1.00  0.00     0.049 A 
ATOM     46  N   UNL     1       8.180   7.826  -6.126  1.00  0.00    -0.248 NA
ATOM     47  C   UNL     1       7.373   5.891  -7.154  1.00  0.00     0.031 C 
ATOM     48  C   UNL     1       5.141   7.241  -2.871  1.00  0.00     0.029 A 
ATOM     49  N   UNL     1       6.755   8.585  -3.645  1.00  0.00    -0.354 N 
ATOM     50  C   UNL     1       8.859   7.614  -7.318  1.00  0.00     0.074 A 
ATOM     51  C   UNL     1       8.351   6.389  -7.892  1.00  0.00     0.031 C 
ATOM     52  C   UNL     1       5.242   8.284  -2.028  1.00  0.00     0.029 A 
ATOM     53  C   UNL     1       6.328   9.156  -2.473  1.00  0.00     0.049 A 
ATOM     54  H   UNL     1       7.442   8.989  -4.223  1.00  0.00     0.167 HD
ATOM     55  C   UNL     1       9.818   8.382  -7.885  1.00  0.00     0.037 A 
ATOM     56  C   UNL     1       6.794  10.240  -1.823  1.00  0.00     0.037 A 
ATOM     57  C   UNL     1      10.320   9.596  -7.301  1.00  0.00     0.049 A 
ATOM     58  C   UNL     1       7.940  11.018  -2.425  1.00  0.00     0.074 A 
ATOM     59  C   UNL     1      11.291  10.449  -7.792  1.00  0.00     0.029 A 
ATOM     60  N   UNL     1       9.896  10.123  -6.090  1.00  0.00    -0.354 N 
ATOM     61  N   UNL     1       8.575  10.824  -3.557  1.00  0.00    -0.248 NA
ATOM     62  C   UNL     1       8.433  12.171  -1.657  1.00  0.00     0.031 C 
ATOM     63  C   UNL     1      11.506  11.453  -6.844  1.00  0.00     0.029 A 
ATOM     64  C   UNL     1      10.609  11.274  -5.802  1.00  0.00     0.049 A 
ATOM     65  H   UNL     1       9.192   9.736  -5.521  1.00  0.00     0.167 HD
ATOM     66  C   UNL     1       9.509  11.850  -3.654  1.00  0.00     0.074 A 
ATOM     67  C   UNL     1       9.345  12.673  -2.475  1.00  0.00     0.031 C 
ATOM     68  C   UNL     1      10.420  12.091  -4.630  1.00  0.00     0.037 A 
BRANCH  55  69
ATOM     69  C   UNL     1      10.413   7.912  -9.181  1.00  0.00     0.064 A 
ATOM     70  C   UNL     1       9.678   7.908 -10.376  1.00  0.00     0.173 A 
ATOM     71  C   UNL     1      11.753   7.501  -9.234  1.00  0.00     0.173 A 
ATOM     72  F   UNL     1       8.387   8.273 -10.377  1.00  0.00    -0.203 F 
ATOM     73  C   UNL     1      10.258   7.490 -11.571  1.00  0.00     0.198 A 
ATOM     74  C   UNL     1      12.340   7.120 -10.437  1.00  0.00     0.198 A 
ATOM     75  F   UNL     1      12.501   7.484  -8.120  1.00  0.00    -0.203 F 
ATOM     76  F   UNL     1       9.523   7.449 -12.691  1.00  0.00    -0.200 F 
ATOM     77  C   UNL     1      11.590   7.108 -11.603  1.00  0.00     0.200 A 
ATOM     78  F   UNL     1      13.632   6.766 -10.467  1.00  0.00    -0.200 F 
ATOM     79  F   UNL     1      12.151   6.723 -12.757  1.00  0.00    -0.200 F 
ENDBRANCH  55  69
BRANCH  56  80
ATOM     80  C   UNL     1       6.210  10.644  -0.515  1.00  0.00     0.064 A 
ATOM     81  C   UNL     1       5.560  11.877  -0.362  1.00  0.00     0.173 A 
ATOM     82  C   UNL     1       6.342   9.834   0.623  1.00  0.00     0.173 A 
ATOM     83  F   UNL     1       5.429  12.700  -1.413  1.00  0.00    -0.203 F 
ATOM     84  C   UNL     1       5.099  12.299   0.883  1.00  0.00     0.198 A 
ATOM     85  C   UNL     1       5.846  10.240   1.860  1.00  0.00     0.198 A 
ATOM     86  F   UNL     1       6.959   8.646   0.536  1.00  0.00    -0.203 F 
ATOM     87  F   UNL     1       4.550  13.515   1.014  1.00  0.00    -0.200 F 
ATOM     88  C   UNL     1       5.239  11.479   1.992  1.00  0.00     0.200 A 
ATOM     89  F   UNL     1       5.972   9.439   2.926  1.00  0.00    -0.200 F 
ATOM     90  F   UNL     1       4.803  11.890   3.191  1.00  0.00    -0.200 F 
ENDBRANCH  56  80
BRANCH  68  91
ATOM     91  C   UNL     1      11.270  13.325  -4.499  1.00  0.00     0.064 A 
ATOM     92  C   UNL     1      12.253  13.451  -3.506  1.00  0.00     0.173 A 
ATOM     93  C   UNL     1      11.126  14.381  -5.414  1.00  0.00     0.173 A 
ATOM     94  F   UNL     1      12.427  12.476  -2.601  1.00  0.00    -0.203 F 
ATOM     95  C   UNL     1      13.032  14.601  -3.411  1.00  0.00     0.198 A 
ATOM     96  C   UNL     1      11.936  15.510  -5.342  1.00  0.00     0.198 A 
ATOM     97  F   UNL     1      10.211  14.309  -6.393  1.00  0.00    -0.203 F 
ATOM     98  F   UNL     1      13.921  14.725  -2.415  1.00  0.00    -0.200 F 
ATOM     99  C   UNL     1      12.879  15.625  -4.333  1.00  0.00     0.200 A 
ATOM    100  F   UNL     1      11.802  16.488  -6.249  1.00  0.00    -0.200 F 
ATOM    101  F   UNL     1      13.638  16.727  -4.246  1.00  0.00    -0.200 F 
ENDBRANCH  68  91
ENDBRANCH  42  43
ENDBRANCH  35  37
ENDBRANCH  34  35
ENDBRANCH  33  34
ENDBRANCH  32  33
ENDBRANCH  31  32
ENDBRANCH  30  31
ENDBRANCH  29  30
ENDBRANCH  28  29
ENDBRANCH   1  28
TORSDOF 24
