REMARK SMILES O=C(OCCOCCOCCOCCOC(=O)c1ccc2nc(-c3c[nH]nc3-c3ccc(F)cc3F)[nH]c2c1)c1ccc(-c2c3nc(c(-c4c(F)c(F)c(F)c(F)c4F)c4ccc([nH]4)c(-c4c(F)c(F)c(F)c(F)c4F)c4nc(c(-c5c(F)c(F)c(F)c(F)c5F)c5ccc2[nH]5)C=C4)C=C3)cc1
REMARK SMILES IDX 9 1 8 2 7 3 6 4 5 5 4 6 3 7 2 8 1 9 40 10 41 11 102 12 42 13
REMARK SMILES IDX 101 14 43 15 44 16 45 17 95 18 46 19 100 20 94 21 96 22
REMARK SMILES IDX 47 23 99 24 93 25 92 26 48 28 80 29 60 30 79 31 61 32 64 33
REMARK SMILES IDX 78 34 97 35 62 36 63 37 77 39 98 40 65 41 49 42 50 43 58 44
REMARK SMILES IDX 51 45 52 46 56 47 59 48 53 49 54 50 57 51 55 52 81 53 82 54
REMARK SMILES IDX 90 55 83 56 84 57 88 58 91 59 85 60 86 61 89 62 87 63 66 64
REMARK SMILES IDX 67 65 75 66 68 67 69 68 73 69 76 70 70 71 71 72 74 73 72 74
REMARK SMILES IDX 10 75 11 76 12 77 13 78 14 79 15 80 16 81 17 82 18 83 19 84
REMARK SMILES IDX 39 85 20 86 38 87 21 88 37 89 22 90 23 91 24 93 25 94 28 95
REMARK SMILES IDX 26 96 27 97 29 99 30 100 35 101 31 102 34 103 36 104 32 105
REMARK SMILES IDX 33 106
REMARK H PARENT 96 27 64 38 37 92 26 98
REMARK Flexibility Score: inf
ROOT
ATOM      1  O   UNL     1       2.230  -0.748   3.808  1.00  0.00    -0.377 OA
ENDROOT
BRANCH   1   2
ATOM      2  C   UNL     1       1.652  -0.811   2.507  1.00  0.00     0.188 C 
BRANCH   2   3
ATOM      3  C   UNL     1       2.110   0.303   1.567  1.00  0.00     0.188 C 
BRANCH   3   4
ATOM      4  O   UNL     1       3.465   0.069   1.164  1.00  0.00    -0.376 OA
BRANCH   4   5
ATOM      5  C   UNL     1       4.244   1.245   0.959  1.00  0.00     0.202 C 
BRANCH   5   6
ATOM      6  C   UNL     1       4.183   1.780  -0.472  1.00  0.00     0.261 C 
BRANCH   6   7
ATOM      7  O   UNL     1       2.858   1.700  -1.015  1.00  0.00    -0.460 OA
BRANCH   7   8
ATOM      8  C   UNL     1       2.316   0.703  -1.755  1.00  0.00     0.338 C 
ATOM      9  O   UNL     1       1.159   0.847  -2.151  1.00  0.00    -0.246 OA
BRANCH   8  10
ATOM     10  C   UNL     1       3.025  -0.562  -2.144  1.00  0.00     0.060 A 
ATOM     11  C   UNL     1       4.132  -1.123  -1.500  1.00  0.00     0.016 A 
ATOM     12  C   UNL     1       2.471  -1.278  -3.223  1.00  0.00     0.016 A 
ATOM     13  C   UNL     1       4.702  -2.317  -1.932  1.00  0.00     0.010 A 
ATOM     14  C   UNL     1       3.021  -2.489  -3.652  1.00  0.00     0.010 A 
ATOM     15  C   UNL     1       4.154  -3.000  -3.014  1.00  0.00    -0.014 A 
BRANCH  15  16
ATOM     16  C   UNL     1       4.860  -4.181  -3.536  1.00  0.00     0.031 A 
ATOM     17  C   UNL     1       5.750  -4.004  -4.724  1.00  0.00     0.074 A 
ATOM     18  C   UNL     1       4.790  -5.351  -2.879  1.00  0.00     0.049 A 
ATOM     19  N   UNL     1       6.428  -4.894  -5.396  1.00  0.00    -0.248 NA
ATOM     20  C   UNL     1       5.917  -2.623  -5.208  1.00  0.00     0.031 C 
ATOM     21  C   UNL     1       4.066  -5.568  -1.626  1.00  0.00     0.029 A 
ATOM     22  N   UNL     1       5.357  -6.565  -3.156  1.00  0.00    -0.354 N 
ATOM     23  C   UNL     1       7.091  -4.186  -6.388  1.00  0.00     0.074 A 
ATOM     24  C   UNL     1       6.732  -2.793  -6.236  1.00  0.00     0.031 C 
ATOM     25  C   UNL     1       4.251  -6.838  -1.231  1.00  0.00     0.029 A 
ATOM     26  C   UNL     1       5.049  -7.535  -2.235  1.00  0.00     0.049 A 
ATOM     27  H   UNL     1       5.931  -6.727  -3.940  1.00  0.00     0.167 HD
ATOM     28  C   UNL     1       7.917  -4.668  -7.344  1.00  0.00     0.037 A 
ATOM     29  C   UNL     1       5.361  -8.845  -2.231  1.00  0.00     0.037 A 
ATOM     30  C   UNL     1       8.218  -6.066  -7.491  1.00  0.00     0.049 A 
ATOM     31  C   UNL     1       6.171  -9.385  -3.379  1.00  0.00     0.074 A 
ATOM     32  C   UNL     1       8.924  -6.704  -8.492  1.00  0.00     0.029 A 
ATOM     33  N   UNL     1       7.815  -7.047  -6.593  1.00  0.00    -0.354 N 
ATOM     34  N   UNL     1       6.702  -8.737  -4.390  1.00  0.00    -0.248 NA
ATOM     35  C   UNL     1       6.409 -10.833  -3.400  1.00  0.00     0.031 C 
ATOM     36  C   UNL     1       8.916  -8.077  -8.218  1.00  0.00     0.029 A 
ATOM     37  C   UNL     1       8.252  -8.288  -7.018  1.00  0.00     0.049 A 
ATOM     38  H   UNL     1       7.294  -6.883  -5.773  1.00  0.00     0.167 HD
ATOM     39  C   UNL     1       7.351  -9.691  -5.160  1.00  0.00     0.074 A 
ATOM     40  C   UNL     1       7.154 -10.963  -4.491  1.00  0.00     0.031 C 
ATOM     41  C   UNL     1       8.044  -9.532  -6.315  1.00  0.00     0.037 A 
BRANCH  28  42
ATOM     42  C   UNL     1       8.462  -3.675  -8.327  1.00  0.00     0.064 A 
ATOM     43  C   UNL     1       7.959  -3.625  -9.636  1.00  0.00     0.173 A 
ATOM     44  C   UNL     1       9.431  -2.729  -7.961  1.00  0.00     0.173 A 
ATOM     45  F   UNL     1       7.024  -4.500 -10.034  1.00  0.00    -0.203 F 
ATOM     46  C   UNL     1       8.398  -2.659 -10.537  1.00  0.00     0.198 A 
ATOM     47  C   UNL     1       9.848  -1.746  -8.857  1.00  0.00     0.198 A 
ATOM     48  F   UNL     1       9.920  -2.711  -6.711  1.00  0.00    -0.203 F 
ATOM     49  F   UNL     1       7.897  -2.627 -11.780  1.00  0.00    -0.200 F 
ATOM     50  C   UNL     1       9.332  -1.713 -10.144  1.00  0.00     0.200 A 
ATOM     51  F   UNL     1      10.722  -0.809  -8.463  1.00  0.00    -0.200 F 
ATOM     52  F   UNL     1       9.720  -0.756 -10.998  1.00  0.00    -0.200 F 
ENDBRANCH  28  42
BRANCH  29  53
ATOM     53  C   UNL     1       4.891  -9.711  -1.119  1.00  0.00     0.064 A 
ATOM     54  C   UNL     1       3.526  -9.975  -0.925  1.00  0.00     0.173 A 
ATOM     55  C   UNL     1       5.794 -10.250  -0.193  1.00  0.00     0.173 A 
ATOM     56  F   UNL     1       2.620  -9.487  -1.784  1.00  0.00    -0.203 F 
ATOM     57  C   UNL     1       3.080 -10.713   0.170  1.00  0.00     0.198 A 
ATOM     58  C   UNL     1       5.349 -11.011   0.889  1.00  0.00     0.198 A 
ATOM     59  F   UNL     1       7.111 -10.048  -0.345  1.00  0.00    -0.203 F 
ATOM     60  F   UNL     1       1.768 -10.910   0.353  1.00  0.00    -0.200 F 
ATOM     61  C   UNL     1       3.992 -11.231   1.076  1.00  0.00     0.200 A 
ATOM     62  F   UNL     1       6.234 -11.529   1.751  1.00  0.00    -0.200 F 
ATOM     63  F   UNL     1       3.564 -11.942   2.128  1.00  0.00    -0.200 F 
ENDBRANCH  29  53
BRANCH  41  64
ATOM     64  C   UNL     1       8.675 -10.755  -6.907  1.00  0.00     0.064 A 
ATOM     65  C   UNL     1      10.068 -10.914  -6.871  1.00  0.00     0.173 A 
ATOM     66  C   UNL     1       7.915 -11.724  -7.576  1.00  0.00     0.173 A 
ATOM     67  F   UNL     1      10.836 -10.006  -6.250  1.00  0.00    -0.203 F 
ATOM     68  C   UNL     1      10.680 -11.995  -7.497  1.00  0.00     0.198 A 
ATOM     69  C   UNL     1       8.528 -12.818  -8.178  1.00  0.00     0.198 A 
ATOM     70  F   UNL     1       6.578 -11.618  -7.626  1.00  0.00    -0.203 F 
ATOM     71  F   UNL     1      12.014 -12.111  -7.478  1.00  0.00    -0.200 F 
ATOM     72  C   UNL     1       9.909 -12.948  -8.146  1.00  0.00     0.200 A 
ATOM     73  F   UNL     1       7.782 -13.750  -8.787  1.00  0.00    -0.200 F 
ATOM     74  F   UNL     1      10.499 -13.994  -8.741  1.00  0.00    -0.200 F 
ENDBRANCH  41  64
ENDBRANCH  15  16
ENDBRANCH   8  10
ENDBRANCH   7   8
ENDBRANCH   6   7
ENDBRANCH   5   6
ENDBRANCH   4   5
ENDBRANCH   3   4
ENDBRANCH   2   3
ENDBRANCH   1   2
BRANCH   1  75
ATOM     75  C   UNL     1       3.650  -0.704   3.880  1.00  0.00     0.188 C 
BRANCH  75  76
ATOM     76  C   UNL     1       4.447  -1.849   3.223  1.00  0.00     0.188 C 
BRANCH  76  77
ATOM     77  O   UNL     1       3.672  -2.986   2.867  1.00  0.00    -0.376 OA
BRANCH  77  78
ATOM     78  C   UNL     1       3.795  -4.108   3.736  1.00  0.00     0.202 C 
BRANCH  78  79
ATOM     79  C   UNL     1       3.050  -3.955   5.066  1.00  0.00     0.261 C 
BRANCH  79  80
ATOM     80  O   UNL     1       3.571  -2.948   5.951  1.00  0.00    -0.460 OA
BRANCH  80  81
ATOM     81  C   UNL     1       4.856  -3.034   6.365  1.00  0.00     0.338 C 
ATOM     82  O   UNL     1       5.656  -3.919   6.125  1.00  0.00    -0.246 OA
BRANCH  81  83
ATOM     83  C   UNL     1       5.191  -1.712   6.945  1.00  0.00     0.062 A 
ATOM     84  C   UNL     1       4.382  -1.169   7.952  1.00  0.00     0.018 A 
ATOM     85  C   UNL     1       6.206  -0.960   6.322  1.00  0.00     0.044 A 
ATOM     86  C   UNL     1       4.571   0.152   8.375  1.00  0.00     0.031 A 
ATOM     87  C   UNL     1       6.298   0.382   6.701  1.00  0.00     0.067 A 
ATOM     88  C   UNL     1       5.538   0.934   7.728  1.00  0.00     0.089 A 
ATOM     89  N   UNL     1       7.038   1.440   6.228  1.00  0.00    -0.338 N 
ATOM     90  N   UNL     1       5.903   2.232   7.957  1.00  0.00    -0.228 NA
ATOM     91  C   UNL     1       6.803   2.517   7.043  1.00  0.00     0.142 A 
ATOM     92  H   UNL     1       7.632   1.426   5.442  1.00  0.00     0.168 HD
BRANCH  91  93
ATOM     93  C   UNL     1       7.618   3.747   7.052  1.00  0.00     0.063 A 
ATOM     94  C   UNL     1       7.665   4.735   6.102  1.00  0.00     0.117 A 
ATOM     95  C   UNL     1       8.547   4.122   8.056  1.00  0.00     0.106 A 
ATOM     96  N   UNL     1       8.525   5.670   6.609  1.00  0.00    -0.284 N 
ATOM     97  N   UNL     1       9.129   5.291   7.749  1.00  0.00    -0.175 NA
ATOM     98  H   UNL     1       8.688   6.540   6.178  1.00  0.00     0.189 HD
BRANCH  95  99
ATOM     99  C   UNL     1       8.964   3.304   9.183  1.00  0.00     0.039 A 
ATOM    100  C   UNL     1       9.630   2.090   8.934  1.00  0.00     0.016 A 
ATOM    101  C   UNL     1       8.646   3.652  10.497  1.00  0.00     0.135 A 
ATOM    102  C   UNL     1       9.947   1.235   9.988  1.00  0.00     0.040 A 
ATOM    103  C   UNL     1       8.968   2.803  11.553  1.00  0.00     0.079 A 
ATOM    104  F   UNL     1       7.995   4.792  10.768  1.00  0.00    -0.206 F 
ATOM    105  C   UNL     1       9.609   1.599  11.286  1.00  0.00     0.126 A 
ATOM    106  F   UNL     1       9.904   0.770  12.295  1.00  0.00    -0.207 F 
ENDBRANCH  95  99
ENDBRANCH  91  93
ENDBRANCH  81  83
ENDBRANCH  80  81
ENDBRANCH  79  80
ENDBRANCH  78  79
ENDBRANCH  77  78
ENDBRANCH  76  77
ENDBRANCH  75  76
ENDBRANCH   1  75
TORSDOF 22
