REMARK SMILES C[C@@H]1[C@@H](C(=O)OCCOCCOCCOCCOC(=O)c2ccc(-c3c4nc(c(-c5c(F)c(F)c(F)c(F)c5F)c5ccc([nH]5)c(-c5c(F)c(F)c(F)c(F)c5F)c5nc(c(-c6c(F)c(F)c(F)c(F)c6F)c6ccc3[nH]6)C=C5)C=C4)cc2)CCN1C(=O)[C@@H]1CCCN1C(=O)C1CC1
REMARK SMILES IDX 11 1 10 2 9 3 8 4 7 5 6 6 4 7 5 8 3 9 1 10 2 11 86 12 84 13
REMARK SMILES IDX 85 14 87 15 88 16 89 17 90 18 93 19 91 20 92 21 94 22 95 23
REMARK SMILES IDX 96 24 97 25 98 26 12 27 13 28 14 29 15 30 16 31 17 32 18 33
REMARK SMILES IDX 19 34 20 35 21 36 22 37 83 38 23 39 82 40 24 41 25 42 26 43
REMARK SMILES IDX 76 44 27 45 81 46 75 47 77 48 28 49 80 50 74 51 73 52 29 54
REMARK SMILES IDX 61 55 41 56 60 57 42 58 45 59 59 60 78 61 43 62 44 63 58 65
REMARK SMILES IDX 79 66 46 67 30 68 31 69 39 70 32 71 33 72 37 73 40 74 34 75
REMARK SMILES IDX 35 76 38 77 36 78 62 79 63 80 71 81 64 82 65 83 69 84 72 85
REMARK SMILES IDX 66 86 67 87 70 88 68 89 47 90 48 91 56 92 49 93 50 94 54 95
REMARK SMILES IDX 57 96 51 97 52 98 55 99 53 100
REMARK H PARENT 77 53 45 64
REMARK Flexibility Score: inf
ROOT
ATOM      1  C   UNL     1       0.309   3.371  -2.279  1.00  0.00     0.188 C 
ENDROOT
BRANCH   1   2
ATOM      2  C   UNL     1       0.693   2.217  -3.217  1.00  0.00     0.188 C 
BRANCH   2   3
ATOM      3  O   UNL     1      -0.010   2.036  -4.430  1.00  0.00    -0.376 OA
BRANCH   3   4
ATOM      4  C   UNL     1      -1.394   1.752  -4.563  1.00  0.00     0.202 C 
BRANCH   4   5
ATOM      5  C   UNL     1      -2.402   1.321  -3.479  1.00  0.00     0.261 C 
BRANCH   5   6
ATOM      6  O   UNL     1      -2.008   1.405  -2.119  1.00  0.00    -0.463 OA
BRANCH   6   7
ATOM      7  C   UNL     1      -1.228   0.374  -1.728  1.00  0.00     0.311 C 
ATOM      8  O   UNL     1      -0.932  -0.571  -2.444  1.00  0.00    -0.252 OA
BRANCH   7   9
ATOM      9  C   UNL     1      -0.699   0.626  -0.329  1.00  0.00     0.123 C 
ATOM     10  C   UNL     1       1.488   0.286   0.938  1.00  0.00     0.032 C 
ATOM     11  C   UNL     1       0.500  -0.290  -0.072  1.00  0.00     0.096 C 
ATOM     12  N   UNL     1      -0.120  -1.522   0.410  1.00  0.00    -0.337 N 
ATOM     13  C   UNL     1      -1.712   0.208   0.714  1.00  0.00     0.039 C 
ATOM     14  C   UNL     1      -1.537  -1.295   0.704  1.00  0.00     0.121 C 
BRANCH  12  15
ATOM     15  C   UNL     1       0.221  -2.700  -0.256  1.00  0.00     0.245 C 
ATOM     16  O   UNL     1      -0.480  -3.184  -1.142  1.00  0.00    -0.272 OA
BRANCH  15  17
ATOM     17  C   UNL     1       1.498  -3.377   0.276  1.00  0.00     0.174 C 
ATOM     18  C   UNL     1       2.764  -2.904  -0.442  1.00  0.00     0.037 C 
ATOM     19  N   UNL     1       1.428  -4.805  -0.019  1.00  0.00    -0.330 N 
ATOM     20  C   UNL     1       2.864  -3.834  -1.641  1.00  0.00     0.024 C 
ATOM     21  C   UNL     1       2.339  -5.154  -1.099  1.00  0.00     0.120 C 
BRANCH  19  22
ATOM     22  C   UNL     1       0.619  -5.787   0.523  1.00  0.00     0.226 C 
ATOM     23  O   UNL     1       0.668  -6.939   0.093  1.00  0.00    -0.275 OA
BRANCH  22  24
ATOM     24  C   UNL     1      -0.318  -5.564   1.668  1.00  0.00     0.079 C 
ATOM     25  C   UNL     1      -0.719  -4.332   2.422  1.00  0.00     0.014 C 
ATOM     26  C   UNL     1      -1.663  -4.911   1.410  1.00  0.00     0.014 C 
ENDBRANCH  22  24
ENDBRANCH  19  22
ENDBRANCH  15  17
ENDBRANCH  12  15
ENDBRANCH   7   9
ENDBRANCH   6   7
ENDBRANCH   5   6
ENDBRANCH   4   5
ENDBRANCH   3   4
ENDBRANCH   2   3
ENDBRANCH   1   2
BRANCH   1  27
ATOM     27  O   UNL     1      -1.017   3.821  -2.459  1.00  0.00    -0.377 OA
BRANCH  27  28
ATOM     28  C   UNL     1      -1.211   4.886  -3.382  1.00  0.00     0.188 C 
BRANCH  28  29
ATOM     29  C   UNL     1      -0.259   5.061  -4.592  1.00  0.00     0.188 C 
BRANCH  29  30
ATOM     30  O   UNL     1       1.116   4.852  -4.307  1.00  0.00    -0.376 OA
BRANCH  30  31
ATOM     31  C   UNL     1       1.969   5.975  -4.156  1.00  0.00     0.202 C 
BRANCH  31  32
ATOM     32  C   UNL     1       1.733   6.872  -2.931  1.00  0.00     0.261 C 
BRANCH  32  33
ATOM     33  O   UNL     1       0.405   7.395  -2.786  1.00  0.00    -0.460 OA
BRANCH  33  34
ATOM     34  C   UNL     1      -0.039   8.220  -3.757  1.00  0.00     0.338 C 
ATOM     35  O   UNL     1       0.582   8.613  -4.731  1.00  0.00    -0.246 OA
BRANCH  34  36
ATOM     36  C   UNL     1      -1.488   8.421  -3.555  1.00  0.00     0.060 A 
ATOM     37  C   UNL     1      -2.370   8.049  -4.578  1.00  0.00     0.016 A 
ATOM     38  C   UNL     1      -1.973   8.964  -2.363  1.00  0.00     0.016 A 
ATOM     39  C   UNL     1      -3.740   8.260  -4.429  1.00  0.00     0.010 A 
ATOM     40  C   UNL     1      -3.343   9.198  -2.225  1.00  0.00     0.010 A 
ATOM     41  C   UNL     1      -4.227   8.883  -3.273  1.00  0.00    -0.014 A 
BRANCH  41  42
ATOM     42  C   UNL     1      -5.616   9.402  -3.252  1.00  0.00     0.031 A 
ATOM     43  C   UNL     1      -5.832  10.857  -3.565  1.00  0.00     0.074 A 
ATOM     44  C   UNL     1      -6.663   8.602  -2.989  1.00  0.00     0.049 A 
ATOM     45  N   UNL     1      -6.937  11.558  -3.558  1.00  0.00    -0.248 NA
ATOM     46  C   UNL     1      -4.633  11.628  -3.934  1.00  0.00     0.031 C 
ATOM     47  C   UNL     1      -6.587   7.169  -2.721  1.00  0.00     0.029 A 
ATOM     48  N   UNL     1      -8.002   8.894  -2.898  1.00  0.00    -0.354 N 
ATOM     49  C   UNL     1      -6.565  12.848  -3.912  1.00  0.00     0.074 A 
ATOM     50  C   UNL     1      -5.131  12.844  -4.094  1.00  0.00     0.031 C 
ATOM     51  C   UNL     1      -7.827   6.706  -2.481  1.00  0.00     0.029 A 
ATOM     52  C   UNL     1      -8.776   7.817  -2.542  1.00  0.00     0.049 A 
ATOM     53  H   UNL     1      -8.372   9.790  -3.071  1.00  0.00     0.167 HD
ATOM     54  C   UNL     1      -7.352  13.937  -4.080  1.00  0.00     0.037 A 
ATOM     55  C   UNL     1     -10.094   7.748  -2.271  1.00  0.00     0.037 A 
ATOM     56  C   UNL     1      -8.779  13.937  -3.894  1.00  0.00     0.049 A 
ATOM     57  C   UNL     1     -10.937   8.996  -2.380  1.00  0.00     0.074 A 
ATOM     58  C   UNL     1      -9.669  14.985  -4.052  1.00  0.00     0.029 A 
ATOM     59  N   UNL     1      -9.523  12.836  -3.498  1.00  0.00    -0.354 N 
ATOM     60  N   UNL     1     -10.585  10.208  -2.737  1.00  0.00    -0.248 NA
ATOM     61  C   UNL     1     -12.364   8.863  -2.050  1.00  0.00     0.031 C 
ATOM     62  C   UNL     1     -10.941  14.534  -3.689  1.00  0.00     0.029 A 
ATOM     63  C   UNL     1     -10.858  13.187  -3.375  1.00  0.00     0.049 A 
ATOM     64  H   UNL     1      -9.157  11.937  -3.329  1.00  0.00     0.167 HD
ATOM     65  C   UNL     1     -11.748  10.970  -2.711  1.00  0.00     0.074 A 
ATOM     66  C   UNL     1     -12.818  10.080  -2.315  1.00  0.00     0.031 C 
ATOM     67  C   UNL     1     -11.915  12.286  -2.991  1.00  0.00     0.037 A 
BRANCH  54  68
ATOM     68  C   UNL     1      -6.680  15.228  -4.450  1.00  0.00     0.064 A 
ATOM     69  C   UNL     1      -6.096  15.426  -5.711  1.00  0.00     0.173 A 
ATOM     70  C   UNL     1      -6.646  16.294  -3.538  1.00  0.00     0.173 A 
ATOM     71  F   UNL     1      -6.086  14.433  -6.614  1.00  0.00    -0.203 F 
ATOM     72  C   UNL     1      -5.479  16.632  -6.034  1.00  0.00     0.198 A 
ATOM     73  C   UNL     1      -6.059  17.510  -3.877  1.00  0.00     0.198 A 
ATOM     74  F   UNL     1      -7.190  16.160  -2.319  1.00  0.00    -0.203 F 
ATOM     75  F   UNL     1      -4.880  16.779  -7.224  1.00  0.00    -0.200 F 
ATOM     76  C   UNL     1      -5.468  17.675  -5.120  1.00  0.00     0.200 A 
ATOM     77  F   UNL     1      -6.062  18.522  -2.998  1.00  0.00    -0.200 F 
ATOM     78  F   UNL     1      -4.882  18.838  -5.436  1.00  0.00    -0.200 F 
ENDBRANCH  54  68
BRANCH  55  79
ATOM     79  C   UNL     1     -10.706   6.458  -1.852  1.00  0.00     0.064 A 
ATOM     80  C   UNL     1     -11.650   5.807  -2.658  1.00  0.00     0.173 A 
ATOM     81  C   UNL     1     -10.384   5.867  -0.621  1.00  0.00     0.173 A 
ATOM     82  F   UNL     1     -12.013   6.345  -3.832  1.00  0.00    -0.203 F 
ATOM     83  C   UNL     1     -12.266   4.629  -2.239  1.00  0.00     0.198 A 
ATOM     84  C   UNL     1     -10.976   4.671  -0.218  1.00  0.00     0.198 A 
ATOM     85  F   UNL     1      -9.490   6.449   0.192  1.00  0.00    -0.203 F 
ATOM     86  F   UNL     1     -13.208   4.059  -3.003  1.00  0.00    -0.200 F 
ATOM     87  C   UNL     1     -11.924   4.059  -1.022  1.00  0.00     0.200 A 
ATOM     88  F   UNL     1     -10.632   4.118   0.954  1.00  0.00    -0.200 F 
ATOM     89  F   UNL     1     -12.516   2.926  -0.619  1.00  0.00    -0.200 F 
ENDBRANCH  55  79
BRANCH  67  90
ATOM     90  C   UNL     1     -13.313  12.838  -2.930  1.00  0.00     0.064 A 
ATOM     91  C   UNL     1     -13.997  12.996  -1.716  1.00  0.00     0.173 A 
ATOM     92  C   UNL     1     -13.959  13.259  -4.104  1.00  0.00     0.173 A 
ATOM     93  F   UNL     1     -13.432  12.600  -0.566  1.00  0.00    -0.203 F 
ATOM     94  C   UNL     1     -15.287  13.522  -1.683  1.00  0.00     0.198 A 
ATOM     95  C   UNL     1     -15.232  13.819  -4.064  1.00  0.00     0.198 A 
ATOM     96  F   UNL     1     -13.346  13.142  -5.292  1.00  0.00    -0.203 F 
ATOM     97  F   UNL     1     -15.942  13.611  -0.518  1.00  0.00    -0.200 F 
ATOM     98  C   UNL     1     -15.899  13.941  -2.855  1.00  0.00     0.200 A 
ATOM     99  F   UNL     1     -15.813  14.241  -5.195  1.00  0.00    -0.200 F 
ATOM    100  F   UNL     1     -17.135  14.457  -2.820  1.00  0.00    -0.200 F 
ENDBRANCH  67  90
ENDBRANCH  41  42
ENDBRANCH  34  36
ENDBRANCH  33  34
ENDBRANCH  32  33
ENDBRANCH  31  32
ENDBRANCH  30  31
ENDBRANCH  29  30
ENDBRANCH  28  29
ENDBRANCH  27  28
ENDBRANCH   1  27
TORSDOF 24
