REMARK SMILES Cc1ccc(C)c(-c2csc(C(=O)OCCOCCOCCOCCOC(=O)c3ccc(-c4c5nc(c(-c6c(F)c(F)c(F)c(F)c6F)c6ccc([nH]6)c(-c6c(F)c(F)c(F)c(F)c6F)c6nc(c(-c7c(F)c(F)c(F)c(F)c7F)c7ccc4[nH]7)C=C6)C=C5)cc3)n2)c1
REMARK SMILES IDX 21 1 20 2 19 3 18 4 17 5 16 6 15 7 14 8 12 9 13 10 11 11
REMARK SMILES IDX 8 12 9 13 92 14 10 15 7 16 1 17 2 18 3 19 93 20 4 21 5 22
REMARK SMILES IDX 6 23 22 24 23 25 24 26 25 27 26 28 27 29 28 30 29 31 30 32
REMARK SMILES IDX 91 33 31 34 90 35 32 36 33 37 34 38 84 39 35 40 89 41 83 42
REMARK SMILES IDX 85 43 36 44 88 45 82 46 81 47 37 49 69 50 49 51 68 52 50 53
REMARK SMILES IDX 53 54 67 55 86 56 51 57 52 58 66 60 87 61 54 62 38 63 39 64
REMARK SMILES IDX 47 65 40 66 41 67 45 68 48 69 42 70 43 71 46 72 44 73 70 74
REMARK SMILES IDX 71 75 79 76 72 77 73 78 77 79 80 80 74 81 75 82 78 83 76 84
REMARK SMILES IDX 55 85 56 86 64 87 57 88 58 89 62 90 65 91 59 92 60 93 63 94
REMARK SMILES IDX 61 95
REMARK H PARENT 85 48 53 59
REMARK Flexibility Score: inf
ROOT
ATOM      1  C   UNL     1      -3.334   3.173  -6.623  1.00  0.00     0.188 C 
ENDROOT
BRANCH   1   2
ATOM      2  O   UNL     1      -3.066   2.387  -5.467  1.00  0.00    -0.377 OA
BRANCH   2   3
ATOM      3  C   UNL     1      -3.132   3.026  -4.190  1.00  0.00     0.188 C 
BRANCH   3   4
ATOM      4  C   UNL     1      -2.836   4.527  -4.074  1.00  0.00     0.188 C 
BRANCH   4   5
ATOM      5  O   UNL     1      -1.675   4.887  -4.816  1.00  0.00    -0.376 OA
BRANCH   5   6
ATOM      6  C   UNL     1      -0.852   5.861  -4.191  1.00  0.00     0.202 C 
BRANCH   6   7
ATOM      7  C   UNL     1       0.371   5.163  -3.591  1.00  0.00     0.261 C 
BRANCH   7   8
ATOM      8  O   UNL     1       0.058   4.054  -2.729  1.00  0.00    -0.458 OA
BRANCH   8   9
ATOM      9  C   UNL     1      -0.663   4.341  -1.608  1.00  0.00     0.367 C 
ATOM     10  O   UNL     1      -1.015   5.475  -1.301  1.00  0.00    -0.243 OA
BRANCH   9  11
ATOM     11  C   UNL     1      -1.049   3.110  -0.952  1.00  0.00     0.202 A 
ATOM     12  C   UNL     1      -0.928   1.082  -0.068  1.00  0.00     0.082 A 
ATOM     13  C   UNL     1      -2.224   1.385   0.282  1.00  0.00     0.096 A 
ATOM     14  N   UNL     1      -0.252   2.086  -0.755  1.00  0.00    -0.230 NA
ATOM     15  S   UNL     1      -2.661   2.842  -0.478  1.00  0.00    -0.115 S 
BRANCH  12  16
ATOM     16  C   UNL     1      -0.233  -0.164   0.196  1.00  0.00     0.004 A 
ATOM     17  C   UNL     1       3.481  -0.951   0.316  1.00  0.00     0.044 C 
ATOM     18  C   UNL     1       1.996  -1.148   0.337  1.00  0.00    -0.050 A 
ATOM     19  C   UNL     1       1.423  -2.415   0.245  1.00  0.00     0.004 A 
ATOM     20  C   UNL     1       1.158  -0.039   0.362  1.00  0.00     0.014 A 
ATOM     21  C   UNL     1       0.034  -2.561   0.158  1.00  0.00     0.004 A 
ATOM     22  C   UNL     1      -0.815  -1.443   0.103  1.00  0.00    -0.042 A 
ATOM     23  C   UNL     1      -2.289  -1.685  -0.084  1.00  0.00     0.045 C 
ENDBRANCH  12  16
ENDBRANCH   9  11
ENDBRANCH   8   9
ENDBRANCH   7   8
ENDBRANCH   6   7
ENDBRANCH   5   6
ENDBRANCH   4   5
ENDBRANCH   3   4
ENDBRANCH   2   3
ENDBRANCH   1   2
BRANCH   1  24
ATOM     24  C   UNL     1      -4.807   3.532  -6.805  1.00  0.00     0.188 C 
BRANCH  24  25
ATOM     25  O   UNL     1      -5.317   4.186  -5.647  1.00  0.00    -0.376 OA
BRANCH  25  26
ATOM     26  C   UNL     1      -6.668   3.865  -5.344  1.00  0.00     0.202 C 
BRANCH  26  27
ATOM     27  C   UNL     1      -7.652   4.570  -6.284  1.00  0.00     0.261 C 
BRANCH  27  28
ATOM     28  O   UNL     1      -7.774   5.978  -6.003  1.00  0.00    -0.460 OA
BRANCH  28  29
ATOM     29  C   UNL     1      -6.641   6.699  -6.184  1.00  0.00     0.338 C 
ATOM     30  O   UNL     1      -6.101   6.913  -7.258  1.00  0.00    -0.246 OA
BRANCH  29  31
ATOM     31  C   UNL     1      -6.104   7.087  -4.854  1.00  0.00     0.060 A 
ATOM     32  C   UNL     1      -4.788   7.545  -4.767  1.00  0.00     0.016 A 
ATOM     33  C   UNL     1      -6.849   6.848  -3.686  1.00  0.00     0.016 A 
ATOM     34  C   UNL     1      -4.206   7.696  -3.513  1.00  0.00     0.010 A 
ATOM     35  C   UNL     1      -6.257   6.966  -2.438  1.00  0.00     0.010 A 
ATOM     36  C   UNL     1      -4.928   7.374  -2.352  1.00  0.00    -0.014 A 
BRANCH  36  37
ATOM     37  C   UNL     1      -4.357   7.734  -1.051  1.00  0.00     0.031 A 
ATOM     38  C   UNL     1      -4.111   9.178  -0.924  1.00  0.00     0.074 A 
ATOM     39  C   UNL     1      -4.176   6.906   0.002  1.00  0.00     0.049 A 
ATOM     40  N   UNL     1      -2.984   9.739  -0.642  1.00  0.00    -0.248 NA
ATOM     41  C   UNL     1      -5.210  10.114  -1.224  1.00  0.00     0.031 C 
ATOM     42  C   UNL     1      -4.532   5.499  -0.021  1.00  0.00     0.029 A 
ATOM     43  N   UNL     1      -3.709   7.098   1.293  1.00  0.00    -0.354 N 
ATOM     44  C   UNL     1      -3.313  11.058  -0.399  1.00  0.00     0.074 A 
ATOM     45  C   UNL     1      -4.636  11.281  -0.933  1.00  0.00     0.031 C 
ATOM     46  C   UNL     1      -4.370   4.979   1.208  1.00  0.00     0.029 A 
ATOM     47  C   UNL     1      -3.856   5.982   2.119  1.00  0.00     0.049 A 
ATOM     48  H   UNL     1      -3.309   7.944   1.599  1.00  0.00     0.167 HD
ATOM     49  C   UNL     1      -2.710  11.658   0.656  1.00  0.00     0.037 A 
ATOM     50  C   UNL     1      -3.575   5.775   3.436  1.00  0.00     0.037 A 
ATOM     51  C   UNL     1      -1.392  11.146   0.919  1.00  0.00     0.049 A 
ATOM     52  C   UNL     1      -2.531   6.740   3.859  1.00  0.00     0.074 A 
ATOM     53  C   UNL     1      -0.165  11.204   0.297  1.00  0.00     0.029 A 
ATOM     54  N   UNL     1      -1.321  10.142   1.842  1.00  0.00    -0.354 N 
ATOM     55  N   UNL     1      -1.263   6.612   3.578  1.00  0.00    -0.248 NA
ATOM     56  C   UNL     1      -2.913   8.021   4.452  1.00  0.00     0.031 C 
ATOM     57  C   UNL     1       0.653  10.194   0.885  1.00  0.00     0.029 A 
ATOM     58  C   UNL     1      -0.090   9.535   1.857  1.00  0.00     0.049 A 
ATOM     59  H   UNL     1      -2.067   9.884   2.430  1.00  0.00     0.167 HD
ATOM     60  C   UNL     1      -0.798   7.910   3.548  1.00  0.00     0.074 A 
ATOM     61  C   UNL     1      -1.784   8.705   4.258  1.00  0.00     0.031 C 
ATOM     62  C   UNL     1       0.090   8.304   2.596  1.00  0.00     0.037 A 
BRANCH  49  63
ATOM     63  C   UNL     1      -3.559  12.248   1.747  1.00  0.00     0.064 A 
ATOM     64  C   UNL     1      -3.020  13.218   2.598  1.00  0.00     0.173 A 
ATOM     65  C   UNL     1      -4.794  11.680   2.145  1.00  0.00     0.173 A 
ATOM     66  F   UNL     1      -1.809  13.736   2.348  1.00  0.00    -0.203 F 
ATOM     67  C   UNL     1      -3.687  13.613   3.759  1.00  0.00     0.198 A 
ATOM     68  C   UNL     1      -5.486  12.120   3.266  1.00  0.00     0.198 A 
ATOM     69  F   UNL     1      -5.306  10.605   1.529  1.00  0.00    -0.203 F 
ATOM     70  F   UNL     1      -3.103  14.478   4.598  1.00  0.00    -0.200 F 
ATOM     71  C   UNL     1      -4.925  13.078   4.082  1.00  0.00     0.200 A 
ATOM     72  F   UNL     1      -6.659  11.555   3.584  1.00  0.00    -0.200 F 
ATOM     73  F   UNL     1      -5.551  13.441   5.209  1.00  0.00    -0.200 F 
ENDBRANCH  49  63
BRANCH  50  74
ATOM     74  C   UNL     1      -4.035   4.669   4.340  1.00  0.00     0.064 A 
ATOM     75  C   UNL     1      -3.439   4.434   5.595  1.00  0.00     0.173 A 
ATOM     76  C   UNL     1      -5.184   3.892   4.074  1.00  0.00     0.173 A 
ATOM     77  F   UNL     1      -2.404   5.177   6.012  1.00  0.00    -0.203 F 
ATOM     78  C   UNL     1      -3.934   3.471   6.489  1.00  0.00     0.198 A 
ATOM     79  C   UNL     1      -5.643   2.896   4.938  1.00  0.00     0.198 A 
ATOM     80  F   UNL     1      -5.954   4.125   3.004  1.00  0.00    -0.203 F 
ATOM     81  F   UNL     1      -3.370   3.328   7.697  1.00  0.00    -0.200 F 
ATOM     82  C   UNL     1      -5.025   2.692   6.152  1.00  0.00     0.200 A 
ATOM     83  F   UNL     1      -6.719   2.171   4.598  1.00  0.00    -0.200 F 
ATOM     84  F   UNL     1      -5.511   1.785   7.010  1.00  0.00    -0.200 F 
ENDBRANCH  50  74
BRANCH  62  85
ATOM     85  C   UNL     1       1.185   7.363   2.220  1.00  0.00     0.064 A 
ATOM     86  C   UNL     1       1.010   6.138   1.564  1.00  0.00     0.173 A 
ATOM     87  C   UNL     1       2.499   7.760   2.518  1.00  0.00     0.173 A 
ATOM     88  F   UNL     1      -0.213   5.691   1.250  1.00  0.00    -0.203 F 
ATOM     89  C   UNL     1       2.109   5.355   1.208  1.00  0.00     0.198 A 
ATOM     90  C   UNL     1       3.593   6.982   2.154  1.00  0.00     0.198 A 
ATOM     91  F   UNL     1       2.723   8.922   3.152  1.00  0.00    -0.203 F 
ATOM     92  F   UNL     1       1.925   4.190   0.570  1.00  0.00    -0.200 F 
ATOM     93  C   UNL     1       3.398   5.780   1.497  1.00  0.00     0.200 A 
ATOM     94  F   UNL     1       4.834   7.405   2.432  1.00  0.00    -0.200 F 
ATOM     95  F   UNL     1       4.453   5.035   1.137  1.00  0.00    -0.200 F 
ENDBRANCH  62  85
ENDBRANCH  36  37
ENDBRANCH  29  31
ENDBRANCH  28  29
ENDBRANCH  27  28
ENDBRANCH  26  27
ENDBRANCH  25  26
ENDBRANCH  24  25
ENDBRANCH   1  24
TORSDOF 21
