REMARK SMILES CCOc1ccc(-c2cnc(N)cc2C(=O)OCCOCCOCCOCCOC(=O)c2ccc(-c3c4nc(c(-c5c(F)c(F)c(F)c(F)c5F)c5ccc([nH]5)c(-c5c(F)c(F)c(F)c(F)c5F)c5nc(c(-c6c(F)c(F)c(F)c(F)c6F)c6ccc3[nH]6)C=C5)C=C4)cc2)c(Cl)c1
REMARK SMILES IDX 22 1 21 2 20 3 19 4 18 5 17 6 15 7 16 8 14 9 8 10 9 11 10 12
REMARK SMILES IDX 13 13 11 14 7 15 4 16 5 17 97 18 6 19 95 20 96 21 3 22 2 23
REMARK SMILES IDX 1 24 12 25 23 28 24 29 25 30 26 31 27 32 28 33 29 34 30 35
REMARK SMILES IDX 31 36 32 37 33 38 94 39 34 40 93 41 35 42 36 43 37 44 87 45
REMARK SMILES IDX 38 46 92 47 86 48 88 49 39 50 91 51 85 52 84 53 40 55 72 56
REMARK SMILES IDX 52 57 71 58 53 59 56 60 70 61 89 62 54 63 55 64 69 66 90 67
REMARK SMILES IDX 57 68 41 69 42 70 50 71 43 72 44 73 48 74 51 75 45 76 46 77
REMARK SMILES IDX 49 78 47 79 73 80 74 81 82 82 75 83 76 84 80 85 83 86 77 87
REMARK SMILES IDX 78 88 81 89 79 90 58 91 59 92 67 93 60 94 61 95 65 96 68 97
REMARK SMILES IDX 62 98 63 99 66 100 64 101
REMARK H PARENT 12 26 12 27 88 54 56 65
REMARK Flexibility Score: inf
ROOT
ATOM      1  C   UNL     1       6.373  -6.332  -0.185  1.00  0.00     0.188 C 
ENDROOT
BRANCH   1   2
ATOM      2  C   UNL     1       5.220  -5.697  -1.003  1.00  0.00     0.188 C 
BRANCH   2   3
ATOM      3  O   UNL     1       5.295  -5.950  -2.400  1.00  0.00    -0.376 OA
BRANCH   3   4
ATOM      4  C   UNL     1       5.580  -4.844  -3.238  1.00  0.00     0.202 C 
BRANCH   4   5
ATOM      5  C   UNL     1       7.024  -4.343  -3.159  1.00  0.00     0.261 C 
BRANCH   5   6
ATOM      6  O   UNL     1       7.483  -4.024  -1.835  1.00  0.00    -0.460 OA
BRANCH   6   7
ATOM      7  C   UNL     1       6.969  -2.929  -1.222  1.00  0.00     0.339 C 
ATOM      8  O   UNL     1       6.175  -2.147  -1.708  1.00  0.00    -0.246 OA
BRANCH   7   9
ATOM      9  C   UNL     1       7.488  -2.909   0.176  1.00  0.00     0.073 A 
ATOM     10  C   UNL     1       6.662  -2.712   1.300  1.00  0.00     0.016 A 
ATOM     11  C   UNL     1       7.320  -2.712   2.529  1.00  0.00     0.123 A 
ATOM     12  N   UNL     1       8.648  -2.914   2.704  1.00  0.00    -0.239 NA
ATOM     13  C   UNL     1       8.862  -3.140   0.343  1.00  0.00     0.062 A 
ATOM     14  C   UNL     1       9.392  -3.152   1.617  1.00  0.00     0.124 A 
BRANCH  10  15
ATOM     15  C   UNL     1       5.202  -2.517   1.256  1.00  0.00     0.003 A 
ATOM     16  C   UNL     1       2.419  -2.079   0.985  1.00  0.00     0.120 A 
ATOM     17  C   UNL     1       3.327  -1.093   0.618  1.00  0.00     0.047 A 
ATOM     18  C   UNL     1       2.885  -3.251   1.569  1.00  0.00     0.067 A 
ATOM     19  C   UNL     1       4.700  -1.315   0.740  1.00  0.00     0.014 A 
ATOM     20  C   UNL     1       4.260  -3.455   1.734  1.00  0.00     0.052 A 
ATOM     21  Cl  UNL     1       4.728  -4.882   2.592  1.00  0.00    -0.084 Cl
BRANCH  16  22
ATOM     22  O   UNL     1       1.064  -1.931   0.911  1.00  0.00    -0.494 OA
BRANCH  22  23
ATOM     23  C   UNL     1       0.565  -1.407  -0.325  1.00  0.00     0.226 C 
ATOM     24  C   UNL     1       0.377   0.101  -0.262  1.00  0.00     0.049 C 
ENDBRANCH  22  23
ENDBRANCH  16  22
ENDBRANCH  10  15
BRANCH  14  25
ATOM     25  N   UNL     1      10.740  -3.353   1.823  1.00  0.00    -0.384 N 
ATOM     26  H   UNL     1      11.103  -3.358   2.738  1.00  0.00     0.158 HD
ATOM     27  H   UNL     1      11.340  -3.491   1.055  1.00  0.00     0.158 HD
ENDBRANCH  14  25
ENDBRANCH   7   9
ENDBRANCH   6   7
ENDBRANCH   5   6
ENDBRANCH   4   5
ENDBRANCH   3   4
ENDBRANCH   2   3
ENDBRANCH   1   2
BRANCH   1  28
ATOM     28  O   UNL     1       6.970  -7.580  -0.524  1.00  0.00    -0.377 OA
BRANCH  28  29
ATOM     29  C   UNL     1       6.544  -8.234  -1.704  1.00  0.00     0.188 C 
BRANCH  29  30
ATOM     30  C   UNL     1       5.092  -8.750  -1.671  1.00  0.00     0.188 C 
BRANCH  30  31
ATOM     31  O   UNL     1       4.366  -8.318  -0.529  1.00  0.00    -0.376 OA
BRANCH  31  32
ATOM     32  C   UNL     1       4.220  -9.217   0.558  1.00  0.00     0.202 C 
BRANCH  32  33
ATOM     33  C   UNL     1       5.480  -9.766   1.246  1.00  0.00     0.261 C 
BRANCH  33  34
ATOM     34  O   UNL     1       6.462 -10.382   0.400  1.00  0.00    -0.460 OA
BRANCH  34  35
ATOM     35  C   UNL     1       6.121 -11.493  -0.284  1.00  0.00     0.338 C 
ATOM     36  O   UNL     1       5.060 -12.089  -0.259  1.00  0.00    -0.246 OA
BRANCH  35  37
ATOM     37  C   UNL     1       7.215 -11.739  -1.248  1.00  0.00     0.060 A 
ATOM     38  C   UNL     1       6.937 -11.705  -2.622  1.00  0.00     0.016 A 
ATOM     39  C   UNL     1       8.526 -11.914  -0.796  1.00  0.00     0.016 A 
ATOM     40  C   UNL     1       7.971 -11.842  -3.548  1.00  0.00     0.010 A 
ATOM     41  C   UNL     1       9.555 -12.089  -1.722  1.00  0.00     0.010 A 
ATOM     42  C   UNL     1       9.279 -12.072  -3.100  1.00  0.00    -0.014 A 
BRANCH  42  43
ATOM     43  C   UNL     1      10.319 -12.503  -4.061  1.00  0.00     0.031 A 
ATOM     44  C   UNL     1      10.538 -13.977  -4.240  1.00  0.00     0.074 A 
ATOM     45  C   UNL     1      11.054 -11.614  -4.751  1.00  0.00     0.049 A 
ATOM     46  N   UNL     1      11.430 -14.607  -4.960  1.00  0.00    -0.248 NA
ATOM     47  C   UNL     1       9.625 -14.862  -3.499  1.00  0.00     0.031 C 
ATOM     48  C   UNL     1      10.905 -10.163  -4.687  1.00  0.00     0.029 A 
ATOM     49  N   UNL     1      12.088 -11.811  -5.633  1.00  0.00    -0.354 N 
ATOM     50  C   UNL     1      11.189 -15.958  -4.752  1.00  0.00     0.074 A 
ATOM     51  C   UNL     1      10.088 -16.059  -3.820  1.00  0.00     0.031 C 
ATOM     52  C   UNL     1      11.834  -9.597  -5.478  1.00  0.00     0.029 A 
ATOM     53  C   UNL     1      12.661 -10.645  -6.075  1.00  0.00     0.049 A 
ATOM     54  H   UNL     1      12.389 -12.703  -5.920  1.00  0.00     0.167 HD
ATOM     55  C   UNL     1      11.829 -17.020  -5.295  1.00  0.00     0.037 A 
ATOM     56  C   UNL     1      13.750 -10.453  -6.846  1.00  0.00     0.037 A 
ATOM     57  C   UNL     1      12.931 -16.911  -6.212  1.00  0.00     0.049 A 
ATOM     58  C   UNL     1      14.497 -11.652  -7.377  1.00  0.00     0.074 A 
ATOM     59  C   UNL     1      13.634 -17.923  -6.841  1.00  0.00     0.029 A 
ATOM     60  N   UNL     1      13.503 -15.713  -6.618  1.00  0.00    -0.354 N 
ATOM     61  N   UNL     1      14.244 -12.928  -7.211  1.00  0.00    -0.248 NA
ATOM     62  C   UNL     1      15.682 -11.383  -8.205  1.00  0.00     0.031 C 
ATOM     63  C   UNL     1      14.670 -17.340  -7.577  1.00  0.00     0.029 A 
ATOM     64  C   UNL     1      14.574 -15.962  -7.460  1.00  0.00     0.049 A 
ATOM     65  H   UNL     1      13.193 -14.819  -6.347  1.00  0.00     0.167 HD
ATOM     66  C   UNL     1      15.218 -13.611  -7.929  1.00  0.00     0.074 A 
ATOM     67  C   UNL     1      16.059 -12.607  -8.546  1.00  0.00     0.031 C 
ATOM     68  C   UNL     1      15.400 -14.948  -8.066  1.00  0.00     0.037 A 
BRANCH  55  69
ATOM     69  C   UNL     1      11.377 -18.387  -4.873  1.00  0.00     0.064 A 
ATOM     70  C   UNL     1      10.135 -18.910  -5.263  1.00  0.00     0.173 A 
ATOM     71  C   UNL     1      12.207 -19.190  -4.076  1.00  0.00     0.173 A 
ATOM     72  F   UNL     1       9.296 -18.175  -6.009  1.00  0.00    -0.203 F 
ATOM     73  C   UNL     1       9.728 -20.174  -4.845  1.00  0.00     0.198 A 
ATOM     74  C   UNL     1      11.810 -20.466  -3.687  1.00  0.00     0.198 A 
ATOM     75  F   UNL     1      13.404 -18.738  -3.675  1.00  0.00    -0.203 F 
ATOM     76  F   UNL     1       8.514 -20.632  -5.183  1.00  0.00    -0.200 F 
ATOM     77  C   UNL     1      10.568 -20.954  -4.064  1.00  0.00     0.200 A 
ATOM     78  F   UNL     1      12.628 -21.222  -2.942  1.00  0.00    -0.200 F 
ATOM     79  F   UNL     1      10.177 -22.173  -3.667  1.00  0.00    -0.200 F 
ENDBRANCH  55  69
BRANCH  56  80
ATOM     80  C   UNL     1      14.219  -9.072  -7.139  1.00  0.00     0.064 A 
ATOM     81  C   UNL     1      14.164  -8.545  -8.436  1.00  0.00     0.173 A 
ATOM     82  C   UNL     1      14.750  -8.257  -6.127  1.00  0.00     0.173 A 
ATOM     83  F   UNL     1      13.692  -9.293  -9.444  1.00  0.00    -0.203 F 
ATOM     84  C   UNL     1      14.634  -7.262  -8.713  1.00  0.00     0.198 A 
ATOM     85  C   UNL     1      15.191  -6.964  -6.399  1.00  0.00     0.198 A 
ATOM     86  F   UNL     1      14.831  -8.714  -4.869  1.00  0.00    -0.203 F 
ATOM     87  F   UNL     1      14.611  -6.799  -9.970  1.00  0.00    -0.200 F 
ATOM     88  C   UNL     1      15.140  -6.470  -7.693  1.00  0.00     0.200 A 
ATOM     89  F   UNL     1      15.668  -6.199  -5.408  1.00  0.00    -0.200 F 
ATOM     90  F   UNL     1      15.586  -5.234  -7.959  1.00  0.00    -0.200 F 
ENDBRANCH  56  80
BRANCH  68  91
ATOM     91  C   UNL     1      16.534 -15.409  -8.938  1.00  0.00     0.064 A 
ATOM     92  C   UNL     1      17.872 -15.274  -8.540  1.00  0.00     0.173 A 
ATOM     93  C   UNL     1      16.274 -16.044 -10.162  1.00  0.00     0.173 A 
ATOM     94  F   UNL     1      18.175 -14.662  -7.385  1.00  0.00    -0.203 F 
ATOM     95  C   UNL     1      18.909 -15.738  -9.346  1.00  0.00     0.198 A 
ATOM     96  C   UNL     1      17.311 -16.537 -10.950  1.00  0.00     0.198 A 
ATOM     97  F   UNL     1      15.012 -16.207 -10.586  1.00  0.00    -0.203 F 
ATOM     98  F   UNL     1      20.182 -15.558  -8.968  1.00  0.00    -0.200 F 
ATOM     99  C   UNL     1      18.627 -16.377 -10.545  1.00  0.00     0.200 A 
ATOM    100  F   UNL     1      17.036 -17.169 -12.099  1.00  0.00    -0.200 F 
ATOM    101  F   UNL     1      19.626 -16.834 -11.313  1.00  0.00    -0.200 F 
ENDBRANCH  68  91
ENDBRANCH  42  43
ENDBRANCH  35  37
ENDBRANCH  34  35
ENDBRANCH  33  34
ENDBRANCH  32  33
ENDBRANCH  31  32
ENDBRANCH  30  31
ENDBRANCH  29  30
ENDBRANCH  28  29
ENDBRANCH   1  28
TORSDOF 24
