REMARK SMILES COc1ccc(C(F)(F)F)cc1-c1cccnc1C(=O)OCCOCCOCCOCCOC(=O)c1ccc(-c2c3nc(c(-c4c(F)c(F)c(F)c(F)c4F)c4ccc([nH]4)c(-c4c(F)c(F)c(F)c(F)c4F)c4nc(c(-c5c(F)c(F)c(F)c(F)c5F)c5ccc2[nH]5)C=C4)C=C3)cc1
REMARK SMILES IDX 27 1 26 2 25 3 24 4 23 5 22 6 21 7 19 8 20 9 18 10 13 11
REMARK SMILES IDX 14 12 15 13 17 14 16 15 12 16 3 17 4 18 5 19 11 20 6 21 2 22
REMARK SMILES IDX 1 23 7 24 8 25 9 26 10 27 28 28 29 29 30 30 31 31 32 32
REMARK SMILES IDX 33 33 34 34 35 35 36 36 37 37 98 38 38 39 97 40 39 41 40 42
REMARK SMILES IDX 41 43 91 44 42 45 96 46 90 47 92 48 43 49 95 50 89 51 88 52
REMARK SMILES IDX 44 54 76 55 56 56 75 57 57 58 60 59 74 60 93 61 58 62 59 63
REMARK SMILES IDX 73 65 94 66 61 67 45 68 46 69 54 70 47 71 48 72 52 73 55 74
REMARK SMILES IDX 49 75 50 76 53 77 51 78 77 79 78 80 86 81 79 82 80 83 84 84
REMARK SMILES IDX 87 85 81 86 82 87 85 88 83 89 62 90 63 91 71 92 64 93 65 94
REMARK SMILES IDX 69 95 72 96 66 97 67 98 70 99 68 100
REMARK H PARENT 92 53 60 64
REMARK Flexibility Score: inf
ROOT
ATOM      1  O   UNL     1       0.964  -2.221   2.747  1.00  0.00    -0.377 OA
ENDROOT
BRANCH   1   2
ATOM      2  C   UNL     1       1.918  -2.794   1.867  1.00  0.00     0.188 C 
BRANCH   2   3
ATOM      3  C   UNL     1       3.011  -3.668   2.514  1.00  0.00     0.188 C 
BRANCH   3   4
ATOM      4  O   UNL     1       2.683  -4.211   3.777  1.00  0.00    -0.376 OA
BRANCH   4   5
ATOM      5  C   UNL     1       2.887  -3.487   4.978  1.00  0.00     0.202 C 
BRANCH   5   6
ATOM      6  C   UNL     1       3.137  -1.974   5.078  1.00  0.00     0.261 C 
BRANCH   6   7
ATOM      7  O   UNL     1       3.224  -1.254   3.852  1.00  0.00    -0.458 OA
BRANCH   7   8
ATOM      8  C   UNL     1       4.448  -0.856   3.440  1.00  0.00     0.357 C 
ATOM      9  O   UNL     1       5.498  -1.083   4.021  1.00  0.00    -0.244 OA
BRANCH   8  10
ATOM     10  C   UNL     1       4.347  -0.180   2.100  1.00  0.00     0.156 A 
ATOM     11  C   UNL     1       3.428   0.846   1.785  1.00  0.00     0.019 A 
ATOM     12  C   UNL     1       3.576   1.405   0.501  1.00  0.00     0.013 A 
ATOM     13  C   UNL     1       4.486   0.885  -0.419  1.00  0.00     0.021 A 
ATOM     14  N   UNL     1       5.248  -0.698   1.208  1.00  0.00    -0.249 NA
ATOM     15  C   UNL     1       5.276  -0.175  -0.030  1.00  0.00     0.112 A 
BRANCH  11  16
ATOM     16  C   UNL     1       2.300   1.270   2.657  1.00  0.00     0.027 A 
ATOM     17  C   UNL     1       0.969   1.385   2.190  1.00  0.00     0.126 A 
ATOM     18  C   UNL     1      -0.098   1.601   3.072  1.00  0.00     0.048 A 
ATOM     19  C   UNL     1       0.130   1.673   4.444  1.00  0.00     0.017 A 
ATOM     20  C   UNL     1       2.504   1.472   4.037  1.00  0.00     0.025 A 
ATOM     21  C   UNL     1       1.435   1.606   4.941  1.00  0.00     0.056 A 
BRANCH  17  22
ATOM     22  O   UNL     1       0.659   1.441   0.852  1.00  0.00    -0.496 OA
ATOM     23  C   UNL     1       0.431   0.153   0.284  1.00  0.00     0.278 C 
ENDBRANCH  17  22
BRANCH  21  24
ATOM     24  C   UNL     1       1.690   1.627   6.428  1.00  0.00     0.416 C 
ATOM     25  F   UNL     1       1.484   2.851   6.983  1.00  0.00    -0.166 F 
ATOM     26  F   UNL     1       0.876   0.767   7.106  1.00  0.00    -0.166 F 
ATOM     27  F   UNL     1       2.960   1.266   6.766  1.00  0.00    -0.166 F 
ENDBRANCH  21  24
ENDBRANCH  11  16
ENDBRANCH   8  10
ENDBRANCH   7   8
ENDBRANCH   6   7
ENDBRANCH   5   6
ENDBRANCH   4   5
ENDBRANCH   3   4
ENDBRANCH   2   3
ENDBRANCH   1   2
BRANCH   1  28
ATOM     28  C   UNL     1      -0.050  -3.041   3.321  1.00  0.00     0.188 C 
BRANCH  28  29
ATOM     29  C   UNL     1      -0.070  -4.576   3.151  1.00  0.00     0.188 C 
BRANCH  29  30
ATOM     30  O   UNL     1       0.500  -5.043   1.940  1.00  0.00    -0.376 OA
BRANCH  30  31
ATOM     31  C   UNL     1      -0.364  -5.478   0.906  1.00  0.00     0.202 C 
BRANCH  31  32
ATOM     32  C   UNL     1      -1.273  -4.415   0.273  1.00  0.00     0.261 C 
BRANCH  32  33
ATOM     33  O   UNL     1      -2.138  -3.711   1.179  1.00  0.00    -0.460 OA
BRANCH  33  34
ATOM     34  C   UNL     1      -3.085  -4.437   1.807  1.00  0.00     0.338 C 
ATOM     35  O   UNL     1      -3.311  -5.630   1.676  1.00  0.00    -0.246 OA
BRANCH  34  36
ATOM     36  C   UNL     1      -3.711  -3.582   2.833  1.00  0.00     0.060 A 
ATOM     37  C   UNL     1      -3.614  -3.956   4.178  1.00  0.00     0.016 A 
ATOM     38  C   UNL     1      -4.403  -2.425   2.467  1.00  0.00     0.016 A 
ATOM     39  C   UNL     1      -4.246  -3.194   5.160  1.00  0.00     0.010 A 
ATOM     40  C   UNL     1      -5.050  -1.671   3.451  1.00  0.00     0.010 A 
ATOM     41  C   UNL     1      -5.005  -2.073   4.798  1.00  0.00    -0.014 A 
BRANCH  41  42
ATOM     42  C   UNL     1      -5.884  -1.432   5.807  1.00  0.00     0.031 A 
ATOM     43  C   UNL     1      -7.349  -1.774   5.811  1.00  0.00     0.074 A 
ATOM     44  C   UNL     1      -5.384  -0.593   6.731  1.00  0.00     0.049 A 
ATOM     45  N   UNL     1      -8.306  -1.337   6.589  1.00  0.00    -0.248 NA
ATOM     46  C   UNL     1      -7.796  -2.743   4.797  1.00  0.00     0.031 C 
ATOM     47  C   UNL     1      -3.979  -0.211   6.854  1.00  0.00     0.029 A 
ATOM     48  N   UNL     1      -6.010   0.093   7.743  1.00  0.00    -0.354 N 
ATOM     49  C   UNL     1      -9.464  -1.970   6.156  1.00  0.00     0.074 A 
ATOM     50  C   UNL     1      -9.099  -2.796   5.027  1.00  0.00     0.031 C 
ATOM     51  C   UNL     1      -3.850   0.648   7.880  1.00  0.00     0.029 A 
ATOM     52  C   UNL     1      -5.167   0.901   8.464  1.00  0.00     0.049 A 
ATOM     53  H   UNL     1      -6.973   0.012   7.934  1.00  0.00     0.167 HD
ATOM     54  C   UNL     1     -10.717  -1.877   6.662  1.00  0.00     0.037 A 
ATOM     55  C   UNL     1      -5.434   1.763   9.465  1.00  0.00     0.037 A 
ATOM     56  C   UNL     1     -11.077  -1.056   7.789  1.00  0.00     0.049 A 
ATOM     57  C   UNL     1      -6.851   1.895   9.968  1.00  0.00     0.074 A 
ATOM     58  C   UNL     1     -12.314  -0.917   8.395  1.00  0.00     0.029 A 
ATOM     59  N   UNL     1     -10.202  -0.225   8.473  1.00  0.00    -0.354 N 
ATOM     60  N   UNL     1      -7.934   1.265   9.579  1.00  0.00    -0.248 NA
ATOM     61  C   UNL     1      -7.080   2.854  11.058  1.00  0.00     0.031 C 
ATOM     62  C   UNL     1     -12.202   0.049   9.400  1.00  0.00     0.029 A 
ATOM     63  C   UNL     1     -10.880   0.457   9.471  1.00  0.00     0.049 A 
ATOM     64  H   UNL     1      -9.242  -0.133   8.278  1.00  0.00     0.167 HD
ATOM     65  C   UNL     1      -8.961   1.727  10.393  1.00  0.00     0.074 A 
ATOM     66  C   UNL     1      -8.368   2.674  11.313  1.00  0.00     0.031 C 
ATOM     67  C   UNL     1     -10.278   1.398  10.381  1.00  0.00     0.037 A 
BRANCH  54  68
ATOM     68  C   UNL     1     -11.805  -2.659   5.981  1.00  0.00     0.064 A 
ATOM     69  C   UNL     1     -11.869  -4.059   6.049  1.00  0.00     0.173 A 
ATOM     70  C   UNL     1     -12.825  -1.990   5.286  1.00  0.00     0.173 A 
ATOM     71  F   UNL     1     -10.912  -4.749   6.688  1.00  0.00    -0.203 F 
ATOM     72  C   UNL     1     -12.899  -4.761   5.428  1.00  0.00     0.198 A 
ATOM     73  C   UNL     1     -13.871  -2.692   4.695  1.00  0.00     0.198 A 
ATOM     74  F   UNL     1     -12.814  -0.652   5.191  1.00  0.00    -0.203 F 
ATOM     75  F   UNL     1     -12.914  -6.100   5.466  1.00  0.00    -0.200 F 
ATOM     76  C   UNL     1     -13.904  -4.077   4.760  1.00  0.00     0.200 A 
ATOM     77  F   UNL     1     -14.849  -2.028   4.062  1.00  0.00    -0.200 F 
ATOM     78  F   UNL     1     -14.902  -4.753   4.173  1.00  0.00    -0.200 F 
ENDBRANCH  54  68
BRANCH  55  79
ATOM     79  C   UNL     1      -4.343   2.589  10.051  1.00  0.00     0.064 A 
ATOM     80  C   UNL     1      -3.939   2.425  11.383  1.00  0.00     0.173 A 
ATOM     81  C   UNL     1      -3.708   3.588   9.297  1.00  0.00     0.173 A 
ATOM     82  F   UNL     1      -4.533   1.503  12.155  1.00  0.00    -0.203 F 
ATOM     83  C   UNL     1      -2.964   3.247  11.947  1.00  0.00     0.198 A 
ATOM     84  C   UNL     1      -2.709   4.385   9.852  1.00  0.00     0.198 A 
ATOM     85  F   UNL     1      -4.057   3.788   8.018  1.00  0.00    -0.203 F 
ATOM     86  F   UNL     1      -2.643   3.111  13.241  1.00  0.00    -0.200 F 
ATOM     87  C   UNL     1      -2.346   4.222  11.180  1.00  0.00     0.200 A 
ATOM     88  F   UNL     1      -2.107   5.318   9.101  1.00  0.00    -0.200 F 
ATOM     89  F   UNL     1      -1.411   5.014  11.723  1.00  0.00    -0.200 F 
ENDBRANCH  55  79
BRANCH  67  90
ATOM     90  C   UNL     1     -11.159   2.039  11.419  1.00  0.00     0.064 A 
ATOM     91  C   UNL     1     -11.458   3.410  11.395  1.00  0.00     0.173 A 
ATOM     92  C   UNL     1     -11.732   1.264  12.440  1.00  0.00     0.173 A 
ATOM     93  F   UNL     1     -10.931   4.199  10.447  1.00  0.00    -0.203 F 
ATOM     94  C   UNL     1     -12.259   3.987  12.378  1.00  0.00     0.198 A 
ATOM     95  C   UNL     1     -12.564   1.837  13.398  1.00  0.00     0.198 A 
ATOM     96  F   UNL     1     -11.491  -0.055  12.506  1.00  0.00    -0.203 F 
ATOM     97  F   UNL     1     -12.474   5.310  12.372  1.00  0.00    -0.200 F 
ATOM     98  C   UNL     1     -12.816   3.200  13.374  1.00  0.00     0.200 A 
ATOM     99  F   UNL     1     -13.117   1.070  14.348  1.00  0.00    -0.200 F 
ATOM    100  F   UNL     1     -13.588   3.756  14.317  1.00  0.00    -0.200 F 
ENDBRANCH  67  90
ENDBRANCH  41  42
ENDBRANCH  34  36
ENDBRANCH  33  34
ENDBRANCH  32  33
ENDBRANCH  31  32
ENDBRANCH  30  31
ENDBRANCH  29  30
ENDBRANCH  28  29
ENDBRANCH   1  28
TORSDOF 23
