REMARK SMILES Cc1cc(Nc2nc3c(c(OCC(=O)OCCOCCOCCOCCOC(=O)c4ccc(-c5c6nc(c(-c7c(F)c(F)c(F)c(F)c7F)c7ccc([nH]7)c(-c7c(F)c(F)c(F)c(F)c7F)c7nc(c(-c8c(F)c(F)c(F)c(F)c8F)c8ccc5[nH]8)C=C7)C=C6)cc4)n2)CCCC3)ccc1Br
REMARK SMILES IDX 20 1 19 2 18 3 17 4 16 5 15 6 13 7 14 8 12 9 11 10 10 11
REMARK SMILES IDX 6 12 7 13 93 14 8 15 9 16 97 17 94 18 96 19 95 20 5 21 4 23
REMARK SMILES IDX 1 24 2 25 3 26 100 27 99 28 101 29 98 30 21 31 22 32 23 33
REMARK SMILES IDX 24 34 25 35 26 36 27 37 28 38 29 39 30 40 31 41 92 42 32 43
REMARK SMILES IDX 91 44 33 45 34 46 35 47 85 48 36 49 90 50 84 51 86 52 37 53
REMARK SMILES IDX 89 54 83 55 82 56 38 58 70 59 50 60 69 61 51 62 54 63 68 64
REMARK SMILES IDX 87 65 52 66 53 67 67 69 88 70 55 71 39 72 40 73 48 74 41 75
REMARK SMILES IDX 42 76 46 77 49 78 43 79 44 80 47 81 45 82 71 83 72 84 80 85
REMARK SMILES IDX 73 86 74 87 78 88 81 89 75 90 76 91 79 92 77 93 56 94 57 95
REMARK SMILES IDX 65 96 58 97 59 98 63 99 66 100 60 101 61 102 64 103 62 104
REMARK H PARENT 5 22 86 57 54 68
REMARK Flexibility Score: inf
ROOT
ATOM      1  C   UNL     1       8.034   1.357  -0.147  1.00  0.00     0.188 C 
ENDROOT
BRANCH   1   2
ATOM      2  C   UNL     1       7.666   0.119  -1.000  1.00  0.00     0.188 C 
BRANCH   2   3
ATOM      3  O   UNL     1       8.645  -0.900  -0.984  1.00  0.00    -0.376 OA
BRANCH   3   4
ATOM      4  C   UNL     1       9.650  -0.943  -1.976  1.00  0.00     0.202 C 
BRANCH   4   5
ATOM      5  C   UNL     1      10.300   0.335  -2.540  1.00  0.00     0.261 C 
BRANCH   5   6
ATOM      6  O   UNL     1       9.464   1.503  -2.655  1.00  0.00    -0.461 OA
BRANCH   6   7
ATOM      7  C   UNL     1       8.664   1.633  -3.741  1.00  0.00     0.344 C 
ATOM      8  O   UNL     1       8.680   0.858  -4.690  1.00  0.00    -0.248 OA
BRANCH   7   9
ATOM      9  C   UNL     1       7.729   2.865  -3.659  1.00  0.00     0.353 C 
BRANCH   9  10
ATOM     10  O   UNL     1       7.642   3.648  -2.471  1.00  0.00    -0.465 OA
BRANCH  10  11
ATOM     11  C   UNL     1       6.466   3.573  -1.732  1.00  0.00     0.222 A 
ATOM     12  C   UNL     1       4.647   2.350  -1.033  1.00  0.00     0.230 A 
ATOM     13  N   UNL     1       4.464   3.146   0.030  1.00  0.00    -0.217 NA
ATOM     14  N   UNL     1       5.645   2.518  -1.923  1.00  0.00    -0.177 NA
ATOM     15  C   UNL     1       5.330   4.157   0.235  1.00  0.00     0.053 A 
ATOM     16  C   UNL     1       6.346   4.453  -0.660  1.00  0.00     0.036 A 
ATOM     17  C   UNL     1       5.160   4.898   1.539  1.00  0.00     0.057 C 
ATOM     18  C   UNL     1       7.331   5.555  -0.386  1.00  0.00     0.043 C 
ATOM     19  C   UNL     1       6.369   5.748   1.920  1.00  0.00     0.007 C 
ATOM     20  C   UNL     1       6.858   6.524   0.705  1.00  0.00     0.005 C 
BRANCH  12  21
ATOM     21  N   UNL     1       3.886   1.186  -1.141  1.00  0.00    -0.324 N 
ATOM     22  H   UNL     1       4.319   0.462  -1.648  1.00  0.00     0.170 HD
BRANCH  21  23
ATOM     23  C   UNL     1       2.610   0.868  -0.651  1.00  0.00     0.041 A 
ATOM     24  C   UNL     1       0.560  -2.305  -0.043  1.00  0.00     0.045 C 
ATOM     25  C   UNL     1       0.927  -0.848  -0.111  1.00  0.00    -0.035 A 
ATOM     26  C   UNL     1       2.225  -0.478  -0.524  1.00  0.00     0.030 A 
ATOM     27  C   UNL     1       0.002   0.168   0.169  1.00  0.00     0.021 A 
ATOM     28  C   UNL     1       0.393   1.506   0.123  1.00  0.00     0.018 A 
ATOM     29  Br  UNL     1      -1.815  -0.199   0.583  1.00  0.00    -0.051 Br
ATOM     30  C   UNL     1       1.692   1.847  -0.260  1.00  0.00     0.027 A 
ENDBRANCH  21  23
ENDBRANCH  12  21
ENDBRANCH  10  11
ENDBRANCH   9  10
ENDBRANCH   7   9
ENDBRANCH   6   7
ENDBRANCH   5   6
ENDBRANCH   4   5
ENDBRANCH   3   4
ENDBRANCH   2   3
ENDBRANCH   1   2
BRANCH   1  31
ATOM     31  O   UNL     1       8.559   1.283   1.167  1.00  0.00    -0.377 OA
BRANCH  31  32
ATOM     32  C   UNL     1       9.261   0.115   1.500  1.00  0.00     0.188 C 
BRANCH  32  33
ATOM     33  C   UNL     1       8.343  -0.978   2.064  1.00  0.00     0.188 C 
BRANCH  33  34
ATOM     34  O   UNL     1       7.027  -1.024   1.553  1.00  0.00    -0.376 OA
BRANCH  34  35
ATOM     35  C   UNL     1       5.966  -0.209   2.033  1.00  0.00     0.202 C 
BRANCH  35  36
ATOM     36  C   UNL     1       6.031   1.012   2.973  1.00  0.00     0.261 C 
BRANCH  36  37
ATOM     37  O   UNL     1       7.287   1.411   3.498  1.00  0.00    -0.460 OA
BRANCH  37  38
ATOM     38  C   UNL     1       7.657   0.857   4.665  1.00  0.00     0.338 C 
ATOM     39  O   UNL     1       7.049   0.045   5.343  1.00  0.00    -0.246 OA
BRANCH  38  40
ATOM     40  C   UNL     1       9.061   1.242   4.869  1.00  0.00     0.060 A 
ATOM     41  C   UNL     1      10.022   0.225   4.880  1.00  0.00     0.016 A 
ATOM     42  C   UNL     1       9.428   2.587   4.974  1.00  0.00     0.016 A 
ATOM     43  C   UNL     1      11.365   0.550   4.975  1.00  0.00     0.010 A 
ATOM     44  C   UNL     1      10.774   2.911   5.136  1.00  0.00     0.010 A 
ATOM     45  C   UNL     1      11.736   1.888   5.161  1.00  0.00    -0.014 A 
BRANCH  45  46
ATOM     46  C   UNL     1      13.089   2.145   5.682  1.00  0.00     0.031 A 
ATOM     47  C   UNL     1      13.259   2.096   7.172  1.00  0.00     0.074 A 
ATOM     48  C   UNL     1      14.135   2.307   4.857  1.00  0.00     0.049 A 
ATOM     49  N   UNL     1      14.342   2.229   7.889  1.00  0.00    -0.248 NA
ATOM     50  C   UNL     1      12.039   1.845   7.962  1.00  0.00     0.031 C 
ATOM     51  C   UNL     1      14.072   2.289   3.397  1.00  0.00     0.029 A 
ATOM     52  N   UNL     1      15.462   2.499   5.138  1.00  0.00    -0.354 N 
ATOM     53  C   UNL     1      13.935   2.061   9.205  1.00  0.00     0.074 A 
ATOM     54  C   UNL     1      12.506   1.856   9.199  1.00  0.00     0.031 C 
ATOM     55  C   UNL     1      15.312   2.465   2.908  1.00  0.00     0.029 A 
ATOM     56  C   UNL     1      16.246   2.633   4.020  1.00  0.00     0.049 A 
ATOM     57  H   UNL     1      15.819   2.537   6.055  1.00  0.00     0.167 HD
ATOM     58  C   UNL     1      14.697   2.061  10.320  1.00  0.00     0.037 A 
ATOM     59  C   UNL     1      17.568   2.876   3.923  1.00  0.00     0.037 A 
ATOM     60  C   UNL     1      16.115   2.283  10.309  1.00  0.00     0.049 A 
ATOM     61  C   UNL     1      18.377   2.991   5.191  1.00  0.00     0.074 A 
ATOM     62  C   UNL     1      16.987   2.333  11.379  1.00  0.00     0.029 A 
ATOM     63  N   UNL     1      16.866   2.500   9.162  1.00  0.00    -0.354 N 
ATOM     64  N   UNL     1      17.993   2.830   6.436  1.00  0.00    -0.248 NA
ATOM     65  C   UNL     1      19.800   3.322   5.044  1.00  0.00     0.031 C 
ATOM     66  C   UNL     1      18.257   2.637  10.885  1.00  0.00     0.029 A 
ATOM     67  C   UNL     1      18.190   2.714   9.502  1.00  0.00     0.049 A 
ATOM     68  H   UNL     1      16.510   2.502   8.244  1.00  0.00     0.167 HD
ATOM     69  C   UNL     1      19.127   3.014   7.216  1.00  0.00     0.074 A 
ATOM     70  C   UNL     1      20.218   3.282   6.302  1.00  0.00     0.031 C 
ATOM     71  C   UNL     1      19.256   2.970   8.566  1.00  0.00     0.037 A 
BRANCH  58  72
ATOM     72  C   UNL     1      14.011   1.842  11.633  1.00  0.00     0.064 A 
ATOM     73  C   UNL     1      13.496   0.587  11.993  1.00  0.00     0.173 A 
ATOM     74  C   UNL     1      13.905   2.887  12.562  1.00  0.00     0.173 A 
ATOM     75  F   UNL     1      13.549  -0.438  11.129  1.00  0.00    -0.203 F 
ATOM     76  C   UNL     1      12.894   0.390  13.233  1.00  0.00     0.198 A 
ATOM     77  C   UNL     1      13.329   2.679  13.811  1.00  0.00     0.198 A 
ATOM     78  F   UNL     1      14.373   4.108  12.261  1.00  0.00    -0.203 F 
ATOM     79  F   UNL     1      12.377  -0.807  13.542  1.00  0.00    -0.200 F 
ATOM     80  C   UNL     1      12.822   1.432  14.145  1.00  0.00     0.200 A 
ATOM     81  F   UNL     1      13.269   3.685  14.695  1.00  0.00    -0.200 F 
ATOM     82  F   UNL     1      12.260   1.236  15.345  1.00  0.00    -0.200 F 
ENDBRANCH  58  72
BRANCH  59  83
ATOM     83  C   UNL     1      18.201   3.024   2.586  1.00  0.00     0.064 A 
ATOM     84  C   UNL     1      19.135   2.090   2.118  1.00  0.00     0.173 A 
ATOM     85  C   UNL     1      17.883   4.102   1.745  1.00  0.00     0.173 A 
ATOM     86  F   UNL     1      19.491   1.054   2.893  1.00  0.00    -0.203 F 
ATOM     87  C   UNL     1      19.732   2.231   0.866  1.00  0.00     0.198 A 
ATOM     88  C   UNL     1      18.458   4.226   0.482  1.00  0.00     0.198 A 
ATOM     89  F   UNL     1      16.999   5.029   2.144  1.00  0.00    -0.203 F 
ATOM     90  F   UNL     1      20.649   1.343   0.460  1.00  0.00    -0.200 F 
ATOM     91  C   UNL     1      19.387   3.294   0.046  1.00  0.00     0.200 A 
ATOM     92  F   UNL     1      18.110   5.248  -0.313  1.00  0.00    -0.200 F 
ATOM     93  F   UNL     1      19.952   3.423  -1.162  1.00  0.00    -0.200 F 
ENDBRANCH  59  83
BRANCH  71  94
ATOM     94  C   UNL     1      20.623   3.197   9.143  1.00  0.00     0.064 A 
ATOM     95  C   UNL     1      21.214   4.468   9.146  1.00  0.00     0.173 A 
ATOM     96  C   UNL     1      21.302   2.152   9.790  1.00  0.00     0.173 A 
ATOM     97  F   UNL     1      20.608   5.496   8.534  1.00  0.00    -0.203 F 
ATOM     98  C   UNL     1      22.443   4.681   9.763  1.00  0.00     0.198 A 
ATOM     99  C   UNL     1      22.513   2.378  10.436  1.00  0.00     0.198 A 
ATOM    100  F   UNL     1      20.771   0.920   9.828  1.00  0.00    -0.203 F 
ATOM    101  F   UNL     1      23.007   5.897   9.724  1.00  0.00    -0.200 F 
ATOM    102  C   UNL     1      23.085   3.640  10.418  1.00  0.00     0.200 A 
ATOM    103  F   UNL     1      23.120   1.376  11.089  1.00  0.00    -0.200 F 
ATOM    104  F   UNL     1      24.256   3.855  11.033  1.00  0.00    -0.200 F 
ENDBRANCH  71  94
ENDBRANCH  45  46
ENDBRANCH  38  40
ENDBRANCH  37  38
ENDBRANCH  36  37
ENDBRANCH  35  36
ENDBRANCH  34  35
ENDBRANCH  33  34
ENDBRANCH  32  33
ENDBRANCH  31  32
ENDBRANCH   1  31
TORSDOF 24
