REMARK SMILES [NH3+][C@@H](Cc1ccc(F)cc1C(F)(F)F)C(=O)OCCOCCOCCOCCOC(=O)c1ccc(-c2c3nc(c(-c4c(F)c(F)c(F)c(F)c4F)c4ccc([nH]4)c(-c4c(F)c(F)c(F)c(F)c4F)c4nc(c(-c5c(F)c(F)c(F)c(F)c5F)c5ccc2[nH]5)C=C4)C=C3)cc1
REMARK SMILES IDX 22 1 21 2 20 3 19 4 18 5 17 6 15 7 16 8 2 9 1 10 3 14 4 15
REMARK SMILES IDX 5 16 10 17 6 18 9 19 7 20 8 21 11 22 12 23 13 24 14 25 23 26
REMARK SMILES IDX 24 27 25 28 26 29 27 30 28 31 29 32 30 33 31 34 32 35 33 36
REMARK SMILES IDX 94 37 34 38 93 39 35 40 36 41 37 42 87 43 38 44 92 45 86 46
REMARK SMILES IDX 88 47 39 48 91 49 85 50 84 51 40 53 72 54 52 55 71 56 53 57
REMARK SMILES IDX 56 58 70 59 89 60 54 61 55 62 69 64 90 65 57 66 41 67 42 68
REMARK SMILES IDX 50 69 43 70 44 71 48 72 51 73 45 74 46 75 49 76 47 77 73 78
REMARK SMILES IDX 74 79 82 80 75 81 76 82 80 83 83 84 77 85 78 86 81 87 79 88
REMARK SMILES IDX 58 89 59 90 67 91 60 92 61 93 65 94 68 95 62 96 63 97 66 98
REMARK SMILES IDX 64 99
REMARK H PARENT 1 11 1 12 1 13 88 52 56 63
REMARK Flexibility Score: inf
ROOT
ATOM      1  C   UNL     1      -1.327  -0.251  -1.223  1.00  0.00     0.188 C 
ENDROOT
BRANCH   1   2
ATOM      2  C   UNL     1      -1.764  -1.696  -0.924  1.00  0.00     0.188 C 
BRANCH   2   3
ATOM      3  O   UNL     1      -3.073  -1.974  -0.432  1.00  0.00    -0.376 OA
BRANCH   3   4
ATOM      4  C   UNL     1      -3.627  -1.239   0.649  1.00  0.00     0.202 C 
BRANCH   4   5
ATOM      5  C   UNL     1      -2.822  -0.890   1.911  1.00  0.00     0.261 C 
BRANCH   5   6
ATOM      6  O   UNL     1      -1.408  -0.780   1.736  1.00  0.00    -0.459 OA
BRANCH   6   7
ATOM      7  C   UNL     1      -0.654  -1.796   2.240  1.00  0.00     0.365 C 
ATOM      8  O   UNL     1      -1.092  -2.738   2.890  1.00  0.00    -0.245 OA
BRANCH   7   9
ATOM      9  C   UNL     1       0.847  -1.585   1.970  1.00  0.00     0.296 C 
BRANCH   9  10
ATOM     10  N   UNL     1       1.106  -0.860   0.714  1.00  0.00    -0.346 N 
ATOM     11  H   UNL     1       2.112  -0.749   0.587  1.00  0.00     0.345 HD
ATOM     12  H   UNL     1       0.665   0.059   0.755  1.00  0.00     0.345 HD
ATOM     13  H   UNL     1       0.720  -1.387  -0.069  1.00  0.00     0.345 HD
ENDBRANCH   9  10
BRANCH   9  14
ATOM     14  C   UNL     1       1.525  -0.902   3.165  1.00  0.00     0.113 C 
BRANCH  14  15
ATOM     15  C   UNL     1       1.019   0.498   3.487  1.00  0.00    -0.029 A 
ATOM     16  C   UNL     1      -0.032   0.582   4.428  1.00  0.00     0.007 A 
ATOM     17  C   UNL     1       1.498   1.690   2.886  1.00  0.00     0.062 A 
ATOM     18  C   UNL     1      -0.602   1.805   4.772  1.00  0.00     0.039 A 
ATOM     19  C   UNL     1       0.904   2.917   3.256  1.00  0.00     0.052 A 
ATOM     20  C   UNL     1      -0.127   2.963   4.184  1.00  0.00     0.123 A 
ATOM     21  F   UNL     1      -0.672   4.142   4.507  1.00  0.00    -0.207 F 
BRANCH  17  22
ATOM     22  C   UNL     1       2.578   1.782   1.826  1.00  0.00     0.416 C 
ATOM     23  F   UNL     1       2.063   2.159   0.619  1.00  0.00    -0.166 F 
ATOM     24  F   UNL     1       3.529   2.710   2.125  1.00  0.00    -0.166 F 
ATOM     25  F   UNL     1       3.258   0.630   1.581  1.00  0.00    -0.166 F 
ENDBRANCH  17  22
ENDBRANCH  14  15
ENDBRANCH   9  14
ENDBRANCH   7   9
ENDBRANCH   6   7
ENDBRANCH   5   6
ENDBRANCH   4   5
ENDBRANCH   3   4
ENDBRANCH   2   3
ENDBRANCH   1   2
BRANCH   1  26
ATOM     26  O   UNL     1      -2.084   0.732  -0.542  1.00  0.00    -0.377 OA
BRANCH  26  27
ATOM     27  C   UNL     1      -3.008   1.446  -1.357  1.00  0.00     0.188 C 
BRANCH  27  28
ATOM     28  C   UNL     1      -3.848   0.637  -2.376  1.00  0.00     0.188 C 
BRANCH  28  29
ATOM     29  O   UNL     1      -3.107  -0.251  -3.201  1.00  0.00    -0.376 OA
BRANCH  29  30
ATOM     30  C   UNL     1      -2.707   0.166  -4.500  1.00  0.00     0.202 C 
BRANCH  30  31
ATOM     31  C   UNL     1      -1.742   1.361  -4.625  1.00  0.00     0.261 C 
BRANCH  31  32
ATOM     32  O   UNL     1      -2.169   2.586  -4.010  1.00  0.00    -0.460 OA
BRANCH  32  33
ATOM     33  C   UNL     1      -3.312   3.135  -4.462  1.00  0.00     0.338 C 
ATOM     34  O   UNL     1      -3.997   2.747  -5.396  1.00  0.00    -0.246 OA
BRANCH  33  35
ATOM     35  C   UNL     1      -3.737   4.176  -3.503  1.00  0.00     0.060 A 
ATOM     36  C   UNL     1      -4.994   4.048  -2.899  1.00  0.00     0.016 A 
ATOM     37  C   UNL     1      -2.920   5.271  -3.208  1.00  0.00     0.016 A 
ATOM     38  C   UNL     1      -5.458   5.036  -2.034  1.00  0.00     0.010 A 
ATOM     39  C   UNL     1      -3.399   6.277  -2.360  1.00  0.00     0.010 A 
ATOM     40  C   UNL     1      -4.685   6.181  -1.801  1.00  0.00    -0.014 A 
BRANCH  40  41
ATOM     41  C   UNL     1      -5.316   7.342  -1.126  1.00  0.00     0.031 A 
ATOM     42  C   UNL     1      -5.864   8.457  -1.976  1.00  0.00     0.074 A 
ATOM     43  C   UNL     1      -5.479   7.364   0.209  1.00  0.00     0.049 A 
ATOM     44  N   UNL     1      -6.477   9.554  -1.611  1.00  0.00    -0.248 NA
ATOM     45  C   UNL     1      -5.709   8.313  -3.433  1.00  0.00     0.031 C 
ATOM     46  C   UNL     1      -5.042   6.317   1.129  1.00  0.00     0.029 A 
ATOM     47  N   UNL     1      -6.068   8.303   1.020  1.00  0.00    -0.354 N 
ATOM     48  C   UNL     1      -6.782  10.225  -2.788  1.00  0.00     0.074 A 
ATOM     49  C   UNL     1      -6.259   9.433  -3.879  1.00  0.00     0.031 C 
ATOM     50  C   UNL     1      -5.381   6.670   2.381  1.00  0.00     0.029 A 
ATOM     51  C   UNL     1      -6.029   7.981   2.354  1.00  0.00     0.049 A 
ATOM     52  H   UNL     1      -6.479   9.129   0.677  1.00  0.00     0.167 HD
ATOM     53  C   UNL     1      -7.453  11.389  -2.944  1.00  0.00     0.037 A 
ATOM     54  C   UNL     1      -6.454   8.674   3.430  1.00  0.00     0.037 A 
ATOM     55  C   UNL     1      -7.982  12.171  -1.858  1.00  0.00     0.049 A 
ATOM     56  C   UNL     1      -7.121  10.012   3.229  1.00  0.00     0.074 A 
ATOM     57  C   UNL     1      -8.686  13.361  -1.919  1.00  0.00     0.029 A 
ATOM     58  N   UNL     1      -7.866  11.843  -0.516  1.00  0.00    -0.354 N 
ATOM     59  N   UNL     1      -7.419  10.631   2.112  1.00  0.00    -0.248 NA
ATOM     60  C   UNL     1      -7.513  10.747   4.440  1.00  0.00     0.031 C 
ATOM     61  C   UNL     1      -8.944  13.784  -0.614  1.00  0.00     0.029 A 
ATOM     62  C   UNL     1      -8.458  12.826   0.261  1.00  0.00     0.049 A 
ATOM     63  H   UNL     1      -7.428  11.034  -0.167  1.00  0.00     0.167 HD
ATOM     64  C   UNL     1      -8.050  11.811   2.484  1.00  0.00     0.074 A 
ATOM     65  C   UNL     1      -8.119  11.809   3.930  1.00  0.00     0.031 C 
ATOM     66  C   UNL     1      -8.524  12.811   1.700  1.00  0.00     0.037 A 
BRANCH  53  67
ATOM     67  C   UNL     1      -7.662  11.909  -4.335  1.00  0.00     0.064 A 
ATOM     68  C   UNL     1      -7.011  13.078  -4.759  1.00  0.00     0.173 A 
ATOM     69  C   UNL     1      -8.591  11.322  -5.205  1.00  0.00     0.173 A 
ATOM     70  F   UNL     1      -6.114  13.679  -3.962  1.00  0.00    -0.203 F 
ATOM     71  C   UNL     1      -7.310  13.659  -5.987  1.00  0.00     0.198 A 
ATOM     72  C   UNL     1      -8.868  11.891  -6.446  1.00  0.00     0.198 A 
ATOM     73  F   UNL     1      -9.228  10.194  -4.853  1.00  0.00    -0.203 F 
ATOM     74  F   UNL     1      -6.714  14.804  -6.348  1.00  0.00    -0.200 F 
ATOM     75  C   UNL     1      -8.239  13.067  -6.829  1.00  0.00     0.200 A 
ATOM     76  F   UNL     1      -9.751  11.306  -7.267  1.00  0.00    -0.200 F 
ATOM     77  F   UNL     1      -8.533  13.632  -8.008  1.00  0.00    -0.200 F 
ENDBRANCH  53  67
BRANCH  54  78
ATOM     78  C   UNL     1      -6.255   8.124   4.799  1.00  0.00     0.064 A 
ATOM     79  C   UNL     1      -4.971   7.966   5.341  1.00  0.00     0.173 A 
ATOM     80  C   UNL     1      -7.347   7.770   5.604  1.00  0.00     0.173 A 
ATOM     81  F   UNL     1      -3.891   8.298   4.618  1.00  0.00    -0.203 F 
ATOM     82  C   UNL     1      -4.786   7.460   6.625  1.00  0.00     0.198 A 
ATOM     83  C   UNL     1      -7.162   7.296   6.902  1.00  0.00     0.198 A 
ATOM     84  F   UNL     1      -8.597   7.929   5.145  1.00  0.00    -0.203 F 
ATOM     85  F   UNL     1      -3.546   7.293   7.106  1.00  0.00    -0.200 F 
ATOM     86  C   UNL     1      -5.882   7.133   7.409  1.00  0.00     0.200 A 
ATOM     87  F   UNL     1      -8.226   7.016   7.668  1.00  0.00    -0.200 F 
ATOM     88  F   UNL     1      -5.705   6.673   8.654  1.00  0.00    -0.200 F 
ENDBRANCH  54  78
BRANCH  66  89
ATOM     89  C   UNL     1      -9.174  13.984   2.379  1.00  0.00     0.064 A 
ATOM     90  C   UNL     1     -10.548  14.228   2.223  1.00  0.00     0.173 A 
ATOM     91  C   UNL     1      -8.428  14.901   3.134  1.00  0.00     0.173 A 
ATOM     92  F   UNL     1     -11.307  13.391   1.500  1.00  0.00    -0.203 F 
ATOM     93  C   UNL     1     -11.146  15.351   2.788  1.00  0.00     0.198 A 
ATOM     94  C   UNL     1      -9.037  16.003   3.729  1.00  0.00     0.198 A 
ATOM     95  F   UNL     1      -7.114  14.710   3.321  1.00  0.00    -0.203 F 
ATOM     96  F   UNL     1     -12.452  15.582   2.593  1.00  0.00    -0.200 F 
ATOM     97  C   UNL     1     -10.393  16.232   3.548  1.00  0.00     0.200 A 
ATOM     98  F   UNL     1      -8.313  16.838   4.487  1.00  0.00    -0.200 F 
ATOM     99  F   UNL     1     -10.974  17.301   4.110  1.00  0.00    -0.200 F 
ENDBRANCH  66  89
ENDBRANCH  40  41
ENDBRANCH  33  35
ENDBRANCH  32  33
ENDBRANCH  31  32
ENDBRANCH  30  31
ENDBRANCH  29  30
ENDBRANCH  28  29
ENDBRANCH  27  28
ENDBRANCH  26  27
ENDBRANCH   1  26
TORSDOF 24
