REMARK SMILES Cc1cc(F)cc(N[C@H](C(=O)OCCOCCOCCOCCOC(=O)c2ccc(-c3c4nc(c(-c5c(F)c(F)c(F)c(F)c5F)c5ccc([nH]5)c(-c5c(F)c(F)c(F)c(F)c5F)c5nc(c(-c6c(F)c(F)c(F)c(F)c6F)c6ccc3[nH]6)C=C5)C=C4)cc2)c2cc(Br)cs2)c1
REMARK SMILES IDX 18 1 17 2 16 3 15 4 14 5 13 6 12 7 10 8 11 9 9 10 8 11 7 13
REMARK SMILES IDX 1 14 2 15 3 16 96 17 4 18 5 19 6 20 90 21 91 22 95 23 92 24
REMARK SMILES IDX 94 25 93 26 19 27 20 28 21 29 22 30 23 31 24 32 25 33 26 34
REMARK SMILES IDX 27 35 28 36 89 37 29 38 88 39 30 40 31 41 32 42 82 43 33 44
REMARK SMILES IDX 87 45 81 46 83 47 34 48 86 49 80 50 79 51 35 53 67 54 47 55
REMARK SMILES IDX 66 56 48 57 51 58 65 59 84 60 49 61 50 62 64 64 85 65 52 66
REMARK SMILES IDX 36 67 37 68 45 69 38 70 39 71 43 72 46 73 40 74 41 75 44 76
REMARK SMILES IDX 42 77 68 78 69 79 77 80 70 81 71 82 75 83 78 84 72 85 73 86
REMARK SMILES IDX 76 87 74 88 53 89 54 90 62 91 55 92 56 93 60 94 63 95 57 96
REMARK SMILES IDX 58 97 61 98 59 99
REMARK H PARENT 8 12 83 52 51 63
REMARK Flexibility Score: inf
ROOT
ATOM      1  O   UNL     1       0.887  -1.854  -1.756  1.00  0.00    -0.377 OA
ENDROOT
BRANCH   1   2
ATOM      2  C   UNL     1      -0.036  -1.613  -0.714  1.00  0.00     0.188 C 
BRANCH   2   3
ATOM      3  C   UNL     1       0.642  -1.493   0.663  1.00  0.00     0.188 C 
BRANCH   3   4
ATOM      4  O   UNL     1       2.043  -1.267   0.575  1.00  0.00    -0.376 OA
BRANCH   4   5
ATOM      5  C   UNL     1       2.941  -2.368   0.606  1.00  0.00     0.202 C 
BRANCH   5   6
ATOM      6  C   UNL     1       2.738  -3.580  -0.321  1.00  0.00     0.261 C 
BRANCH   6   7
ATOM      7  O   UNL     1       1.417  -4.130  -0.354  1.00  0.00    -0.461 OA
BRANCH   7   8
ATOM      8  C   UNL     1       0.928  -4.649   0.805  1.00  0.00     0.334 C 
ATOM      9  O   UNL     1       1.575  -4.705   1.844  1.00  0.00    -0.249 OA
BRANCH   8  10
ATOM     10  C   UNL     1      -0.571  -5.040   0.615  1.00  0.00     0.231 C 
BRANCH  10  11
ATOM     11  N   UNL     1      -0.764  -5.819  -0.619  1.00  0.00    -0.368 N 
ATOM     12  H   UNL     1      -1.415  -5.487  -1.279  1.00  0.00     0.161 HD
BRANCH  11  13
ATOM     13  C   UNL     1      -0.082  -6.991  -0.909  1.00  0.00     0.038 A 
ATOM     14  C   UNL     1      -0.032  -9.549  -3.751  1.00  0.00     0.044 C 
ATOM     15  C   UNL     1       0.272  -8.857  -2.458  1.00  0.00    -0.046 A 
ATOM     16  C   UNL     1       1.113  -9.470  -1.526  1.00  0.00     0.042 A 
ATOM     17  C   UNL     1      -0.323  -7.626  -2.137  1.00  0.00     0.029 A 
ATOM     18  C   UNL     1       1.351  -8.852  -0.311  1.00  0.00     0.125 A 
ATOM     19  F   UNL     1       2.149  -9.440   0.590  1.00  0.00    -0.207 F 
ATOM     20  C   UNL     1       0.760  -7.637   0.001  1.00  0.00     0.065 A 
ENDBRANCH  11  13
ENDBRANCH  10  11
BRANCH  10  21
ATOM     21  C   UNL     1      -1.136  -5.571   1.920  1.00  0.00     0.039 A 
ATOM     22  C   UNL     1      -1.054  -4.971   3.169  1.00  0.00     0.033 A 
ATOM     23  S   UNL     1      -2.018  -7.043   2.017  1.00  0.00    -0.145 S 
ATOM     24  C   UNL     1      -1.460  -5.851   4.196  1.00  0.00     0.029 A 
ATOM     25  C   UNL     1      -1.973  -7.030   3.725  1.00  0.00     0.080 A 
ATOM     26  Br  UNL     1      -1.234  -5.420   6.016  1.00  0.00    -0.050 Br
ENDBRANCH  10  21
ENDBRANCH   8  10
ENDBRANCH   7   8
ENDBRANCH   6   7
ENDBRANCH   5   6
ENDBRANCH   4   5
ENDBRANCH   3   4
ENDBRANCH   2   3
ENDBRANCH   1   2
BRANCH   1  27
ATOM     27  C   UNL     1       1.620  -0.744  -2.256  1.00  0.00     0.188 C 
BRANCH  27  28
ATOM     28  C   UNL     1       1.788   0.602  -1.493  1.00  0.00     0.188 C 
BRANCH  28  29
ATOM     29  O   UNL     1       0.727   0.966  -0.611  1.00  0.00    -0.376 OA
BRANCH  29  30
ATOM     30  C   UNL     1      -0.026   2.134  -0.905  1.00  0.00     0.202 C 
BRANCH  30  31
ATOM     31  C   UNL     1      -1.268   1.804  -1.744  1.00  0.00     0.261 C 
BRANCH  31  32
ATOM     32  O   UNL     1      -0.924   1.086  -2.928  1.00  0.00    -0.460 OA
BRANCH  32  33
ATOM     33  C   UNL     1      -0.148   1.803  -3.746  1.00  0.00     0.338 C 
ATOM     34  O   UNL     1       0.157   2.993  -3.664  1.00  0.00    -0.246 OA
BRANCH  33  35
ATOM     35  C   UNL     1       0.356   0.970  -4.819  1.00  0.00     0.060 A 
ATOM     36  C   UNL     1       1.704   1.169  -5.171  1.00  0.00     0.016 A 
ATOM     37  C   UNL     1      -0.608   0.469  -5.683  1.00  0.00     0.016 A 
ATOM     38  C   UNL     1       2.016   1.226  -6.501  1.00  0.00     0.010 A 
ATOM     39  C   UNL     1      -0.305   0.552  -7.010  1.00  0.00     0.010 A 
ATOM     40  C   UNL     1       0.941   1.098  -7.368  1.00  0.00    -0.014 A 
BRANCH  40  41
ATOM     41  C   UNL     1       0.889   1.912  -8.559  1.00  0.00     0.031 A 
ATOM     42  C   UNL     1       1.189   1.284  -9.836  1.00  0.00     0.074 A 
ATOM     43  C   UNL     1       0.413   3.166  -8.399  1.00  0.00     0.049 A 
ATOM     44  N   UNL     1       1.498   1.923 -10.905  1.00  0.00    -0.248 NA
ATOM     45  C   UNL     1       1.256  -0.166  -9.971  1.00  0.00     0.031 C 
ATOM     46  C   UNL     1      -0.170   4.042  -9.402  1.00  0.00     0.029 A 
ATOM     47  N   UNL     1       0.498   3.961  -7.241  1.00  0.00    -0.354 N 
ATOM     48  C   UNL     1       1.483   1.006 -11.930  1.00  0.00     0.074 A 
ATOM     49  C   UNL     1       1.459  -0.285 -11.283  1.00  0.00     0.031 C 
ATOM     50  C   UNL     1      -0.202   5.296  -8.916  1.00  0.00     0.029 A 
ATOM     51  C   UNL     1       0.552   5.298  -7.668  1.00  0.00     0.049 A 
ATOM     52  H   UNL     1       0.517   3.641  -6.310  1.00  0.00     0.167 HD
ATOM     53  C   UNL     1       1.291   1.466 -13.198  1.00  0.00     0.037 A 
ATOM     54  C   UNL     1       1.682   6.041  -7.470  1.00  0.00     0.037 A 
ATOM     55  C   UNL     1       1.249   2.931 -13.202  1.00  0.00     0.049 A 
ATOM     56  C   UNL     1       2.345   6.447  -8.765  1.00  0.00     0.074 A 
ATOM     57  C   UNL     1       0.184   3.816 -13.117  1.00  0.00     0.029 A 
ATOM     58  N   UNL     1       2.392   3.660 -12.882  1.00  0.00    -0.354 N 
ATOM     59  N   UNL     1       2.256   5.767  -9.875  1.00  0.00    -0.248 NA
ATOM     60  C   UNL     1       3.170   7.643  -8.896  1.00  0.00     0.031 C 
ATOM     61  C   UNL     1       0.685   5.064 -12.672  1.00  0.00     0.029 A 
ATOM     62  C   UNL     1       2.055   4.950 -12.511  1.00  0.00     0.049 A 
ATOM     63  H   UNL     1       3.311   3.307 -12.915  1.00  0.00     0.167 HD
ATOM     64  C   UNL     1       2.976   6.402 -10.849  1.00  0.00     0.074 A 
ATOM     65  C   UNL     1       3.527   7.573 -10.189  1.00  0.00     0.031 C 
ATOM     66  C   UNL     1       3.069   5.918 -12.122  1.00  0.00     0.037 A 
BRANCH  53  67
ATOM     67  C   UNL     1       0.743   0.595 -14.308  1.00  0.00     0.064 A 
ATOM     68  C   UNL     1      -0.080   1.151 -15.310  1.00  0.00     0.173 A 
ATOM     69  C   UNL     1       0.912  -0.800 -14.396  1.00  0.00     0.173 A 
ATOM     70  F   UNL     1      -0.237   2.475 -15.431  1.00  0.00    -0.203 F 
ATOM     71  C   UNL     1      -0.779   0.365 -16.229  1.00  0.00     0.198 A 
ATOM     72  C   UNL     1       0.169  -1.593 -15.277  1.00  0.00     0.198 A 
ATOM     73  F   UNL     1       1.843  -1.438 -13.678  1.00  0.00    -0.203 F 
ATOM     74  F   UNL     1      -1.558   0.953 -17.148  1.00  0.00    -0.200 F 
ATOM     75  C   UNL     1      -0.688  -1.010 -16.186  1.00  0.00     0.200 A 
ATOM     76  F   UNL     1       0.293  -2.928 -15.237  1.00  0.00    -0.200 F 
ATOM     77  F   UNL     1      -1.394  -1.766 -17.037  1.00  0.00    -0.200 F 
ENDBRANCH  53  67
BRANCH  54  78
ATOM     78  C   UNL     1       2.443   5.683  -6.241  1.00  0.00     0.064 A 
ATOM     79  C   UNL     1       1.887   5.960  -4.978  1.00  0.00     0.173 A 
ATOM     80  C   UNL     1       3.529   4.799  -6.289  1.00  0.00     0.173 A 
ATOM     81  F   UNL     1       0.854   6.811  -4.874  1.00  0.00    -0.203 F 
ATOM     82  C   UNL     1       2.339   5.312  -3.828  1.00  0.00     0.198 A 
ATOM     83  C   UNL     1       3.971   4.145  -5.138  1.00  0.00     0.198 A 
ATOM     84  F   UNL     1       4.107   4.493  -7.459  1.00  0.00    -0.203 F 
ATOM     85  F   UNL     1       1.749   5.548  -2.646  1.00  0.00    -0.200 F 
ATOM     86  C   UNL     1       3.358   4.380  -3.916  1.00  0.00     0.200 A 
ATOM     87  F   UNL     1       4.940   3.222  -5.226  1.00  0.00    -0.200 F 
ATOM     88  F   UNL     1       3.725   3.674  -2.836  1.00  0.00    -0.200 F 
ENDBRANCH  54  78
BRANCH  66  89
ATOM     89  C   UNL     1       4.047   6.409 -13.154  1.00  0.00     0.064 A 
ATOM     90  C   UNL     1       5.315   6.921 -12.836  1.00  0.00     0.173 A 
ATOM     91  C   UNL     1       3.780   6.242 -14.533  1.00  0.00     0.173 A 
ATOM     92  F   UNL     1       5.736   6.999 -11.566  1.00  0.00    -0.203 F 
ATOM     93  C   UNL     1       6.216   7.321 -13.823  1.00  0.00     0.198 A 
ATOM     94  C   UNL     1       4.707   6.583 -15.515  1.00  0.00     0.198 A 
ATOM     95  F   UNL     1       2.624   5.718 -14.966  1.00  0.00    -0.203 F 
ATOM     96  F   UNL     1       7.392   7.858 -13.468  1.00  0.00    -0.200 F 
ATOM     97  C   UNL     1       5.916   7.145 -15.161  1.00  0.00     0.200 A 
ATOM     98  F   UNL     1       4.428   6.348 -16.804  1.00  0.00    -0.200 F 
ATOM     99  F   UNL     1       6.800   7.495 -16.104  1.00  0.00    -0.200 F 
ENDBRANCH  66  89
ENDBRANCH  40  41
ENDBRANCH  33  35
ENDBRANCH  32  33
ENDBRANCH  31  32
ENDBRANCH  30  31
ENDBRANCH  29  30
ENDBRANCH  28  29
ENDBRANCH  27  28
ENDBRANCH   1  27
TORSDOF 23
