REMARK SMILES CC[C@@H]1CCC[C@@](C[C@@H]2CSc3ccccc32)(C(=O)OCCOCCOCCOCCOC(=O)c2ccc(-c3c4nc(c(-c5c(F)c(F)c(F)c(F)c5F)c5ccc([nH]5)c(-c5c(F)c(F)c(F)c(F)c5F)c5nc(c(-c6c(F)c(F)c(F)c(F)c6F)c6ccc3[nH]6)C=C5)C=C4)cc2)C1
REMARK SMILES IDX 26 1 25 2 24 3 23 4 22 5 21 6 20 7 18 8 19 9 7 10 3 11 4 12
REMARK SMILES IDX 98 13 5 14 6 15 2 16 1 17 8 18 9 19 10 20 17 21 11 22 12 23
REMARK SMILES IDX 16 24 13 25 15 26 14 27 27 28 28 29 29 30 30 31 31 32 32 33
REMARK SMILES IDX 33 34 34 35 35 36 36 37 97 38 37 39 96 40 38 41 39 42 40 43
REMARK SMILES IDX 90 44 41 45 95 46 89 47 91 48 42 49 94 50 88 51 87 52 43 54
REMARK SMILES IDX 75 55 55 56 74 57 56 58 59 59 73 60 92 61 57 62 58 63 72 65
REMARK SMILES IDX 93 66 60 67 44 68 45 69 53 70 46 71 47 72 51 73 54 74 48 75
REMARK SMILES IDX 49 76 52 77 50 78 76 79 77 80 85 81 78 82 79 83 83 84 86 85
REMARK SMILES IDX 80 86 81 87 84 88 82 89 61 90 62 91 70 92 63 93 64 94 68 95
REMARK SMILES IDX 71 96 65 97 66 98 69 99 67 100
REMARK H PARENT 91 53 59 64
REMARK Flexibility Score: inf
ROOT
ATOM      1  O   UNL     1       4.522   9.519  -4.835  1.00  0.00    -0.377 OA
ENDROOT
BRANCH   1   2
ATOM      2  C   UNL     1       4.348  10.916  -4.708  1.00  0.00     0.188 C 
BRANCH   2   3
ATOM      3  C   UNL     1       4.955  11.543  -3.456  1.00  0.00     0.188 C 
BRANCH   3   4
ATOM      4  O   UNL     1       6.091  10.902  -2.903  1.00  0.00    -0.376 OA
BRANCH   4   5
ATOM      5  C   UNL     1       5.914   9.581  -2.386  1.00  0.00     0.202 C 
BRANCH   5   6
ATOM      6  C   UNL     1       4.641   9.268  -1.581  1.00  0.00     0.261 C 
BRANCH   6   7
ATOM      7  O   UNL     1       3.457   9.053  -2.397  1.00  0.00    -0.463 OA
BRANCH   7   8
ATOM      8  C   UNL     1       2.364   9.799  -2.093  1.00  0.00     0.312 C 
ATOM      9  O   UNL     1       2.379  10.675  -1.232  1.00  0.00    -0.252 OA
BRANCH   8  10
ATOM     10  C   UNL     1       1.051   9.365  -2.794  1.00  0.00     0.069 C 
ATOM     11  C   UNL     1       0.556  11.575  -4.094  1.00  0.00    -0.010 C 
ATOM     12  C   UNL     1       0.322  10.817  -5.399  1.00  0.00     0.003 C 
ATOM     13  C   UNL     1       0.160  10.664  -2.911  1.00  0.00     0.022 C 
ATOM     14  C   UNL     1       1.141   9.548  -5.466  1.00  0.00     0.001 C 
ATOM     15  C   UNL     1       1.151   8.719  -4.190  1.00  0.00     0.019 C 
BRANCH  11  16
ATOM     16  C   UNL     1      -0.183  12.925  -4.089  1.00  0.00     0.000 C 
ATOM     17  C   UNL     1       0.275  13.853  -5.215  1.00  0.00     0.004 C 
ENDBRANCH  11  16
BRANCH  10  18
ATOM     18  C   UNL     1       0.362   8.378  -1.753  1.00  0.00     0.028 C 
BRANCH  18  19
ATOM     19  C   UNL     1       0.564   6.821  -1.761  1.00  0.00     0.032 C 
ATOM     20  C   UNL     1       1.996   6.285  -1.582  1.00  0.00     0.083 C 
ATOM     21  C   UNL     1      -0.024   6.121  -2.964  1.00  0.00    -0.030 A 
ATOM     22  S   UNL     1       2.552   5.527  -3.142  1.00  0.00    -0.125 SA
ATOM     23  C   UNL     1       0.911   5.506  -3.805  1.00  0.00     0.011 A 
ATOM     24  C   UNL     1      -1.366   6.189  -3.338  1.00  0.00     0.005 A 
ATOM     25  C   UNL     1       0.544   5.055  -5.065  1.00  0.00     0.015 A 
ATOM     26  C   UNL     1      -1.743   5.724  -4.599  1.00  0.00     0.000 A 
ATOM     27  C   UNL     1      -0.789   5.182  -5.468  1.00  0.00     0.001 A 
ENDBRANCH  18  19
ENDBRANCH  10  18
ENDBRANCH   8  10
ENDBRANCH   7   8
ENDBRANCH   6   7
ENDBRANCH   5   6
ENDBRANCH   4   5
ENDBRANCH   3   4
ENDBRANCH   2   3
ENDBRANCH   1   2
BRANCH   1  28
ATOM     28  C   UNL     1       5.350   9.010  -5.872  1.00  0.00     0.188 C 
BRANCH  28  29
ATOM     29  C   UNL     1       6.199   9.998  -6.679  1.00  0.00     0.188 C 
BRANCH  29  30
ATOM     30  O   UNL     1       5.525  10.873  -7.590  1.00  0.00    -0.376 OA
BRANCH  30  31
ATOM     31  C   UNL     1       4.305  10.446  -8.192  1.00  0.00     0.202 C 
BRANCH  31  32
ATOM     32  C   UNL     1       4.457   9.500  -9.383  1.00  0.00     0.261 C 
BRANCH  32  33
ATOM     33  O   UNL     1       4.817   8.174  -8.963  1.00  0.00    -0.460 OA
BRANCH  33  34
ATOM     34  C   UNL     1       6.117   7.834  -9.114  1.00  0.00     0.338 C 
ATOM     35  O   UNL     1       7.011   8.503  -9.604  1.00  0.00    -0.246 OA
BRANCH  34  36
ATOM     36  C   UNL     1       6.344   6.552  -8.421  1.00  0.00     0.060 A 
ATOM     37  C   UNL     1       5.507   5.459  -8.656  1.00  0.00     0.016 A 
ATOM     38  C   UNL     1       7.424   6.447  -7.536  1.00  0.00     0.016 A 
ATOM     39  C   UNL     1       5.769   4.246  -8.019  1.00  0.00     0.010 A 
ATOM     40  C   UNL     1       7.677   5.237  -6.890  1.00  0.00     0.010 A 
ATOM     41  C   UNL     1       6.863   4.125  -7.146  1.00  0.00    -0.014 A 
BRANCH  41  42
ATOM     42  C   UNL     1       7.235   2.795  -6.616  1.00  0.00     0.031 A 
ATOM     43  C   UNL     1       6.853   2.373  -5.233  1.00  0.00     0.074 A 
ATOM     44  C   UNL     1       7.932   1.970  -7.419  1.00  0.00     0.049 A 
ATOM     45  N   UNL     1       7.062   1.224  -4.640  1.00  0.00    -0.248 NA
ATOM     46  C   UNL     1       6.147   3.362  -4.406  1.00  0.00     0.031 C 
ATOM     47  C   UNL     1       8.369   2.297  -8.777  1.00  0.00     0.029 A 
ATOM     48  N   UNL     1       8.390   0.694  -7.216  1.00  0.00    -0.354 N 
ATOM     49  C   UNL     1       6.498   1.342  -3.378  1.00  0.00     0.074 A 
ATOM     50  C   UNL     1       5.971   2.688  -3.276  1.00  0.00     0.031 C 
ATOM     51  C   UNL     1       9.021   1.243  -9.292  1.00  0.00     0.029 A 
ATOM     52  C   UNL     1       9.065   0.179  -8.295  1.00  0.00     0.049 A 
ATOM     53  H   UNL     1       8.248   0.196  -6.379  1.00  0.00     0.167 HD
ATOM     54  C   UNL     1       6.417   0.400  -2.408  1.00  0.00     0.037 A 
ATOM     55  C   UNL     1       9.655  -1.020  -8.459  1.00  0.00     0.037 A 
ATOM     56  C   UNL     1       6.954  -0.934  -2.521  1.00  0.00     0.049 A 
ATOM     57  C   UNL     1       9.581  -2.028  -7.347  1.00  0.00     0.074 A 
ATOM     58  C   UNL     1       6.892  -1.968  -1.602  1.00  0.00     0.029 A 
ATOM     59  N   UNL     1       7.660  -1.415  -3.614  1.00  0.00    -0.354 N 
ATOM     60  N   UNL     1       8.993  -1.929  -6.180  1.00  0.00    -0.248 NA
ATOM     61  C   UNL     1      10.244  -3.318  -7.580  1.00  0.00     0.031 C 
ATOM     62  C   UNL     1       7.601  -3.057  -2.118  1.00  0.00     0.029 A 
ATOM     63  C   UNL     1       8.062  -2.722  -3.381  1.00  0.00     0.049 A 
ATOM     64  H   UNL     1       7.849  -0.904  -4.434  1.00  0.00     0.167 HD
ATOM     65  C   UNL     1       9.201  -3.144  -5.544  1.00  0.00     0.074 A 
ATOM     66  C   UNL     1       9.946  -3.975  -6.467  1.00  0.00     0.031 C 
ATOM     67  C   UNL     1       8.814  -3.534  -4.305  1.00  0.00     0.037 A 
BRANCH  54  68
ATOM     68  C   UNL     1       5.717   0.764  -1.133  1.00  0.00     0.064 A 
ATOM     69  C   UNL     1       4.321   0.888  -1.077  1.00  0.00     0.173 A 
ATOM     70  C   UNL     1       6.436   0.894   0.065  1.00  0.00     0.173 A 
ATOM     71  F   UNL     1       3.588   0.773  -2.195  1.00  0.00    -0.203 F 
ATOM     72  C   UNL     1       3.671   1.135   0.130  1.00  0.00     0.198 A 
ATOM     73  C   UNL     1       5.781   1.117   1.274  1.00  0.00     0.198 A 
ATOM     74  F   UNL     1       7.772   0.777   0.068  1.00  0.00    -0.203 F 
ATOM     75  F   UNL     1       2.338   1.268   0.157  1.00  0.00    -0.200 F 
ATOM     76  C   UNL     1       4.400   1.238   1.305  1.00  0.00     0.200 A 
ATOM     77  F   UNL     1       6.486   1.200   2.411  1.00  0.00    -0.200 F 
ATOM     78  F   UNL     1       3.771   1.452   2.469  1.00  0.00    -0.200 F 
ENDBRANCH  54  68
BRANCH  55  79
ATOM     79  C   UNL     1      10.344  -1.332  -9.737  1.00  0.00     0.064 A 
ATOM     80  C   UNL     1       9.817  -2.276 -10.627  1.00  0.00     0.173 A 
ATOM     81  C   UNL     1      11.533  -0.683 -10.099  1.00  0.00     0.173 A 
ATOM     82  F   UNL     1       8.691  -2.936 -10.315  1.00  0.00    -0.203 F 
ATOM     83  C   UNL     1      10.462  -2.571 -11.826  1.00  0.00     0.198 A 
ATOM     84  C   UNL     1      12.162  -0.958 -11.311  1.00  0.00     0.198 A 
ATOM     85  F   UNL     1      12.075   0.233  -9.283  1.00  0.00    -0.203 F 
ATOM     86  F   UNL     1       9.958  -3.507 -12.642  1.00  0.00    -0.200 F 
ATOM     87  C   UNL     1      11.629  -1.907 -12.171  1.00  0.00     0.200 A 
ATOM     88  F   UNL     1      13.282  -0.303 -11.647  1.00  0.00    -0.200 F 
ATOM     89  F   UNL     1      12.245  -2.186 -13.328  1.00  0.00    -0.200 F 
ENDBRANCH  55  79
BRANCH  67  90
ATOM     90  C   UNL     1       9.189  -4.923  -3.877  1.00  0.00     0.064 A 
ATOM     91  C   UNL     1      10.517  -5.264  -3.580  1.00  0.00     0.173 A 
ATOM     92  C   UNL     1       8.207  -5.915  -3.729  1.00  0.00     0.173 A 
ATOM     93  F   UNL     1      11.495  -4.356  -3.720  1.00  0.00    -0.203 F 
ATOM     94  C   UNL     1      10.852  -6.554  -3.176  1.00  0.00     0.198 A 
ATOM     95  C   UNL     1       8.542  -7.195  -3.295  1.00  0.00     0.198 A 
ATOM     96  F   UNL     1       6.922  -5.640  -3.994  1.00  0.00    -0.203 F 
ATOM     97  F   UNL     1      12.134  -6.870  -2.947  1.00  0.00    -0.200 F 
ATOM     98  C   UNL     1       9.864  -7.515  -3.027  1.00  0.00     0.200 A 
ATOM     99  F   UNL     1       7.585  -8.119  -3.138  1.00  0.00    -0.200 F 
ATOM    100  F   UNL     1      10.188  -8.755  -2.633  1.00  0.00    -0.200 F 
ENDBRANCH  67  90
ENDBRANCH  41  42
ENDBRANCH  34  36
ENDBRANCH  33  34
ENDBRANCH  32  33
ENDBRANCH  31  32
ENDBRANCH  30  31
ENDBRANCH  29  30
ENDBRANCH  28  29
ENDBRANCH   1  28
TORSDOF 23
