REMARK SMILES COc1ccc([C@H]2CC(c3ccc(S(C)(=O)=O)cc3)=NN2c2ccc(C(=O)OCCOCCOCCOCCOC(=O)c3ccc(-c4c5nc(c(-c6c(F)c(F)c(F)c(F)c6F)c6ccc([nH]6)c(-c6c(F)c(F)c(F)c(F)c6F)c6nc(c(-c7c(F)c(F)c(F)c(F)c7F)c7ccc4[nH]7)C=C6)C=C5)cc3)cc2)cc1OC
REMARK SMILES IDX 33 1 32 2 31 3 30 4 29 5 28 6 26 7 27 8 25 9 22 10 23 11
REMARK SMILES IDX 107 12 24 13 106 14 21 15 7 16 8 17 9 18 20 19 6 20 3 21
REMARK SMILES IDX 4 22 109 23 5 24 108 25 2 26 1 27 110 28 111 29 10 30 11 31
REMARK SMILES IDX 19 32 12 33 18 34 13 35 14 36 15 37 16 38 17 39 34 40 35 41
REMARK SMILES IDX 36 42 37 43 38 44 39 45 40 46 41 47 42 48 43 49 44 50 105 51
REMARK SMILES IDX 45 52 104 53 46 54 47 55 48 56 98 57 49 58 103 59 97 60
REMARK SMILES IDX 99 61 50 62 102 63 96 64 95 65 51 67 83 68 63 69 82 70 64 71
REMARK SMILES IDX 67 72 81 73 100 74 65 75 66 76 80 78 101 79 68 80 52 81
REMARK SMILES IDX 53 82 61 83 54 84 55 85 59 86 62 87 56 88 57 89 60 90 58 91
REMARK SMILES IDX 84 92 85 93 93 94 86 95 87 96 91 97 94 98 88 99 89 100
REMARK SMILES IDX 92 101 90 102 69 103 70 104 78 105 71 106 72 107 76 108
REMARK SMILES IDX 79 109 73 110 74 111 77 112 75 113
REMARK H PARENT 99 66 67 77
REMARK Flexibility Score: inf
ROOT
ATOM      1  C   UNL     1       4.831   9.483  -6.361  1.00  0.00     0.188 C 
ENDROOT
BRANCH   1   2
ATOM      2  C   UNL     1       5.852   8.480  -6.942  1.00  0.00     0.188 C 
BRANCH   2   3
ATOM      3  O   UNL     1       5.730   8.275  -8.339  1.00  0.00    -0.376 OA
BRANCH   3   4
ATOM      4  C   UNL     1       5.223   7.037  -8.802  1.00  0.00     0.202 C 
BRANCH   4   5
ATOM      5  C   UNL     1       3.786   6.657  -8.416  1.00  0.00     0.261 C 
BRANCH   5   6
ATOM      6  O   UNL     1       3.440   6.819  -7.035  1.00  0.00    -0.460 OA
BRANCH   6   7
ATOM      7  C   UNL     1       4.017   5.957  -6.168  1.00  0.00     0.338 C 
ATOM      8  O   UNL     1       4.786   5.054  -6.451  1.00  0.00    -0.246 OA
BRANCH   7   9
ATOM      9  C   UNL     1       3.713   6.395  -4.787  1.00  0.00     0.060 A 
ATOM     10  C   UNL     1       3.179   7.054  -2.103  1.00  0.00     0.060 A 
ATOM     11  C   UNL     1       4.486   6.777  -2.528  1.00  0.00     0.029 A 
ATOM     12  C   UNL     1       2.166   7.100  -3.072  1.00  0.00     0.029 A 
ATOM     13  C   UNL     1       4.750   6.414  -3.850  1.00  0.00     0.018 A 
ATOM     14  C   UNL     1       2.429   6.795  -4.412  1.00  0.00     0.018 A 
BRANCH  10  15
ATOM     15  N   UNL     1       2.908   7.205  -0.750  1.00  0.00    -0.257 N 
ATOM     16  C   UNL     1       1.747   6.641  -0.056  1.00  0.00     0.144 C 
ATOM     17  C   UNL     1       2.073   6.937   1.412  1.00  0.00     0.091 C 
ATOM     18  C   UNL     1       3.188   7.927   1.230  1.00  0.00     0.071 C 
ATOM     19  N   UNL     1       3.667   8.029   0.029  1.00  0.00    -0.176 NA
BRANCH  16  20
ATOM     20  C   UNL     1       1.523   5.155  -0.301  1.00  0.00    -0.019 A 
ATOM     21  C   UNL     1       1.079   2.395  -0.737  1.00  0.00     0.160 A 
ATOM     22  C   UNL     1       0.028   3.314  -0.853  1.00  0.00     0.051 A 
ATOM     23  C   UNL     1       2.364   2.843  -0.414  1.00  0.00     0.161 A 
ATOM     24  C   UNL     1       0.246   4.679  -0.629  1.00  0.00     0.010 A 
ATOM     25  C   UNL     1       2.569   4.218  -0.202  1.00  0.00     0.056 A 
BRANCH  21  26
ATOM     26  O   UNL     1       0.833   1.094  -1.085  1.00  0.00    -0.493 OA
ATOM     27  C   UNL     1       0.119   0.384  -0.073  1.00  0.00     0.278 C 
ENDBRANCH  21  26
BRANCH  23  28
ATOM     28  O   UNL     1       3.514   2.109  -0.293  1.00  0.00    -0.493 OA
ATOM     29  C   UNL     1       3.406   0.701  -0.160  1.00  0.00     0.278 C 
ENDBRANCH  23  28
ENDBRANCH  16  20
BRANCH  18  30
ATOM     30  C   UNL     1       3.689   8.706   2.369  1.00  0.00    -0.002 A 
ATOM     31  C   UNL     1       3.651  10.104   2.314  1.00  0.00     0.011 A 
ATOM     32  C   UNL     1       4.188   8.049   3.497  1.00  0.00     0.011 A 
ATOM     33  C   UNL     1       4.105  10.853   3.403  1.00  0.00     0.021 A 
ATOM     34  C   UNL     1       4.666   8.796   4.576  1.00  0.00     0.021 A 
ATOM     35  C   UNL     1       4.625  10.194   4.522  1.00  0.00     0.067 A 
BRANCH  35  36
ATOM     36  S   UNL     1       5.208  11.149   5.906  1.00  0.00     0.175 S 
ATOM     37  C   UNL     1       6.556  12.098   5.253  1.00  0.00     0.163 C 
ATOM     38  O   UNL     1       4.138  12.058   6.265  1.00  0.00    -0.224 OA
ATOM     39  O   UNL     1       5.758  10.222   6.877  1.00  0.00    -0.224 OA
ENDBRANCH  35  36
ENDBRANCH  18  30
ENDBRANCH  10  15
ENDBRANCH   7   9
ENDBRANCH   6   7
ENDBRANCH   5   6
ENDBRANCH   4   5
ENDBRANCH   3   4
ENDBRANCH   2   3
ENDBRANCH   1   2
BRANCH   1  40
ATOM     40  O   UNL     1       3.782   9.975  -7.187  1.00  0.00    -0.377 OA
BRANCH  40  41
ATOM     41  C   UNL     1       4.053  10.384  -8.524  1.00  0.00     0.188 C 
BRANCH  41  42
ATOM     42  C   UNL     1       5.439  10.930  -8.940  1.00  0.00     0.188 C 
BRANCH  42  43
ATOM     43  O   UNL     1       6.346  11.109  -7.868  1.00  0.00    -0.376 OA
BRANCH  43  44
ATOM     44  C   UNL     1       6.636  12.433  -7.462  1.00  0.00     0.202 C 
BRANCH  44  45
ATOM     45  C   UNL     1       5.470  13.268  -6.916  1.00  0.00     0.261 C 
BRANCH  45  46
ATOM     46  O   UNL     1       4.297  13.339  -7.741  1.00  0.00    -0.460 OA
BRANCH  46  47
ATOM     47  C   UNL     1       4.398  13.996  -8.915  1.00  0.00     0.338 C 
ATOM     48  O   UNL     1       5.385  14.550  -9.373  1.00  0.00    -0.246 OA
BRANCH  47  49
ATOM     49  C   UNL     1       3.138  13.778  -9.655  1.00  0.00     0.060 A 
ATOM     50  C   UNL     1       3.169  13.109 -10.886  1.00  0.00     0.016 A 
ATOM     51  C   UNL     1       1.926  14.220  -9.120  1.00  0.00     0.016 A 
ATOM     52  C   UNL     1       1.987  12.906 -11.600  1.00  0.00     0.010 A 
ATOM     53  C   UNL     1       0.748  14.037  -9.846  1.00  0.00     0.010 A 
ATOM     54  C   UNL     1       0.777  13.409 -11.104  1.00  0.00    -0.014 A 
BRANCH  54  55
ATOM     55  C   UNL     1      -0.420  13.456 -11.979  1.00  0.00     0.031 A 
ATOM     56  C   UNL     1      -0.738  14.749 -12.677  1.00  0.00     0.074 A 
ATOM     57  C   UNL     1      -1.207  12.380 -12.154  1.00  0.00     0.049 A 
ATOM     58  N   UNL     1      -1.761  15.062 -13.431  1.00  0.00    -0.248 NA
ATOM     59  C   UNL     1       0.232  15.842 -12.495  1.00  0.00     0.031 C 
ATOM     60  C   UNL     1      -0.983  11.063 -11.564  1.00  0.00     0.029 A 
ATOM     61  N   UNL     1      -2.368  12.235 -12.875  1.00  0.00    -0.354 N 
ATOM     62  C   UNL     1      -1.565  16.387 -13.798  1.00  0.00     0.074 A 
ATOM     63  C   UNL     1      -0.342  16.829 -13.165  1.00  0.00     0.031 C 
ATOM     64  C   UNL     1      -1.986  10.246 -11.932  1.00  0.00     0.029 A 
ATOM     65  C   UNL     1      -2.940  10.993 -12.751  1.00  0.00     0.049 A 
ATOM     66  H   UNL     1      -2.752  12.954 -13.427  1.00  0.00     0.167 HD
ATOM     67  C   UNL     1      -2.336  17.163 -14.596  1.00  0.00     0.037 A 
ATOM     68  C   UNL     1      -4.114  10.528 -13.221  1.00  0.00     0.037 A 
ATOM     69  C   UNL     1      -3.550  16.717 -15.226  1.00  0.00     0.049 A 
ATOM     70  C   UNL     1      -4.991  11.436 -14.050  1.00  0.00     0.074 A 
ATOM     71  C   UNL     1      -4.385  17.416 -16.079  1.00  0.00     0.029 A 
ATOM     72  N   UNL     1      -4.110  15.459 -15.059  1.00  0.00    -0.354 N 
ATOM     73  N   UNL     1      -4.783  12.675 -14.425  1.00  0.00    -0.248 NA
ATOM     74  C   UNL     1      -6.266  10.877 -14.522  1.00  0.00     0.031 C 
ATOM     75  C   UNL     1      -5.485  16.606 -16.373  1.00  0.00     0.029 A 
ATOM     76  C   UNL     1      -5.300  15.375 -15.765  1.00  0.00     0.049 A 
ATOM     77  H   UNL     1      -3.720  14.734 -14.519  1.00  0.00     0.167 HD
ATOM     78  C   UNL     1      -5.879  13.030 -15.203  1.00  0.00     0.074 A 
ATOM     79  C   UNL     1      -6.743  11.871 -15.258  1.00  0.00     0.031 C 
ATOM     80  C   UNL     1      -6.145  14.209 -15.819  1.00  0.00     0.037 A 
BRANCH  67  81
ATOM     81  C   UNL     1      -1.911  18.588 -14.803  1.00  0.00     0.064 A 
ATOM     82  C   UNL     1      -0.774  18.923 -15.554  1.00  0.00     0.173 A 
ATOM     83  C   UNL     1      -2.679  19.637 -14.273  1.00  0.00     0.173 A 
ATOM     84  F   UNL     1       0.003  17.960 -16.070  1.00  0.00    -0.203 F 
ATOM     85  C   UNL     1      -0.409  20.254 -15.746  1.00  0.00     0.198 A 
ATOM     86  C   UNL     1      -2.330  20.965 -14.495  1.00  0.00     0.198 A 
ATOM     87  F   UNL     1      -3.777  19.372 -13.549  1.00  0.00    -0.203 F 
ATOM     88  F   UNL     1       0.707  20.549 -16.425  1.00  0.00    -0.200 F 
ATOM     89  C   UNL     1      -1.192  21.273 -15.224  1.00  0.00     0.200 A 
ATOM     90  F   UNL     1      -3.097  21.948 -14.003  1.00  0.00    -0.200 F 
ATOM     91  F   UNL     1      -0.846  22.553 -15.420  1.00  0.00    -0.200 F 
ENDBRANCH  67  81
BRANCH  68  92
ATOM     92  C   UNL     1      -4.551   9.141 -12.903  1.00  0.00     0.064 A 
ATOM     93  C   UNL     1      -4.686   8.173 -13.909  1.00  0.00     0.173 A 
ATOM     94  C   UNL     1      -4.883   8.766 -11.592  1.00  0.00     0.173 A 
ATOM     95  F   UNL     1      -4.410   8.488 -15.183  1.00  0.00    -0.203 F 
ATOM     96  C   UNL     1      -5.161   6.894 -13.621  1.00  0.00     0.198 A 
ATOM     97  C   UNL     1      -5.324   7.477 -11.300  1.00  0.00     0.198 A 
ATOM     98  F   UNL     1      -4.778   9.653 -10.592  1.00  0.00    -0.203 F 
ATOM     99  F   UNL     1      -5.339   6.009 -14.611  1.00  0.00    -0.200 F 
ATOM    100  C   UNL     1      -5.474   6.545 -12.316  1.00  0.00     0.200 A 
ATOM    101  F   UNL     1      -5.614   7.141 -10.036  1.00  0.00    -0.200 F 
ATOM    102  F   UNL     1      -5.932   5.317 -12.039  1.00  0.00    -0.200 F 
ENDBRANCH  68  92
BRANCH  80 103
ATOM    103  C   UNL     1      -7.397  14.295 -16.648  1.00  0.00     0.064 A 
ATOM    104  C   UNL     1      -8.673  14.299 -16.066  1.00  0.00     0.173 A 
ATOM    105  C   UNL     1      -7.314  14.425 -18.043  1.00  0.00     0.173 A 
ATOM    106  F   UNL     1      -8.811  14.165 -14.738  1.00  0.00    -0.203 F 
ATOM    107  C   UNL     1      -9.819  14.398 -16.852  1.00  0.00     0.198 A 
ATOM    108  C   UNL     1      -8.459  14.562 -18.823  1.00  0.00     0.198 A 
ATOM    109  F   UNL     1      -6.118  14.439 -18.651  1.00  0.00    -0.203 F 
ATOM    110  F   UNL     1     -11.029  14.345 -16.279  1.00  0.00    -0.200 F 
ATOM    111  C   UNL     1      -9.711  14.539 -18.228  1.00  0.00     0.200 A 
ATOM    112  F   UNL     1      -8.350  14.718 -20.149  1.00  0.00    -0.200 F 
ATOM    113  F   UNL     1     -10.814  14.646 -18.981  1.00  0.00    -0.200 F 
ENDBRANCH  80 103
ENDBRANCH  54  55
ENDBRANCH  47  49
ENDBRANCH  46  47
ENDBRANCH  45  46
ENDBRANCH  44  45
ENDBRANCH  43  44
ENDBRANCH  42  43
ENDBRANCH  41  42
ENDBRANCH  40  41
ENDBRANCH   1  40
TORSDOF 26
