REMARK SMILES C/C(Nc1ccc(C(=O)OCCOCCOCCOCCOC(=O)c2ccc(-c3c4nc(c(-c5c(F)c(F)c(F)c(F)c5F)c5ccc([nH]5)c(-c5c(F)c(F)c(F)c(F)c5F)c5nc(c(-c6c(F)c(F)c(F)c(F)c6F)c6ccc3[nH]6)C=C5)C=C4)cc2)c(O)c1)=C1/C(=O)O[C@H](C)C1=O
REMARK SMILES IDX 16 1 15 2 14 3 13 4 12 5 11 6 10 7 8 8 9 9 7 10 4 11 5 12
REMARK SMILES IDX 90 13 6 14 88 15 3 16 2 18 1 19 91 20 92 21 97 22 93 23
REMARK SMILES IDX 94 24 95 25 98 26 96 27 89 28 17 30 18 31 19 32 20 33 21 34
REMARK SMILES IDX 22 35 23 36 24 37 25 38 26 39 87 40 27 41 86 42 28 43 29 44
REMARK SMILES IDX 30 45 80 46 31 47 85 48 79 49 81 50 32 51 84 52 78 53 77 54
REMARK SMILES IDX 33 56 65 57 45 58 64 59 46 60 49 61 63 62 82 63 47 64 48 65
REMARK SMILES IDX 62 67 83 68 50 69 34 70 35 71 43 72 36 73 37 74 41 75 44 76
REMARK SMILES IDX 38 77 39 78 42 79 40 80 66 81 67 82 75 83 68 84 69 85 73 86
REMARK SMILES IDX 76 87 70 88 71 89 74 90 72 91 51 92 52 93 60 94 53 95 54 96
REMARK SMILES IDX 58 97 61 98 55 99 56 100 59 101 57 102
REMARK H PARENT 3 17 89 29 81 55 49 66
REMARK Flexibility Score: inf
ROOT
ATOM      1  O   UNL     1      -4.254  -1.613   7.299  1.00  0.00    -0.377 OA
ENDROOT
BRANCH   1   2
ATOM      2  C   UNL     1      -2.907  -1.911   6.948  1.00  0.00     0.188 C 
BRANCH   2   3
ATOM      3  C   UNL     1      -1.920  -1.646   8.101  1.00  0.00     0.188 C 
BRANCH   3   4
ATOM      4  O   UNL     1      -2.543  -1.623   9.376  1.00  0.00    -0.376 OA
BRANCH   4   5
ATOM      5  C   UNL     1      -3.027  -0.415   9.938  1.00  0.00     0.202 C 
BRANCH   5   6
ATOM      6  C   UNL     1      -3.701   0.714   9.133  1.00  0.00     0.261 C 
BRANCH   6   7
ATOM      7  O   UNL     1      -3.286   0.910   7.779  1.00  0.00    -0.460 OA
BRANCH   7   8
ATOM      8  C   UNL     1      -2.110   1.540   7.566  1.00  0.00     0.341 C 
ATOM      9  O   UNL     1      -1.378   2.010   8.418  1.00  0.00    -0.246 OA
BRANCH   8  10
ATOM     10  C   UNL     1      -1.756   1.366   6.132  1.00  0.00     0.101 A 
ATOM     11  C   UNL     1      -0.964   0.833   3.474  1.00  0.00     0.042 A 
ATOM     12  C   UNL     1      -0.023   0.841   4.510  1.00  0.00     0.027 A 
ATOM     13  C   UNL     1      -2.303   1.109   3.784  1.00  0.00     0.073 A 
ATOM     14  C   UNL     1      -0.411   1.121   5.826  1.00  0.00     0.022 A 
ATOM     15  C   UNL     1      -2.701   1.337   5.101  1.00  0.00     0.132 A 
BRANCH  11  16
ATOM     16  N   UNL     1      -0.649   0.492   2.148  1.00  0.00    -0.358 N 
ATOM     17  H   UNL     1      -1.183   0.968   1.472  1.00  0.00     0.166 HD
BRANCH  16  18
ATOM     18  C   UNL     1       0.278  -0.394   1.622  1.00  0.00     0.030 C 
ATOM     19  C   UNL     1       0.766   0.040   0.244  1.00  0.00     0.065 C 
ATOM     20  C   UNL     1       0.723  -1.562   2.141  1.00  0.00     0.125 C 
ATOM     21  C   UNL     1       0.370  -2.248   3.403  1.00  0.00     0.344 C 
ATOM     22  C   UNL     1       1.738  -2.425   1.506  1.00  0.00     0.212 C 
ATOM     23  O   UNL     1      -0.596  -2.073   4.129  1.00  0.00    -0.246 OA
ATOM     24  O   UNL     1       1.308  -3.220   3.631  1.00  0.00    -0.451 OA
ATOM     25  C   UNL     1       2.196  -3.425   2.516  1.00  0.00     0.245 C 
ATOM     26  O   UNL     1       2.146  -2.360   0.356  1.00  0.00    -0.290 OA
ATOM     27  C   UNL     1       3.639  -3.182   2.917  1.00  0.00     0.062 C 
ENDBRANCH  16  18
ENDBRANCH  11  16
BRANCH  15  28
ATOM     28  O   UNL     1      -4.049   1.451   5.308  1.00  0.00    -0.507 OA
ATOM     29  H   UNL     1      -4.379   1.605   6.171  1.00  0.00     0.293 HD
ENDBRANCH  15  28
ENDBRANCH   8  10
ENDBRANCH   7   8
ENDBRANCH   6   7
ENDBRANCH   5   6
ENDBRANCH   4   5
ENDBRANCH   3   4
ENDBRANCH   2   3
ENDBRANCH   1   2
BRANCH   1  30
ATOM     30  C   UNL     1      -4.995  -2.618   7.997  1.00  0.00     0.188 C 
BRANCH  30  31
ATOM     31  C   UNL     1      -4.305  -3.723   8.837  1.00  0.00     0.188 C 
BRANCH  31  32
ATOM     32  O   UNL     1      -3.109  -4.232   8.269  1.00  0.00    -0.376 OA
BRANCH  32  33
ATOM     33  C   UNL     1      -3.115  -5.513   7.670  1.00  0.00     0.202 C 
BRANCH  33  34
ATOM     34  C   UNL     1      -3.971  -5.691   6.409  1.00  0.00     0.261 C 
BRANCH  34  35
ATOM     35  O   UNL     1      -5.342  -5.283   6.515  1.00  0.00    -0.460 OA
BRANCH  35  36
ATOM     36  C   UNL     1      -6.138  -5.991   7.344  1.00  0.00     0.338 C 
ATOM     37  O   UNL     1      -5.835  -6.962   8.011  1.00  0.00    -0.246 OA
BRANCH  36  38
ATOM     38  C   UNL     1      -7.425  -5.269   7.443  1.00  0.00     0.060 A 
ATOM     39  C   UNL     1      -7.853  -4.804   8.693  1.00  0.00     0.016 A 
ATOM     40  C   UNL     1      -8.198  -5.045   6.301  1.00  0.00     0.016 A 
ATOM     41  C   UNL     1      -9.078  -4.145   8.810  1.00  0.00     0.010 A 
ATOM     42  C   UNL     1      -9.432  -4.401   6.423  1.00  0.00     0.010 A 
ATOM     43  C   UNL     1      -9.893  -3.979   7.682  1.00  0.00    -0.014 A 
BRANCH  43  44
ATOM     44  C   UNL     1     -11.302  -3.543   7.843  1.00  0.00     0.031 A 
ATOM     45  C   UNL     1     -12.379  -4.594   7.837  1.00  0.00     0.074 A 
ATOM     46  C   UNL     1     -11.624  -2.248   8.003  1.00  0.00     0.049 A 
ATOM     47  N   UNL     1     -13.679  -4.458   7.893  1.00  0.00    -0.248 NA
ATOM     48  C   UNL     1     -11.922  -5.991   7.751  1.00  0.00     0.031 C 
ATOM     49  C   UNL     1     -10.672  -1.143   8.071  1.00  0.00     0.029 A 
ATOM     50  N   UNL     1     -12.852  -1.645   8.128  1.00  0.00    -0.354 N 
ATOM     51  C   UNL     1     -14.194  -5.747   7.843  1.00  0.00     0.074 A 
ATOM     52  C   UNL     1     -13.070  -6.649   7.714  1.00  0.00     0.031 C 
ATOM     53  C   UNL     1     -11.352   0.008   8.214  1.00  0.00     0.029 A 
ATOM     54  C   UNL     1     -12.787  -0.276   8.209  1.00  0.00     0.049 A 
ATOM     55  H   UNL     1     -13.698  -2.147   8.156  1.00  0.00     0.167 HD
ATOM     56  C   UNL     1     -15.487  -6.144   7.909  1.00  0.00     0.037 A 
ATOM     57  C   UNL     1     -13.775   0.639   8.247  1.00  0.00     0.037 A 
ATOM     58  C   UNL     1     -16.602  -5.243   8.028  1.00  0.00     0.049 A 
ATOM     59  C   UNL     1     -15.212   0.177   8.227  1.00  0.00     0.074 A 
ATOM     60  C   UNL     1     -17.950  -5.544   8.111  1.00  0.00     0.029 A 
ATOM     61  N   UNL     1     -16.499  -3.860   8.071  1.00  0.00    -0.354 N 
ATOM     62  N   UNL     1     -15.693  -1.043   8.201  1.00  0.00    -0.248 NA
ATOM     63  C   UNL     1     -16.245   1.224   8.244  1.00  0.00     0.031 C 
ATOM     64  C   UNL     1     -18.666  -4.343   8.139  1.00  0.00     0.029 A 
ATOM     65  C   UNL     1     -17.761  -3.293   8.149  1.00  0.00     0.049 A 
ATOM     66  H   UNL     1     -15.653  -3.355   8.049  1.00  0.00     0.167 HD
ATOM     67  C   UNL     1     -17.076  -0.912   8.236  1.00  0.00     0.074 A 
ATOM     68  C   UNL     1     -17.358   0.507   8.297  1.00  0.00     0.031 C 
ATOM     69  C   UNL     1     -18.028  -1.879   8.222  1.00  0.00     0.037 A 
BRANCH  56  70
ATOM     70  C   UNL     1     -15.765  -7.617   7.821  1.00  0.00     0.064 A 
ATOM     71  C   UNL     1     -15.408  -8.501   8.851  1.00  0.00     0.173 A 
ATOM     72  C   UNL     1     -16.424  -8.149   6.702  1.00  0.00     0.173 A 
ATOM     73  F   UNL     1     -14.763  -8.048   9.937  1.00  0.00    -0.203 F 
ATOM     74  C   UNL     1     -15.673  -9.865   8.750  1.00  0.00     0.198 A 
ATOM     75  C   UNL     1     -16.719  -9.507   6.620  1.00  0.00     0.198 A 
ATOM     76  F   UNL     1     -16.791  -7.349   5.689  1.00  0.00    -0.203 F 
ATOM     77  F   UNL     1     -15.273 -10.697   9.721  1.00  0.00    -0.200 F 
ATOM     78  C   UNL     1     -16.335 -10.365   7.639  1.00  0.00     0.200 A 
ATOM     79  F   UNL     1     -17.372  -9.986   5.552  1.00  0.00    -0.200 F 
ATOM     80  F   UNL     1     -16.597 -11.676   7.547  1.00  0.00    -0.200 F 
ENDBRANCH  56  70
BRANCH  57  81
ATOM     81  C   UNL     1     -13.448   2.090   8.296  1.00  0.00     0.064 A 
ATOM     82  C   UNL     1     -13.762   2.865   9.422  1.00  0.00     0.173 A 
ATOM     83  C   UNL     1     -12.845   2.739   7.208  1.00  0.00     0.173 A 
ATOM     84  F   UNL     1     -14.366   2.299  10.477  1.00  0.00    -0.203 F 
ATOM     85  C   UNL     1     -13.505   4.234   9.449  1.00  0.00     0.198 A 
ATOM     86  C   UNL     1     -12.558   4.102   7.249  1.00  0.00     0.198 A 
ATOM     87  F   UNL     1     -12.529   2.046   6.104  1.00  0.00    -0.203 F 
ATOM     88  F   UNL     1     -13.866   4.960  10.516  1.00  0.00    -0.200 F 
ATOM     89  C   UNL     1     -12.897   4.851   8.366  1.00  0.00     0.200 A 
ATOM     90  F   UNL     1     -11.960   4.690   6.204  1.00  0.00    -0.200 F 
ATOM     91  F   UNL     1     -12.648   6.167   8.393  1.00  0.00    -0.200 F 
ENDBRANCH  57  81
BRANCH  69  92
ATOM     92  C   UNL     1     -19.464  -1.444   8.326  1.00  0.00     0.064 A 
ATOM     93  C   UNL     1     -20.114  -0.770   7.282  1.00  0.00     0.173 A 
ATOM     94  C   UNL     1     -20.213  -1.750   9.474  1.00  0.00     0.173 A 
ATOM     95  F   UNL     1     -19.443  -0.442   6.168  1.00  0.00    -0.203 F 
ATOM     96  C   UNL     1     -21.450  -0.391   7.396  1.00  0.00     0.198 A 
ATOM     97  C   UNL     1     -21.558  -1.403   9.569  1.00  0.00     0.198 A 
ATOM     98  F   UNL     1     -19.645  -2.403  10.499  1.00  0.00    -0.203 F 
ATOM     99  F   UNL     1     -22.035   0.301   6.409  1.00  0.00    -0.200 F 
ATOM    100  C   UNL     1     -22.172  -0.715   8.535  1.00  0.00     0.200 A 
ATOM    101  F   UNL     1     -22.258  -1.735  10.662  1.00  0.00    -0.200 F 
ATOM    102  F   UNL     1     -23.460  -0.359   8.638  1.00  0.00    -0.200 F 
ENDBRANCH  69  92
ENDBRANCH  43  44
ENDBRANCH  36  38
ENDBRANCH  35  36
ENDBRANCH  34  35
ENDBRANCH  33  34
ENDBRANCH  32  33
ENDBRANCH  31  32
ENDBRANCH  30  31
ENDBRANCH   1  30
TORSDOF 23
