REMARK SMILES COc1cccc(/C=C2/C(=O)N(c3cccc(C(=O)OCCOCCOCCOCCOC(=O)c4ccc(-c5c6nc(c(-c7c(F)c(F)c(F)c(F)c7F)c7ccc([nH]7)c(-c7c(F)c(F)c(F)c(F)c7F)c7nc(c(-c8c(F)c(F)c(F)c(F)c8F)c8ccc5[nH]8)C=C7)C=C6)cc4)c3)N=C2C)c1
REMARK SMILES IDX 25 1 24 2 23 3 22 4 21 5 20 6 18 7 19 8 17 9 13 10 14 11
REMARK SMILES IDX 98 12 15 13 16 14 12 15 8 16 9 17 10 18 100 19 11 20 99 21
REMARK SMILES IDX 101 22 7 23 3 24 4 25 102 26 5 27 6 28 2 29 1 30 26 31 27 32
REMARK SMILES IDX 28 33 29 34 30 35 31 36 32 37 33 38 34 39 35 40 36 41 97 42
REMARK SMILES IDX 37 43 96 44 38 45 39 46 40 47 90 48 41 49 95 50 89 51 91 52
REMARK SMILES IDX 42 53 94 54 88 55 87 56 43 58 75 59 55 60 74 61 56 62 59 63
REMARK SMILES IDX 73 64 92 65 57 66 58 67 72 69 93 70 60 71 44 72 45 73 53 74
REMARK SMILES IDX 46 75 47 76 51 77 54 78 48 79 49 80 52 81 50 82 76 83 77 84
REMARK SMILES IDX 85 85 78 86 79 87 83 88 86 89 80 90 81 91 84 92 82 93 61 94
REMARK SMILES IDX 62 95 70 96 63 97 64 98 68 99 71 100 65 101 66 102 69 103
REMARK SMILES IDX 67 104
REMARK H PARENT 91 57 59 68
REMARK Flexibility Score: inf
ROOT
ATOM      1  C   UNL     1      11.172  -2.274   0.372  1.00  0.00     0.188 C 
ENDROOT
BRANCH   1   2
ATOM      2  C   UNL     1      12.583  -2.449  -0.232  1.00  0.00     0.188 C 
BRANCH   2   3
ATOM      3  O   UNL     1      13.119  -1.267  -0.804  1.00  0.00    -0.376 OA
BRANCH   3   4
ATOM      4  C   UNL     1      13.316  -1.231  -2.205  1.00  0.00     0.202 C 
BRANCH   4   5
ATOM      5  C   UNL     1      12.062  -1.284  -3.087  1.00  0.00     0.261 C 
BRANCH   5   6
ATOM      6  O   UNL     1      11.125  -2.321  -2.769  1.00  0.00    -0.460 OA
BRANCH   6   7
ATOM      7  C   UNL     1      11.455  -3.594  -3.090  1.00  0.00     0.338 C 
ATOM      8  O   UNL     1      12.476  -3.966  -3.644  1.00  0.00    -0.246 OA
BRANCH   7   9
ATOM      9  C   UNL     1      10.472  -4.477  -2.417  1.00  0.00     0.062 A 
ATOM     10  C   UNL     1       8.205  -4.870  -1.635  1.00  0.00     0.070 A 
ATOM     11  C   UNL     1       8.697  -5.881  -0.796  1.00  0.00     0.028 A 
ATOM     12  C   UNL     1       9.107  -4.166  -2.441  1.00  0.00     0.044 A 
ATOM     13  C   UNL     1      10.052  -6.227  -0.809  1.00  0.00     0.003 A 
ATOM     14  C   UNL     1      10.941  -5.533  -1.629  1.00  0.00     0.016 A 
BRANCH  10  15
ATOM     15  N   UNL     1       6.829  -4.558  -1.652  1.00  0.00    -0.196 N 
ATOM     16  C   UNL     1       3.767  -3.323  -2.894  1.00  0.00     0.024 C 
ATOM     17  C   UNL     1       4.756  -3.836  -2.152  1.00  0.00     0.065 C 
ATOM     18  C   UNL     1       6.138  -3.907  -2.681  1.00  0.00     0.280 C 
ATOM     19  C   UNL     1       4.845  -4.441  -0.810  1.00  0.00     0.071 C 
ATOM     20  O   UNL     1       6.501  -3.504  -3.771  1.00  0.00    -0.267 OA
ATOM     21  N   UNL     1       6.047  -4.885  -0.549  1.00  0.00    -0.169 NA
ATOM     22  C   UNL     1       3.723  -4.527   0.171  1.00  0.00     0.069 C 
BRANCH  16  23
ATOM     23  C   UNL     1       2.375  -3.189  -2.481  1.00  0.00    -0.021 A 
ATOM     24  C   UNL     1       0.699  -2.123  -1.095  1.00  0.00     0.119 A 
ATOM     25  C   UNL     1      -0.263  -2.993  -1.611  1.00  0.00     0.046 A 
ATOM     26  C   UNL     1       2.017  -2.218  -1.538  1.00  0.00     0.054 A 
ATOM     27  C   UNL     1       0.078  -3.930  -2.587  1.00  0.00     0.004 A 
ATOM     28  C   UNL     1       1.398  -4.029  -3.023  1.00  0.00     0.008 A 
BRANCH  24  29
ATOM     29  O   UNL     1       0.260  -1.266  -0.123  1.00  0.00    -0.497 OA
ATOM     30  C   UNL     1       0.962  -0.032  -0.028  1.00  0.00     0.278 C 
ENDBRANCH  24  29
ENDBRANCH  16  23
ENDBRANCH  10  15
ENDBRANCH   7   9
ENDBRANCH   6   7
ENDBRANCH   5   6
ENDBRANCH   4   5
ENDBRANCH   3   4
ENDBRANCH   2   3
ENDBRANCH   1   2
BRANCH   1  31
ATOM     31  O   UNL     1      10.481  -1.039   0.229  1.00  0.00    -0.377 OA
BRANCH  31  32
ATOM     32  C   UNL     1      11.188   0.190   0.354  1.00  0.00     0.188 C 
BRANCH  32  33
ATOM     33  C   UNL     1      12.384   0.323   1.325  1.00  0.00     0.188 C 
BRANCH  33  34
ATOM     34  O   UNL     1      12.638  -0.834   2.103  1.00  0.00    -0.376 OA
BRANCH  34  35
ATOM     35  C   UNL     1      12.330  -0.777   3.483  1.00  0.00     0.202 C 
BRANCH  35  36
ATOM     36  C   UNL     1      10.853  -0.592   3.858  1.00  0.00     0.261 C 
BRANCH  36  37
ATOM     37  O   UNL     1      10.178   0.517   3.246  1.00  0.00    -0.460 OA
BRANCH  37  38
ATOM     38  C   UNL     1      10.574   1.761   3.596  1.00  0.00     0.338 C 
ATOM     39  O   UNL     1      11.452   2.067   4.379  1.00  0.00    -0.246 OA
BRANCH  38  40
ATOM     40  C   UNL     1       9.858   2.708   2.715  1.00  0.00     0.060 A 
ATOM     41  C   UNL     1      10.588   3.528   1.844  1.00  0.00     0.016 A 
ATOM     42  C   UNL     1       8.463   2.764   2.740  1.00  0.00     0.016 A 
ATOM     43  C   UNL     1       9.921   4.427   1.009  1.00  0.00     0.010 A 
ATOM     44  C   UNL     1       7.799   3.679   1.923  1.00  0.00     0.010 A 
ATOM     45  C   UNL     1       8.525   4.535   1.076  1.00  0.00    -0.014 A 
BRANCH  45  46
ATOM     46  C   UNL     1       7.832   5.672   0.423  1.00  0.00     0.031 A 
ATOM     47  C   UNL     1       7.486   6.866   1.268  1.00  0.00     0.074 A 
ATOM     48  C   UNL     1       7.513   5.649  -0.882  1.00  0.00     0.049 A 
ATOM     49  N   UNL     1       6.798   7.936   0.962  1.00  0.00    -0.248 NA
ATOM     50  C   UNL     1       7.982   6.845   2.655  1.00  0.00     0.031 C 
ATOM     51  C   UNL     1       7.839   4.574  -1.815  1.00  0.00     0.029 A 
ATOM     52  N   UNL     1       6.826   6.562  -1.644  1.00  0.00    -0.354 N 
ATOM     53  C   UNL     1       6.776   8.710   2.115  1.00  0.00     0.074 A 
ATOM     54  C   UNL     1       7.484   7.973   3.138  1.00  0.00     0.031 C 
ATOM     55  C   UNL     1       7.339   4.883  -3.026  1.00  0.00     0.029 A 
ATOM     56  C   UNL     1       6.624   6.156  -2.941  1.00  0.00     0.049 A 
ATOM     57  H   UNL     1       6.508   7.426  -1.294  1.00  0.00     0.167 HD
ATOM     58  C   UNL     1       6.223   9.932   2.300  1.00  0.00     0.037 A 
ATOM     59  C   UNL     1       5.918   6.737  -3.931  1.00  0.00     0.037 A 
ATOM     60  C   UNL     1       5.510  10.656   1.282  1.00  0.00     0.049 A 
ATOM     61  C   UNL     1       5.221   8.051  -3.668  1.00  0.00     0.074 A 
ATOM     62  C   UNL     1       4.909  11.899   1.369  1.00  0.00     0.029 A 
ATOM     63  N   UNL     1       5.296  10.197  -0.009  1.00  0.00    -0.354 N 
ATOM     64  N   UNL     1       5.214   8.786  -2.582  1.00  0.00    -0.248 NA
ATOM     65  C   UNL     1       4.432   8.616  -4.773  1.00  0.00     0.031 C 
ATOM     66  C   UNL     1       4.282  12.166   0.148  1.00  0.00     0.029 A 
ATOM     67  C   UNL     1       4.550  11.121  -0.721  1.00  0.00     0.049 A 
ATOM     68  H   UNL     1       5.626   9.341  -0.366  1.00  0.00     0.167 HD
ATOM     69  C   UNL     1       4.460   9.914  -2.885  1.00  0.00     0.074 A 
ATOM     70  C   UNL     1       4.032   9.771  -4.261  1.00  0.00     0.031 C 
ATOM     71  C   UNL     1       4.151  10.974  -2.098  1.00  0.00     0.037 A 
BRANCH  58  72
ATOM     72  C   UNL     1       6.346  10.548   3.663  1.00  0.00     0.064 A 
ATOM     73  C   UNL     1       7.577  11.003   4.159  1.00  0.00     0.173 A 
ATOM     74  C   UNL     1       5.213  10.712   4.474  1.00  0.00     0.173 A 
ATOM     75  F   UNL     1       8.695  10.855   3.431  1.00  0.00    -0.203 F 
ATOM     76  C   UNL     1       7.673  11.575   5.425  1.00  0.00     0.198 A 
ATOM     77  C   UNL     1       5.307  11.315   5.725  1.00  0.00     0.198 A 
ATOM     78  F   UNL     1       4.010  10.296   4.048  1.00  0.00    -0.203 F 
ATOM     79  F   UNL     1       8.869  11.955   5.897  1.00  0.00    -0.200 F 
ATOM     80  C   UNL     1       6.537  11.738   6.203  1.00  0.00     0.200 A 
ATOM     81  F   UNL     1       4.205  11.484   6.470  1.00  0.00    -0.200 F 
ATOM     82  F   UNL     1       6.630  12.297   7.417  1.00  0.00    -0.200 F 
ENDBRANCH  58  72
BRANCH  59  83
ATOM     83  C   UNL     1       5.810   6.082  -5.263  1.00  0.00     0.064 A 
ATOM     84  C   UNL     1       6.365   6.676  -6.407  1.00  0.00     0.173 A 
ATOM     85  C   UNL     1       5.111   4.878  -5.431  1.00  0.00     0.173 A 
ATOM     86  F   UNL     1       7.018   7.843  -6.305  1.00  0.00    -0.203 F 
ATOM     87  C   UNL     1       6.199   6.106  -7.668  1.00  0.00     0.198 A 
ATOM     88  C   UNL     1       4.975   4.292  -6.688  1.00  0.00     0.198 A 
ATOM     89  F   UNL     1       4.554   4.271  -4.373  1.00  0.00    -0.203 F 
ATOM     90  F   UNL     1       6.685   6.729  -8.751  1.00  0.00    -0.200 F 
ATOM     91  C   UNL     1       5.509   4.912  -7.807  1.00  0.00     0.200 A 
ATOM     92  F   UNL     1       4.314   3.133  -6.816  1.00  0.00    -0.200 F 
ATOM     93  F   UNL     1       5.345   4.367  -9.021  1.00  0.00    -0.200 F 
ENDBRANCH  59  83
BRANCH  71  94
ATOM     94  C   UNL     1       3.361  12.094  -2.715  1.00  0.00     0.064 A 
ATOM     95  C   UNL     1       2.006  11.952  -3.049  1.00  0.00     0.173 A 
ATOM     96  C   UNL     1       3.959  13.348  -2.923  1.00  0.00     0.173 A 
ATOM     97  F   UNL     1       1.390  10.772  -2.881  1.00  0.00    -0.203 F 
ATOM     98  C   UNL     1       1.287  13.014  -3.591  1.00  0.00     0.198 A 
ATOM     99  C   UNL     1       3.228  14.417  -3.432  1.00  0.00     0.198 A 
ATOM    100  F   UNL     1       5.249  13.541  -2.611  1.00  0.00    -0.203 F 
ATOM    101  F   UNL     1       0.007  12.841  -3.948  1.00  0.00    -0.200 F 
ATOM    102  C   UNL     1       1.895  14.247  -3.774  1.00  0.00     0.200 A 
ATOM    103  F   UNL     1       3.813  15.612  -3.590  1.00  0.00    -0.200 F 
ATOM    104  F   UNL     1       1.198  15.271  -4.284  1.00  0.00    -0.200 F 
ENDBRANCH  71  94
ENDBRANCH  45  46
ENDBRANCH  38  40
ENDBRANCH  37  38
ENDBRANCH  36  37
ENDBRANCH  35  36
ENDBRANCH  34  35
ENDBRANCH  33  34
ENDBRANCH  32  33
ENDBRANCH  31  32
ENDBRANCH   1  31
TORSDOF 23
