REMARK SMILES CN(C(=O)C[C@@H]1SC(=O)N(c2ccccc2)C1=O)c1ccccc1C(=O)OCCOCCOCCOCCOC(=O)c1ccc(-c2c3nc(c(-c4c(F)c(F)c(F)c(F)c4F)c4ccc([nH]4)c(-c4c(F)c(F)c(F)c(F)c4F)c4nc(c(-c5c(F)c(F)c(F)c(F)c5F)c5ccc2[nH]5)C=C4)C=C3)cc1
REMARK SMILES IDX 31 1 30 2 29 3 28 4 27 5 25 6 26 7 24 8 19 9 20 10 21 11
REMARK SMILES IDX 23 12 22 13 2 14 1 15 3 16 4 17 5 18 6 19 7 20 17 21 8 22
REMARK SMILES IDX 10 23 18 24 9 25 11 26 12 27 16 28 13 29 15 30 14 31 32 32
REMARK SMILES IDX 33 33 34 34 35 35 36 36 37 37 38 38 39 39 40 40 41 41 42 42
REMARK SMILES IDX 43 43 104 44 44 45 103 46 45 47 46 48 47 49 97 50 48 51
REMARK SMILES IDX 102 52 96 53 98 54 49 55 101 56 95 57 94 58 50 60 82 61
REMARK SMILES IDX 62 62 81 63 63 64 66 65 80 66 99 67 64 68 65 69 79 71 100 72
REMARK SMILES IDX 67 73 51 74 52 75 60 76 53 77 54 78 58 79 61 80 55 81 56 82
REMARK SMILES IDX 59 83 57 84 83 85 84 86 92 87 85 88 86 89 90 90 93 91 87 92
REMARK SMILES IDX 88 93 91 94 89 95 68 96 69 97 77 98 70 99 71 100 75 101
REMARK SMILES IDX 78 102 72 103 73 104 76 105 74 106
REMARK H PARENT 98 59 66 70
REMARK Flexibility Score: inf
ROOT
ATOM      1  C   UNL     1       4.908  -1.772   1.470  1.00  0.00     0.188 C 
ENDROOT
BRANCH   1   2
ATOM      2  O   UNL     1       5.746  -1.177   0.484  1.00  0.00    -0.376 OA
BRANCH   2   3
ATOM      3  C   UNL     1       5.209  -0.369  -0.556  1.00  0.00     0.202 C 
BRANCH   3   4
ATOM      4  C   UNL     1       3.864  -0.674  -1.238  1.00  0.00     0.261 C 
BRANCH   4   5
ATOM      5  O   UNL     1       2.822  -1.127  -0.364  1.00  0.00    -0.460 OA
BRANCH   5   6
ATOM      6  C   UNL     1       2.310  -2.350  -0.609  1.00  0.00     0.340 C 
ATOM      7  O   UNL     1       2.614  -3.083  -1.536  1.00  0.00    -0.246 OA
BRANCH   6   8
ATOM      8  C   UNL     1       1.469  -2.806   0.527  1.00  0.00     0.083 A 
ATOM      9  C   UNL     1       0.343  -2.161   1.105  1.00  0.00     0.058 A 
ATOM     10  C   UNL     1      -0.275  -2.872   2.160  1.00  0.00     0.027 A 
ATOM     11  C   UNL     1       0.224  -4.073   2.685  1.00  0.00     0.002 A 
ATOM     12  C   UNL     1       1.977  -4.012   1.081  1.00  0.00     0.018 A 
ATOM     13  C   UNL     1       1.378  -4.627   2.170  1.00  0.00     0.001 A 
BRANCH   9  14
ATOM     14  N   UNL     1      -0.167  -0.839   0.747  1.00  0.00    -0.315 N 
ATOM     15  C   UNL     1       0.131  -0.266  -0.556  1.00  0.00     0.153 C 
BRANCH  14  16
ATOM     16  C   UNL     1      -0.979  -0.081   1.620  1.00  0.00     0.228 C 
ATOM     17  O   UNL     1      -1.813  -0.536   2.403  1.00  0.00    -0.274 OA
BRANCH  16  18
ATOM     18  C   UNL     1      -0.738   1.430   1.645  1.00  0.00     0.125 C 
BRANCH  18  19
ATOM     19  C   UNL     1       0.654   1.782   2.181  1.00  0.00     0.156 C 
ATOM     20  S   UNL     1       0.922   1.224   3.870  1.00  0.00    -0.050 SA
ATOM     21  C   UNL     1       0.919   3.283   2.246  1.00  0.00     0.248 C 
ATOM     22  C   UNL     1       1.242   2.864   4.402  1.00  0.00     0.293 C 
ATOM     23  N   UNL     1       1.683   3.650   3.350  1.00  0.00    -0.240 N 
ATOM     24  O   UNL     1       0.422   4.016   1.398  1.00  0.00    -0.273 OA
ATOM     25  O   UNL     1       0.934   3.176   5.540  1.00  0.00    -0.261 OA
BRANCH  23  26
ATOM     26  C   UNL     1       2.058   5.118   3.607  1.00  0.00     0.053 A 
ATOM     27  C   UNL     1       0.484   6.021   3.623  1.00  0.00     0.027 A 
ATOM     28  C   UNL     1       3.687   6.166   4.215  1.00  0.00     0.027 A 
ATOM     29  C   UNL     1       0.453   7.686   4.191  1.00  0.00     0.002 A 
ATOM     30  C   UNL     1       3.492   7.850   4.795  1.00  0.00     0.002 A 
ATOM     31  C   UNL     1       1.887   8.545   4.774  1.00  0.00     0.000 A 
ENDBRANCH  23  26
ENDBRANCH  18  19
ENDBRANCH  16  18
ENDBRANCH  14  16
ENDBRANCH   9  14
ENDBRANCH   6   8
ENDBRANCH   5   6
ENDBRANCH   4   5
ENDBRANCH   3   4
ENDBRANCH   2   3
ENDBRANCH   1   2
BRANCH   1  32
ATOM     32  C   UNL     1       3.896  -0.912   2.253  1.00  0.00     0.188 C 
BRANCH  32  33
ATOM     33  O   UNL     1       3.624   0.324   1.619  1.00  0.00    -0.377 OA
BRANCH  33  34
ATOM     34  C   UNL     1       4.335   1.448   2.100  1.00  0.00     0.188 C 
BRANCH  34  35
ATOM     35  C   UNL     1       5.822   1.325   2.490  1.00  0.00     0.188 C 
BRANCH  35  36
ATOM     36  O   UNL     1       6.099   0.160   3.243  1.00  0.00    -0.376 OA
BRANCH  36  37
ATOM     37  C   UNL     1       6.285   0.237   4.642  1.00  0.00     0.202 C 
BRANCH  37  38
ATOM     38  C   UNL     1       5.172   0.780   5.557  1.00  0.00     0.261 C 
BRANCH  38  39
ATOM     39  O   UNL     1       4.372   1.852   5.052  1.00  0.00    -0.460 OA
BRANCH  39  40
ATOM     40  C   UNL     1       4.900   3.083   5.140  1.00  0.00     0.338 C 
ATOM     41  O   UNL     1       6.014   3.399   5.511  1.00  0.00    -0.246 OA
BRANCH  40  42
ATOM     42  C   UNL     1       3.937   4.026   4.562  1.00  0.00     0.060 A 
ATOM     43  C   UNL     1       4.208   4.508   2.876  1.00  0.00     0.016 A 
ATOM     44  C   UNL     1       2.881   4.902   5.658  1.00  0.00     0.016 A 
ATOM     45  C   UNL     1       3.488   5.916   2.140  1.00  0.00     0.010 A 
ATOM     46  C   UNL     1       2.026   6.359   5.022  1.00  0.00     0.010 A 
ATOM     47  C   UNL     1       2.373   6.955   3.113  1.00  0.00    -0.014 A 
BRANCH  47  48
ATOM     48  C   UNL     1       1.966   8.086   2.052  1.00  0.00     0.031 A 
ATOM     49  C   UNL     1       2.402   9.508   2.203  1.00  0.00     0.074 A 
ATOM     50  C   UNL     1       1.348   7.841   0.876  1.00  0.00     0.049 A 
ATOM     51  N   UNL     1       1.697  10.597   2.073  1.00  0.00    -0.248 NA
ATOM     52  C   UNL     1       3.779   9.733   2.648  1.00  0.00     0.031 C 
ATOM     53  C   UNL     1       1.155   6.546   0.252  1.00  0.00     0.029 A 
ATOM     54  N   UNL     1       0.741   8.708  -0.006  1.00  0.00    -0.354 N 
ATOM     55  C   UNL     1       2.439  11.581   2.715  1.00  0.00     0.074 A 
ATOM     56  C   UNL     1       3.679  10.965   3.132  1.00  0.00     0.031 C 
ATOM     57  C   UNL     1       0.407   6.668  -0.852  1.00  0.00     0.029 A 
ATOM     58  C   UNL     1       0.009   8.057  -0.973  1.00  0.00     0.049 A 
ATOM     59  H   UNL     1       0.822   9.687   0.050  1.00  0.00     0.167 HD
ATOM     60  C   UNL     1       2.012  12.840   2.974  1.00  0.00     0.037 A 
ATOM     61  C   UNL     1      -0.942   8.519  -1.804  1.00  0.00     0.037 A 
ATOM     62  C   UNL     1       0.948  13.432   2.197  1.00  0.00     0.049 A 
ATOM     63  C   UNL     1      -1.300   9.972  -1.710  1.00  0.00     0.074 A 
ATOM     64  C   UNL     1       0.490  14.735   2.187  1.00  0.00     0.029 A 
ATOM     65  N   UNL     1       0.250  12.755   1.200  1.00  0.00    -0.354 N 
ATOM     66  N   UNL     1      -0.860  10.874  -0.864  1.00  0.00    -0.248 NA
ATOM     67  C   UNL     1      -2.283  10.476  -2.673  1.00  0.00     0.031 C 
ATOM     68  C   UNL     1      -0.478  14.845   1.179  1.00  0.00     0.029 A 
ATOM     69  C   UNL     1      -0.598  13.620   0.536  1.00  0.00     0.049 A 
ATOM     70  H   UNL     1       0.347  11.796   0.997  1.00  0.00     0.167 HD
ATOM     71  C   UNL     1      -1.501  12.057  -1.195  1.00  0.00     0.074 A 
ATOM     72  C   UNL     1      -2.343  11.758  -2.340  1.00  0.00     0.031 C 
ATOM     73  C   UNL     1      -1.410  13.277  -0.607  1.00  0.00     0.037 A 
BRANCH  60  74
ATOM     74  C   UNL     1       2.600  13.585   4.146  1.00  0.00     0.064 A 
ATOM     75  C   UNL     1       3.960  13.884   4.298  1.00  0.00     0.173 A 
ATOM     76  C   UNL     1       1.745  13.977   5.198  1.00  0.00     0.173 A 
ATOM     77  F   UNL     1       4.833  13.601   3.320  1.00  0.00    -0.203 F 
ATOM     78  C   UNL     1       4.453  14.446   5.478  1.00  0.00     0.198 A 
ATOM     79  C   UNL     1       2.230  14.601   6.346  1.00  0.00     0.198 A 
ATOM     80  F   UNL     1       0.425  13.746   5.123  1.00  0.00    -0.203 F 
ATOM     81  F   UNL     1       5.774  14.613   5.633  1.00  0.00    -0.200 F 
ATOM     82  C   UNL     1       3.589  14.808   6.498  1.00  0.00     0.200 A 
ATOM     83  F   UNL     1       1.382  14.982   7.312  1.00  0.00    -0.200 F 
ATOM     84  F   UNL     1       4.066  15.350   7.627  1.00  0.00    -0.200 F 
ENDBRANCH  60  74
BRANCH  61  85
ATOM     85  C   UNL     1      -1.630   7.583  -2.734  1.00  0.00     0.064 A 
ATOM     86  C   UNL     1      -1.393   7.635  -4.114  1.00  0.00     0.173 A 
ATOM     87  C   UNL     1      -2.483   6.571  -2.261  1.00  0.00     0.173 A 
ATOM     88  F   UNL     1      -0.597   8.589  -4.619  1.00  0.00    -0.203 F 
ATOM     89  C   UNL     1      -1.981   6.717  -4.983  1.00  0.00     0.198 A 
ATOM     90  C   UNL     1      -3.046   5.635  -3.128  1.00  0.00     0.198 A 
ATOM     91  F   UNL     1      -2.740   6.467  -0.949  1.00  0.00    -0.203 F 
ATOM     92  F   UNL     1      -1.752   6.805  -6.301  1.00  0.00    -0.200 F 
ATOM     93  C   UNL     1      -2.797   5.711  -4.489  1.00  0.00     0.200 A 
ATOM     94  F   UNL     1      -3.815   4.650  -2.643  1.00  0.00    -0.200 F 
ATOM     95  F   UNL     1      -3.340   4.814  -5.323  1.00  0.00    -0.200 F 
ENDBRANCH  61  85
BRANCH  73  96
ATOM     96  C   UNL     1      -2.212  14.380  -1.225  1.00  0.00     0.064 A 
ATOM     97  C   UNL     1      -3.605  14.440  -1.086  1.00  0.00     0.173 A 
ATOM     98  C   UNL     1      -1.567  15.416  -1.917  1.00  0.00     0.173 A 
ATOM     99  F   UNL     1      -4.263  13.460  -0.448  1.00  0.00    -0.203 F 
ATOM    100  C   UNL     1      -4.329  15.492  -1.636  1.00  0.00     0.198 A 
ATOM    101  C   UNL     1      -2.291  16.483  -2.436  1.00  0.00     0.198 A 
ATOM    102  F   UNL     1      -0.235  15.400  -2.071  1.00  0.00    -0.203 F 
ATOM    103  F   UNL     1      -5.664  15.509  -1.532  1.00  0.00    -0.200 F 
ATOM    104  C   UNL     1      -3.671  16.517  -2.300  1.00  0.00     0.200 A 
ATOM    105  F   UNL     1      -1.653  17.480  -3.064  1.00  0.00    -0.200 F 
ATOM    106  F   UNL     1      -4.369  17.538  -2.816  1.00  0.00    -0.200 F 
ENDBRANCH  73  96
ENDBRANCH  47  48
ENDBRANCH  40  42
ENDBRANCH  39  40
ENDBRANCH  38  39
ENDBRANCH  37  38
ENDBRANCH  36  37
ENDBRANCH  35  36
ENDBRANCH  34  35
ENDBRANCH  33  34
ENDBRANCH  32  33
ENDBRANCH   1  32
TORSDOF 25
