REMARK SMILES Cc1cc2c(=O)cc(-c3ccc(F)cc3)oc2c(C(=O)OCCOCCOCCOCCOC(=O)c2ccc(-c3c4nc(c(-c5c(F)c(F)c(F)c(F)c5F)c5ccc([nH]5)c(-c5c(F)c(F)c(F)c(F)c5F)c5nc(c(-c6c(F)c(F)c(F)c(F)c6F)c6ccc3[nH]6)C=C5)C=C4)cc2)c1C
REMARK SMILES IDX 28 1 27 2 26 3 25 4 24 5 23 6 22 7 21 8 19 9 20 10 18 11
REMARK SMILES IDX 1 12 2 13 3 14 99 15 4 16 100 17 5 18 17 19 6 20 7 21 16 22
REMARK SMILES IDX 8 23 9 24 10 25 15 26 11 27 14 28 12 29 13 30 29 31 30 32
REMARK SMILES IDX 31 33 32 34 33 35 34 36 35 37 36 38 37 39 98 40 38 41 97 42
REMARK SMILES IDX 39 43 40 44 41 45 91 46 42 47 96 48 90 49 92 50 43 51 95 52
REMARK SMILES IDX 89 53 88 54 44 56 76 57 56 58 75 59 57 60 60 61 74 62 93 63
REMARK SMILES IDX 58 64 59 65 73 67 94 68 61 69 45 70 46 71 54 72 47 73 48 74
REMARK SMILES IDX 52 75 55 76 49 77 50 78 53 79 51 80 77 81 78 82 86 83 79 84
REMARK SMILES IDX 80 85 84 86 87 87 81 88 82 89 85 90 83 91 62 92 63 93 71 94
REMARK SMILES IDX 64 95 65 96 69 97 72 98 66 99 67 100 70 101 68 102
REMARK H PARENT 92 55 60 66
REMARK Flexibility Score: inf
ROOT
ATOM      1  C   UNL     1      -0.808   6.833  -1.034  1.00  0.00     0.188 C 
ENDROOT
BRANCH   1   2
ATOM      2  O   UNL     1      -0.992   5.516  -0.542  1.00  0.00    -0.377 OA
BRANCH   2   3
ATOM      3  C   UNL     1      -1.080   5.294   0.859  1.00  0.00     0.188 C 
BRANCH   3   4
ATOM      4  C   UNL     1      -0.481   6.276   1.894  1.00  0.00     0.188 C 
BRANCH   4   5
ATOM      5  O   UNL     1       0.375   7.284   1.367  1.00  0.00    -0.376 OA
BRANCH   5   6
ATOM      6  C   UNL     1       1.735   7.219   1.775  1.00  0.00     0.202 C 
BRANCH   6   7
ATOM      7  C   UNL     1       2.529   6.184   0.984  1.00  0.00     0.261 C 
BRANCH   7   8
ATOM      8  O   UNL     1       1.941   4.878   1.052  1.00  0.00    -0.460 OA
BRANCH   8   9
ATOM      9  C   UNL     1       2.137   4.174   2.188  1.00  0.00     0.342 C 
ATOM     10  O   UNL     1       2.772   4.543   3.160  1.00  0.00    -0.246 OA
BRANCH   9  11
ATOM     11  C   UNL     1       1.373   2.899   2.105  1.00  0.00     0.106 A 
ATOM     12  C   UNL     1       0.845  -0.170  -0.163  1.00  0.00     0.044 C 
ATOM     13  C   UNL     1       0.789   0.800   0.988  1.00  0.00    -0.046 A 
ATOM     14  C   UNL     1       0.018   0.453   2.105  1.00  0.00     0.019 A 
ATOM     15  C   UNL     1       1.460   2.046   0.966  1.00  0.00    -0.030 A 
ATOM     16  C   UNL     1      -0.124   1.337   3.175  1.00  0.00     0.066 A 
ATOM     17  C   UNL     1       2.163   2.500  -0.294  1.00  0.00     0.046 C 
ATOM     18  C   UNL     1      -1.024   0.983   4.283  1.00  0.00     0.193 A 
ATOM     19  C   UNL     1       0.536   2.564   3.188  1.00  0.00     0.153 A 
ATOM     20  O   UNL     1      -1.569  -0.109   4.366  1.00  0.00    -0.289 OA
ATOM     21  C   UNL     1      -1.275   2.027   5.278  1.00  0.00     0.100 A 
ATOM     22  O   UNL     1       0.319   3.486   4.194  1.00  0.00    -0.455 OA
ATOM     23  C   UNL     1      -0.616   3.187   5.173  1.00  0.00     0.138 A 
BRANCH  23  24
ATOM     24  C   UNL     1      -0.901   4.253   6.144  1.00  0.00     0.018 A 
ATOM     25  C   UNL     1      -1.649   5.379   5.769  1.00  0.00     0.015 A 
ATOM     26  C   UNL     1      -0.517   4.102   7.487  1.00  0.00     0.015 A 
ATOM     27  C   UNL     1      -2.017   6.331   6.726  1.00  0.00     0.040 A 
ATOM     28  C   UNL     1      -0.886   5.054   8.440  1.00  0.00     0.040 A 
ATOM     29  C   UNL     1      -1.636   6.157   8.051  1.00  0.00     0.123 A 
ATOM     30  F   UNL     1      -2.008   7.058   8.970  1.00  0.00    -0.207 F 
ENDBRANCH  23  24
ENDBRANCH   9  11
ENDBRANCH   8   9
ENDBRANCH   7   8
ENDBRANCH   6   7
ENDBRANCH   5   6
ENDBRANCH   4   5
ENDBRANCH   3   4
ENDBRANCH   2   3
ENDBRANCH   1   2
BRANCH   1  31
ATOM     31  C   UNL     1      -1.718   7.949  -0.489  1.00  0.00     0.188 C 
BRANCH  31  32
ATOM     32  O   UNL     1      -2.683   7.494   0.452  1.00  0.00    -0.376 OA
BRANCH  32  33
ATOM     33  C   UNL     1      -4.030   7.457   0.003  1.00  0.00     0.202 C 
BRANCH  33  34
ATOM     34  C   UNL     1      -4.348   6.375  -1.036  1.00  0.00     0.261 C 
BRANCH  34  35
ATOM     35  O   UNL     1      -3.610   6.452  -2.266  1.00  0.00    -0.460 OA
BRANCH  35  36
ATOM     36  C   UNL     1      -3.751   7.557  -3.030  1.00  0.00     0.338 C 
ATOM     37  O   UNL     1      -4.454   8.527  -2.813  1.00  0.00    -0.246 OA
BRANCH  36  38
ATOM     38  C   UNL     1      -2.739   7.462  -4.102  1.00  0.00     0.060 A 
ATOM     39  C   UNL     1      -2.674   6.317  -4.900  1.00  0.00     0.016 A 
ATOM     40  C   UNL     1      -1.812   8.499  -4.271  1.00  0.00     0.016 A 
ATOM     41  C   UNL     1      -1.692   6.218  -5.885  1.00  0.00     0.010 A 
ATOM     42  C   UNL     1      -0.821   8.393  -5.251  1.00  0.00     0.010 A 
ATOM     43  C   UNL     1      -0.770   7.261  -6.079  1.00  0.00    -0.014 A 
BRANCH  43  44
ATOM     44  C   UNL     1       0.106   7.240  -7.273  1.00  0.00     0.031 A 
ATOM     45  C   UNL     1       1.538   6.808  -7.212  1.00  0.00     0.074 A 
ATOM     46  C   UNL     1      -0.439   7.618  -8.444  1.00  0.00     0.049 A 
ATOM     47  N   UNL     1       2.387   6.647  -8.197  1.00  0.00    -0.248 NA
ATOM     48  C   UNL     1       2.095   6.525  -5.883  1.00  0.00     0.031 C 
ATOM     49  C   UNL     1      -1.817   8.083  -8.610  1.00  0.00     0.029 A 
ATOM     50  N   UNL     1       0.085   7.663  -9.710  1.00  0.00    -0.354 N 
ATOM     51  C   UNL     1       3.571   6.221  -7.614  1.00  0.00     0.074 A 
ATOM     52  C   UNL     1       3.346   6.192  -6.182  1.00  0.00     0.031 C 
ATOM     53  C   UNL     1      -2.037   8.346  -9.906  1.00  0.00     0.029 A 
ATOM     54  C   UNL     1      -0.813   8.086 -10.657  1.00  0.00     0.049 A 
ATOM     55  H   UNL     1       1.015   7.417  -9.919  1.00  0.00     0.167 HD
ATOM     56  C   UNL     1       4.729   5.871  -8.227  1.00  0.00     0.037 A 
ATOM     57  C   UNL     1      -0.671   8.240 -11.986  1.00  0.00     0.037 A 
ATOM     58  C   UNL     1       4.945   5.919  -9.653  1.00  0.00     0.049 A 
ATOM     59  C   UNL     1       0.636   7.883 -12.631  1.00  0.00     0.074 A 
ATOM     60  C   UNL     1       6.069   5.539 -10.368  1.00  0.00     0.029 A 
ATOM     61  N   UNL     1       4.027   6.390 -10.581  1.00  0.00    -0.354 N 
ATOM     62  N   UNL     1       1.722   7.397 -12.081  1.00  0.00    -0.248 NA
ATOM     63  C   UNL     1       0.736   8.084 -14.083  1.00  0.00     0.031 C 
ATOM     64  C   UNL     1       5.852   5.828 -11.718  1.00  0.00     0.029 A 
ATOM     65  C   UNL     1       4.572   6.339 -11.856  1.00  0.00     0.049 A 
ATOM     66  H   UNL     1       3.121   6.712 -10.367  1.00  0.00     0.167 HD
ATOM     67  C   UNL     1       2.627   7.218 -13.117  1.00  0.00     0.074 A 
ATOM     68  C   UNL     1       1.956   7.627 -14.333  1.00  0.00     0.031 C 
ATOM     69  C   UNL     1       3.899   6.756 -13.061  1.00  0.00     0.037 A 
BRANCH  56  70
ATOM     70  C   UNL     1       5.863   5.384  -7.373  1.00  0.00     0.064 A 
ATOM     71  C   UNL     1       5.832   4.114  -6.779  1.00  0.00     0.173 A 
ATOM     72  C   UNL     1       7.038   6.140  -7.242  1.00  0.00     0.173 A 
ATOM     73  F   UNL     1       4.732   3.351  -6.874  1.00  0.00    -0.203 F 
ATOM     74  C   UNL     1       6.932   3.622  -6.080  1.00  0.00     0.198 A 
ATOM     75  C   UNL     1       8.145   5.635  -6.563  1.00  0.00     0.198 A 
ATOM     76  F   UNL     1       7.126   7.356  -7.802  1.00  0.00    -0.203 F 
ATOM     77  F   UNL     1       6.872   2.412  -5.505  1.00  0.00    -0.200 F 
ATOM     78  C   UNL     1       8.090   4.378  -5.982  1.00  0.00     0.200 A 
ATOM     79  F   UNL     1       9.269   6.360  -6.484  1.00  0.00    -0.200 F 
ATOM     80  F   UNL     1       9.155   3.893  -5.329  1.00  0.00    -0.200 F 
ENDBRANCH  56  70
BRANCH  57  81
ATOM     81  C   UNL     1      -1.823   8.720 -12.791  1.00  0.00     0.064 A 
ATOM     82  C   UNL     1      -2.497   7.857 -13.664  1.00  0.00     0.173 A 
ATOM     83  C   UNL     1      -2.292  10.036 -12.677  1.00  0.00     0.173 A 
ATOM     84  F   UNL     1      -2.074   6.593 -13.816  1.00  0.00    -0.203 F 
ATOM     85  C   UNL     1      -3.593   8.296 -14.402  1.00  0.00     0.198 A 
ATOM     86  C   UNL     1      -3.405  10.466 -13.395  1.00  0.00     0.198 A 
ATOM     87  F   UNL     1      -1.685  10.897 -11.847  1.00  0.00    -0.203 F 
ATOM     88  F   UNL     1      -4.202   7.460 -15.254  1.00  0.00    -0.200 F 
ATOM     89  C   UNL     1      -4.051   9.597 -14.261  1.00  0.00     0.200 A 
ATOM     90  F   UNL     1      -3.855  11.719 -13.242  1.00  0.00    -0.200 F 
ATOM     91  F   UNL     1      -5.114  10.015 -14.962  1.00  0.00    -0.200 F 
ENDBRANCH  57  81
BRANCH  69  92
ATOM     92  C   UNL     1       4.657   6.662 -14.353  1.00  0.00     0.064 A 
ATOM     93  C   UNL     1       5.117   7.810 -15.016  1.00  0.00     0.173 A 
ATOM     94  C   UNL     1       4.977   5.412 -14.905  1.00  0.00     0.173 A 
ATOM     95  F   UNL     1       4.824   9.028 -14.538  1.00  0.00    -0.203 F 
ATOM     96  C   UNL     1       5.856   7.709 -16.192  1.00  0.00     0.198 A 
ATOM     97  C   UNL     1       5.741   5.315 -16.065  1.00  0.00     0.198 A 
ATOM     98  F   UNL     1       4.566   4.284 -14.307  1.00  0.00    -0.203 F 
ATOM     99  F   UNL     1       6.253   8.820 -16.828  1.00  0.00    -0.200 F 
ATOM    100  C   UNL     1       6.176   6.463 -16.710  1.00  0.00     0.200 A 
ATOM    101  F   UNL     1       6.061   4.110 -16.556  1.00  0.00    -0.200 F 
ATOM    102  F   UNL     1       6.900   6.369 -17.834  1.00  0.00    -0.200 F 
ENDBRANCH  69  92
ENDBRANCH  43  44
ENDBRANCH  36  38
ENDBRANCH  35  36
ENDBRANCH  34  35
ENDBRANCH  33  34
ENDBRANCH  32  33
ENDBRANCH  31  32
ENDBRANCH   1  31
TORSDOF 21
