REMARK SMILES CCc1ccnc(C(=O)c2[nH]c3ccc(OC(F)(F)F)cc3c2CC(=O)OCCOCCOCCOCCOC(=O)c2ccc(-c3c4nc(c(-c5c(F)c(F)c(F)c(F)c5F)c5ccc([nH]5)c(-c5c(F)c(F)c(F)c(F)c5F)c5nc(c(-c6c(F)c(F)c(F)c(F)c6F)c6ccc3[nH]6)C=C5)C=C4)cc2)c1
REMARK SMILES IDX 32 1 31 2 30 3 29 4 28 5 27 6 25 7 26 8 24 9 23 10 10 11
REMARK SMILES IDX 11 12 12 13 22 15 13 16 21 17 14 18 15 19 8 20 9 21 7 22
REMARK SMILES IDX 3 23 4 24 105 25 5 26 6 27 2 28 1 29 16 30 17 31 18 32 19 33
REMARK SMILES IDX 20 34 33 35 34 36 35 37 36 38 37 39 38 40 39 41 40 42 41 43
REMARK SMILES IDX 42 44 43 45 104 46 44 47 103 48 45 49 46 50 47 51 97 52
REMARK SMILES IDX 48 53 102 54 96 55 98 56 49 57 101 58 95 59 94 60 50 62
REMARK SMILES IDX 82 63 62 64 81 65 63 66 66 67 80 68 99 69 64 70 65 71 79 73
REMARK SMILES IDX 100 74 67 75 51 76 52 77 60 78 53 79 54 80 58 81 61 82 55 83
REMARK SMILES IDX 56 84 59 85 57 86 83 87 84 88 92 89 85 90 86 91 90 92 93 93
REMARK SMILES IDX 87 94 88 95 91 96 89 97 68 98 69 99 77 100 70 101 71 102
REMARK SMILES IDX 75 103 78 104 72 105 73 106 76 107 74 108
REMARK H PARENT 11 14 98 61 66 72
REMARK Flexibility Score: inf
ROOT
ATOM      1  C   UNL     1      -0.011   8.331   0.755  1.00  0.00     0.188 C 
ENDROOT
BRANCH   1   2
ATOM      2  C   UNL     1      -0.276   9.368  -0.336  1.00  0.00     0.188 C 
BRANCH   2   3
ATOM      3  O   UNL     1      -0.215  10.732   0.030  1.00  0.00    -0.376 OA
BRANCH   3   4
ATOM      4  C   UNL     1      -1.126  11.175   1.033  1.00  0.00     0.202 C 
BRANCH   4   5
ATOM      5  C   UNL     1      -2.576  10.643   1.048  1.00  0.00     0.261 C 
BRANCH   5   6
ATOM      6  O   UNL     1      -2.723   9.219   1.316  1.00  0.00    -0.463 OA
BRANCH   6   7
ATOM      7  C   UNL     1      -3.587   8.546   0.515  1.00  0.00     0.310 C 
ATOM      8  O   UNL     1      -4.255   9.107  -0.356  1.00  0.00    -0.252 OA
BRANCH   7   9
ATOM      9  C   UNL     1      -3.705   7.041   0.687  1.00  0.00     0.161 C 
BRANCH   9  10
ATOM     10  C   UNL     1      -3.023   6.283   1.807  1.00  0.00     0.000 A 
ATOM     11  C   UNL     1      -1.859   5.496   1.737  1.00  0.00     0.093 A 
ATOM     12  N   UNL     1      -1.610   5.063   3.026  1.00  0.00    -0.352 N 
ATOM     13  C   UNL     1      -2.760   5.144   3.776  1.00  0.00     0.046 A 
ATOM     14  H   UNL     1      -0.740   4.745   3.357  1.00  0.00     0.167 HD
ATOM     15  C   UNL     1      -3.655   5.920   3.047  1.00  0.00     0.008 A 
ATOM     16  C   UNL     1      -3.084   4.572   5.013  1.00  0.00     0.030 A 
ATOM     17  C   UNL     1      -4.954   6.099   3.567  1.00  0.00     0.057 A 
ATOM     18  C   UNL     1      -4.401   4.721   5.475  1.00  0.00     0.049 A 
ATOM     19  C   UNL     1      -5.340   5.452   4.750  1.00  0.00     0.130 A 
BRANCH  11  20
ATOM     20  C   UNL     1      -1.058   5.176   0.552  1.00  0.00     0.227 C 
ATOM     21  O   UNL     1      -1.313   5.639  -0.560  1.00  0.00    -0.285 OA
BRANCH  20  22
ATOM     22  C   UNL     1       0.081   4.217   0.602  1.00  0.00     0.113 A 
ATOM     23  C   UNL     1       0.879   1.961   0.773  1.00  0.00    -0.044 A 
ATOM     24  C   UNL     1       2.054   2.382   0.139  1.00  0.00     0.024 A 
ATOM     25  C   UNL     1      -0.116   2.912   1.036  1.00  0.00     0.036 A 
ATOM     26  C   UNL     1       2.176   3.711  -0.230  1.00  0.00     0.112 A 
ATOM     27  N   UNL     1       1.220   4.635  -0.008  1.00  0.00    -0.253 NA
BRANCH  23  28
ATOM     28  C   UNL     1       0.644   0.514   1.134  1.00  0.00     0.032 C 
ATOM     29  C   UNL     1       1.027  -0.467   0.032  1.00  0.00     0.009 C 
ENDBRANCH  23  28
ENDBRANCH  20  22
ENDBRANCH  11  20
BRANCH  19  30
ATOM     30  O   UNL     1      -6.663   5.606   5.056  1.00  0.00    -0.406 OA
BRANCH  30  31
ATOM     31  C   UNL     1      -7.210   4.789   6.076  1.00  0.00     0.573 C 
ATOM     32  F   UNL     1      -6.964   3.479   5.852  1.00  0.00    -0.132 F 
ATOM     33  F   UNL     1      -6.718   5.137   7.284  1.00  0.00    -0.132 F 
ATOM     34  F   UNL     1      -8.550   4.963   6.100  1.00  0.00    -0.132 F 
ENDBRANCH  30  31
ENDBRANCH  19  30
ENDBRANCH   9  10
ENDBRANCH   7   9
ENDBRANCH   6   7
ENDBRANCH   5   6
ENDBRANCH   4   5
ENDBRANCH   3   4
ENDBRANCH   2   3
ENDBRANCH   1   2
BRANCH   1  35
ATOM     35  O   UNL     1      -0.268   8.679   2.105  1.00  0.00    -0.377 OA
BRANCH  35  36
ATOM     36  C   UNL     1       0.803   9.048   2.960  1.00  0.00     0.188 C 
BRANCH  36  37
ATOM     37  C   UNL     1       2.192   9.201   2.347  1.00  0.00     0.188 C 
BRANCH  37  38
ATOM     38  O   UNL     1       2.873   8.031   1.890  1.00  0.00    -0.376 OA
BRANCH  38  39
ATOM     39  C   UNL     1       2.467   6.745   2.347  1.00  0.00     0.202 C 
BRANCH  39  40
ATOM     40  C   UNL     1       3.200   6.249   3.586  1.00  0.00     0.261 C 
BRANCH  40  41
ATOM     41  O   UNL     1       2.769   6.972   4.745  1.00  0.00    -0.460 OA
BRANCH  41  42
ATOM     42  C   UNL     1       3.565   8.008   5.079  1.00  0.00     0.338 C 
ATOM     43  O   UNL     1       4.647   8.307   4.592  1.00  0.00    -0.246 OA
BRANCH  42  44
ATOM     44  C   UNL     1       2.871   8.862   6.052  1.00  0.00     0.060 A 
ATOM     45  C   UNL     1       2.973  10.248   5.881  1.00  0.00     0.016 A 
ATOM     46  C   UNL     1       2.199   8.320   7.152  1.00  0.00     0.016 A 
ATOM     47  C   UNL     1       2.476  11.101   6.853  1.00  0.00     0.010 A 
ATOM     48  C   UNL     1       1.710   9.178   8.136  1.00  0.00     0.010 A 
ATOM     49  C   UNL     1       1.905  10.564   8.012  1.00  0.00    -0.014 A 
BRANCH  49  50
ATOM     50  C   UNL     1       1.757  11.445   9.186  1.00  0.00     0.031 A 
ATOM     51  C   UNL     1       2.846  11.428  10.222  1.00  0.00     0.074 A 
ATOM     52  C   UNL     1       0.723  12.294   9.274  1.00  0.00     0.049 A 
ATOM     53  N   UNL     1       2.953  12.114  11.329  1.00  0.00    -0.248 NA
ATOM     54  C   UNL     1       3.971  10.510   9.973  1.00  0.00     0.031 C 
ATOM     55  C   UNL     1      -0.346  12.425   8.287  1.00  0.00     0.029 A 
ATOM     56  N   UNL     1       0.410  13.212  10.240  1.00  0.00    -0.354 N 
ATOM     57  C   UNL     1       4.150  11.708  11.906  1.00  0.00     0.074 A 
ATOM     58  C   UNL     1       4.715  10.689  11.053  1.00  0.00     0.031 C 
ATOM     59  C   UNL     1      -1.204  13.372   8.701  1.00  0.00     0.029 A 
ATOM     60  C   UNL     1      -0.760  13.884   9.995  1.00  0.00     0.049 A 
ATOM     61  H   UNL     1       0.970  13.374  11.033  1.00  0.00     0.167 HD
ATOM     62  C   UNL     1       4.728  12.160  13.044  1.00  0.00     0.037 A 
ATOM     63  C   UNL     1      -1.402  14.794  10.751  1.00  0.00     0.037 A 
ATOM     64  C   UNL     1       4.146  13.175  13.881  1.00  0.00     0.049 A 
ATOM     65  C   UNL     1      -0.779  15.219  12.056  1.00  0.00     0.074 A 
ATOM     66  C   UNL     1       4.637  13.711  15.056  1.00  0.00     0.029 A 
ATOM     67  N   UNL     1       2.933  13.801  13.628  1.00  0.00    -0.354 N 
ATOM     68  N   UNL     1       0.356  14.841  12.596  1.00  0.00    -0.248 NA
ATOM     69  C   UNL     1      -1.522  16.203  12.852  1.00  0.00     0.031 C 
ATOM     70  C   UNL     1       3.691  14.615  15.549  1.00  0.00     0.029 A 
ATOM     71  C   UNL     1       2.645  14.699  14.642  1.00  0.00     0.049 A 
ATOM     72  H   UNL     1       2.362  13.632  12.844  1.00  0.00     0.167 HD
ATOM     73  C   UNL     1       0.481  15.567  13.774  1.00  0.00     0.074 A 
ATOM     74  C   UNL     1      -0.691  16.415  13.862  1.00  0.00     0.031 C 
ATOM     75  C   UNL     1       1.474  15.540  14.698  1.00  0.00     0.037 A 
BRANCH  62  76
ATOM     76  C   UNL     1       6.026  11.530  13.462  1.00  0.00     0.064 A 
ATOM     77  C   UNL     1       7.214  11.723  12.740  1.00  0.00     0.173 A 
ATOM     78  C   UNL     1       6.084  10.729  14.613  1.00  0.00     0.173 A 
ATOM     79  F   UNL     1       7.212  12.464  11.621  1.00  0.00    -0.203 F 
ATOM     80  C   UNL     1       8.402  11.114  13.137  1.00  0.00     0.198 A 
ATOM     81  C   UNL     1       7.281  10.150  15.026  1.00  0.00     0.198 A 
ATOM     82  F   UNL     1       4.978  10.508  15.340  1.00  0.00    -0.203 F 
ATOM     83  F   UNL     1       9.511  11.265  12.399  1.00  0.00    -0.200 F 
ATOM     84  C   UNL     1       8.437  10.335  14.284  1.00  0.00     0.200 A 
ATOM     85  F   UNL     1       7.313   9.407  16.141  1.00  0.00    -0.200 F 
ATOM     86  F   UNL     1       9.581   9.754  14.668  1.00  0.00    -0.200 F 
ENDBRANCH  62  76
BRANCH  63  87
ATOM     87  C   UNL     1      -2.700  15.355  10.296  1.00  0.00     0.064 A 
ATOM     88  C   UNL     1      -2.827  16.708   9.953  1.00  0.00     0.173 A 
ATOM     89  C   UNL     1      -3.845  14.550  10.201  1.00  0.00     0.173 A 
ATOM     90  F   UNL     1      -1.767  17.524  10.045  1.00  0.00    -0.203 F 
ATOM     91  C   UNL     1      -4.053  17.238   9.556  1.00  0.00     0.198 A 
ATOM     92  C   UNL     1      -5.063  15.073   9.772  1.00  0.00     0.198 A 
ATOM     93  F   UNL     1      -3.779  13.247  10.515  1.00  0.00    -0.203 F 
ATOM     94  F   UNL     1      -4.157  18.546   9.283  1.00  0.00    -0.200 F 
ATOM     95  C   UNL     1      -5.168  16.420   9.459  1.00  0.00     0.200 A 
ATOM     96  F   UNL     1      -6.133  14.274   9.665  1.00  0.00    -0.200 F 
ATOM     97  F   UNL     1      -6.345  16.930   9.073  1.00  0.00    -0.200 F 
ENDBRANCH  63  87
BRANCH  75  98
ATOM     98  C   UNL     1       1.364  16.493  15.854  1.00  0.00     0.064 A 
ATOM     99  C   UNL     1       0.401  16.331  16.861  1.00  0.00     0.173 A 
ATOM    100  C   UNL     1       2.268  17.561  15.975  1.00  0.00     0.173 A 
ATOM    101  F   UNL     1      -0.492  15.333  16.787  1.00  0.00    -0.203 F 
ATOM    102  C   UNL     1       0.325  17.223  17.927  1.00  0.00     0.198 A 
ATOM    103  C   UNL     1       2.213  18.427  17.062  1.00  0.00     0.198 A 
ATOM    104  F   UNL     1       3.216  17.754  15.046  1.00  0.00    -0.203 F 
ATOM    105  F   UNL     1      -0.640  17.084  18.846  1.00  0.00    -0.200 F 
ATOM    106  C   UNL     1       1.236  18.265  18.031  1.00  0.00     0.200 A 
ATOM    107  F   UNL     1       3.107  19.420  17.171  1.00  0.00    -0.200 F 
ATOM    108  F   UNL     1       1.166  19.116  19.063  1.00  0.00    -0.200 F 
ENDBRANCH  75  98
ENDBRANCH  49  50
ENDBRANCH  42  44
ENDBRANCH  41  42
ENDBRANCH  40  41
ENDBRANCH  39  40
ENDBRANCH  38  39
ENDBRANCH  37  38
ENDBRANCH  36  37
ENDBRANCH  35  36
ENDBRANCH   1  35
TORSDOF 26
