REMARK SMILES Cc1cc2c(c(C)c1Cl)C=C(C(=O)OCCOCCOCCOCCOC(=O)c1ccc(-c3c4nc(c(-c5c(F)c(F)c(F)c(F)c5F)c5ccc([nH]5)c(-c5c(F)c(F)c(F)c(F)c5F)c5nc(c(-c6c(F)c(F)c(F)c(F)c6F)c6ccc3[nH]6)C=C5)C=C4)cc1)[C@@H](C(F)(F)F)O2
REMARK SMILES IDX 21 1 20 2 19 3 18 4 17 5 16 6 15 7 14 8 12 9 13 10 11 11
REMARK SMILES IDX 1 12 2 13 3 14 8 15 4 16 6 17 9 18 5 19 97 20 7 21 10 22
REMARK SMILES IDX 92 23 93 24 94 25 95 26 96 27 22 28 23 29 24 30 25 31 26 32
REMARK SMILES IDX 27 33 28 34 29 35 30 36 91 37 31 38 90 39 32 40 33 41 34 42
REMARK SMILES IDX 84 43 35 44 89 45 83 46 85 47 36 48 88 49 82 50 81 51 37 53
REMARK SMILES IDX 69 54 49 55 68 56 50 57 53 58 67 59 86 60 51 61 52 62 66 64
REMARK SMILES IDX 87 65 54 66 38 67 39 68 47 69 40 70 41 71 45 72 48 73 42 74
REMARK SMILES IDX 43 75 46 76 44 77 70 78 71 79 79 80 72 81 73 82 77 83 80 84
REMARK SMILES IDX 74 85 75 86 78 87 76 88 55 89 56 90 64 91 57 92 58 93 62 94
REMARK SMILES IDX 65 95 59 96 60 97 63 98 61 99
REMARK H PARENT 85 52 53 63
REMARK Flexibility Score: inf
ROOT
ATOM      1  C   UNL     1       0.139   5.814   8.588  1.00  0.00     0.188 C 
ENDROOT
BRANCH   1   2
ATOM      2  O   UNL     1      -0.246   5.163   7.375  1.00  0.00    -0.377 OA
BRANCH   2   3
ATOM      3  C   UNL     1       0.468   5.472   6.189  1.00  0.00     0.188 C 
BRANCH   3   4
ATOM      4  C   UNL     1       0.142   6.859   5.604  1.00  0.00     0.188 C 
BRANCH   4   5
ATOM      5  O   UNL     1      -0.548   7.697   6.524  1.00  0.00    -0.376 OA
BRANCH   5   6
ATOM      6  C   UNL     1      -1.944   7.883   6.349  1.00  0.00     0.202 C 
BRANCH   6   7
ATOM      7  C   UNL     1      -2.870   6.661   6.457  1.00  0.00     0.261 C 
BRANCH   7   8
ATOM      8  O   UNL     1      -2.482   5.514   5.690  1.00  0.00    -0.460 OA
BRANCH   8   9
ATOM      9  C   UNL     1      -2.591   5.594   4.350  1.00  0.00     0.338 C 
ATOM     10  O   UNL     1      -3.037   6.528   3.709  1.00  0.00    -0.246 OA
BRANCH   9  11
ATOM     11  C   UNL     1      -1.911   4.413   3.771  1.00  0.00     0.087 C 
ATOM     12  C   UNL     1       1.060  -0.032   0.123  1.00  0.00     0.046 C 
ATOM     13  C   UNL     1       0.652   1.215   0.861  1.00  0.00    -0.028 A 
ATOM     14  C   UNL     1      -0.169   1.095   1.987  1.00  0.00     0.052 A 
ATOM     15  C   UNL     1       1.043   2.501   0.438  1.00  0.00     0.047 A 
ATOM     16  C   UNL     1      -0.670   2.225   2.629  1.00  0.00     0.128 A 
ATOM     17  C   UNL     1       0.567   3.660   1.096  1.00  0.00    -0.021 A 
ATOM     18  Cl  UNL     1       2.102   2.632  -0.934  1.00  0.00    -0.084 Cl
ATOM     19  C   UNL     1      -0.355   3.506   2.163  1.00  0.00     0.022 A 
ATOM     20  O   UNL     1      -1.481   1.964   3.696  1.00  0.00    -0.475 OA
ATOM     21  C   UNL     1       1.028   5.044   0.701  1.00  0.00     0.047 C 
ATOM     22  C   UNL     1      -1.057   4.639   2.764  1.00  0.00     0.027 C 
ATOM     23  C   UNL     1      -2.136   3.059   4.385  1.00  0.00     0.316 C 
BRANCH  23  24
ATOM     24  C   UNL     1      -3.626   2.708   4.506  1.00  0.00     0.430 C 
ATOM     25  F   UNL     1      -3.798   1.460   5.004  1.00  0.00    -0.167 F 
ATOM     26  F   UNL     1      -4.285   3.548   5.338  1.00  0.00    -0.167 F 
ATOM     27  F   UNL     1      -4.252   2.756   3.308  1.00  0.00    -0.167 F 
ENDBRANCH  23  24
ENDBRANCH   9  11
ENDBRANCH   8   9
ENDBRANCH   7   8
ENDBRANCH   6   7
ENDBRANCH   5   6
ENDBRANCH   4   5
ENDBRANCH   3   4
ENDBRANCH   2   3
ENDBRANCH   1   2
BRANCH   1  28
ATOM     28  C   UNL     1       1.150   6.987   8.628  1.00  0.00     0.188 C 
BRANCH  28  29
ATOM     29  O   UNL     1       2.209   6.887   7.686  1.00  0.00    -0.376 OA
BRANCH  29  30
ATOM     30  C   UNL     1       3.501   6.588   8.190  1.00  0.00     0.202 C 
BRANCH  30  31
ATOM     31  C   UNL     1       3.688   5.138   8.650  1.00  0.00     0.261 C 
BRANCH  31  32
ATOM     32  O   UNL     1       2.815   4.711   9.708  1.00  0.00    -0.460 OA
BRANCH  32  33
ATOM     33  C   UNL     1       2.909   5.355  10.892  1.00  0.00     0.338 C 
ATOM     34  O   UNL     1       3.687   6.242  11.194  1.00  0.00    -0.246 OA
BRANCH  33  35
ATOM     35  C   UNL     1       1.756   4.933  11.713  1.00  0.00     0.060 A 
ATOM     36  C   UNL     1       0.841   5.899  12.149  1.00  0.00     0.016 A 
ATOM     37  C   UNL     1       1.568   3.584  12.024  1.00  0.00     0.016 A 
ATOM     38  C   UNL     1      -0.256   5.519  12.923  1.00  0.00     0.010 A 
ATOM     39  C   UNL     1       0.484   3.208  12.819  1.00  0.00     0.010 A 
ATOM     40  C   UNL     1      -0.414   4.177  13.297  1.00  0.00    -0.014 A 
BRANCH  40  41
ATOM     41  C   UNL     1      -1.383   3.828  14.363  1.00  0.00     0.031 A 
ATOM     42  C   UNL     1      -0.883   3.773  15.779  1.00  0.00     0.074 A 
ATOM     43  C   UNL     1      -2.681   3.601  14.092  1.00  0.00     0.049 A 
ATOM     44  N   UNL     1      -1.529   3.492  16.881  1.00  0.00    -0.248 NA
ATOM     45  C   UNL     1       0.543   4.082  15.980  1.00  0.00     0.031 C 
ATOM     46  C   UNL     1      -3.293   3.669  12.768  1.00  0.00     0.029 A 
ATOM     47  N   UNL     1      -3.718   3.269  14.929  1.00  0.00    -0.354 N 
ATOM     48  C   UNL     1      -0.595   3.603  17.901  1.00  0.00     0.074 A 
ATOM     49  C   UNL     1       0.672   3.934  17.289  1.00  0.00     0.031 C 
ATOM     50  C   UNL     1      -4.604   3.388  12.881  1.00  0.00     0.029 A 
ATOM     51  C   UNL     1      -4.916   3.094  14.280  1.00  0.00     0.049 A 
ATOM     52  H   UNL     1      -3.613   3.166  15.902  1.00  0.00     0.167 HD
ATOM     53  C   UNL     1      -0.782   3.462  19.233  1.00  0.00     0.037 A 
ATOM     54  C   UNL     1      -6.120   2.728  14.764  1.00  0.00     0.037 A 
ATOM     55  C   UNL     1      -2.039   3.123  19.841  1.00  0.00     0.049 A 
ATOM     56  C   UNL     1      -6.278   2.471  16.243  1.00  0.00     0.074 A 
ATOM     57  C   UNL     1      -2.328   2.957  21.183  1.00  0.00     0.029 A 
ATOM     58  N   UNL     1      -3.215   2.890  19.144  1.00  0.00    -0.354 N 
ATOM     59  N   UNL     1      -5.397   2.603  17.206  1.00  0.00    -0.248 NA
ATOM     60  C   UNL     1      -7.598   2.012  16.703  1.00  0.00     0.031 C 
ATOM     61  C   UNL     1      -3.666   2.571  21.295  1.00  0.00     0.029 A 
ATOM     62  C   UNL     1      -4.225   2.551  20.027  1.00  0.00     0.049 A 
ATOM     63  H   UNL     1      -3.316   2.955  18.167  1.00  0.00     0.167 HD
ATOM     64  C   UNL     1      -6.059   2.269  18.382  1.00  0.00     0.074 A 
ATOM     65  C   UNL     1      -7.420   1.942  18.016  1.00  0.00     0.031 C 
ATOM     66  C   UNL     1      -5.580   2.236  19.649  1.00  0.00     0.037 A 
BRANCH  53  67
ATOM     67  C   UNL     1       0.405   3.664  20.126  1.00  0.00     0.064 A 
ATOM     68  C   UNL     1       0.944   4.940  20.348  1.00  0.00     0.173 A 
ATOM     69  C   UNL     1       0.977   2.580  20.809  1.00  0.00     0.173 A 
ATOM     70  F   UNL     1       0.443   6.006  19.704  1.00  0.00    -0.203 F 
ATOM     71  C   UNL     1       2.020   5.122  21.212  1.00  0.00     0.198 A 
ATOM     72  C   UNL     1       2.034   2.770  21.693  1.00  0.00     0.198 A 
ATOM     73  F   UNL     1       0.498   1.340  20.630  1.00  0.00    -0.203 F 
ATOM     74  F   UNL     1       2.542   6.345  21.382  1.00  0.00    -0.200 F 
ATOM     75  C   UNL     1       2.557   4.039  21.891  1.00  0.00     0.200 A 
ATOM     76  F   UNL     1       2.545   1.724  22.358  1.00  0.00    -0.200 F 
ATOM     77  F   UNL     1       3.583   4.218  22.735  1.00  0.00    -0.200 F 
ENDBRANCH  53  67
BRANCH  54  78
ATOM     78  C   UNL     1      -7.279   2.586  13.843  1.00  0.00     0.064 A 
ATOM     79  C   UNL     1      -8.365   3.470  13.909  1.00  0.00     0.173 A 
ATOM     80  C   UNL     1      -7.330   1.563  12.885  1.00  0.00     0.173 A 
ATOM     81  F   UNL     1      -8.377   4.447  14.828  1.00  0.00    -0.203 F 
ATOM     82  C   UNL     1      -9.460   3.332  13.059  1.00  0.00     0.198 A 
ATOM     83  C   UNL     1      -8.414   1.441  12.017  1.00  0.00     0.198 A 
ATOM     84  F   UNL     1      -6.322   0.684  12.786  1.00  0.00    -0.203 F 
ATOM     85  F   UNL     1     -10.502   4.167  13.171  1.00  0.00    -0.200 F 
ATOM     86  C   UNL     1      -9.480   2.322  12.108  1.00  0.00     0.200 A 
ATOM     87  F   UNL     1      -8.425   0.470  11.095  1.00  0.00    -0.200 F 
ATOM     88  F   UNL     1     -10.531   2.194  11.286  1.00  0.00    -0.200 F 
ENDBRANCH  54  78
BRANCH  66  89
ATOM     89  C   UNL     1      -6.524   1.849  20.751  1.00  0.00     0.064 A 
ATOM     90  C   UNL     1      -6.948   0.523  20.919  1.00  0.00     0.173 A 
ATOM     91  C   UNL     1      -6.925   2.794  21.709  1.00  0.00     0.173 A 
ATOM     92  F   UNL     1      -6.601  -0.415  20.026  1.00  0.00    -0.203 F 
ATOM     93  C   UNL     1      -7.745   0.159  22.002  1.00  0.00     0.198 A 
ATOM     94  C   UNL     1      -7.696   2.420  22.806  1.00  0.00     0.198 A 
ATOM     95  F   UNL     1      -6.537   4.074  21.600  1.00  0.00    -0.203 F 
ATOM     96  F   UNL     1      -8.159  -1.109  22.130  1.00  0.00    -0.200 F 
ATOM     97  C   UNL     1      -8.107   1.104  22.951  1.00  0.00     0.200 A 
ATOM     98  F   UNL     1      -8.027   3.331  23.732  1.00  0.00    -0.200 F 
ATOM     99  F   UNL     1      -8.851   0.746  24.006  1.00  0.00    -0.200 F 
ENDBRANCH  66  89
ENDBRANCH  40  41
ENDBRANCH  33  35
ENDBRANCH  32  33
ENDBRANCH  31  32
ENDBRANCH  30  31
ENDBRANCH  29  30
ENDBRANCH  28  29
ENDBRANCH   1  28
TORSDOF 21
