REMARK SMILES O=C(OCCOCCOCCOCCOC(=O)[C@H]1SC=C[C@@H]1S(=O)(=O)NCCC1=c2ccccc2=NC1)c1ccc(-c2c3nc(c(-c4c(F)c(F)c(F)c(F)c4F)c4ccc([nH]4)c(-c4c(F)c(F)c(F)c(F)c4F)c4nc(c(-c5c(F)c(F)c(F)c(F)c5F)c5ccc2[nH]5)C=C4)C=C3)cc1
REMARK SMILES IDX 10 1 9 2 8 3 7 4 6 5 5 6 4 7 3 8 2 9 1 10 38 11 39 12 100 13
REMARK SMILES IDX 40 14 99 15 41 16 42 17 43 18 93 19 44 20 98 21 92 22 94 23
REMARK SMILES IDX 45 24 97 25 91 26 90 27 46 29 78 30 58 31 77 32 59 33 62 34
REMARK SMILES IDX 76 35 95 36 60 37 61 38 75 40 96 41 63 42 47 43 48 44 56 45
REMARK SMILES IDX 49 46 50 47 54 48 57 49 51 50 52 51 55 52 53 53 79 54 80 55
REMARK SMILES IDX 88 56 81 57 82 58 86 59 89 60 83 61 84 62 87 63 85 64 64 65
REMARK SMILES IDX 65 66 73 67 66 68 67 69 71 70 74 71 68 72 69 73 72 74 70 75
REMARK SMILES IDX 11 76 12 77 13 78 14 79 15 80 16 81 17 82 18 83 19 84 22 85
REMARK SMILES IDX 20 86 21 87 23 88 24 89 25 90 26 91 27 93 28 94 29 95 30 96
REMARK SMILES IDX 37 97 31 98 35 99 36 100 32 101 34 102 33 103
REMARK H PARENT 94 28 62 39 26 92
REMARK Flexibility Score: inf
ROOT
ATOM      1  C   UNL     1       3.783  -2.791  -2.347  1.00  0.00     0.188 C 
ENDROOT
BRANCH   1   2
ATOM      2  O   UNL     1       2.368  -2.752  -2.378  1.00  0.00    -0.377 OA
BRANCH   2   3
ATOM      3  C   UNL     1       1.755  -1.591  -1.828  1.00  0.00     0.188 C 
BRANCH   3   4
ATOM      4  C   UNL     1       2.340  -1.039  -0.521  1.00  0.00     0.188 C 
BRANCH   4   5
ATOM      5  O   UNL     1       3.668  -0.521  -0.646  1.00  0.00    -0.376 OA
BRANCH   5   6
ATOM      6  C   UNL     1       4.630  -0.982   0.297  1.00  0.00     0.202 C 
BRANCH   6   7
ATOM      7  C   UNL     1       4.449  -0.538   1.745  1.00  0.00     0.261 C 
BRANCH   7   8
ATOM      8  O   UNL     1       3.170   0.005   2.095  1.00  0.00    -0.460 OA
BRANCH   8   9
ATOM      9  C   UNL     1       2.530   1.136   1.733  1.00  0.00     0.338 C 
ATOM     10  O   UNL     1       1.375   1.279   2.135  1.00  0.00    -0.246 OA
BRANCH   9  11
ATOM     11  C   UNL     1       3.076   2.199   0.829  1.00  0.00     0.060 A 
ATOM     12  C   UNL     1       2.228   3.298   0.581  1.00  0.00     0.016 A 
ATOM     13  C   UNL     1       4.311   2.179   0.180  1.00  0.00     0.016 A 
ATOM     14  C   UNL     1       2.590   4.316  -0.304  1.00  0.00     0.010 A 
ATOM     15  C   UNL     1       4.656   3.153  -0.751  1.00  0.00     0.010 A 
ATOM     16  C   UNL     1       3.807   4.235  -0.980  1.00  0.00    -0.014 A 
BRANCH  16  17
ATOM     17  C   UNL     1       4.348   5.365  -1.751  1.00  0.00     0.031 A 
ATOM     18  C   UNL     1       4.369   5.352  -3.242  1.00  0.00     0.074 A 
ATOM     19  C   UNL     1       4.986   6.309  -1.038  1.00  0.00     0.049 A 
ATOM     20  N   UNL     1       4.849   6.250  -4.062  1.00  0.00    -0.248 NA
ATOM     21  C   UNL     1       3.812   4.162  -3.901  1.00  0.00     0.031 C 
ATOM     22  C   UNL     1       5.105   6.306   0.424  1.00  0.00     0.029 A 
ATOM     23  N   UNL     1       5.684   7.414  -1.430  1.00  0.00    -0.354 N 
ATOM     24  C   UNL     1       4.624   5.753  -5.337  1.00  0.00     0.074 A 
ATOM     25  C   UNL     1       4.034   4.439  -5.180  1.00  0.00     0.031 C 
ATOM     26  C   UNL     1       5.835   7.360   0.806  1.00  0.00     0.029 A 
ATOM     27  C   UNL     1       6.229   8.108  -0.380  1.00  0.00     0.049 A 
ATOM     28  H   UNL     1       5.786   7.686  -2.370  1.00  0.00     0.167 HD
ATOM     29  C   UNL     1       4.872   6.364  -6.521  1.00  0.00     0.037 A 
ATOM     30  C   UNL     1       6.952   9.240  -0.382  1.00  0.00     0.037 A 
ATOM     31  C   UNL     1       5.514   7.654  -6.622  1.00  0.00     0.049 A 
ATOM     32  C   UNL     1       7.205   9.905  -1.699  1.00  0.00     0.074 A 
ATOM     33  C   UNL     1       5.772   8.412  -7.750  1.00  0.00     0.029 A 
ATOM     34  N   UNL     1       6.023   8.366  -5.540  1.00  0.00    -0.354 N 
ATOM     35  N   UNL     1       6.871   9.502  -2.902  1.00  0.00    -0.248 NA
ATOM     36  C   UNL     1       7.909  11.189  -1.661  1.00  0.00     0.031 C 
ATOM     37  C   UNL     1       6.485   9.551  -7.356  1.00  0.00     0.029 A 
ATOM     38  C   UNL     1       6.622   9.538  -5.976  1.00  0.00     0.049 A 
ATOM     39  H   UNL     1       5.966   8.079  -4.600  1.00  0.00     0.167 HD
ATOM     40  C   UNL     1       7.315  10.485  -3.771  1.00  0.00     0.074 A 
ATOM     41  C   UNL     1       7.909  11.521  -2.945  1.00  0.00     0.031 C 
ATOM     42  C   UNL     1       7.245  10.527  -5.126  1.00  0.00     0.037 A 
BRANCH  29  43
ATOM     43  C   UNL     1       4.433   5.663  -7.779  1.00  0.00     0.064 A 
ATOM     44  C   UNL     1       3.072   5.438  -8.051  1.00  0.00     0.173 A 
ATOM     45  C   UNL     1       5.362   5.248  -8.745  1.00  0.00     0.173 A 
ATOM     46  F   UNL     1       2.135   5.807  -7.165  1.00  0.00    -0.203 F 
ATOM     47  C   UNL     1       2.664   4.798  -9.220  1.00  0.00     0.198 A 
ATOM     48  C   UNL     1       4.949   4.638  -9.929  1.00  0.00     0.198 A 
ATOM     49  F   UNL     1       6.676   5.437  -8.547  1.00  0.00    -0.203 F 
ATOM     50  F   UNL     1       1.364   4.549  -9.426  1.00  0.00    -0.200 F 
ATOM     51  C   UNL     1       3.602   4.406 -10.162  1.00  0.00     0.200 A 
ATOM     52  F   UNL     1       5.856   4.273 -10.846  1.00  0.00    -0.200 F 
ATOM     53  F   UNL     1       3.208   3.799 -11.290  1.00  0.00    -0.200 F 
ENDBRANCH  29  43
BRANCH  30  54
ATOM     54  C   UNL     1       7.341   9.837   0.918  1.00  0.00     0.064 A 
ATOM     55  C   UNL     1       6.650  10.950   1.413  1.00  0.00     0.173 A 
ATOM     56  C   UNL     1       8.298   9.236   1.750  1.00  0.00     0.173 A 
ATOM     57  F   UNL     1       5.725  11.554   0.653  1.00  0.00    -0.203 F 
ATOM     58  C   UNL     1       6.894  11.438   2.694  1.00  0.00     0.198 A 
ATOM     59  C   UNL     1       8.525   9.711   3.041  1.00  0.00     0.198 A 
ATOM     60  F   UNL     1       8.965   8.150   1.332  1.00  0.00    -0.203 F 
ATOM     61  F   UNL     1       6.217  12.503   3.142  1.00  0.00    -0.200 F 
ATOM     62  C   UNL     1       7.822  10.810   3.512  1.00  0.00     0.200 A 
ATOM     63  F   UNL     1       9.399   9.084   3.839  1.00  0.00    -0.200 F 
ATOM     64  F   UNL     1       8.029  11.256   4.758  1.00  0.00    -0.200 F 
ENDBRANCH  30  54
BRANCH  42  65
ATOM     65  C   UNL     1       7.865  11.726  -5.784  1.00  0.00     0.064 A 
ATOM     66  C   UNL     1       9.255  11.921  -5.779  1.00  0.00     0.173 A 
ATOM     67  C   UNL     1       7.069  12.682  -6.430  1.00  0.00     0.173 A 
ATOM     68  F   UNL     1      10.058  11.042  -5.160  1.00  0.00    -0.203 F 
ATOM     69  C   UNL     1       9.821  13.051  -6.360  1.00  0.00     0.198 A 
ATOM     70  C   UNL     1       7.642  13.791  -7.045  1.00  0.00     0.198 A 
ATOM     71  F   UNL     1       5.736  12.539  -6.470  1.00  0.00    -0.203 F 
ATOM     72  F   UNL     1      11.144  13.250  -6.282  1.00  0.00    -0.200 F 
ATOM     73  C   UNL     1       9.015  13.981  -6.999  1.00  0.00     0.200 A 
ATOM     74  F   UNL     1       6.864  14.681  -7.677  1.00  0.00    -0.200 F 
ATOM     75  F   UNL     1       9.562  15.068  -7.560  1.00  0.00    -0.200 F 
ENDBRANCH  42  65
ENDBRANCH  16  17
ENDBRANCH   9  11
ENDBRANCH   8   9
ENDBRANCH   7   8
ENDBRANCH   6   7
ENDBRANCH   5   6
ENDBRANCH   4   5
ENDBRANCH   3   4
ENDBRANCH   2   3
ENDBRANCH   1   2
BRANCH   1  76
ATOM     76  C   UNL     1       4.562  -1.677  -3.091  1.00  0.00     0.188 C 
BRANCH  76  77
ATOM     77  O   UNL     1       3.797  -0.540  -3.454  1.00  0.00    -0.376 OA
BRANCH  77  78
ATOM     78  C   UNL     1       3.371  -0.434  -4.810  1.00  0.00     0.202 C 
BRANCH  78  79
ATOM     79  C   UNL     1       2.604  -1.608  -5.444  1.00  0.00     0.261 C 
BRANCH  79  80
ATOM     80  O   UNL     1       3.203  -2.895  -5.232  1.00  0.00    -0.462 OA
BRANCH  80  81
ATOM     81  C   UNL     1       4.316  -3.223  -5.943  1.00  0.00     0.321 C 
ATOM     82  O   UNL     1       4.776  -2.551  -6.855  1.00  0.00    -0.251 OA
BRANCH  81  83
ATOM     83  C   UNL     1       4.994  -4.419  -5.292  1.00  0.00     0.184 C 
ATOM     84  S   UNL     1       3.957  -5.913  -5.508  1.00  0.00    -0.117 SA
ATOM     85  C   UNL     1       6.373  -4.710  -5.869  1.00  0.00     0.172 C 
ATOM     86  C   UNL     1       5.056  -6.594  -6.643  1.00  0.00     0.039 C 
ATOM     87  C   UNL     1       6.211  -5.929  -6.748  1.00  0.00     0.003 C 
BRANCH  85  88
ATOM     88  S   UNL     1       7.570  -5.106  -4.527  1.00  0.00     0.219 S 
ATOM     89  O   UNL     1       6.891  -5.327  -3.277  1.00  0.00    -0.212 OA
ATOM     90  O   UNL     1       8.524  -6.080  -5.033  1.00  0.00    -0.212 OA
BRANCH  88  91
ATOM     91  N   UNL     1       8.510  -3.733  -4.360  1.00  0.00    -0.214 NA
ATOM     92  H   UNL     1       8.605  -3.359  -5.304  1.00  0.00     0.141 HD
BRANCH  91  93
ATOM     93  C   UNL     1       8.207  -2.570  -3.516  1.00  0.00     0.103 C 
BRANCH  93  94
ATOM     94  C   UNL     1       8.105  -2.824  -1.999  1.00  0.00     0.050 C 
BRANCH  94  95
ATOM     95  C   UNL     1       9.362  -3.192  -1.264  1.00  0.00    -0.038 C 
ATOM     96  C   UNL     1       9.665  -2.926   0.009  1.00  0.00     0.001 A 
ATOM     97  C   UNL     1      10.466  -3.983  -1.898  1.00  0.00     0.174 C 
ATOM     98  C   UNL     1       9.008  -2.276   1.101  1.00  0.00     0.010 A 
ATOM     99  C   UNL     1      10.998  -3.532   0.170  1.00  0.00     0.065 A 
ATOM    100  N   UNL     1      11.513  -4.130  -0.859  1.00  0.00    -0.280 NA
ATOM    101  C   UNL     1       9.638  -2.204   2.286  1.00  0.00     0.001 A 
ATOM    102  C   UNL     1      11.635  -3.395   1.497  1.00  0.00     0.028 A 
ATOM    103  C   UNL     1      10.968  -2.760   2.475  1.00  0.00     0.002 A 
ENDBRANCH  94  95
ENDBRANCH  93  94
ENDBRANCH  91  93
ENDBRANCH  88  91
ENDBRANCH  85  88
ENDBRANCH  81  83
ENDBRANCH  80  81
ENDBRANCH  79  80
ENDBRANCH  78  79
ENDBRANCH  77  78
ENDBRANCH  76  77
ENDBRANCH   1  76
TORSDOF 25
