REMARK SMILES O=C(OCCOCCOCCOCCOC(=O)[C@@H]1CC[C@@]2(CCN(C(=O)OCc3ccccc3)C2)C1)c1ccc(-c2c3nc(c(-c4c(F)c(F)c(F)c(F)c4F)c4ccc([nH]4)c(-c4c(F)c(F)c(F)c(F)c4F)c4nc(c(-c5c(F)c(F)c(F)c(F)c5F)c5ccc2[nH]5)C=C4)C=C3)cc1
REMARK SMILES IDX 10 1 9 2 8 3 7 4 6 5 5 6 4 7 3 8 2 9 1 10 37 11 38 12 99 13
REMARK SMILES IDX 39 14 98 15 40 16 41 17 42 18 92 19 43 20 97 21 91 22 93 23
REMARK SMILES IDX 44 24 96 25 90 26 89 27 45 29 77 30 57 31 76 32 58 33 61 34
REMARK SMILES IDX 75 35 94 36 59 37 60 38 74 40 95 41 62 42 46 43 47 44 55 45
REMARK SMILES IDX 48 46 49 47 53 48 56 49 50 50 51 51 54 52 52 53 78 54 79 55
REMARK SMILES IDX 87 56 80 57 81 58 85 59 88 60 82 61 83 62 86 63 84 64 63 65
REMARK SMILES IDX 64 66 72 67 65 68 66 69 70 70 73 71 67 72 68 73 71 74 69 75
REMARK SMILES IDX 11 76 12 77 13 78 14 79 15 80 16 81 17 82 18 83 19 84 36 85
REMARK SMILES IDX 20 86 21 87 22 88 35 89 23 90 24 91 25 92 26 93 27 94 28 95
REMARK SMILES IDX 29 96 30 97 34 98 31 99 33 100 32 101
REMARK H PARENT 93 28 61 39
REMARK Flexibility Score: inf
ROOT
ATOM      1  C   UNL     1       3.826   3.263  -0.330  1.00  0.00     0.188 C 
ENDROOT
BRANCH   1   2
ATOM      2  O   UNL     1       2.430   3.401  -0.170  1.00  0.00    -0.377 OA
BRANCH   2   3
ATOM      3  C   UNL     1       1.788   2.275   0.442  1.00  0.00     0.188 C 
BRANCH   3   4
ATOM      4  C   UNL     1       2.144   0.912  -0.170  1.00  0.00     0.188 C 
BRANCH   4   5
ATOM      5  O   UNL     1       3.468   0.499   0.205  1.00  0.00    -0.376 OA
BRANCH   5   6
ATOM      6  C   UNL     1       4.303   0.058  -0.881  1.00  0.00     0.202 C 
BRANCH   6   7
ATOM      7  C   UNL     1       4.000  -1.351  -1.381  1.00  0.00     0.261 C 
BRANCH   7   8
ATOM      8  O   UNL     1       2.659  -1.786  -1.108  1.00  0.00    -0.460 OA
BRANCH   8   9
ATOM      9  C   UNL     1       2.153  -2.356   0.015  1.00  0.00     0.338 C 
ATOM     10  O   UNL     1       1.006  -2.799  -0.029  1.00  0.00    -0.246 OA
BRANCH   9  11
ATOM     11  C   UNL     1       2.873  -2.432   1.329  1.00  0.00     0.060 A 
ATOM     12  C   UNL     1       4.097  -1.831   1.597  1.00  0.00     0.016 A 
ATOM     13  C   UNL     1       2.258  -3.127   2.388  1.00  0.00     0.016 A 
ATOM     14  C   UNL     1       4.681  -1.849   2.841  1.00  0.00     0.010 A 
ATOM     15  C   UNL     1       2.872  -3.223   3.646  1.00  0.00     0.010 A 
ATOM     16  C   UNL     1       4.097  -2.584   3.858  1.00  0.00    -0.014 A 
BRANCH  16  17
ATOM     17  C   UNL     1       5.013  -2.867   4.968  1.00  0.00     0.031 A 
ATOM     18  C   UNL     1       5.838  -4.114   4.847  1.00  0.00     0.074 A 
ATOM     19  C   UNL     1       5.345  -1.873   5.810  1.00  0.00     0.049 A 
ATOM     20  N   UNL     1       6.770  -4.575   5.632  1.00  0.00    -0.248 NA
ATOM     21  C   UNL     1       5.622  -4.926   3.631  1.00  0.00     0.031 C 
ATOM     22  C   UNL     1       4.776  -0.521   5.781  1.00  0.00     0.029 A 
ATOM     23  N   UNL     1       6.289  -1.816   6.795  1.00  0.00    -0.354 N 
ATOM     24  C   UNL     1       7.229  -5.734   5.021  1.00  0.00     0.074 A 
ATOM     25  C   UNL     1       6.497  -5.903   3.790  1.00  0.00     0.031 C 
ATOM     26  C   UNL     1       5.391   0.233   6.707  1.00  0.00     0.029 A 
ATOM     27  C   UNL     1       6.331  -0.604   7.440  1.00  0.00     0.049 A 
ATOM     28  H   UNL     1       6.882  -2.569   7.021  1.00  0.00     0.167 HD
ATOM     29  C   UNL     1       8.172  -6.588   5.475  1.00  0.00     0.037 A 
ATOM     30  C   UNL     1       7.021  -0.253   8.540  1.00  0.00     0.037 A 
ATOM     31  C   UNL     1       8.847  -6.387   6.724  1.00  0.00     0.049 A 
ATOM     32  C   UNL     1       7.921  -1.302   9.142  1.00  0.00     0.074 A 
ATOM     33  C   UNL     1       9.670  -7.245   7.423  1.00  0.00     0.029 A 
ATOM     34  N   UNL     1       8.760  -5.211   7.462  1.00  0.00    -0.354 N 
ATOM     35  N   UNL     1       8.227  -2.492   8.676  1.00  0.00    -0.248 NA
ATOM     36  C   UNL     1       8.549  -0.980  10.426  1.00  0.00     0.031 C 
ATOM     37  C   UNL     1      10.047  -6.601   8.608  1.00  0.00     0.029 A 
ATOM     38  C   UNL     1       9.504  -5.323   8.619  1.00  0.00     0.049 A 
ATOM     39  H   UNL     1       8.243  -4.416   7.197  1.00  0.00     0.167 HD
ATOM     40  C   UNL     1       9.087  -3.059   9.603  1.00  0.00     0.074 A 
ATOM     41  C   UNL     1       9.278  -2.065  10.643  1.00  0.00     0.031 C 
ATOM     42  C   UNL     1       9.661  -4.288   9.611  1.00  0.00     0.037 A 
BRANCH  29  43
ATOM     43  C   UNL     1       8.392  -7.834   4.674  1.00  0.00     0.064 A 
ATOM     44  C   UNL     1       9.072  -7.821   3.447  1.00  0.00     0.173 A 
ATOM     45  C   UNL     1       7.819  -9.044   5.094  1.00  0.00     0.173 A 
ATOM     46  F   UNL     1       9.594  -6.678   2.977  1.00  0.00    -0.203 F 
ATOM     47  C   UNL     1       9.146  -8.968   2.658  1.00  0.00     0.198 A 
ATOM     48  C   UNL     1       7.913 -10.193   4.313  1.00  0.00     0.198 A 
ATOM     49  F   UNL     1       7.136  -9.104   6.247  1.00  0.00    -0.203 F 
ATOM     50  F   UNL     1       9.741  -8.917   1.458  1.00  0.00    -0.200 F 
ATOM     51  C   UNL     1       8.568 -10.152   3.092  1.00  0.00     0.200 A 
ATOM     52  F   UNL     1       7.344 -11.333   4.729  1.00  0.00    -0.200 F 
ATOM     53  F   UNL     1       8.620 -11.248   2.321  1.00  0.00    -0.200 F 
ENDBRANCH  29  43
BRANCH  30  54
ATOM     54  C   UNL     1       6.802   1.068   9.193  1.00  0.00     0.064 A 
ATOM     55  C   UNL     1       7.846   1.983   9.382  1.00  0.00     0.173 A 
ATOM     56  C   UNL     1       5.538   1.420   9.698  1.00  0.00     0.173 A 
ATOM     57  F   UNL     1       9.079   1.692   8.943  1.00  0.00    -0.203 F 
ATOM     58  C   UNL     1       7.642   3.180  10.070  1.00  0.00     0.198 A 
ATOM     59  C   UNL     1       5.327   2.631  10.354  1.00  0.00     0.198 A 
ATOM     60  F   UNL     1       4.499   0.583   9.561  1.00  0.00    -0.203 F 
ATOM     61  F   UNL     1       8.674   4.007  10.292  1.00  0.00    -0.200 F 
ATOM     62  C   UNL     1       6.383   3.505  10.553  1.00  0.00     0.200 A 
ATOM     63  F   UNL     1       4.105   2.942  10.808  1.00  0.00    -0.200 F 
ATOM     64  F   UNL     1       6.191   4.649  11.223  1.00  0.00    -0.200 F 
ENDBRANCH  30  54
BRANCH  42  65
ATOM     65  C   UNL     1      10.563  -4.595  10.763  1.00  0.00     0.064 A 
ATOM     66  C   UNL     1      10.052  -4.858  12.041  1.00  0.00     0.173 A 
ATOM     67  C   UNL     1      11.948  -4.680  10.567  1.00  0.00     0.173 A 
ATOM     68  F   UNL     1       8.733  -4.773  12.274  1.00  0.00    -0.203 F 
ATOM     69  C   UNL     1      10.904  -5.174  13.093  1.00  0.00     0.198 A 
ATOM     70  C   UNL     1      12.793  -5.027  11.614  1.00  0.00     0.198 A 
ATOM     71  F   UNL     1      12.476  -4.443   9.356  1.00  0.00    -0.203 F 
ATOM     72  F   UNL     1      10.403  -5.379  14.319  1.00  0.00    -0.200 F 
ATOM     73  C   UNL     1      12.272  -5.267  12.877  1.00  0.00     0.200 A 
ATOM     74  F   UNL     1      14.112  -5.131  11.400  1.00  0.00    -0.200 F 
ATOM     75  F   UNL     1      13.090  -5.583  13.889  1.00  0.00    -0.200 F 
ENDBRANCH  42  65
ENDBRANCH  16  17
ENDBRANCH   9  11
ENDBRANCH   8   9
ENDBRANCH   7   8
ENDBRANCH   6   7
ENDBRANCH   5   6
ENDBRANCH   4   5
ENDBRANCH   3   4
ENDBRANCH   2   3
ENDBRANCH   1   2
BRANCH   1  76
ATOM     76  C   UNL     1       4.782   3.712   0.777  1.00  0.00     0.188 C 
BRANCH  76  77
ATOM     77  O   UNL     1       4.310   3.694   2.112  1.00  0.00    -0.376 OA
BRANCH  77  78
ATOM     78  C   UNL     1       3.349   4.688   2.476  1.00  0.00     0.202 C 
BRANCH  78  79
ATOM     79  C   UNL     1       3.692   6.158   2.165  1.00  0.00     0.261 C 
BRANCH  79  80
ATOM     80  O   UNL     1       3.530   6.452   0.760  1.00  0.00    -0.463 OA
BRANCH  80  81
ATOM     81  C   UNL     1       4.367   7.372   0.182  1.00  0.00     0.309 C 
ATOM     82  O   UNL     1       5.157   8.069   0.803  1.00  0.00    -0.252 OA
BRANCH  81  83
ATOM     83  C   UNL     1       4.205   7.397  -1.356  1.00  0.00     0.100 C 
ATOM     84  C   UNL     1       3.669   6.063  -1.810  1.00  0.00     0.016 C 
ATOM     85  C   UNL     1       5.547   7.442  -2.113  1.00  0.00     0.024 C 
ATOM     86  C   UNL     1       4.078   5.803  -3.233  1.00  0.00     0.010 C 
ATOM     87  C   UNL     1       5.418   6.529  -3.379  1.00  0.00    -0.009 C 
ATOM     88  C   UNL     1       5.427   7.308  -4.726  1.00  0.00     0.030 C 
ATOM     89  C   UNL     1       6.637   5.566  -3.495  1.00  0.00     0.130 C 
ATOM     90  C   UNL     1       6.455   6.590  -5.592  1.00  0.00     0.124 C 
ATOM     91  N   UNL     1       7.388   6.118  -4.599  1.00  0.00    -0.308 N 
BRANCH  91  92
ATOM     92  C   UNL     1       8.641   6.665  -4.417  1.00  0.00     0.410 C 
ATOM     93  O   UNL     1       9.293   6.564  -3.387  1.00  0.00    -0.224 OA
BRANCH  92  94
ATOM     94  O   UNL     1       9.014   7.410  -5.489  1.00  0.00    -0.445 OA
BRANCH  94  95
ATOM     95  C   UNL     1       9.839   8.538  -5.186  1.00  0.00     0.270 C 
BRANCH  95  96
ATOM     96  C   UNL     1       8.921   9.703  -4.899  1.00  0.00    -0.011 A 
ATOM     97  C   UNL     1       8.744  10.166  -3.588  1.00  0.00     0.007 A 
ATOM     98  C   UNL     1       8.162  10.278  -5.930  1.00  0.00     0.007 A 
ATOM     99  C   UNL     1       7.838  11.193  -3.317  1.00  0.00     0.000 A 
ATOM    100  C   UNL     1       7.254  11.302  -5.657  1.00  0.00     0.000 A 
ATOM    101  C   UNL     1       7.094  11.760  -4.350  1.00  0.00     0.000 A 
ENDBRANCH  95  96
ENDBRANCH  94  95
ENDBRANCH  92  94
ENDBRANCH  91  92
ENDBRANCH  81  83
ENDBRANCH  80  81
ENDBRANCH  79  80
ENDBRANCH  78  79
ENDBRANCH  77  78
ENDBRANCH  76  77
ENDBRANCH   1  76
TORSDOF 24
