REMARK SMILES Cc1ccccc1-c1c(Cl)ccc2c1C=C(C(=O)OCCOCCOCCOCCOC(=O)c1ccc(-c3c4nc(c(-c5c(F)c(F)c(F)c(F)c5F)c5ccc([nH]5)c(-c5c(F)c(F)c(F)c(F)c5F)c5nc(c(-c6c(F)c(F)c(F)c(F)c6F)c6ccc3[nH]6)C=C5)C=C4)cc1)[C@@H](C(F)(F)F)O2
REMARK SMILES IDX 26 1 25 2 24 3 23 4 22 5 21 6 20 7 19 8 17 9 18 10 16 11
REMARK SMILES IDX 8 12 9 13 14 14 10 15 11 16 13 17 15 18 12 19 102 20 97 21
REMARK SMILES IDX 7 22 1 23 2 24 3 25 4 26 6 27 5 28 98 29 99 30 100 31 101 32
REMARK SMILES IDX 27 33 28 34 29 35 30 36 31 37 32 38 33 39 34 40 35 41 96 42
REMARK SMILES IDX 36 43 95 44 37 45 38 46 39 47 89 48 40 49 94 50 88 51 90 52
REMARK SMILES IDX 41 53 93 54 87 55 86 56 42 58 74 59 54 60 73 61 55 62 58 63
REMARK SMILES IDX 72 64 91 65 56 66 57 67 71 69 92 70 59 71 43 72 44 73 52 74
REMARK SMILES IDX 45 75 46 76 50 77 53 78 47 79 48 80 51 81 49 82 75 83 76 84
REMARK SMILES IDX 84 85 77 86 78 87 82 88 85 89 79 90 80 91 83 92 81 93 60 94
REMARK SMILES IDX 61 95 69 96 62 97 63 98 67 99 70 100 64 101 65 102 68 103
REMARK SMILES IDX 66 104
REMARK H PARENT 90 57 58 68
REMARK Flexibility Score: inf
ROOT
ATOM      1  C   UNL     1       6.786   0.186  -4.942  1.00  0.00     0.188 C 
ENDROOT
BRANCH   1   2
ATOM      2  O   UNL     1       5.941   1.137  -4.285  1.00  0.00    -0.377 OA
BRANCH   2   3
ATOM      3  C   UNL     1       5.502   2.145  -5.188  1.00  0.00     0.188 C 
BRANCH   3   4
ATOM      4  C   UNL     1       5.519   3.581  -4.659  1.00  0.00     0.188 C 
BRANCH   4   5
ATOM      5  O   UNL     1       6.702   4.094  -4.064  1.00  0.00    -0.376 OA
BRANCH   5   6
ATOM      6  C   UNL     1       7.001   3.641  -2.744  1.00  0.00     0.202 C 
BRANCH   6   7
ATOM      7  C   UNL     1       5.997   4.054  -1.676  1.00  0.00     0.261 C 
BRANCH   7   8
ATOM      8  O   UNL     1       4.793   3.288  -1.808  1.00  0.00    -0.460 OA
BRANCH   8   9
ATOM      9  C   UNL     1       3.691   4.057  -1.811  1.00  0.00     0.338 C 
ATOM     10  O   UNL     1       3.653   5.240  -1.505  1.00  0.00    -0.246 OA
BRANCH   9  11
ATOM     11  C   UNL     1       2.613   3.340  -2.587  1.00  0.00     0.087 C 
ATOM     12  C   UNL     1       0.474   2.703   0.207  1.00  0.00     0.012 A 
ATOM     13  C   UNL     1       0.295   3.599   1.278  1.00  0.00     0.049 A 
ATOM     14  C   UNL     1       0.947   3.264  -0.990  1.00  0.00     0.027 A 
ATOM     15  Cl  UNL     1      -0.142   3.040   2.856  1.00  0.00    -0.084 Cl
ATOM     16  C   UNL     1       0.470   4.983   1.107  1.00  0.00     0.025 A 
ATOM     17  C   UNL     1       0.835   4.650  -1.235  1.00  0.00     0.128 A 
ATOM     18  C   UNL     1       1.778   2.494  -1.945  1.00  0.00     0.028 C 
ATOM     19  C   UNL     1       0.656   5.516  -0.169  1.00  0.00     0.049 A 
ATOM     20  O   UNL     1       1.023   5.192  -2.497  1.00  0.00    -0.475 OA
ATOM     21  C   UNL     1       1.901   4.424  -3.378  1.00  0.00     0.316 C 
BRANCH  12  22
ATOM     22  C   UNL     1      -0.099   1.331   0.212  1.00  0.00    -0.013 A 
ATOM     23  C   UNL     1       2.100   0.060   0.517  1.00  0.00     0.045 C 
ATOM     24  C   UNL     1       0.613   0.124   0.354  1.00  0.00    -0.043 A 
ATOM     25  C   UNL     1      -0.073  -1.106   0.274  1.00  0.00     0.004 A 
ATOM     26  C   UNL     1      -1.449  -1.156   0.072  1.00  0.00     0.000 A 
ATOM     27  C   UNL     1      -1.496   1.245   0.003  1.00  0.00     0.009 A 
ATOM     28  C   UNL     1      -2.164   0.023  -0.064  1.00  0.00     0.001 A 
ENDBRANCH  12  22
BRANCH  21  29
ATOM     29  C   UNL     1       1.218   3.882  -4.636  1.00  0.00     0.430 C 
ATOM     30  F   UNL     1       0.909   4.876  -5.501  1.00  0.00    -0.167 F 
ATOM     31  F   UNL     1       2.051   3.039  -5.305  1.00  0.00    -0.167 F 
ATOM     32  F   UNL     1       0.086   3.195  -4.372  1.00  0.00    -0.167 F 
ENDBRANCH  21  29
ENDBRANCH   9  11
ENDBRANCH   8   9
ENDBRANCH   7   8
ENDBRANCH   6   7
ENDBRANCH   5   6
ENDBRANCH   4   5
ENDBRANCH   3   4
ENDBRANCH   2   3
ENDBRANCH   1   2
BRANCH   1  33
ATOM     33  C   UNL     1       8.245   0.605  -4.835  1.00  0.00     0.188 C 
BRANCH  33  34
ATOM     34  O   UNL     1       8.534   1.931  -5.255  1.00  0.00    -0.376 OA
BRANCH  34  35
ATOM     35  C   UNL     1       8.836   2.162  -6.624  1.00  0.00     0.202 C 
BRANCH  35  36
ATOM     36  C   UNL     1      10.053   1.392  -7.157  1.00  0.00     0.261 C 
BRANCH  36  37
ATOM     37  O   UNL     1      11.187   1.630  -6.303  1.00  0.00    -0.460 OA
BRANCH  37  38
ATOM     38  C   UNL     1      11.620   0.549  -5.598  1.00  0.00     0.338 C 
ATOM     39  O   UNL     1      11.782  -0.573  -6.055  1.00  0.00    -0.246 OA
BRANCH  38  40
ATOM     40  C   UNL     1      11.531   0.844  -4.138  1.00  0.00     0.060 A 
ATOM     41  C   UNL     1      11.467  -0.225  -3.225  1.00  0.00     0.016 A 
ATOM     42  C   UNL     1      11.140   2.115  -3.732  1.00  0.00     0.016 A 
ATOM     43  C   UNL     1      10.830  -0.060  -1.984  1.00  0.00     0.010 A 
ATOM     44  C   UNL     1      10.433   2.244  -2.549  1.00  0.00     0.010 A 
ATOM     45  C   UNL     1      10.209   1.154  -1.685  1.00  0.00    -0.014 A 
BRANCH  45  46
ATOM     46  C   UNL     1       9.108   1.329  -0.701  1.00  0.00     0.031 A 
ATOM     47  C   UNL     1       9.027   2.594   0.123  1.00  0.00     0.074 A 
ATOM     48  C   UNL     1       8.000   0.555  -0.862  1.00  0.00     0.049 A 
ATOM     49  N   UNL     1       8.050   2.931   0.903  1.00  0.00    -0.248 NA
ATOM     50  C   UNL     1      10.091   3.601   0.147  1.00  0.00     0.031 C 
ATOM     51  C   UNL     1       6.622   0.998  -0.663  1.00  0.00     0.029 A 
ATOM     52  N   UNL     1       7.832  -0.743  -1.377  1.00  0.00    -0.354 N 
ATOM     53  C   UNL     1       8.191   4.269   1.246  1.00  0.00     0.074 A 
ATOM     54  C   UNL     1       9.530   4.599   0.839  1.00  0.00     0.031 C 
ATOM     55  C   UNL     1       5.758   0.047  -1.034  1.00  0.00     0.029 A 
ATOM     56  C   UNL     1       6.513  -1.168  -1.085  1.00  0.00     0.049 A 
ATOM     57  H   UNL     1       8.513  -1.266  -1.858  1.00  0.00     0.167 HD
ATOM     58  C   UNL     1       7.110   4.971   1.713  1.00  0.00     0.037 A 
ATOM     59  C   UNL     1       6.278  -2.164  -0.174  1.00  0.00     0.037 A 
ATOM     60  C   UNL     1       5.977   4.078   1.995  1.00  0.00     0.049 A 
ATOM     61  C   UNL     1       5.686  -1.691   1.151  1.00  0.00     0.074 A 
ATOM     62  C   UNL     1       4.645   4.073   1.626  1.00  0.00     0.029 A 
ATOM     63  N   UNL     1       6.187   2.883   2.688  1.00  0.00    -0.354 N 
ATOM     64  N   UNL     1       5.646  -0.433   1.526  1.00  0.00    -0.248 NA
ATOM     65  C   UNL     1       5.068  -2.566   2.144  1.00  0.00     0.031 C 
ATOM     66  C   UNL     1       4.081   2.849   2.055  1.00  0.00     0.029 A 
ATOM     67  C   UNL     1       5.058   2.095   2.683  1.00  0.00     0.049 A 
ATOM     68  H   UNL     1       7.035   2.636   3.124  1.00  0.00     0.167 HD
ATOM     69  C   UNL     1       5.092  -0.322   2.771  1.00  0.00     0.074 A 
ATOM     70  C   UNL     1       4.718  -1.685   3.102  1.00  0.00     0.031 C 
ATOM     71  C   UNL     1       5.002   0.861   3.454  1.00  0.00     0.037 A 
BRANCH  58  72
ATOM     72  C   UNL     1       6.938   6.505   1.747  1.00  0.00     0.064 A 
ATOM     73  C   UNL     1       5.772   7.089   2.310  1.00  0.00     0.173 A 
ATOM     74  C   UNL     1       7.796   7.447   1.137  1.00  0.00     0.173 A 
ATOM     75  F   UNL     1       4.887   6.355   2.999  1.00  0.00    -0.203 F 
ATOM     76  C   UNL     1       5.461   8.454   2.199  1.00  0.00     0.198 A 
ATOM     77  C   UNL     1       7.517   8.824   1.089  1.00  0.00     0.198 A 
ATOM     78  F   UNL     1       8.924   7.087   0.520  1.00  0.00    -0.203 F 
ATOM     79  F   UNL     1       4.298   8.917   2.683  1.00  0.00    -0.200 F 
ATOM     80  C   UNL     1       6.337   9.324   1.593  1.00  0.00     0.200 A 
ATOM     81  F   UNL     1       8.402   9.659   0.523  1.00  0.00    -0.200 F 
ATOM     82  F   UNL     1       6.052  10.630   1.495  1.00  0.00    -0.200 F 
ENDBRANCH  58  72
BRANCH  59  83
ATOM     83  C   UNL     1       7.067  -3.387  -0.519  1.00  0.00     0.064 A 
ATOM     84  C   UNL     1       6.682  -3.940  -1.762  1.00  0.00     0.173 A 
ATOM     85  C   UNL     1       8.435  -3.409  -0.203  1.00  0.00     0.173 A 
ATOM     86  F   UNL     1       5.380  -4.000  -2.084  1.00  0.00    -0.203 F 
ATOM     87  C   UNL     1       7.624  -4.147  -2.767  1.00  0.00     0.198 A 
ATOM     88  C   UNL     1       9.379  -3.656  -1.206  1.00  0.00     0.198 A 
ATOM     89  F   UNL     1       8.857  -2.969   0.990  1.00  0.00    -0.203 F 
ATOM     90  F   UNL     1       7.217  -4.379  -4.023  1.00  0.00    -0.200 F 
ATOM     91  C   UNL     1       8.968  -3.946  -2.501  1.00  0.00     0.200 A 
ATOM     92  F   UNL     1      10.683  -3.459  -0.960  1.00  0.00    -0.200 F 
ATOM     93  F   UNL     1       9.855  -3.943  -3.507  1.00  0.00    -0.200 F 
ENDBRANCH  59  83
BRANCH  71  94
ATOM     94  C   UNL     1       4.810   0.983   4.952  1.00  0.00     0.064 A 
ATOM     95  C   UNL     1       5.232  -0.001   5.861  1.00  0.00     0.173 A 
ATOM     96  C   UNL     1       4.386   2.204   5.536  1.00  0.00     0.173 A 
ATOM     97  F   UNL     1       5.779  -1.150   5.442  1.00  0.00    -0.203 F 
ATOM     98  C   UNL     1       5.173   0.193   7.243  1.00  0.00     0.198 A 
ATOM     99  C   UNL     1       4.384   2.415   6.914  1.00  0.00     0.198 A 
ATOM    100  F   UNL     1       3.997   3.249   4.793  1.00  0.00    -0.203 F 
ATOM    101  F   UNL     1       5.557  -0.794   8.065  1.00  0.00    -0.200 F 
ATOM    102  C   UNL     1       4.762   1.403   7.769  1.00  0.00     0.200 A 
ATOM    103  F   UNL     1       4.044   3.616   7.404  1.00  0.00    -0.200 F 
ATOM    104  F   UNL     1       4.759   1.601   9.093  1.00  0.00    -0.200 F 
ENDBRANCH  71  94
ENDBRANCH  45  46
ENDBRANCH  38  40
ENDBRANCH  37  38
ENDBRANCH  36  37
ENDBRANCH  35  36
ENDBRANCH  34  35
ENDBRANCH  33  34
ENDBRANCH   1  33
TORSDOF 22
