REMARK SMILES O=C(OCCOCCOCCOCCOC(=O)[C@@H]1CCCC[C@@H]1NS(=O)(=O)c1ccc2ccccc2c1)c1ccc(-c2c3nc(c(-c4c(F)c(F)c(F)c(F)c4F)c4ccc([nH]4)c(-c4c(F)c(F)c(F)c(F)c4F)c4nc(c(-c5c(F)c(F)c(F)c(F)c5F)c5ccc2[nH]5)C=C4)C=C3)cc1
REMARK SMILES IDX 10 1 9 2 8 3 7 4 6 5 5 6 4 7 3 8 2 9 1 10 38 11 39 12 100 13
REMARK SMILES IDX 40 14 99 15 41 16 42 17 43 18 93 19 44 20 98 21 92 22 94 23
REMARK SMILES IDX 45 24 97 25 91 26 90 27 46 29 78 30 58 31 77 32 59 33 62 34
REMARK SMILES IDX 76 35 95 36 60 37 61 38 75 40 96 41 63 42 47 43 48 44 56 45
REMARK SMILES IDX 49 46 50 47 54 48 57 49 51 50 52 51 55 52 53 53 79 54 80 55
REMARK SMILES IDX 88 56 81 57 82 58 86 59 89 60 83 61 84 62 87 63 85 64 64 65
REMARK SMILES IDX 65 66 73 67 66 68 67 69 71 70 74 71 68 72 69 73 72 74 70 75
REMARK SMILES IDX 11 76 12 77 13 78 14 79 15 80 16 81 17 82 18 83 19 84 23 85
REMARK SMILES IDX 20 86 22 87 21 88 24 89 25 91 26 92 27 93 28 94 29 95 37 96
REMARK SMILES IDX 30 97 36 98 31 99 35 100 32 101 34 102 33 103
REMARK H PARENT 94 28 62 39 24 90
REMARK Flexibility Score: inf
ROOT
ATOM      1  C   UNL     1       4.679   3.418   0.795  1.00  0.00     0.188 C 
ENDROOT
BRANCH   1   2
ATOM      2  O   UNL     1       3.326   3.865   0.693  1.00  0.00    -0.377 OA
BRANCH   2   3
ATOM      3  C   UNL     1       2.322   2.841   0.719  1.00  0.00     0.188 C 
BRANCH   3   4
ATOM      4  C   UNL     1       2.570   1.680  -0.248  1.00  0.00     0.188 C 
BRANCH   4   5
ATOM      5  O   UNL     1       3.782   1.026   0.097  1.00  0.00    -0.376 OA
BRANCH   5   6
ATOM      6  C   UNL     1       4.606   0.498  -0.929  1.00  0.00     0.202 C 
BRANCH   6   7
ATOM      7  C   UNL     1       3.979  -0.578  -1.806  1.00  0.00     0.261 C 
BRANCH   7   8
ATOM      8  O   UNL     1       2.586  -0.840  -1.544  1.00  0.00    -0.460 OA
BRANCH   8   9
ATOM      9  C   UNL     1       2.032  -1.685  -0.640  1.00  0.00     0.338 C 
ATOM     10  O   UNL     1       0.832  -1.937  -0.690  1.00  0.00    -0.246 OA
BRANCH   9  11
ATOM     11  C   UNL     1       2.851  -2.361   0.394  1.00  0.00     0.060 A 
ATOM     12  C   UNL     1       3.808  -1.694   1.140  1.00  0.00     0.016 A 
ATOM     13  C   UNL     1       2.580  -3.692   0.720  1.00  0.00     0.016 A 
ATOM     14  C   UNL     1       4.678  -2.361   1.970  1.00  0.00     0.010 A 
ATOM     15  C   UNL     1       3.341  -4.342   1.700  1.00  0.00     0.010 A 
ATOM     16  C   UNL     1       4.441  -3.692   2.280  1.00  0.00    -0.014 A 
BRANCH  16  17
ATOM     17  C   UNL     1       5.446  -4.373   3.119  1.00  0.00     0.031 A 
ATOM     18  C   UNL     1       6.247  -5.475   2.497  1.00  0.00     0.074 A 
ATOM     19  C   UNL     1       5.758  -3.873   4.332  1.00  0.00     0.049 A 
ATOM     20  N   UNL     1       7.138  -6.259   3.039  1.00  0.00    -0.248 NA
ATOM     21  C   UNL     1       6.025  -5.722   1.060  1.00  0.00     0.031 C 
ATOM     22  C   UNL     1       5.132  -2.698   4.952  1.00  0.00     0.029 A 
ATOM     23  N   UNL     1       6.716  -4.244   5.236  1.00  0.00    -0.354 N 
ATOM     24  C   UNL     1       7.546  -7.115   2.025  1.00  0.00     0.074 A 
ATOM     25  C   UNL     1       6.805  -6.766   0.837  1.00  0.00     0.031 C 
ATOM     26  C   UNL     1       5.762  -2.414   6.101  1.00  0.00     0.029 A 
ATOM     27  C   UNL     1       6.748  -3.452   6.359  1.00  0.00     0.049 A 
ATOM     28  H   UNL     1       7.324  -5.006   5.096  1.00  0.00     0.167 HD
ATOM     29  C   UNL     1       8.462  -8.106   2.094  1.00  0.00     0.037 A 
ATOM     30  C   UNL     1       7.459  -3.592   7.493  1.00  0.00     0.037 A 
ATOM     31  C   UNL     1       9.192  -8.411   3.293  1.00  0.00     0.049 A 
ATOM     32  C   UNL     1       8.389  -4.772   7.581  1.00  0.00     0.074 A 
ATOM     33  C   UNL     1      10.065  -9.452   3.539  1.00  0.00     0.029 A 
ATOM     34  N   UNL     1       9.131  -7.649   4.454  1.00  0.00    -0.354 N 
ATOM     35  N   UNL     1       8.679  -5.665   6.664  1.00  0.00    -0.248 NA
ATOM     36  C   UNL     1       9.068  -4.982   8.863  1.00  0.00     0.031 C 
ATOM     37  C   UNL     1      10.505  -9.339   4.863  1.00  0.00     0.029 A 
ATOM     38  C   UNL     1       9.947  -8.199   5.425  1.00  0.00     0.049 A 
ATOM     39  H   UNL     1       8.588  -6.836   4.568  1.00  0.00     0.167 HD
ATOM     40  C   UNL     1       9.579  -6.539   7.253  1.00  0.00     0.074 A 
ATOM     41  C   UNL     1       9.815  -6.043   8.595  1.00  0.00     0.031 C 
ATOM     42  C   UNL     1      10.150  -7.660   6.745  1.00  0.00     0.037 A 
BRANCH  29  43
ATOM     43  C   UNL     1       8.649  -8.949   0.870  1.00  0.00     0.064 A 
ATOM     44  C   UNL     1       9.288  -8.462  -0.281  1.00  0.00     0.173 A 
ATOM     45  C   UNL     1       8.135 -10.254   0.831  1.00  0.00     0.173 A 
ATOM     46  F   UNL     1       9.761  -7.207  -0.309  1.00  0.00    -0.203 F 
ATOM     47  C   UNL     1       9.382  -9.241  -1.432  1.00  0.00     0.198 A 
ATOM     48  C   UNL     1       8.255 -11.040  -0.313  1.00  0.00     0.198 A 
ATOM     49  F   UNL     1       7.500 -10.762   1.897  1.00  0.00    -0.203 F 
ATOM     50  F   UNL     1       9.941  -8.732  -2.539  1.00  0.00    -0.200 F 
ATOM     51  C   UNL     1       8.870 -10.530  -1.446  1.00  0.00     0.200 A 
ATOM     52  F   UNL     1       7.757 -12.284  -0.324  1.00  0.00    -0.200 F 
ATOM     53  F   UNL     1       8.954 -11.274  -2.557  1.00  0.00    -0.200 F 
ENDBRANCH  29  43
BRANCH  30  54
ATOM     54  C   UNL     1       7.249  -2.672   8.647  1.00  0.00     0.064 A 
ATOM     55  C   UNL     1       8.290  -1.889   9.164  1.00  0.00     0.173 A 
ATOM     56  C   UNL     1       6.002  -2.589   9.289  1.00  0.00     0.173 A 
ATOM     57  F   UNL     1       9.508  -1.940   8.604  1.00  0.00    -0.203 F 
ATOM     58  C   UNL     1       8.102  -1.088  10.291  1.00  0.00     0.198 A 
ATOM     59  C   UNL     1       5.803  -1.758  10.390  1.00  0.00     0.198 A 
ATOM     60  F   UNL     1       4.965  -3.315   8.845  1.00  0.00    -0.203 F 
ATOM     61  F   UNL     1       9.133  -0.402  10.802  1.00  0.00    -0.200 F 
ATOM     62  C   UNL     1       6.858  -1.020  10.900  1.00  0.00     0.200 A 
ATOM     63  F   UNL     1       4.593  -1.684  10.960  1.00  0.00    -0.200 F 
ATOM     64  F   UNL     1       6.679  -0.254  11.985  1.00  0.00    -0.200 F 
ENDBRANCH  30  54
BRANCH  42  65
ATOM     65  C   UNL     1      11.100  -8.389   7.645  1.00  0.00     0.064 A 
ATOM     66  C   UNL     1      10.647  -9.115   8.755  1.00  0.00     0.173 A 
ATOM     67  C   UNL     1      12.476  -8.380   7.374  1.00  0.00     0.173 A 
ATOM     68  F   UNL     1       9.340  -9.136   9.061  1.00  0.00    -0.203 F 
ATOM     69  C   UNL     1      11.544  -9.780   9.584  1.00  0.00     0.198 A 
ATOM     70  C   UNL     1      13.365  -9.075   8.184  1.00  0.00     0.198 A 
ATOM     71  F   UNL     1      12.953  -7.704   6.317  1.00  0.00    -0.203 F 
ATOM     72  F   UNL     1      11.097 -10.418  10.674  1.00  0.00    -0.200 F 
ATOM     73  C   UNL     1      12.900  -9.765   9.294  1.00  0.00     0.200 A 
ATOM     74  F   UNL     1      14.673  -9.073   7.894  1.00  0.00    -0.200 F 
ATOM     75  F   UNL     1      13.762 -10.411  10.090  1.00  0.00    -0.200 F 
ENDBRANCH  42  65
ENDBRANCH  16  17
ENDBRANCH   9  11
ENDBRANCH   8   9
ENDBRANCH   7   8
ENDBRANCH   6   7
ENDBRANCH   5   6
ENDBRANCH   4   5
ENDBRANCH   3   4
ENDBRANCH   2   3
ENDBRANCH   1   2
BRANCH   1  76
ATOM     76  C   UNL     1       5.133   2.715   2.096  1.00  0.00     0.188 C 
BRANCH  76  77
ATOM     77  O   UNL     1       4.096   2.039   2.800  1.00  0.00    -0.376 OA
BRANCH  77  78
ATOM     78  C   UNL     1       3.851   2.508   4.124  1.00  0.00     0.202 C 
BRANCH  78  79
ATOM     79  C   UNL     1       3.179   3.890   4.264  1.00  0.00     0.261 C 
BRANCH  79  80
ATOM     80  O   UNL     1       3.575   4.855   3.276  1.00  0.00    -0.463 OA
BRANCH  80  81
ATOM     81  C   UNL     1       4.691   5.581   3.516  1.00  0.00     0.310 C 
ATOM     82  O   UNL     1       5.311   5.575   4.572  1.00  0.00    -0.252 OA
BRANCH  81  83
ATOM     83  C   UNL     1       5.121   6.362   2.277  1.00  0.00     0.117 C 
ATOM     84  C   UNL     1       6.643   6.225   2.100  1.00  0.00     0.017 C 
ATOM     85  C   UNL     1       4.616   7.803   2.274  1.00  0.00     0.084 C 
ATOM     86  C   UNL     1       7.155   7.020   0.909  1.00  0.00     0.001 C 
ATOM     87  C   UNL     1       5.264   8.643   1.167  1.00  0.00     0.021 C 
ATOM     88  C   UNL     1       6.774   8.485   1.057  1.00  0.00     0.002 C 
BRANCH  85  89
ATOM     89  N   UNL     1       4.753   8.358   3.614  1.00  0.00    -0.207 NA
ATOM     90  H   UNL     1       5.741   8.595   3.704  1.00  0.00     0.141 HD
BRANCH  89  91
ATOM     91  S   UNL     1       3.936   9.667   4.219  1.00  0.00     0.240 S 
ATOM     92  O   UNL     1       4.268   9.701   5.616  1.00  0.00    -0.207 OA
ATOM     93  O   UNL     1       4.218  10.796   3.345  1.00  0.00    -0.207 OA
BRANCH  91  94
ATOM     94  C   UNL     1       2.184   9.380   4.118  1.00  0.00     0.083 A 
ATOM     95  C   UNL     1       1.578   8.268   3.536  1.00  0.00     0.022 A 
ATOM     96  C   UNL     1       1.390  10.428   4.597  1.00  0.00     0.030 A 
ATOM     97  C   UNL     1       0.201   8.281   3.283  1.00  0.00     0.010 A 
ATOM     98  C   UNL     1       0.004  10.420   4.412  1.00  0.00    -0.017 A 
ATOM     99  C   UNL     1      -0.596   9.361   3.697  1.00  0.00    -0.018 A 
ATOM    100  C   UNL     1      -0.788  11.462   4.908  1.00  0.00     0.009 A 
ATOM    101  C   UNL     1      -1.974   9.415   3.430  1.00  0.00     0.009 A 
ATOM    102  C   UNL     1      -2.160  11.485   4.664  1.00  0.00     0.001 A 
ATOM    103  C   UNL     1      -2.748  10.475   3.908  1.00  0.00     0.001 A 
ENDBRANCH  91  94
ENDBRANCH  89  91
ENDBRANCH  85  89
ENDBRANCH  81  83
ENDBRANCH  80  81
ENDBRANCH  79  80
ENDBRANCH  78  79
ENDBRANCH  77  78
ENDBRANCH  76  77
ENDBRANCH   1  76
TORSDOF 23
