REMARK SMILES CC(C)[N@@H+](C)Cc1cc2c(cc1Cl)C=C(C(=O)OCCOCCOCCOCCOC(=O)c1ccc(-c3c4nc(c(-c5c(F)c(F)c(F)c(F)c5F)c5ccc([nH]5)c(-c5c(F)c(F)c(F)c(F)c5F)c5nc(c(-c6c(F)c(F)c(F)c(F)c6F)c6ccc3[nH]6)C=C5)C=C4)cc1)[C@@H](C(F)(F)F)O2
REMARK SMILES IDX 23 1 22 2 21 3 20 4 19 5 18 6 16 7 17 8 15 9 7 10 8 11 12 12
REMARK SMILES IDX 9 13 11 14 13 15 10 16 101 17 14 18 96 19 6 20 4 21 5 22
REMARK SMILES IDX 2 24 1 25 3 26 97 27 98 28 99 29 100 30 24 31 25 32 26 33
REMARK SMILES IDX 27 34 28 35 29 36 30 37 31 38 32 39 33 40 34 41 95 42 35 43
REMARK SMILES IDX 94 44 36 45 37 46 38 47 88 48 39 49 93 50 87 51 89 52 40 53
REMARK SMILES IDX 92 54 86 55 85 56 41 58 73 59 53 60 72 61 54 62 57 63 71 64
REMARK SMILES IDX 90 65 55 66 56 67 70 69 91 70 58 71 42 72 43 73 51 74 44 75
REMARK SMILES IDX 45 76 49 77 52 78 46 79 47 80 50 81 48 82 74 83 75 84 83 85
REMARK SMILES IDX 76 86 77 87 81 88 84 89 78 90 79 91 82 92 80 93 59 94 60 95
REMARK SMILES IDX 68 96 61 97 62 98 66 99 69 100 63 101 64 102 67 103 65 104
REMARK H PARENT 4 23 89 57 57 68
REMARK Flexibility Score: inf
ROOT
ATOM      1  C   UNL     1       2.088   4.948  -7.526  1.00  0.00     0.188 C 
ENDROOT
BRANCH   1   2
ATOM      2  C   UNL     1       1.919   4.136  -8.824  1.00  0.00     0.188 C 
BRANCH   2   3
ATOM      3  O   UNL     1       1.858   4.953  -9.992  1.00  0.00    -0.376 OA
BRANCH   3   4
ATOM      4  C   UNL     1       0.573   5.191 -10.555  1.00  0.00     0.202 C 
BRANCH   4   5
ATOM      5  C   UNL     1      -0.402   6.039  -9.724  1.00  0.00     0.261 C 
BRANCH   5   6
ATOM      6  O   UNL     1      -0.713   5.505  -8.428  1.00  0.00    -0.460 OA
BRANCH   6   7
ATOM      7  C   UNL     1      -1.357   4.324  -8.380  1.00  0.00     0.338 C 
ATOM      8  O   UNL     1      -1.769   3.674  -9.324  1.00  0.00    -0.246 OA
BRANCH   7   9
ATOM      9  C   UNL     1      -1.347   3.863  -6.976  1.00  0.00     0.087 C 
ATOM     10  C   UNL     1      -1.263   1.171  -2.717  1.00  0.00     0.029 A 
ATOM     11  C   UNL     1      -1.565   2.500  -3.062  1.00  0.00     0.058 A 
ATOM     12  C   UNL     1      -0.807   0.327  -3.745  1.00  0.00     0.050 A 
ATOM     13  C   UNL     1      -1.410   2.976  -4.364  1.00  0.00     0.128 A 
ATOM     14  C   UNL     1      -0.680   0.797  -5.062  1.00  0.00     0.033 A 
ATOM     15  Cl  UNL     1      -0.413  -1.336  -3.483  1.00  0.00    -0.084 Cl
ATOM     16  C   UNL     1      -1.009   2.116  -5.379  1.00  0.00     0.019 A 
ATOM     17  O   UNL     1      -1.704   4.293  -4.545  1.00  0.00    -0.475 OA
ATOM     18  C   UNL     1      -1.017   2.583  -6.755  1.00  0.00     0.027 C 
ATOM     19  C   UNL     1      -1.629   4.859  -5.880  1.00  0.00     0.316 C 
BRANCH  10  20
ATOM     20  C   UNL     1      -1.525   0.689  -1.302  1.00  0.00     0.300 C 
BRANCH  20  21
ATOM     21  N   UNL     1      -0.856   1.370  -0.188  1.00  0.00    -0.332 N 
ATOM     22  C   UNL     1      -1.414   2.654   0.205  1.00  0.00     0.333 C 
ATOM     23  H   UNL     1      -1.135   0.713   0.540  1.00  0.00     0.348 HD
BRANCH  21  24
ATOM     24  C   UNL     1       0.604   1.293  -0.066  1.00  0.00     0.177 C 
ATOM     25  C   UNL     1       1.081  -0.154   0.097  1.00  0.00     0.075 C 
ATOM     26  C   UNL     1       1.403   1.992  -1.170  1.00  0.00     0.075 C 
ENDBRANCH  21  24
ENDBRANCH  20  21
ENDBRANCH  10  20
BRANCH  19  27
ATOM     27  C   UNL     1      -2.924   5.654  -6.104  1.00  0.00     0.430 C 
ATOM     28  F   UNL     1      -3.155   6.508  -5.077  1.00  0.00    -0.167 F 
ATOM     29  F   UNL     1      -2.884   6.405  -7.227  1.00  0.00    -0.167 F 
ATOM     30  F   UNL     1      -3.999   4.838  -6.202  1.00  0.00    -0.167 F 
ENDBRANCH  19  27
ENDBRANCH   7   9
ENDBRANCH   6   7
ENDBRANCH   5   6
ENDBRANCH   4   5
ENDBRANCH   3   4
ENDBRANCH   2   3
ENDBRANCH   1   2
BRANCH   1  31
ATOM     31  O   UNL     1       1.888   6.340  -7.722  1.00  0.00    -0.377 OA
BRANCH  31  32
ATOM     32  C   UNL     1       3.003   7.102  -8.184  1.00  0.00     0.188 C 
BRANCH  32  33
ATOM     33  C   UNL     1       4.122   6.458  -9.035  1.00  0.00     0.188 C 
BRANCH  33  34
ATOM     34  O   UNL     1       4.639   5.252  -8.476  1.00  0.00    -0.376 OA
BRANCH  34  35
ATOM     35  C   UNL     1       5.963   5.302  -7.962  1.00  0.00     0.202 C 
BRANCH  35  36
ATOM     36  C   UNL     1       6.053   5.928  -6.566  1.00  0.00     0.261 C 
BRANCH  36  37
ATOM     37  O   UNL     1       5.641   7.301  -6.490  1.00  0.00    -0.460 OA
BRANCH  37  38
ATOM     38  C   UNL     1       6.307   8.199  -7.249  1.00  0.00     0.338 C 
ATOM     39  O   UNL     1       7.274   7.995  -7.960  1.00  0.00    -0.246 OA
BRANCH  38  40
ATOM     40  C   UNL     1       5.533   9.457  -7.224  1.00  0.00     0.060 A 
ATOM     41  C   UNL     1       5.107   9.997  -6.008  1.00  0.00     0.016 A 
ATOM     42  C   UNL     1       5.207  10.084  -8.434  1.00  0.00     0.016 A 
ATOM     43  C   UNL     1       4.387  11.191  -6.000  1.00  0.00     0.010 A 
ATOM     44  C   UNL     1       4.481  11.277  -8.425  1.00  0.00     0.010 A 
ATOM     45  C   UNL     1       4.094  11.853  -7.206  1.00  0.00    -0.014 A 
BRANCH  45  46
ATOM     46  C   UNL     1       3.579  13.241  -7.159  1.00  0.00     0.031 A 
ATOM     47  C   UNL     1       2.134  13.568  -7.361  1.00  0.00     0.074 A 
ATOM     48  C   UNL     1       4.469  14.219  -6.907  1.00  0.00     0.049 A 
ATOM     49  N   UNL     1       1.532  14.724  -7.232  1.00  0.00    -0.248 NA
ATOM     50  C   UNL     1       1.250  12.467  -7.764  1.00  0.00     0.031 C 
ATOM     51  C   UNL     1       5.907  14.011  -6.723  1.00  0.00     0.029 A 
ATOM     52  N   UNL     1       4.303  15.570  -6.746  1.00  0.00    -0.354 N 
ATOM     53  C   UNL     1       0.194  14.489  -7.509  1.00  0.00     0.074 A 
ATOM     54  C   UNL     1       0.080  13.087  -7.863  1.00  0.00     0.031 C 
ATOM     55  C   UNL     1       6.487  15.186  -6.444  1.00  0.00     0.029 A 
ATOM     56  C   UNL     1       5.468  16.231  -6.448  1.00  0.00     0.049 A 
ATOM     57  H   UNL     1       3.433  16.022  -6.835  1.00  0.00     0.167 HD
ATOM     58  C   UNL     1      -0.839  15.364  -7.452  1.00  0.00     0.037 A 
ATOM     59  C   UNL     1       5.692  17.533  -6.193  1.00  0.00     0.037 A 
ATOM     60  C   UNL     1      -0.708  16.761  -7.117  1.00  0.00     0.049 A 
ATOM     61  C   UNL     1       4.533  18.486  -6.179  1.00  0.00     0.074 A 
ATOM     62  C   UNL     1      -1.704  17.716  -6.997  1.00  0.00     0.029 A 
ATOM     63  N   UNL     1       0.493  17.408  -6.864  1.00  0.00    -0.354 N 
ATOM     64  N   UNL     1       3.259  18.238  -6.361  1.00  0.00    -0.248 NA
ATOM     65  C   UNL     1       4.840  19.898  -5.916  1.00  0.00     0.031 C 
ATOM     66  C   UNL     1      -1.103  18.948  -6.723  1.00  0.00     0.029 A 
ATOM     67  C   UNL     1       0.265  18.755  -6.619  1.00  0.00     0.049 A 
ATOM     68  H   UNL     1       1.378  16.976  -6.859  1.00  0.00     0.167 HD
ATOM     69  C   UNL     1       2.610  19.455  -6.215  1.00  0.00     0.074 A 
ATOM     70  C   UNL     1       3.629  20.439  -5.913  1.00  0.00     0.031 C 
ATOM     71  C   UNL     1       1.287  19.728  -6.323  1.00  0.00     0.037 A 
BRANCH  58  72
ATOM     72  C   UNL     1      -2.219  14.845  -7.740  1.00  0.00     0.064 A 
ATOM     73  C   UNL     1      -2.891  14.023  -6.825  1.00  0.00     0.173 A 
ATOM     74  C   UNL     1      -2.915  15.257  -8.887  1.00  0.00     0.173 A 
ATOM     75  F   UNL     1      -2.270  13.602  -5.713  1.00  0.00    -0.203 F 
ATOM     76  C   UNL     1      -4.206  13.623  -7.051  1.00  0.00     0.198 A 
ATOM     77  C   UNL     1      -4.238  14.875  -9.099  1.00  0.00     0.198 A 
ATOM     78  F   UNL     1      -2.322  16.054  -9.789  1.00  0.00    -0.203 F 
ATOM     79  F   UNL     1      -4.822  12.821  -6.172  1.00  0.00    -0.200 F 
ATOM     80  C   UNL     1      -4.881  14.057  -8.182  1.00  0.00     0.200 A 
ATOM     81  F   UNL     1      -4.894  15.310 -10.183  1.00  0.00    -0.200 F 
ATOM     82  F   UNL     1      -6.154  13.690  -8.387  1.00  0.00    -0.200 F 
ENDBRANCH  58  72
BRANCH  59  83
ATOM     83  C   UNL     1       7.070  17.986  -5.879  1.00  0.00     0.064 A 
ATOM     84  C   UNL     1       7.417  18.375  -4.579  1.00  0.00     0.173 A 
ATOM     85  C   UNL     1       8.075  17.995  -6.857  1.00  0.00     0.173 A 
ATOM     86  F   UNL     1       6.485  18.394  -3.615  1.00  0.00    -0.203 F 
ATOM     87  C   UNL     1       8.718  18.763  -4.270  1.00  0.00     0.198 A 
ATOM     88  C   UNL     1       9.381  18.358  -6.541  1.00  0.00     0.198 A 
ATOM     89  F   UNL     1       7.792  17.621  -8.114  1.00  0.00    -0.203 F 
ATOM     90  F   UNL     1       9.019  19.156  -3.025  1.00  0.00    -0.200 F 
ATOM     91  C   UNL     1       9.701  18.746  -5.248  1.00  0.00     0.200 A 
ATOM     92  F   UNL     1      10.331  18.323  -7.485  1.00  0.00    -0.200 F 
ATOM     93  F   UNL     1      10.956  19.105  -4.946  1.00  0.00    -0.200 F 
ENDBRANCH  59  83
BRANCH  71  94
ATOM     94  C   UNL     1       0.854  21.148  -6.104  1.00  0.00     0.064 A 
ATOM     95  C   UNL     1       1.114  22.147  -7.054  1.00  0.00     0.173 A 
ATOM     96  C   UNL     1       0.115  21.502  -4.964  1.00  0.00     0.173 A 
ATOM     97  F   UNL     1       1.829  21.864  -8.153  1.00  0.00    -0.203 F 
ATOM     98  C   UNL     1       0.661  23.450  -6.864  1.00  0.00     0.198 A 
ATOM     99  C   UNL     1      -0.359  22.799  -4.792  1.00  0.00     0.198 A 
ATOM    100  F   UNL     1      -0.164  20.582  -4.028  1.00  0.00    -0.203 F 
ATOM    101  F   UNL     1       0.952  24.396  -7.768  1.00  0.00    -0.200 F 
ATOM    102  C   UNL     1      -0.083  23.773  -5.739  1.00  0.00     0.200 A 
ATOM    103  F   UNL     1      -1.090  23.105  -3.711  1.00  0.00    -0.200 F 
ATOM    104  F   UNL     1      -0.531  25.024  -5.566  1.00  0.00    -0.200 F 
ENDBRANCH  71  94
ENDBRANCH  45  46
ENDBRANCH  38  40
ENDBRANCH  37  38
ENDBRANCH  36  37
ENDBRANCH  35  36
ENDBRANCH  34  35
ENDBRANCH  33  34
ENDBRANCH  32  33
ENDBRANCH  31  32
ENDBRANCH   1  31
TORSDOF 24
