REMARK SMILES C[C@H](NS(=O)(=O)c1ccc(-c2cc(-c3ccccc3)c3cc([N+](=O)[O-])ccc3n2)cc1)C(=O)OCCOCCOCCOCCOC(=O)c1ccc(-c2c3nc(c(-c4c(F)c(F)c(F)c(F)c4F)c4ccc([nH]4)c(-c4c(F)c(F)c(F)c(F)c4F)c4nc(c(-c5c(F)c(F)c(F)c(F)c5F)c5ccc2[nH]5)C=C4)C=C3)cc1
REMARK SMILES IDX 38 1 37 2 36 3 35 4 34 5 32 6 33 7 2 8 1 9 3 10 4 12 5 13
REMARK SMILES IDX 6 14 7 15 8 16 31 17 9 18 30 19 10 20 11 21 12 22 29 23
REMARK SMILES IDX 13 24 28 25 20 26 27 27 21 28 26 29 22 30 14 31 15 32 19 33
REMARK SMILES IDX 16 34 18 35 17 36 23 37 24 38 25 39 39 40 40 41 41 42 42 43
REMARK SMILES IDX 43 44 44 45 45 46 46 47 47 48 48 49 49 50 50 51 111 52 51 53
REMARK SMILES IDX 110 54 52 55 53 56 54 57 104 58 55 59 109 60 103 61 105 62
REMARK SMILES IDX 56 63 108 64 102 65 101 66 57 68 89 69 69 70 88 71 70 72
REMARK SMILES IDX 73 73 87 74 106 75 71 76 72 77 86 79 107 80 74 81 58 82
REMARK SMILES IDX 59 83 67 84 60 85 61 86 65 87 68 88 62 89 63 90 66 91 64 92
REMARK SMILES IDX 90 93 91 94 99 95 92 96 93 97 97 98 100 99 94 100 95 101
REMARK SMILES IDX 98 102 96 103 75 104 76 105 84 106 77 107 78 108 82 109
REMARK SMILES IDX 85 110 79 111 80 112 83 113 81 114
REMARK H PARENT 3 11 105 67 73 78
REMARK Flexibility Score: inf
ROOT
ATOM      1  C   UNL     1      -2.192   0.088  -2.226  1.00  0.00     0.188 C 
ENDROOT
BRANCH   1   2
ATOM      2  O   UNL     1      -3.402  -0.316  -1.575  1.00  0.00    -0.376 OA
BRANCH   2   3
ATOM      3  C   UNL     1      -3.493  -1.685  -1.189  1.00  0.00     0.202 C 
BRANCH   3   4
ATOM      4  C   UNL     1      -2.897  -1.945   0.197  1.00  0.00     0.261 C 
BRANCH   4   5
ATOM      5  O   UNL     1      -1.466  -1.779   0.216  1.00  0.00    -0.462 OA
BRANCH   5   6
ATOM      6  C   UNL     1      -0.752  -2.757  -0.369  1.00  0.00     0.323 C 
ATOM      7  O   UNL     1      -1.275  -3.779  -0.810  1.00  0.00    -0.250 OA
BRANCH   6   8
ATOM      8  C   UNL     1       0.709  -2.432  -0.604  1.00  0.00     0.176 C 
ATOM      9  C   UNL     1       1.473  -3.754  -0.504  1.00  0.00     0.038 C 
BRANCH   8  10
ATOM     10  N   UNL     1       1.565  -1.340  -0.103  1.00  0.00    -0.197 NA
ATOM     11  H   UNL     1       1.467  -0.615  -0.814  1.00  0.00     0.142 HD
BRANCH  10  12
ATOM     12  S   UNL     1       1.567  -0.486   1.327  1.00  0.00     0.241 S 
ATOM     13  O   UNL     1       2.516   0.585   1.112  1.00  0.00    -0.207 OA
ATOM     14  O   UNL     1       0.205  -0.217   1.720  1.00  0.00    -0.207 OA
BRANCH  12  15
ATOM     15  C   UNL     1       2.281  -1.516   2.588  1.00  0.00     0.082 A 
ATOM     16  C   UNL     1       2.782  -2.775   2.284  1.00  0.00     0.022 A 
ATOM     17  C   UNL     1       2.009  -1.175   3.912  1.00  0.00     0.022 A 
ATOM     18  C   UNL     1       2.567  -3.813   3.191  1.00  0.00     0.012 A 
ATOM     19  C   UNL     1       1.947  -2.191   4.861  1.00  0.00     0.012 A 
ATOM     20  C   UNL     1       1.938  -3.535   4.411  1.00  0.00     0.000 A 
BRANCH  20  21
ATOM     21  C   UNL     1       0.704  -4.315   4.774  1.00  0.00     0.072 A 
ATOM     22  C   UNL     1       0.423  -4.608   6.095  1.00  0.00     0.038 A 
ATOM     23  N   UNL     1      -0.305  -3.888   3.969  1.00  0.00    -0.248 NA
ATOM     24  C   UNL     1      -0.695  -3.987   6.668  1.00  0.00    -0.007 A 
ATOM     25  C   UNL     1      -1.146  -3.020   4.524  1.00  0.00     0.072 A 
ATOM     26  C   UNL     1      -1.295  -2.951   5.915  1.00  0.00     0.015 A 
ATOM     27  C   UNL     1      -1.678  -2.025   3.724  1.00  0.00     0.036 A 
ATOM     28  C   UNL     1      -1.819  -1.771   6.487  1.00  0.00     0.096 A 
ATOM     29  C   UNL     1      -2.115  -0.822   4.272  1.00  0.00     0.088 A 
ATOM     30  C   UNL     1      -2.091  -0.674   5.657  1.00  0.00     0.270 A 
BRANCH  24  31
ATOM     31  C   UNL     1      -1.193  -4.370   7.995  1.00  0.00    -0.018 A 
ATOM     32  C   UNL     1      -2.554  -4.706   8.134  1.00  0.00     0.009 A 
ATOM     33  C   UNL     1      -0.362  -4.492   9.115  1.00  0.00     0.009 A 
ATOM     34  C   UNL     1      -3.066  -5.158   9.348  1.00  0.00     0.001 A 
ATOM     35  C   UNL     1      -0.878  -4.933  10.336  1.00  0.00     0.001 A 
ATOM     36  C   UNL     1      -2.226  -5.267  10.451  1.00  0.00     0.000 A 
ENDBRANCH  24  31
BRANCH  30  37
ATOM     37  N   UNL     1      -2.114   0.676   6.234  1.00  0.00     0.062 N 
ATOM     38  O   UNL     1      -2.109   0.768   7.468  1.00  0.00    -0.258 OA
ATOM     39  O   UNL     1      -2.090   1.637   5.452  1.00  0.00    -0.258 OA
ENDBRANCH  30  37
ENDBRANCH  20  21
ENDBRANCH  12  15
ENDBRANCH  10  12
ENDBRANCH   8  10
ENDBRANCH   6   8
ENDBRANCH   5   6
ENDBRANCH   4   5
ENDBRANCH   3   4
ENDBRANCH   2   3
ENDBRANCH   1   2
BRANCH   1  40
ATOM     40  C   UNL     1      -1.190   0.804  -1.308  1.00  0.00     0.188 C 
BRANCH  40  41
ATOM     41  O   UNL     1      -1.570   2.048  -0.741  1.00  0.00    -0.377 OA
BRANCH  41  42
ATOM     42  C   UNL     1      -2.841   2.067  -0.101  1.00  0.00     0.188 C 
BRANCH  42  43
ATOM     43  C   UNL     1      -3.922   2.610  -1.048  1.00  0.00     0.188 C 
BRANCH  43  44
ATOM     44  O   UNL     1      -3.376   3.131  -2.261  1.00  0.00    -0.376 OA
BRANCH  44  45
ATOM     45  C   UNL     1      -3.106   4.531  -2.276  1.00  0.00     0.202 C 
BRANCH  45  46
ATOM     46  C   UNL     1      -2.043   5.051  -1.291  1.00  0.00     0.261 C 
BRANCH  46  47
ATOM     47  O   UNL     1      -2.410   4.977   0.101  1.00  0.00    -0.460 OA
BRANCH  47  48
ATOM     48  C   UNL     1      -3.527   5.628   0.484  1.00  0.00     0.338 C 
ATOM     49  O   UNL     1      -4.218   6.371  -0.190  1.00  0.00    -0.246 OA
BRANCH  48  50
ATOM     50  C   UNL     1      -3.906   5.160   1.835  1.00  0.00     0.060 A 
ATOM     51  C   UNL     1      -5.221   4.724   2.041  1.00  0.00     0.016 A 
ATOM     52  C   UNL     1      -2.997   5.186   2.896  1.00  0.00     0.016 A 
ATOM     53  C   UNL     1      -5.650   4.375   3.323  1.00  0.00     0.010 A 
ATOM     54  C   UNL     1      -3.433   4.852   4.183  1.00  0.00     0.010 A 
ATOM     55  C   UNL     1      -4.773   4.490   4.410  1.00  0.00    -0.014 A 
BRANCH  55  56
ATOM     56  C   UNL     1      -5.313   4.476   5.793  1.00  0.00     0.031 A 
ATOM     57  C   UNL     1      -5.731   5.788   6.404  1.00  0.00     0.074 A 
ATOM     58  C   UNL     1      -5.460   3.341   6.498  1.00  0.00     0.049 A 
ATOM     59  N   UNL     1      -6.228   6.033   7.591  1.00  0.00    -0.248 NA
ATOM     60  C   UNL     1      -5.592   6.981   5.553  1.00  0.00     0.031 C 
ATOM     61  C   UNL     1      -5.165   1.993   6.023  1.00  0.00     0.029 A 
ATOM     62  N   UNL     1      -5.874   3.156   7.795  1.00  0.00    -0.354 N 
ATOM     63  C   UNL     1      -6.501   7.393   7.609  1.00  0.00     0.074 A 
ATOM     64  C   UNL     1      -6.063   7.935   6.342  1.00  0.00     0.031 C 
ATOM     65  C   UNL     1      -5.330   1.125   7.040  1.00  0.00     0.029 A 
ATOM     66  C   UNL     1      -5.743   1.861   8.230  1.00  0.00     0.049 A 
ATOM     67  H   UNL     1      -6.229   3.882   8.357  1.00  0.00     0.167 HD
ATOM     68  C   UNL     1      -7.093   8.125   8.582  1.00  0.00     0.037 A 
ATOM     69  C   UNL     1      -5.911   1.345   9.461  1.00  0.00     0.037 A 
ATOM     70  C   UNL     1      -7.506   7.611   9.858  1.00  0.00     0.049 A 
ATOM     71  C   UNL     1      -6.405   2.218  10.584  1.00  0.00     0.074 A 
ATOM     72  C   UNL     1      -8.153   8.270  10.889  1.00  0.00     0.029 A 
ATOM     73  N   UNL     1      -7.287   6.313  10.287  1.00  0.00    -0.354 N 
ATOM     74  N   UNL     1      -6.723   3.487  10.573  1.00  0.00    -0.248 NA
ATOM     75  C   UNL     1      -6.595   1.562  11.889  1.00  0.00     0.031 C 
ATOM     76  C   UNL     1      -8.287   7.380  11.961  1.00  0.00     0.029 A 
ATOM     77  C   UNL     1      -7.755   6.160  11.581  1.00  0.00     0.049 A 
ATOM     78  H   UNL     1      -6.862   5.604   9.751  1.00  0.00     0.167 HD
ATOM     79  C   UNL     1      -7.185   3.771  11.850  1.00  0.00     0.074 A 
ATOM     80  C   UNL     1      -7.099   2.548  12.616  1.00  0.00     0.031 C 
ATOM     81  C   UNL     1      -7.661   4.941  12.337  1.00  0.00     0.037 A 
BRANCH  68  82
ATOM     82  C   UNL     1      -7.337   9.571   8.291  1.00  0.00     0.064 A 
ATOM     83  C   UNL     1      -8.378   9.971   7.439  1.00  0.00     0.173 A 
ATOM     84  C   UNL     1      -6.550  10.564   8.888  1.00  0.00     0.173 A 
ATOM     85  F   UNL     1      -9.148   9.052   6.836  1.00  0.00    -0.203 F 
ATOM     86  C   UNL     1      -8.611  11.318   7.182  1.00  0.00     0.198 A 
ATOM     87  C   UNL     1      -6.798  11.912   8.642  1.00  0.00     0.198 A 
ATOM     88  F   UNL     1      -5.544  10.228   9.709  1.00  0.00    -0.203 F 
ATOM     89  F   UNL     1      -9.591  11.679   6.342  1.00  0.00    -0.200 F 
ATOM     90  C   UNL     1      -7.825  12.287   7.788  1.00  0.00     0.200 A 
ATOM     91  F   UNL     1      -6.042  12.848   9.231  1.00  0.00    -0.200 F 
ATOM     92  F   UNL     1      -8.053  13.585   7.543  1.00  0.00    -0.200 F 
ENDBRANCH  68  82
BRANCH  69  93
ATOM     93  C   UNL     1      -5.600  -0.072   9.755  1.00  0.00     0.064 A 
ATOM     94  C   UNL     1      -6.621  -1.026   9.834  1.00  0.00     0.173 A 
ATOM     95  C   UNL     1      -4.310  -0.442  10.159  1.00  0.00     0.173 A 
ATOM     96  F   UNL     1      -7.875  -0.696   9.497  1.00  0.00    -0.203 F 
ATOM     97  C   UNL     1      -6.371  -2.291  10.357  1.00  0.00     0.198 A 
ATOM     98  C   UNL     1      -4.060  -1.711  10.673  1.00  0.00     0.198 A 
ATOM     99  F   UNL     1      -3.317   0.457  10.142  1.00  0.00    -0.203 F 
ATOM    100  F   UNL     1      -7.375  -3.167  10.498  1.00  0.00    -0.200 F 
ATOM    101  C   UNL     1      -5.098  -2.624  10.795  1.00  0.00     0.200 A 
ATOM    102  F   UNL     1      -2.833  -2.025  11.110  1.00  0.00    -0.200 F 
ATOM    103  F   UNL     1      -4.887  -3.812  11.378  1.00  0.00    -0.200 F 
ENDBRANCH  69  93
BRANCH  81 104
ATOM    104  C   UNL     1      -8.164   4.939  13.748  1.00  0.00     0.064 A 
ATOM    105  C   UNL     1      -7.287   4.913  14.841  1.00  0.00     0.173 A 
ATOM    106  C   UNL     1      -9.543   4.965  14.006  1.00  0.00     0.173 A 
ATOM    107  F   UNL     1      -5.962   4.860  14.641  1.00  0.00    -0.203 F 
ATOM    108  C   UNL     1      -7.774   4.894  16.145  1.00  0.00     0.198 A 
ATOM    109  C   UNL     1     -10.025   4.969  15.311  1.00  0.00     0.198 A 
ATOM    110  F   UNL     1     -10.421   4.984  12.992  1.00  0.00    -0.203 F 
ATOM    111  F   UNL     1      -6.920   4.823  17.176  1.00  0.00    -0.200 F 
ATOM    112  C   UNL     1      -9.141   4.927  16.379  1.00  0.00     0.200 A 
ATOM    113  F   UNL     1     -11.345   5.004  15.536  1.00  0.00    -0.200 F 
ATOM    114  F   UNL     1      -9.607   4.907  17.635  1.00  0.00    -0.200 F 
ENDBRANCH  81 104
ENDBRANCH  55  56
ENDBRANCH  48  50
ENDBRANCH  47  48
ENDBRANCH  46  47
ENDBRANCH  45  46
ENDBRANCH  44  45
ENDBRANCH  43  44
ENDBRANCH  42  43
ENDBRANCH  41  42
ENDBRANCH  40  41
ENDBRANCH   1  40
TORSDOF 26
