REMARK SMILES Cc1ccc(-c2ncc(C(=O)OCCOCCOCCOCCOC(=O)c3ccc(-c4c5nc(c(-c6c(F)c(F)c(F)c(F)c6F)c6ccc([nH]6)c(-c6c(F)c(F)c(F)c(F)c6F)c6nc(c(-c7c(F)c(F)c(F)c(F)c7F)c7ccc4[nH]7)C=C6)C=C5)cc3)c(Nc3ccccc3)n2)cc1
REMARK SMILES IDX 18 1 17 2 16 3 15 4 14 5 13 6 12 7 10 8 11 9 9 10 6 11 7 12
REMARK SMILES IDX 98 13 8 14 90 15 5 16 1 17 2 18 3 19 100 20 4 21 99 22 91 23
REMARK SMILES IDX 92 25 93 26 97 27 94 28 96 29 95 30 19 31 20 32 21 33 22 34
REMARK SMILES IDX 23 35 24 36 25 37 26 38 27 39 28 40 89 41 29 42 88 43 30 44
REMARK SMILES IDX 31 45 32 46 82 47 33 48 87 49 81 50 83 51 34 52 86 53 80 54
REMARK SMILES IDX 79 55 35 57 67 58 47 59 66 60 48 61 51 62 65 63 84 64 49 65
REMARK SMILES IDX 50 66 64 68 85 69 52 70 36 71 37 72 45 73 38 74 39 75 43 76
REMARK SMILES IDX 46 77 40 78 41 79 44 80 42 81 68 82 69 83 77 84 70 85 71 86
REMARK SMILES IDX 75 87 78 88 72 89 73 90 76 91 74 92 53 93 54 94 62 95 55 96
REMARK SMILES IDX 56 97 60 98 63 99 57 100 58 101 61 102 59 103
REMARK H PARENT 91 24 83 56 51 67
REMARK Flexibility Score: inf
ROOT
ATOM      1  O   UNL     1      -6.852   1.954   1.787  1.00  0.00    -0.377 OA
ENDROOT
BRANCH   1   2
ATOM      2  C   UNL     1      -6.010   2.612   0.836  1.00  0.00     0.188 C 
BRANCH   2   3
ATOM      3  C   UNL     1      -6.590   3.073  -0.521  1.00  0.00     0.188 C 
BRANCH   3   4
ATOM      4  O   UNL     1      -6.878   2.052  -1.471  1.00  0.00    -0.376 OA
BRANCH   4   5
ATOM      5  C   UNL     1      -7.976   1.241  -1.117  1.00  0.00     0.202 C 
BRANCH   5   6
ATOM      6  C   UNL     1      -7.996   0.046  -2.036  1.00  0.00     0.261 C 
BRANCH   6   7
ATOM      7  O   UNL     1      -7.000  -0.860  -1.569  1.00  0.00    -0.460 OA
BRANCH   7   8
ATOM      8  C   UNL     1      -5.931  -0.891  -2.373  1.00  0.00     0.343 C 
ATOM      9  O   UNL     1      -5.910  -0.958  -3.576  1.00  0.00    -0.246 OA
BRANCH   8  10
ATOM     10  C   UNL     1      -4.847  -0.471  -1.507  1.00  0.00     0.121 A 
ATOM     11  C   UNL     1      -2.721   0.255  -0.123  1.00  0.00     0.161 A 
ATOM     12  N   UNL     1      -3.465  -0.744   0.396  1.00  0.00    -0.236 NA
ATOM     13  N   UNL     1      -3.079   1.048  -1.150  1.00  0.00    -0.210 NA
ATOM     14  C   UNL     1      -4.545  -1.083  -0.319  1.00  0.00     0.133 A 
ATOM     15  C   UNL     1      -4.171   0.685  -1.828  1.00  0.00     0.149 A 
BRANCH  11  16
ATOM     16  C   UNL     1      -1.288   0.216   0.132  1.00  0.00     0.019 A 
ATOM     17  C   UNL     1       3.002  -0.047   0.038  1.00  0.00     0.044 C 
ATOM     18  C   UNL     1       1.512   0.058   0.125  1.00  0.00    -0.051 A 
ATOM     19  C   UNL     1       0.746  -1.110   0.181  1.00  0.00     0.004 A 
ATOM     20  C   UNL     1       0.877   1.304   0.107  1.00  0.00     0.004 A 
ATOM     21  C   UNL     1      -0.640  -1.029   0.197  1.00  0.00     0.012 A 
ATOM     22  C   UNL     1      -0.513   1.383   0.108  1.00  0.00     0.012 A 
ENDBRANCH  11  16
BRANCH  15  23
ATOM     23  N   UNL     1      -4.724   1.587  -2.739  1.00  0.00    -0.339 N 
ATOM     24  H   UNL     1      -5.612   1.925  -2.479  1.00  0.00     0.168 HD
BRANCH  23  25
ATOM     25  C   UNL     1      -4.256   2.095  -3.939  1.00  0.00     0.040 A 
ATOM     26  C   UNL     1      -4.620   3.396  -4.304  1.00  0.00     0.026 A 
ATOM     27  C   UNL     1      -3.453   1.337  -4.786  1.00  0.00     0.026 A 
ATOM     28  C   UNL     1      -4.172   3.941  -5.502  1.00  0.00     0.002 A 
ATOM     29  C   UNL     1      -3.031   1.868  -6.000  1.00  0.00     0.002 A 
ATOM     30  C   UNL     1      -3.378   3.173  -6.351  1.00  0.00     0.000 A 
ENDBRANCH  23  25
ENDBRANCH  15  23
ENDBRANCH   8  10
ENDBRANCH   7   8
ENDBRANCH   6   7
ENDBRANCH   5   6
ENDBRANCH   4   5
ENDBRANCH   3   4
ENDBRANCH   2   3
ENDBRANCH   1   2
BRANCH   1  31
ATOM     31  C   UNL     1      -8.036   2.635   2.162  1.00  0.00     0.188 C 
BRANCH  31  32
ATOM     32  C   UNL     1      -7.952   4.083   2.506  1.00  0.00     0.188 C 
BRANCH  32  33
ATOM     33  O   UNL     1      -8.235   4.780   1.307  1.00  0.00    -0.376 OA
BRANCH  33  34
ATOM     34  C   UNL     1      -8.123   6.186   1.417  1.00  0.00     0.202 C 
BRANCH  34  35
ATOM     35  C   UNL     1      -9.010   6.756   2.532  1.00  0.00     0.261 C 
BRANCH  35  36
ATOM     36  O   UNL     1     -10.386   6.424   2.229  1.00  0.00    -0.460 OA
BRANCH  36  37
ATOM     37  C   UNL     1     -11.031   5.609   3.113  1.00  0.00     0.338 C 
ATOM     38  O   UNL     1     -11.017   5.737   4.326  1.00  0.00    -0.246 OA
BRANCH  37  39
ATOM     39  C   UNL     1     -11.495   4.365   2.413  1.00  0.00     0.060 A 
ATOM     40  C   UNL     1     -11.924   3.244   3.147  1.00  0.00     0.016 A 
ATOM     41  C   UNL     1     -11.186   4.206   1.071  1.00  0.00     0.016 A 
ATOM     42  C   UNL     1     -11.848   1.944   2.595  1.00  0.00     0.010 A 
ATOM     43  C   UNL     1     -11.032   2.925   0.569  1.00  0.00     0.010 A 
ATOM     44  C   UNL     1     -11.302   1.767   1.327  1.00  0.00    -0.014 A 
BRANCH  44  45
ATOM     45  C   UNL     1     -10.880   0.471   0.710  1.00  0.00     0.031 A 
ATOM     46  C   UNL     1     -11.383   0.202  -0.695  1.00  0.00     0.074 A 
ATOM     47  C   UNL     1      -9.809  -0.199   1.236  1.00  0.00     0.049 A 
ATOM     48  N   UNL     1     -11.067  -0.787  -1.458  1.00  0.00    -0.248 NA
ATOM     49  C   UNL     1     -12.242   1.144  -1.413  1.00  0.00     0.031 C 
ATOM     50  C   UNL     1      -8.923  -1.189   0.611  1.00  0.00     0.029 A 
ATOM     51  N   UNL     1      -9.181  -0.065   2.489  1.00  0.00    -0.354 N 
ATOM     52  C   UNL     1     -11.321  -0.447  -2.792  1.00  0.00     0.074 A 
ATOM     53  C   UNL     1     -12.097   0.759  -2.684  1.00  0.00     0.031 C 
ATOM     54  C   UNL     1      -8.008  -1.670   1.472  1.00  0.00     0.029 A 
ATOM     55  C   UNL     1      -8.476  -1.258   2.760  1.00  0.00     0.049 A 
ATOM     56  H   UNL     1      -9.225   0.725   3.075  1.00  0.00     0.167 HD
ATOM     57  C   UNL     1     -10.714  -1.164  -3.805  1.00  0.00     0.037 A 
ATOM     58  C   UNL     1      -8.950  -2.110   3.703  1.00  0.00     0.037 A 
ATOM     59  C   UNL     1      -9.979  -2.330  -3.225  1.00  0.00     0.049 A 
ATOM     60  C   UNL     1      -9.549  -3.303   2.921  1.00  0.00     0.074 A 
ATOM     61  C   UNL     1      -8.678  -2.805  -3.283  1.00  0.00     0.029 A 
ATOM     62  N   UNL     1     -10.570  -3.070  -2.181  1.00  0.00    -0.354 N 
ATOM     63  N   UNL     1     -10.126  -3.208   1.727  1.00  0.00    -0.248 NA
ATOM     64  C   UNL     1      -9.133  -4.679   3.199  1.00  0.00     0.031 C 
ATOM     65  C   UNL     1      -8.441  -3.606  -2.118  1.00  0.00     0.029 A 
ATOM     66  C   UNL     1      -9.627  -3.722  -1.396  1.00  0.00     0.049 A 
ATOM     67  H   UNL     1     -11.541  -3.119  -2.026  1.00  0.00     0.167 HD
ATOM     68  C   UNL     1      -9.944  -4.387   1.023  1.00  0.00     0.074 A 
ATOM     69  C   UNL     1      -9.382  -5.290   2.025  1.00  0.00     0.031 C 
ATOM     70  C   UNL     1     -10.038  -4.644  -0.333  1.00  0.00     0.037 A 
BRANCH  57  71
ATOM     71  C   UNL     1     -10.575  -0.709  -5.300  1.00  0.00     0.064 A 
ATOM     72  C   UNL     1      -9.681  -1.345  -6.205  1.00  0.00     0.173 A 
ATOM     73  C   UNL     1     -11.277   0.355  -5.916  1.00  0.00     0.173 A 
ATOM     74  F   UNL     1      -9.000  -2.442  -5.862  1.00  0.00    -0.203 F 
ATOM     75  C   UNL     1      -9.469  -0.920  -7.536  1.00  0.00     0.198 A 
ATOM     76  C   UNL     1     -11.072   0.779  -7.246  1.00  0.00     0.198 A 
ATOM     77  F   UNL     1     -12.250   1.017  -5.295  1.00  0.00    -0.203 F 
ATOM     78  F   UNL     1      -8.596  -1.576  -8.316  1.00  0.00    -0.200 F 
ATOM     79  C   UNL     1     -10.163   0.146  -8.056  1.00  0.00     0.200 A 
ATOM     80  F   UNL     1     -11.793   1.801  -7.734  1.00  0.00    -0.200 F 
ATOM     81  F   UNL     1      -9.990   0.534  -9.328  1.00  0.00    -0.200 F 
ENDBRANCH  57  71
BRANCH  58  82
ATOM     82  C   UNL     1      -9.179  -1.270   4.947  1.00  0.00     0.064 A 
ATOM     83  C   UNL     1      -7.975  -0.662   5.431  1.00  0.00     0.173 A 
ATOM     84  C   UNL     1     -10.349  -0.521   5.161  1.00  0.00     0.173 A 
ATOM     85  F   UNL     1      -6.808  -1.313   5.294  1.00  0.00    -0.203 F 
ATOM     86  C   UNL     1      -7.913   0.688   5.806  1.00  0.00     0.198 A 
ATOM     87  C   UNL     1     -10.285   0.819   5.606  1.00  0.00     0.198 A 
ATOM     88  F   UNL     1     -11.538  -1.000   4.773  1.00  0.00    -0.203 F 
ATOM     89  F   UNL     1      -6.724   1.286   5.985  1.00  0.00    -0.200 F 
ATOM     90  C   UNL     1      -9.067   1.441   5.848  1.00  0.00     0.200 A 
ATOM     91  F   UNL     1     -11.406   1.552   5.685  1.00  0.00    -0.200 F 
ATOM     92  F   UNL     1      -8.999   2.769   6.040  1.00  0.00    -0.200 F 
ENDBRANCH  58  82
BRANCH  70  93
ATOM     93  C   UNL     1     -10.604  -5.961  -0.831  1.00  0.00     0.064 A 
ATOM     94  C   UNL     1     -11.432  -6.750  -0.021  1.00  0.00     0.173 A 
ATOM     95  C   UNL     1     -10.557  -6.328  -2.204  1.00  0.00     0.173 A 
ATOM     96  F   UNL     1     -11.651  -6.444   1.264  1.00  0.00    -0.203 F 
ATOM     97  C   UNL     1     -12.119  -7.848  -0.529  1.00  0.00     0.198 A 
ATOM     98  C   UNL     1     -11.304  -7.380  -2.718  1.00  0.00     0.198 A 
ATOM     99  F   UNL     1      -9.832  -5.659  -3.110  1.00  0.00    -0.203 F 
ATOM    100  F   UNL     1     -12.865  -8.590   0.299  1.00  0.00    -0.200 F 
ATOM    101  C   UNL     1     -12.071  -8.151  -1.876  1.00  0.00     0.200 A 
ATOM    102  F   UNL     1     -11.298  -7.616  -4.038  1.00  0.00    -0.200 F 
ATOM    103  F   UNL     1     -12.782  -9.174  -2.365  1.00  0.00    -0.200 F 
ENDBRANCH  70  93
ENDBRANCH  44  45
ENDBRANCH  37  39
ENDBRANCH  36  37
ENDBRANCH  35  36
ENDBRANCH  34  35
ENDBRANCH  33  34
ENDBRANCH  32  33
ENDBRANCH  31  32
ENDBRANCH   1  31
TORSDOF 23
