REMARK SMILES Cc1ccc(C(=O)N2CCC3(CCC(=O)N(CC(=O)OCCOCCOCCOCCOC(=O)c4ccc(-c5c6nc(c(-c7c(F)c(F)c(F)c(F)c7F)c7ccc([nH]7)c(-c7c(F)c(F)c(F)c(F)c7F)c7nc(c(-c8c(F)c(F)c(F)c(F)c8F)c8ccc5[nH]8)C=C7)C=C6)cc4)C3)CC2)cc1O
REMARK SMILES IDX 25 1 24 2 23 3 22 4 21 5 20 6 18 7 19 8 17 9 16 10 6 11 7 12
REMARK SMILES IDX 8 13 9 14 100 15 10 16 99 17 11 18 12 19 98 20 13 21 14 22
REMARK SMILES IDX 15 23 5 24 1 25 2 26 3 27 102 28 4 29 101 30 103 31 26 33
REMARK SMILES IDX 27 34 28 35 29 36 30 37 31 38 32 39 33 40 34 41 35 42 36 43
REMARK SMILES IDX 97 44 37 45 96 46 38 47 39 48 40 49 90 50 41 51 95 52 89 53
REMARK SMILES IDX 91 54 42 55 94 56 88 57 87 58 43 60 75 61 55 62 74 63 56 64
REMARK SMILES IDX 59 65 73 66 92 67 57 68 58 69 72 71 93 72 60 73 44 74 45 75
REMARK SMILES IDX 53 76 46 77 47 78 51 79 54 80 48 81 49 82 52 83 50 84 76 85
REMARK SMILES IDX 77 86 85 87 78 88 79 89 83 90 86 91 80 92 81 93 84 94 82 95
REMARK SMILES IDX 61 96 62 97 70 98 63 99 64 100 68 101 71 102 65 103 66 104
REMARK SMILES IDX 69 105 67 106
REMARK H PARENT 103 32 91 59 59 70
REMARK Flexibility Score: inf
ROOT
ATOM      1  C   UNL     1      10.884  -2.601   3.705  1.00  0.00     0.188 C 
ENDROOT
BRANCH   1   2
ATOM      2  C   UNL     1      11.117  -2.806   5.202  1.00  0.00     0.188 C 
BRANCH   2   3
ATOM      3  O   UNL     1      11.493  -4.092   5.676  1.00  0.00    -0.376 OA
BRANCH   3   4
ATOM      4  C   UNL     1      10.824  -5.255   5.188  1.00  0.00     0.202 C 
BRANCH   4   5
ATOM      5  C   UNL     1       9.278  -5.288   5.115  1.00  0.00     0.261 C 
BRANCH   5   6
ATOM      6  O   UNL     1       8.664  -4.411   4.131  1.00  0.00    -0.462 OA
BRANCH   6   7
ATOM      7  C   UNL     1       7.817  -3.457   4.586  1.00  0.00     0.325 C 
ATOM      8  O   UNL     1       7.478  -3.356   5.764  1.00  0.00    -0.250 OA
BRANCH   7   9
ATOM      9  C   UNL     1       7.361  -2.395   3.549  1.00  0.00     0.242 C 
BRANCH   9  10
ATOM     10  N   UNL     1       7.606  -2.466   2.092  1.00  0.00    -0.331 N 
ATOM     11  C   UNL     1       2.868   1.581   0.119  1.00  0.00     0.253 C 
ATOM     12  O   UNL     1       2.755   2.751   0.477  1.00  0.00    -0.269 OA
ATOM     13  N   UNL     1       4.097   0.941   0.076  1.00  0.00    -0.339 N 
ATOM     14  C   UNL     1       5.048   1.238   1.125  1.00  0.00     0.120 C 
ATOM     15  C   UNL     1       4.583   0.151  -1.050  1.00  0.00     0.120 C 
ATOM     16  C   UNL     1       5.535  -0.089   1.703  1.00  0.00     0.030 C 
ATOM     17  C   UNL     1       5.225  -1.156  -0.583  1.00  0.00     0.030 C 
ATOM     18  C   UNL     1       6.190  -0.991   0.621  1.00  0.00    -0.008 C 
ATOM     19  C   UNL     1       7.522  -0.347   0.133  1.00  0.00     0.019 C 
ATOM     20  C   UNL     1       6.467  -2.423   1.194  1.00  0.00     0.127 C 
ATOM     21  C   UNL     1       8.597  -0.439   1.213  1.00  0.00     0.101 C 
ATOM     22  C   UNL     1       8.734  -1.919   1.480  1.00  0.00     0.223 C 
ATOM     23  O   UNL     1       9.545  -2.580   0.841  1.00  0.00    -0.275 OA
BRANCH  11  24
ATOM     24  C   UNL     1       1.642   0.752  -0.066  1.00  0.00     0.043 A 
ATOM     25  C   UNL     1      -1.991  -1.586  -0.044  1.00  0.00     0.048 C 
ATOM     26  C   UNL     1      -0.745  -0.753  -0.077  1.00  0.00    -0.009 A 
ATOM     27  C   UNL     1       0.494  -1.388   0.045  1.00  0.00     0.008 A 
ATOM     28  C   UNL     1      -0.769   0.644  -0.179  1.00  0.00     0.119 A 
ATOM     29  C   UNL     1       1.669  -0.639   0.076  1.00  0.00     0.014 A 
ATOM     30  C   UNL     1       0.408   1.393  -0.190  1.00  0.00     0.060 A 
BRANCH  28  31
ATOM     31  O   UNL     1      -1.932   1.357  -0.241  1.00  0.00    -0.508 OA
ATOM     32  H   UNL     1      -2.756   0.910  -0.237  1.00  0.00     0.293 HD
ENDBRANCH  28  31
ENDBRANCH  11  24
ENDBRANCH   9  10
ENDBRANCH   7   9
ENDBRANCH   6   7
ENDBRANCH   5   6
ENDBRANCH   4   5
ENDBRANCH   3   4
ENDBRANCH   2   3
ENDBRANCH   1   2
BRANCH   1  33
ATOM     33  O   UNL     1      10.859  -3.805   2.974  1.00  0.00    -0.377 OA
BRANCH  33  34
ATOM     34  C   UNL     1      11.917  -4.088   2.079  1.00  0.00     0.188 C 
BRANCH  34  35
ATOM     35  C   UNL     1      13.319  -3.700   2.549  1.00  0.00     0.188 C 
BRANCH  35  36
ATOM     36  O   UNL     1      13.449  -2.311   2.819  1.00  0.00    -0.376 OA
BRANCH  36  37
ATOM     37  C   UNL     1      13.845  -1.433   1.774  1.00  0.00     0.202 C 
BRANCH  37  38
ATOM     38  C   UNL     1      13.020  -1.336   0.476  1.00  0.00     0.261 C 
BRANCH  38  39
ATOM     39  O   UNL     1      12.841  -2.526  -0.309  1.00  0.00    -0.460 OA
BRANCH  39  40
ATOM     40  C   UNL     1      13.905  -3.267  -0.654  1.00  0.00     0.338 C 
ATOM     41  O   UNL     1      15.083  -3.015  -0.451  1.00  0.00    -0.246 OA
BRANCH  40  42
ATOM     42  C   UNL     1      13.402  -4.556  -1.175  1.00  0.00     0.060 A 
ATOM     43  C   UNL     1      13.771  -5.746  -0.532  1.00  0.00     0.016 A 
ATOM     44  C   UNL     1      12.583  -4.592  -2.306  1.00  0.00     0.016 A 
ATOM     45  C   UNL     1      13.360  -6.978  -1.045  1.00  0.00     0.010 A 
ATOM     46  C   UNL     1      12.192  -5.826  -2.832  1.00  0.00     0.010 A 
ATOM     47  C   UNL     1      12.611  -7.025  -2.227  1.00  0.00    -0.014 A 
BRANCH  47  48
ATOM     48  C   UNL     1      12.441  -8.306  -2.956  1.00  0.00     0.031 A 
ATOM     49  C   UNL     1      13.358  -8.584  -4.117  1.00  0.00     0.074 A 
ATOM     50  C   UNL     1      11.496  -9.198  -2.613  1.00  0.00     0.049 A 
ATOM     51  N   UNL     1      13.325  -9.552  -4.995  1.00  0.00    -0.248 NA
ATOM     52  C   UNL     1      14.460  -7.628  -4.316  1.00  0.00     0.031 C 
ATOM     53  C   UNL     1      10.590  -9.075  -1.475  1.00  0.00     0.029 A 
ATOM     54  N   UNL     1      11.130 -10.380  -3.211  1.00  0.00    -0.354 N 
ATOM     55  C   UNL     1      14.384  -9.311  -5.860  1.00  0.00     0.074 A 
ATOM     56  C   UNL     1      15.029  -8.095  -5.416  1.00  0.00     0.031 C 
ATOM     57  C   UNL     1       9.752 -10.126  -1.471  1.00  0.00     0.029 A 
ATOM     58  C   UNL     1      10.033 -10.970  -2.633  1.00  0.00     0.049 A 
ATOM     59  H   UNL     1      11.608 -10.766  -3.980  1.00  0.00     0.167 HD
ATOM     60  C   UNL     1      14.783 -10.041  -6.928  1.00  0.00     0.037 A 
ATOM     61  C   UNL     1       9.316 -12.042  -3.024  1.00  0.00     0.037 A 
ATOM     62  C   UNL     1      14.136 -11.250  -7.362  1.00  0.00     0.049 A 
ATOM     63  C   UNL     1       9.726 -12.791  -4.270  1.00  0.00     0.074 A 
ATOM     64  C   UNL     1      14.469 -12.072  -8.425  1.00  0.00     0.029 A 
ATOM     65  N   UNL     1      13.017 -11.806  -6.761  1.00  0.00    -0.354 N 
ATOM     66  N   UNL     1      10.732 -12.566  -5.081  1.00  0.00    -0.248 NA
ATOM     67  C   UNL     1       8.898 -13.944  -4.658  1.00  0.00     0.031 C 
ATOM     68  C   UNL     1      13.512 -13.087  -8.506  1.00  0.00     0.029 A 
ATOM     69  C   UNL     1      12.629 -12.944  -7.447  1.00  0.00     0.049 A 
ATOM     70  H   UNL     1      12.565 -11.444  -5.964  1.00  0.00     0.167 HD
ATOM     71  C   UNL     1      10.686 -13.570  -6.041  1.00  0.00     0.074 A 
ATOM     72  C   UNL     1       9.551 -14.406  -5.715  1.00  0.00     0.031 C 
ATOM     73  C   UNL     1      11.514 -13.784  -7.092  1.00  0.00     0.037 A 
BRANCH  60  74
ATOM     74  C   UNL     1      15.947  -9.532  -7.728  1.00  0.00     0.064 A 
ATOM     75  C   UNL     1      17.255  -9.538  -7.221  1.00  0.00     0.173 A 
ATOM     76  C   UNL     1      15.754  -9.070  -9.039  1.00  0.00     0.173 A 
ATOM     77  F   UNL     1      17.493  -9.956  -5.969  1.00  0.00    -0.203 F 
ATOM     78  C   UNL     1      18.323  -9.078  -7.989  1.00  0.00     0.198 A 
ATOM     79  C   UNL     1      16.828  -8.644  -9.816  1.00  0.00     0.198 A 
ATOM     80  F   UNL     1      14.524  -9.046  -9.574  1.00  0.00    -0.203 F 
ATOM     81  F   UNL     1      19.557  -9.049  -7.468  1.00  0.00    -0.200 F 
ATOM     82  C   UNL     1      18.110  -8.641  -9.288  1.00  0.00     0.200 A 
ATOM     83  F   UNL     1      16.621  -8.238 -11.076  1.00  0.00    -0.200 F 
ATOM     84  F   UNL     1      19.140  -8.211 -10.030  1.00  0.00    -0.200 F 
ENDBRANCH  60  74
BRANCH  61  85
ATOM     85  C   UNL     1       8.116 -12.463  -2.250  1.00  0.00     0.064 A 
ATOM     86  C   UNL     1       8.083 -13.690  -1.573  1.00  0.00     0.173 A 
ATOM     87  C   UNL     1       6.965 -11.661  -2.198  1.00  0.00     0.173 A 
ATOM     88  F   UNL     1       9.146 -14.507  -1.615  1.00  0.00    -0.203 F 
ATOM     89  C   UNL     1       6.939 -14.110  -0.896  1.00  0.00     0.198 A 
ATOM     90  C   UNL     1       5.834 -12.066  -1.492  1.00  0.00     0.198 A 
ATOM     91  F   UNL     1       6.939 -10.479  -2.832  1.00  0.00    -0.203 F 
ATOM     92  F   UNL     1       6.915 -15.314  -0.308  1.00  0.00    -0.200 F 
ATOM     93  C   UNL     1       5.818 -13.295  -0.851  1.00  0.00     0.200 A 
ATOM     94  F   UNL     1       4.758 -11.269  -1.441  1.00  0.00    -0.200 F 
ATOM     95  F   UNL     1       4.718 -13.698  -0.200  1.00  0.00    -0.200 F 
ENDBRANCH  61  85
BRANCH  73  96
ATOM     96  C   UNL     1      11.284 -15.008  -7.933  1.00  0.00     0.064 A 
ATOM     97  C   UNL     1      10.197 -15.116  -8.812  1.00  0.00     0.173 A 
ATOM     98  C   UNL     1      12.220 -16.055  -7.915  1.00  0.00     0.173 A 
ATOM     99  F   UNL     1       9.268 -14.150  -8.859  1.00  0.00    -0.203 F 
ATOM    100  C   UNL     1      10.048 -16.233  -9.631  1.00  0.00     0.198 A 
ATOM    101  C   UNL     1      12.086 -17.154  -8.759  1.00  0.00     0.198 A 
ATOM    102  F   UNL     1      13.283 -15.998  -7.099  1.00  0.00    -0.203 F 
ATOM    103  F   UNL     1       8.982 -16.333 -10.437  1.00  0.00    -0.200 F 
ATOM    104  C   UNL     1      10.998 -17.244  -9.613  1.00  0.00     0.200 A 
ATOM    105  F   UNL     1      13.016 -18.119  -8.753  1.00  0.00    -0.200 F 
ATOM    106  F   UNL     1      10.863 -18.308 -10.417  1.00  0.00    -0.200 F 
ENDBRANCH  73  96
ENDBRANCH  47  48
ENDBRANCH  40  42
ENDBRANCH  39  40
ENDBRANCH  38  39
ENDBRANCH  37  38
ENDBRANCH  36  37
ENDBRANCH  35  36
ENDBRANCH  34  35
ENDBRANCH  33  34
ENDBRANCH   1  33
TORSDOF 23
