REMARK SMILES CC[C@@](C)(Nc1c([N+](=O)[O-])c(C(C)C)nn1C)C(=O)OCCOCCOCCOCCOC(=O)c1ccc(-c2c3nc(c(-c4c(F)c(F)c(F)c(F)c4F)c4ccc([nH]4)c(-c4c(F)c(F)c(F)c(F)c4F)c4nc(c(-c5c(F)c(F)c(F)c(F)c5F)c5ccc2[nH]5)C=C4)C=C3)cc1
REMARK SMILES IDX 25 1 24 2 23 3 22 4 21 5 20 6 18 7 19 8 3 9 4 10 2 11 1 12
REMARK SMILES IDX 5 13 6 15 7 16 16 17 11 18 15 19 17 20 8 21 9 22 10 23 12 24
REMARK SMILES IDX 13 25 14 26 26 27 27 28 28 29 29 30 30 31 31 32 32 33 33 34
REMARK SMILES IDX 34 35 35 36 36 37 97 38 37 39 96 40 38 41 39 42 40 43 90 44
REMARK SMILES IDX 41 45 95 46 89 47 91 48 42 49 94 50 88 51 87 52 43 54 75 55
REMARK SMILES IDX 55 56 74 57 56 58 59 59 73 60 92 61 57 62 58 63 72 65 93 66
REMARK SMILES IDX 60 67 44 68 45 69 53 70 46 71 47 72 51 73 54 74 48 75 49 76
REMARK SMILES IDX 52 77 50 78 76 79 77 80 85 81 78 82 79 83 83 84 86 85 80 86
REMARK SMILES IDX 81 87 84 88 82 89 61 90 62 91 70 92 63 93 64 94 68 95 71 96
REMARK SMILES IDX 65 97 66 98 69 99 67 100
REMARK H PARENT 5 14 91 53 59 64
REMARK Flexibility Score: inf
ROOT
ATOM      1  C   UNL     1       3.931   2.644  -1.236  1.00  0.00     0.188 C 
ENDROOT
BRANCH   1   2
ATOM      2  C   UNL     1       4.662   1.472  -0.582  1.00  0.00     0.188 C 
BRANCH   2   3
ATOM      3  O   UNL     1       5.758   0.875  -1.257  1.00  0.00    -0.376 OA
BRANCH   3   4
ATOM      4  C   UNL     1       5.572   0.365  -2.576  1.00  0.00     0.202 C 
BRANCH   4   5
ATOM      5  C   UNL     1       4.323  -0.464  -2.833  1.00  0.00     0.261 C 
BRANCH   5   6
ATOM      6  O   UNL     1       3.152   0.375  -2.975  1.00  0.00    -0.462 OA
BRANCH   6   7
ATOM      7  C   UNL     1       2.010  -0.206  -2.542  1.00  0.00     0.331 C 
ATOM      8  O   UNL     1       2.008  -1.339  -2.055  1.00  0.00    -0.249 OA
BRANCH   7   9
ATOM      9  C   UNL     1       0.708   0.629  -2.633  1.00  0.00     0.134 C 
ATOM     10  C   UNL     1      -0.341  -0.430  -3.102  1.00  0.00     0.047 C 
BRANCH   9  11
ATOM     11  C   UNL     1       0.288   1.174  -1.240  1.00  0.00     0.037 C 
ATOM     12  C   UNL     1       0.405   0.205  -0.064  1.00  0.00     0.007 C 
ENDBRANCH   9  11
BRANCH   9  13
ATOM     13  N   UNL     1       0.532   1.711  -3.658  1.00  0.00    -0.349 N 
ATOM     14  H   UNL     1      -0.241   1.573  -4.252  1.00  0.00     0.163 HD
BRANCH  13  15
ATOM     15  C   UNL     1       1.241   2.857  -3.930  1.00  0.00     0.205 A 
ATOM     16  C   UNL     1       0.864   4.197  -3.782  1.00  0.00     0.334 A 
ATOM     17  N   UNL     1       2.245   2.906  -4.881  1.00  0.00    -0.246 N 
ATOM     18  C   UNL     1       1.551   4.925  -4.799  1.00  0.00     0.145 A 
ATOM     19  N   UNL     1       2.467   4.145  -5.387  1.00  0.00    -0.169 NA
ATOM     20  C   UNL     1       2.848   1.798  -5.585  1.00  0.00     0.176 C 
BRANCH  16  21
ATOM     21  N   UNL     1      -0.176   4.706  -2.936  1.00  0.00     0.068 N 
ATOM     22  O   UNL     1      -0.159   5.918  -2.686  1.00  0.00    -0.258 OA
ATOM     23  O   UNL     1      -1.017   3.903  -2.513  1.00  0.00    -0.258 OA
ENDBRANCH  16  21
BRANCH  18  24
ATOM     24  C   UNL     1       1.228   6.299  -5.371  1.00  0.00     0.041 C 
ATOM     25  C   UNL     1       1.905   7.459  -4.650  1.00  0.00     0.014 C 
ATOM     26  C   UNL     1       1.492   6.398  -6.884  1.00  0.00     0.014 C 
ENDBRANCH  18  24
ENDBRANCH  13  15
ENDBRANCH   9  13
ENDBRANCH   7   9
ENDBRANCH   6   7
ENDBRANCH   5   6
ENDBRANCH   4   5
ENDBRANCH   3   4
ENDBRANCH   2   3
ENDBRANCH   1   2
BRANCH   1  27
ATOM     27  O   UNL     1       4.444   3.191  -2.432  1.00  0.00    -0.377 OA
BRANCH  27  28
ATOM     28  C   UNL     1       5.752   3.729  -2.426  1.00  0.00     0.188 C 
BRANCH  28  29
ATOM     29  C   UNL     1       6.174   4.687  -1.310  1.00  0.00     0.188 C 
BRANCH  29  30
ATOM     30  O   UNL     1       5.180   5.338  -0.537  1.00  0.00    -0.376 OA
BRANCH  30  31
ATOM     31  C   UNL     1       4.152   6.066  -1.203  1.00  0.00     0.202 C 
BRANCH  31  32
ATOM     32  C   UNL     1       4.605   7.099  -2.228  1.00  0.00     0.261 C 
BRANCH  32  33
ATOM     33  O   UNL     1       4.836   6.488  -3.515  1.00  0.00    -0.460 OA
BRANCH  33  34
ATOM     34  C   UNL     1       5.969   6.846  -4.151  1.00  0.00     0.338 C 
ATOM     35  O   UNL     1       6.871   7.548  -3.713  1.00  0.00    -0.246 OA
BRANCH  34  36
ATOM     36  C   UNL     1       6.034   6.242  -5.495  1.00  0.00     0.060 A 
ATOM     37  C   UNL     1       7.070   5.349  -5.790  1.00  0.00     0.016 A 
ATOM     38  C   UNL     1       5.190   6.693  -6.512  1.00  0.00     0.016 A 
ATOM     39  C   UNL     1       7.292   4.954  -7.112  1.00  0.00     0.010 A 
ATOM     40  C   UNL     1       5.390   6.264  -7.827  1.00  0.00     0.010 A 
ATOM     41  C   UNL     1       6.478   5.440  -8.147  1.00  0.00    -0.014 A 
BRANCH  41  42
ATOM     42  C   UNL     1       6.849   5.223  -9.572  1.00  0.00     0.031 A 
ATOM     43  C   UNL     1       7.359   6.385 -10.388  1.00  0.00     0.074 A 
ATOM     44  C   UNL     1       6.730   4.010 -10.140  1.00  0.00     0.049 A 
ATOM     45  N   UNL     1       7.718   6.426 -11.648  1.00  0.00    -0.248 NA
ATOM     46  C   UNL     1       7.457   7.682  -9.699  1.00  0.00     0.031 C 
ATOM     47  C   UNL     1       6.225   2.812  -9.475  1.00  0.00     0.029 A 
ATOM     48  N   UNL     1       7.023   3.590 -11.415  1.00  0.00    -0.354 N 
ATOM     49  C   UNL     1       8.062   7.748 -11.902  1.00  0.00     0.074 A 
ATOM     50  C   UNL     1       7.824   8.489 -10.683  1.00  0.00     0.031 C 
ATOM     51  C   UNL     1       6.255   1.786 -10.342  1.00  0.00     0.029 A 
ATOM     52  C   UNL     1       6.761   2.259 -11.630  1.00  0.00     0.049 A 
ATOM     53  H   UNL     1       7.386   4.186 -12.109  1.00  0.00     0.167 HD
ATOM     54  C   UNL     1       8.555   8.295 -13.040  1.00  0.00     0.037 A 
ATOM     55  C   UNL     1       6.912   1.510 -12.740  1.00  0.00     0.037 A 
ATOM     56  C   UNL     1       8.828   7.556 -14.243  1.00  0.00     0.049 A 
ATOM     57  C   UNL     1       7.474   2.136 -13.989  1.00  0.00     0.074 A 
ATOM     58  C   UNL     1       9.383   8.007 -15.428  1.00  0.00     0.029 A 
ATOM     59  N   UNL     1       8.569   6.204 -14.413  1.00  0.00    -0.354 N 
ATOM     60  N   UNL     1       7.852   3.373 -14.199  1.00  0.00    -0.248 NA
ATOM     61  C   UNL     1       7.642   1.254 -15.155  1.00  0.00     0.031 C 
ATOM     62  C   UNL     1       9.425   6.937 -16.328  1.00  0.00     0.029 A 
ATOM     63  C   UNL     1       8.938   5.808 -15.688  1.00  0.00     0.049 A 
ATOM     64  H   UNL     1       8.180   5.613 -13.728  1.00  0.00     0.167 HD
ATOM     65  C   UNL     1       8.325   3.414 -15.504  1.00  0.00     0.074 A 
ATOM     66  C   UNL     1       8.200   2.073 -16.036  1.00  0.00     0.031 C 
ATOM     67  C   UNL     1       8.818   4.468 -16.200  1.00  0.00     0.037 A 
BRANCH  54  68
ATOM     68  C   UNL     1       8.838   9.771 -13.036  1.00  0.00     0.064 A 
ATOM     69  C   UNL     1       9.896  10.316 -12.293  1.00  0.00     0.173 A 
ATOM     70  C   UNL     1       8.064  10.647 -13.813  1.00  0.00     0.173 A 
ATOM     71  F   UNL     1      10.661   9.523 -11.527  1.00  0.00    -0.203 F 
ATOM     72  C   UNL     1      10.149  11.685 -12.303  1.00  0.00     0.198 A 
ATOM     73  C   UNL     1       8.339  12.012 -13.844  1.00  0.00     0.198 A 
ATOM     74  F   UNL     1       7.045  10.179 -14.550  1.00  0.00    -0.203 F 
ATOM     75  F   UNL     1      11.135  12.188 -11.546  1.00  0.00    -0.200 F 
ATOM     76  C   UNL     1       9.376  12.531 -13.083  1.00  0.00     0.200 A 
ATOM     77  F   UNL     1       7.600  12.826 -14.610  1.00  0.00    -0.200 F 
ATOM     78  F   UNL     1       9.625  13.848 -13.096  1.00  0.00    -0.200 F 
ENDBRANCH  54  68
BRANCH  55  79
ATOM     79  C   UNL     1       6.558   0.067 -12.708  1.00  0.00     0.064 A 
ATOM     80  C   UNL     1       7.554  -0.918 -12.747  1.00  0.00     0.173 A 
ATOM     81  C   UNL     1       5.223  -0.356 -12.635  1.00  0.00     0.173 A 
ATOM     82  F   UNL     1       8.844  -0.561 -12.840  1.00  0.00    -0.203 F 
ATOM     83  C   UNL     1       7.229  -2.272 -12.728  1.00  0.00     0.198 A 
ATOM     84  C   UNL     1       4.900  -1.711 -12.590  1.00  0.00     0.198 A 
ATOM     85  F   UNL     1       4.233   0.547 -12.594  1.00  0.00    -0.203 F 
ATOM     86  F   UNL     1       8.199  -3.193 -12.804  1.00  0.00    -0.200 F 
ATOM     87  C   UNL     1       5.903  -2.667 -12.642  1.00  0.00     0.200 A 
ATOM     88  F   UNL     1       3.618  -2.089 -12.493  1.00  0.00    -0.200 F 
ATOM     89  F   UNL     1       5.590  -3.970 -12.614  1.00  0.00    -0.200 F 
ENDBRANCH  55  79
BRANCH  67  90
ATOM     90  C   UNL     1       9.291   4.212 -17.601  1.00  0.00     0.064 A 
ATOM     91  C   UNL     1       8.390   3.991 -18.652  1.00  0.00     0.173 A 
ATOM     92  C   UNL     1      10.661   4.238 -17.903  1.00  0.00     0.173 A 
ATOM     93  F   UNL     1       7.071   3.944 -18.411  1.00  0.00    -0.203 F 
ATOM     94  C   UNL     1       8.844   3.783 -19.952  1.00  0.00     0.198 A 
ATOM     95  C   UNL     1      11.111   4.056 -19.208  1.00  0.00     0.198 A 
ATOM     96  F   UNL     1      11.564   4.453 -16.934  1.00  0.00    -0.203 F 
ATOM     97  F   UNL     1       7.968   3.533 -20.934  1.00  0.00    -0.200 F 
ATOM     98  C   UNL     1      10.203   3.823 -20.230  1.00  0.00     0.200 A 
ATOM     99  F   UNL     1      12.423   4.106 -19.477  1.00  0.00    -0.200 F 
ATOM    100  F   UNL     1      10.637   3.630 -21.483  1.00  0.00    -0.200 F 
ENDBRANCH  67  90
ENDBRANCH  41  42
ENDBRANCH  34  36
ENDBRANCH  33  34
ENDBRANCH  32  33
ENDBRANCH  31  32
ENDBRANCH  30  31
ENDBRANCH  29  30
ENDBRANCH  28  29
ENDBRANCH  27  28
ENDBRANCH   1  27
TORSDOF 25
