REMARK SMILES CC[C@@H](NC(=O)[C@H](C)C[NH2+]C)C(=O)OCCOCCOCCOCCOC(=O)c1ccc(-c2c3nc(c(-c4c(F)c(F)c(F)c(F)c4F)c4ccc([nH]4)c(-c4c(F)c(F)c(F)c(F)c4F)c4nc(c(-c5c(F)c(F)c(F)c(F)c5F)c5ccc2[nH]5)C=C4)C=C3)cc1
REMARK SMILES IDX 19 1 18 2 17 3 16 4 15 5 14 6 12 7 13 8 3 9 2 10 1 11 4 12
REMARK SMILES IDX 5 13 6 15 7 16 8 17 9 18 10 19 11 20 20 23 21 24 22 25 23 26
REMARK SMILES IDX 24 27 25 28 26 29 27 30 28 31 29 32 30 33 91 34 31 35 90 36
REMARK SMILES IDX 32 37 33 38 34 39 84 40 35 41 89 42 83 43 85 44 36 45 88 46
REMARK SMILES IDX 82 47 81 48 37 50 69 51 49 52 68 53 50 54 53 55 67 56 86 57
REMARK SMILES IDX 51 58 52 59 66 61 87 62 54 63 38 64 39 65 47 66 40 67 41 68
REMARK SMILES IDX 45 69 48 70 42 71 43 72 46 73 44 74 70 75 71 76 79 77 72 78
REMARK SMILES IDX 73 79 77 80 80 81 74 82 75 83 78 84 76 85 55 86 56 87 64 88
REMARK SMILES IDX 57 89 58 90 62 91 65 92 59 93 60 94 63 95 61 96
REMARK H PARENT 4 14 10 21 10 22 85 49 53 60
REMARK Flexibility Score: inf
ROOT
ATOM      1  C   UNL     1       0.775   2.341   8.468  1.00  0.00     0.188 C 
ENDROOT
BRANCH   1   2
ATOM      2  C   UNL     1       1.875   1.311   8.158  1.00  0.00     0.188 C 
BRANCH   2   3
ATOM      3  O   UNL     1       3.032   1.919   7.609  1.00  0.00    -0.376 OA
BRANCH   3   4
ATOM      4  C   UNL     1       3.274   1.839   6.220  1.00  0.00     0.202 C 
BRANCH   4   5
ATOM      5  C   UNL     1       2.177   2.239   5.236  1.00  0.00     0.261 C 
BRANCH   5   6
ATOM      6  O   UNL     1       0.816   2.031   5.642  1.00  0.00    -0.462 OA
BRANCH   6   7
ATOM      7  C   UNL     1       0.087   1.093   5.001  1.00  0.00     0.328 C 
ATOM      8  O   UNL     1       0.568   0.265   4.238  1.00  0.00    -0.250 OA
BRANCH   7   9
ATOM      9  C   UNL     1      -1.429   1.255   5.237  1.00  0.00     0.192 C 
BRANCH   9  10
ATOM     10  C   UNL     1      -1.970   2.045   6.439  1.00  0.00     0.033 C 
ATOM     11  C   UNL     1      -3.411   1.695   6.824  1.00  0.00     0.007 C 
ENDBRANCH   9  10
BRANCH   9  12
ATOM     12  N   UNL     1      -2.153   1.535   3.997  1.00  0.00    -0.342 N 
ATOM     13  C   UNL     1      -2.244   2.486   3.055  1.00  0.00     0.229 C 
ATOM     14  H   UNL     1      -2.765   0.793   3.788  1.00  0.00     0.164 HD
ATOM     15  O   UNL     1      -3.265   2.340   2.358  1.00  0.00    -0.275 OA
BRANCH  13  16
ATOM     16  C   UNL     1      -1.309   3.659   2.701  1.00  0.00     0.130 C 
ATOM     17  C   UNL     1      -1.015   3.553   1.184  1.00  0.00     0.024 C 
BRANCH  16  18
ATOM     18  C   UNL     1       0.005   3.943   3.438  1.00  0.00     0.273 C 
BRANCH  18  19
ATOM     19  N   UNL     1       0.671   5.170   2.940  1.00  0.00    -0.348 N 
ATOM     20  C   UNL     1       1.974   5.425   3.537  1.00  0.00     0.330 C 
ATOM     21  H   UNL     1       0.066   5.967   3.140  1.00  0.00     0.346 HD
ATOM     22  H   UNL     1       0.826   5.035   1.941  1.00  0.00     0.346 HD
ENDBRANCH  18  19
ENDBRANCH  16  18
ENDBRANCH  13  16
ENDBRANCH   9  12
ENDBRANCH   7   9
ENDBRANCH   6   7
ENDBRANCH   5   6
ENDBRANCH   4   5
ENDBRANCH   3   4
ENDBRANCH   2   3
ENDBRANCH   1   2
BRANCH   1  23
ATOM     23  O   UNL     1       1.157   3.510   9.165  1.00  0.00    -0.377 OA
BRANCH  23  24
ATOM     24  C   UNL     1       2.085   4.329   8.471  1.00  0.00     0.188 C 
BRANCH  24  25
ATOM     25  C   UNL     1       3.490   4.308   9.092  1.00  0.00     0.188 C 
BRANCH  25  26
ATOM     26  O   UNL     1       3.803   3.489  10.206  1.00  0.00    -0.376 OA
BRANCH  26  27
ATOM     27  C   UNL     1       2.840   3.167  11.194  1.00  0.00     0.202 C 
BRANCH  27  28
ATOM     28  C   UNL     1       1.875   4.205  11.810  1.00  0.00     0.261 C 
BRANCH  28  29
ATOM     29  O   UNL     1       1.620   5.415  11.089  1.00  0.00    -0.460 OA
BRANCH  29  30
ATOM     30  C   UNL     1       2.507   6.414  11.281  1.00  0.00     0.338 C 
ATOM     31  O   UNL     1       3.490   6.408  11.991  1.00  0.00    -0.246 OA
BRANCH  30  32
ATOM     32  C   UNL     1       2.160   7.518  10.359  1.00  0.00     0.060 A 
ATOM     33  C   UNL     1       3.098   7.909   9.395  1.00  0.00     0.016 A 
ATOM     34  C   UNL     1       0.949   8.201  10.487  1.00  0.00     0.016 A 
ATOM     35  C   UNL     1       2.850   9.011   8.582  1.00  0.00     0.010 A 
ATOM     36  C   UNL     1       0.716   9.330   9.697  1.00  0.00     0.010 A 
ATOM     37  C   UNL     1       1.688   9.764   8.776  1.00  0.00    -0.014 A 
BRANCH  37  38
ATOM     38  C   UNL     1       1.616  11.128   8.204  1.00  0.00     0.031 A 
ATOM     39  C   UNL     1       1.993  12.284   9.089  1.00  0.00     0.074 A 
ATOM     40  C   UNL     1       1.272  11.335   6.922  1.00  0.00     0.049 A 
ATOM     41  N   UNL     1       1.955  13.569   8.845  1.00  0.00    -0.248 NA
ATOM     42  C   UNL     1       2.479  11.941  10.436  1.00  0.00     0.031 C 
ATOM     43  C   UNL     1       0.950  10.291   5.953  1.00  0.00     0.029 A 
ATOM     44  N   UNL     1       1.130  12.506   6.221  1.00  0.00    -0.354 N 
ATOM     45  C   UNL     1       2.399  14.184  10.009  1.00  0.00     0.074 A 
ATOM     46  C   UNL     1       2.671  13.137  10.969  1.00  0.00     0.031 C 
ATOM     47  C   UNL     1       0.624  10.871   4.784  1.00  0.00     0.029 A 
ATOM     48  C   UNL     1       0.680  12.325   4.938  1.00  0.00     0.049 A 
ATOM     49  H   UNL     1       1.331  13.391   6.603  1.00  0.00     0.167 HD
ATOM     50  C   UNL     1       2.571  15.504  10.252  1.00  0.00     0.037 A 
ATOM     51  C   UNL     1       0.323  13.234   4.009  1.00  0.00     0.037 A 
ATOM     52  C   UNL     1       2.296  16.541   9.293  1.00  0.00     0.049 A 
ATOM     53  C   UNL     1       0.438  14.703   4.333  1.00  0.00     0.074 A 
ATOM     54  C   UNL     1       2.442  17.909   9.435  1.00  0.00     0.029 A 
ATOM     55  N   UNL     1       1.806  16.321   8.014  1.00  0.00    -0.354 N 
ATOM     56  N   UNL     1       0.868  15.281   5.429  1.00  0.00    -0.248 NA
ATOM     57  C   UNL     1       0.020  15.646   3.287  1.00  0.00     0.031 C 
ATOM     58  C   UNL     1       1.982  18.520   8.265  1.00  0.00     0.029 A 
ATOM     59  C   UNL     1       1.616  17.530   7.366  1.00  0.00     0.049 A 
ATOM     60  H   UNL     1       1.621  15.436   7.624  1.00  0.00     0.167 HD
ATOM     61  C   UNL     1       0.804  16.649   5.193  1.00  0.00     0.074 A 
ATOM     62  C   UNL     1       0.306  16.815   3.844  1.00  0.00     0.031 C 
ATOM     63  C   UNL     1       1.129  17.677   6.017  1.00  0.00     0.037 A 
BRANCH  50  64
ATOM     64  C   UNL     1       3.046  15.901  11.620  1.00  0.00     0.064 A 
ATOM     65  C   UNL     1       4.348  15.623  12.065  1.00  0.00     0.173 A 
ATOM     66  C   UNL     1       2.191  16.592  12.493  1.00  0.00     0.173 A 
ATOM     67  F   UNL     1       5.201  14.950  11.277  1.00  0.00    -0.203 F 
ATOM     68  C   UNL     1       4.765  15.994  13.341  1.00  0.00     0.198 A 
ATOM     69  C   UNL     1       2.622  16.992  13.754  1.00  0.00     0.198 A 
ATOM     70  F   UNL     1       0.936  16.886  12.119  1.00  0.00    -0.203 F 
ATOM     71  F   UNL     1       5.995  15.669  13.763  1.00  0.00    -0.200 F 
ATOM     72  C   UNL     1       3.905  16.685  14.181  1.00  0.00     0.200 A 
ATOM     73  F   UNL     1       1.794  17.673  14.559  1.00  0.00    -0.200 F 
ATOM     74  F   UNL     1       4.311  17.049  15.405  1.00  0.00    -0.200 F 
ENDBRANCH  50  64
BRANCH  51  75
ATOM     75  C   UNL     1      -0.200  12.784   2.692  1.00  0.00     0.064 A 
ATOM     76  C   UNL     1       0.512  13.020   1.508  1.00  0.00     0.173 A 
ATOM     77  C   UNL     1      -1.438  12.130   2.588  1.00  0.00     0.173 A 
ATOM     78  F   UNL     1       1.687  13.666   1.552  1.00  0.00    -0.203 F 
ATOM     79  C   UNL     1      -0.002  12.640   0.270  1.00  0.00     0.198 A 
ATOM     80  C   UNL     1      -1.936  11.721   1.353  1.00  0.00     0.198 A 
ATOM     81  F   UNL     1      -2.163  11.884   3.689  1.00  0.00    -0.203 F 
ATOM     82  F   UNL     1       0.675  12.927  -0.850  1.00  0.00    -0.200 F 
ATOM     83  C   UNL     1      -1.222  11.985   0.194  1.00  0.00     0.200 A 
ATOM     84  F   UNL     1      -3.110  11.079   1.285  1.00  0.00    -0.200 F 
ATOM     85  F   UNL     1      -1.714  11.618  -0.997  1.00  0.00    -0.200 F 
ENDBRANCH  51  75
BRANCH  63  86
ATOM     86  C   UNL     1       1.005  19.072   5.471  1.00  0.00     0.064 A 
ATOM     87  C   UNL     1      -0.242  19.660   5.213  1.00  0.00     0.173 A 
ATOM     88  C   UNL     1       2.154  19.848   5.245  1.00  0.00     0.173 A 
ATOM     89  F   UNL     1      -1.371  18.960   5.401  1.00  0.00    -0.203 F 
ATOM     90  C   UNL     1      -0.333  20.961   4.722  1.00  0.00     0.198 A 
ATOM     91  C   UNL     1       2.057  21.159   4.789  1.00  0.00     0.198 A 
ATOM     92  F   UNL     1       3.372  19.339   5.484  1.00  0.00    -0.203 F 
ATOM     93  F   UNL     1      -1.533  21.483   4.433  1.00  0.00    -0.200 F 
ATOM     94  C   UNL     1       0.815  21.711   4.519  1.00  0.00     0.200 A 
ATOM     95  F   UNL     1       3.167  21.889   4.612  1.00  0.00    -0.200 F 
ATOM     96  F   UNL     1       0.724  22.966   4.056  1.00  0.00    -0.200 F 
ENDBRANCH  63  86
ENDBRANCH  37  38
ENDBRANCH  30  32
ENDBRANCH  29  30
ENDBRANCH  28  29
ENDBRANCH  27  28
ENDBRANCH  26  27
ENDBRANCH  25  26
ENDBRANCH  24  25
ENDBRANCH  23  24
ENDBRANCH   1  23
TORSDOF 25
