REMARK SMILES Cc1ccc(S(=O)(=O)n2cc(C(=O)C(=O)N[C@@H](Cc3cnc[nH]3)C(=O)OCCOCCOCCOCCOC(=O)c3ccc(-c4c5nc(c(-c6c(F)c(F)c(F)c(F)c6F)c6ccc([nH]6)c(-c6c(F)c(F)c(F)c(F)c6F)c6nc(c(-c7c(F)c(F)c(F)c(F)c7F)c7ccc4[nH]7)C=C6)C=C5)cc3)c3ccccc32)cc1
REMARK SMILES IDX 30 1 29 2 28 3 27 4 26 5 24 6 25 7 17 8 16 9 14 10 15 11
REMARK SMILES IDX 12 13 13 14 11 15 9 16 10 17 109 18 104 19 108 20 105 21
REMARK SMILES IDX 107 22 106 23 6 24 7 25 8 26 5 27 1 28 2 29 3 30 111 31 4 32
REMARK SMILES IDX 110 33 18 34 19 35 20 36 23 37 21 38 22 39 31 41 32 42 33 43
REMARK SMILES IDX 34 44 35 45 36 46 37 47 38 48 39 49 40 50 41 51 42 52 103 53
REMARK SMILES IDX 43 54 102 55 44 56 45 57 46 58 96 59 47 60 101 61 95 62
REMARK SMILES IDX 97 63 48 64 100 65 94 66 93 67 49 69 81 70 61 71 80 72 62 73
REMARK SMILES IDX 65 74 79 75 98 76 63 77 64 78 78 80 99 81 66 82 50 83 51 84
REMARK SMILES IDX 59 85 52 86 53 87 57 88 60 89 54 90 55 91 58 92 56 93 82 94
REMARK SMILES IDX 83 95 91 96 84 97 85 98 89 99 92 100 86 101 87 102 90 103
REMARK SMILES IDX 88 104 67 105 68 106 76 107 69 108 70 109 74 110 77 111
REMARK SMILES IDX 71 112 72 113 75 114 73 115
REMARK H PARENT 16 12 23 40 97 68 65 79
REMARK Flexibility Score: inf
ROOT
ATOM      1  C   UNL     1      -4.651   6.300   2.509  1.00  0.00     0.188 C 
ENDROOT
BRANCH   1   2
ATOM      2  O   UNL     1      -4.351   7.511   3.185  1.00  0.00    -0.376 OA
BRANCH   2   3
ATOM      3  C   UNL     1      -5.485   8.186   3.731  1.00  0.00     0.202 C 
BRANCH   3   4
ATOM      4  C   UNL     1      -6.600   8.531   2.743  1.00  0.00     0.261 C 
BRANCH   4   5
ATOM      5  O   UNL     1      -7.434   7.370   2.538  1.00  0.00    -0.462 OA
BRANCH   5   6
ATOM      6  C   UNL     1      -8.200   7.420   1.420  1.00  0.00     0.329 C 
ATOM      7  O   UNL     1      -8.300   8.411   0.702  1.00  0.00    -0.250 OA
BRANCH   6   8
ATOM      8  C   UNL     1      -9.008   6.130   1.185  1.00  0.00     0.198 C 
BRANCH   8   9
ATOM      9  N   UNL     1      -8.619   4.912   1.924  1.00  0.00    -0.335 N 
ATOM     10  C   UNL     1      -7.705   3.938   1.557  1.00  0.00     0.293 C 
ATOM     11  O   UNL     1      -7.655   2.879   2.170  1.00  0.00    -0.265 OA
ATOM     12  H   UNL     1      -9.067   4.775   2.789  1.00  0.00     0.164 HD
BRANCH  10  13
ATOM     13  C   UNL     1      -6.685   4.238   0.430  1.00  0.00     0.252 C 
ATOM     14  O   UNL     1      -6.744   5.351  -0.090  1.00  0.00    -0.283 OA
BRANCH  13  15
ATOM     15  C   UNL     1      -5.613   3.315   0.018  1.00  0.00     0.054 A 
ATOM     16  N   UNL     1      -4.250   1.559  -0.249  1.00  0.00    -0.240 N 
ATOM     17  C   UNL     1      -5.290   2.060   0.506  1.00  0.00     0.117 A 
ATOM     18  C   UNL     1      -3.915   2.427  -1.265  1.00  0.00     0.065 A 
ATOM     19  C   UNL     1      -4.665   3.586  -1.035  1.00  0.00     0.012 A 
ATOM     20  C   UNL     1      -3.024   2.330  -2.350  1.00  0.00     0.028 A 
ATOM     21  C   UNL     1      -4.425   4.715  -1.849  1.00  0.00     0.011 A 
ATOM     22  C   UNL     1      -2.831   3.459  -3.152  1.00  0.00     0.002 A 
ATOM     23  C   UNL     1      -3.502   4.645  -2.892  1.00  0.00     0.001 A 
BRANCH  16  24
ATOM     24  S   UNL     1      -3.615  -0.012  -0.046  1.00  0.00     0.268 S 
ATOM     25  O   UNL     1      -3.959  -0.697  -1.293  1.00  0.00    -0.201 OA
ATOM     26  O   UNL     1      -4.082  -0.467   1.234  1.00  0.00    -0.201 OA
BRANCH  24  27
ATOM     27  C   UNL     1      -1.842   0.065   0.041  1.00  0.00     0.088 A 
ATOM     28  C   UNL     1       2.466  -0.016   0.036  1.00  0.00     0.044 C 
ATOM     29  C   UNL     1       0.965   0.019   0.054  1.00  0.00    -0.051 A 
ATOM     30  C   UNL     1       0.241  -1.173  -0.059  1.00  0.00     0.005 A 
ATOM     31  C   UNL     1       0.270   1.228   0.194  1.00  0.00     0.005 A 
ATOM     32  C   UNL     1      -1.154  -1.151  -0.073  1.00  0.00     0.022 A 
ATOM     33  C   UNL     1      -1.131   1.255   0.203  1.00  0.00     0.022 A 
ENDBRANCH  24  27
ENDBRANCH  16  24
ENDBRANCH  13  15
ENDBRANCH  10  13
ENDBRANCH   8   9
BRANCH   8  34
ATOM     34  C   UNL     1     -10.508   6.464   1.306  1.00  0.00     0.092 C 
BRANCH  34  35
ATOM     35  C   UNL     1     -11.138   6.245   2.640  1.00  0.00     0.037 A 
ATOM     36  C   UNL     1     -11.682   5.120   3.225  1.00  0.00     0.134 A 
ATOM     37  N   UNL     1     -11.387   7.251   3.538  1.00  0.00    -0.348 N 
ATOM     38  N   UNL     1     -12.267   5.424   4.424  1.00  0.00    -0.245 NA
ATOM     39  C   UNL     1     -12.101   6.717   4.572  1.00  0.00     0.196 A 
ATOM     40  H   UNL     1     -11.103   8.189   3.452  1.00  0.00     0.167 HD
ENDBRANCH  34  35
ENDBRANCH   8  34
ENDBRANCH   6   8
ENDBRANCH   5   6
ENDBRANCH   4   5
ENDBRANCH   3   4
ENDBRANCH   2   3
ENDBRANCH   1   2
BRANCH   1  41
ATOM     41  C   UNL     1      -4.940   5.042   3.340  1.00  0.00     0.188 C 
BRANCH  41  42
ATOM     42  O   UNL     1      -5.603   5.171   4.583  1.00  0.00    -0.377 OA
BRANCH  42  43
ATOM     43  C   UNL     1      -4.726   5.400   5.681  1.00  0.00     0.188 C 
BRANCH  43  44
ATOM     44  C   UNL     1      -3.617   4.368   5.853  1.00  0.00     0.188 C 
BRANCH  44  45
ATOM     45  O   UNL     1      -2.447   4.893   5.221  1.00  0.00    -0.376 OA
BRANCH  45  46
ATOM     46  C   UNL     1      -1.278   4.087   5.351  1.00  0.00     0.202 C 
BRANCH  46  47
ATOM     47  C   UNL     1      -0.837   3.862   6.804  1.00  0.00     0.261 C 
BRANCH  47  48
ATOM     48  O   UNL     1      -0.802   5.138   7.472  1.00  0.00    -0.460 OA
BRANCH  48  49
ATOM     49  C   UNL     1      -1.540   5.229   8.609  1.00  0.00     0.338 C 
ATOM     50  O   UNL     1      -1.706   4.336   9.423  1.00  0.00    -0.246 OA
BRANCH  49  51
ATOM     51  C   UNL     1      -2.368   6.471   8.565  1.00  0.00     0.060 A 
ATOM     52  C   UNL     1      -3.444   6.612   9.457  1.00  0.00     0.016 A 
ATOM     53  C   UNL     1      -2.263   7.343   7.481  1.00  0.00     0.016 A 
ATOM     54  C   UNL     1      -4.479   7.521   9.183  1.00  0.00     0.010 A 
ATOM     55  C   UNL     1      -3.312   8.206   7.189  1.00  0.00     0.010 A 
ATOM     56  C   UNL     1      -4.461   8.261   7.995  1.00  0.00    -0.014 A 
BRANCH  56  57
ATOM     57  C   UNL     1      -5.661   8.876   7.385  1.00  0.00     0.031 A 
ATOM     58  C   UNL     1      -5.638  10.233   6.756  1.00  0.00     0.074 A 
ATOM     59  C   UNL     1      -6.722   8.079   7.096  1.00  0.00     0.049 A 
ATOM     60  N   UNL     1      -6.677  10.780   6.213  1.00  0.00    -0.248 NA
ATOM     61  C   UNL     1      -4.474  11.110   6.684  1.00  0.00     0.031 C 
ATOM     62  C   UNL     1      -7.688   8.275   6.011  1.00  0.00     0.029 A 
ATOM     63  N   UNL     1      -7.127   6.867   7.625  1.00  0.00    -0.354 N 
ATOM     64  C   UNL     1      -6.268  11.828   5.429  1.00  0.00     0.074 A 
ATOM     65  C   UNL     1      -4.922  12.087   5.881  1.00  0.00     0.031 C 
ATOM     66  C   UNL     1      -8.559   7.263   5.974  1.00  0.00     0.029 A 
ATOM     67  C   UNL     1      -8.420   6.546   7.207  1.00  0.00     0.049 A 
ATOM     68  H   UNL     1      -6.576   6.305   8.218  1.00  0.00     0.167 HD
ATOM     69  C   UNL     1      -7.083  12.256   4.417  1.00  0.00     0.037 A 
ATOM     70  C   UNL     1      -9.450   6.455   8.099  1.00  0.00     0.037 A 
ATOM     71  C   UNL     1      -8.442  11.652   4.475  1.00  0.00     0.049 A 
ATOM     72  C   UNL     1     -10.445   7.601   8.004  1.00  0.00     0.074 A 
ATOM     73  C   UNL     1      -9.321  11.113   3.548  1.00  0.00     0.029 A 
ATOM     74  N   UNL     1      -9.073  11.476   5.718  1.00  0.00    -0.354 N 
ATOM     75  N   UNL     1     -10.232   8.670   7.271  1.00  0.00    -0.248 NA
ATOM     76  C   UNL     1     -11.744   7.667   8.662  1.00  0.00     0.031 C 
ATOM     77  C   UNL     1     -10.483  10.659   4.237  1.00  0.00     0.029 A 
ATOM     78  C   UNL     1     -10.307  10.871   5.594  1.00  0.00     0.049 A 
ATOM     79  H   UNL     1      -8.681  11.752   6.577  1.00  0.00     0.167 HD
ATOM     80  C   UNL     1     -11.266   9.554   7.368  1.00  0.00     0.074 A 
ATOM     81  C   UNL     1     -12.204   8.862   8.236  1.00  0.00     0.031 C 
ATOM     82  C   UNL     1     -11.225  10.771   6.736  1.00  0.00     0.037 A 
BRANCH  69  83
ATOM     83  C   UNL     1      -6.633  13.161   3.258  1.00  0.00     0.064 A 
ATOM     84  C   UNL     1      -7.573  13.725   2.360  1.00  0.00     0.173 A 
ATOM     85  C   UNL     1      -5.289  13.444   2.920  1.00  0.00     0.173 A 
ATOM     86  F   UNL     1      -8.890  13.565   2.539  1.00  0.00    -0.203 F 
ATOM     87  C   UNL     1      -7.201  14.480   1.236  1.00  0.00     0.198 A 
ATOM     88  C   UNL     1      -4.923  14.266   1.843  1.00  0.00     0.198 A 
ATOM     89  F   UNL     1      -4.262  12.893   3.573  1.00  0.00    -0.203 F 
ATOM     90  F   UNL     1      -8.142  14.922   0.389  1.00  0.00    -0.200 F 
ATOM     91  C   UNL     1      -5.877  14.769   0.989  1.00  0.00     0.200 A 
ATOM     92  F   UNL     1      -3.627  14.540   1.630  1.00  0.00    -0.200 F 
ATOM     93  F   UNL     1      -5.521  15.512  -0.068  1.00  0.00    -0.200 F 
ENDBRANCH  69  83
BRANCH  70  94
ATOM     94  C   UNL     1      -9.137   5.461   9.167  1.00  0.00     0.064 A 
ATOM     95  C   UNL     1      -9.119   4.131   8.688  1.00  0.00     0.173 A 
ATOM     96  C   UNL     1      -8.201   5.791  10.163  1.00  0.00     0.173 A 
ATOM     97  F   UNL     1     -10.020   3.748   7.771  1.00  0.00    -0.203 F 
ATOM     98  C   UNL     1      -8.046   3.283   8.959  1.00  0.00     0.198 A 
ATOM     99  C   UNL     1      -7.136   4.926  10.447  1.00  0.00     0.198 A 
ATOM    100  F   UNL     1      -8.169   7.031  10.674  1.00  0.00    -0.203 F 
ATOM    101  F   UNL     1      -7.933   2.118   8.304  1.00  0.00    -0.200 F 
ATOM    102  C   UNL     1      -7.026   3.705   9.794  1.00  0.00     0.200 A 
ATOM    103  F   UNL     1      -6.130   5.342  11.231  1.00  0.00    -0.200 F 
ATOM    104  F   UNL     1      -5.906   2.977   9.907  1.00  0.00    -0.200 F 
ENDBRANCH  70  94
BRANCH  82 105
ATOM    105  C   UNL     1     -12.065  12.004   7.056  1.00  0.00     0.064 A 
ATOM    106  C   UNL     1     -12.868  12.154   8.196  1.00  0.00     0.173 A 
ATOM    107  C   UNL     1     -11.941  13.183   6.266  1.00  0.00     0.173 A 
ATOM    108  F   UNL     1     -13.005  11.178   9.098  1.00  0.00    -0.203 F 
ATOM    109  C   UNL     1     -13.521  13.355   8.500  1.00  0.00     0.198 A 
ATOM    110  C   UNL     1     -12.550  14.392   6.599  1.00  0.00     0.198 A 
ATOM    111  F   UNL     1     -11.188  13.228   5.159  1.00  0.00    -0.203 F 
ATOM    112  F   UNL     1     -14.294  13.426   9.592  1.00  0.00    -0.200 F 
ATOM    113  C   UNL     1     -13.350  14.476   7.712  1.00  0.00     0.200 A 
ATOM    114  F   UNL     1     -12.327  15.477   5.843  1.00  0.00    -0.200 F 
ATOM    115  F   UNL     1     -13.932  15.637   8.041  1.00  0.00    -0.200 F 
ENDBRANCH  82 105
ENDBRANCH  56  57
ENDBRANCH  49  51
ENDBRANCH  48  49
ENDBRANCH  47  48
ENDBRANCH  46  47
ENDBRANCH  45  46
ENDBRANCH  44  45
ENDBRANCH  43  44
ENDBRANCH  42  43
ENDBRANCH  41  42
ENDBRANCH   1  41
TORSDOF 27
