REMARK SMILES Cc1cccc(C[C@H](C(=O)OCCOCCOCCOCCOC(=O)c2ccc(-c3c4nc(c(-c5c(F)c(F)c(F)c(F)c5F)c5ccc([nH]5)c(-c5c(F)c(F)c(F)c(F)c5F)c5nc(c(-c6c(F)c(F)c(F)c(F)c6F)c6ccc3[nH]6)C=C5)C=C4)cc2)[C@@H]2CCCC[C@@H]2O)c1
REMARK SMILES IDX 17 1 16 2 15 3 14 4 13 5 12 6 11 7 9 8 10 9 8 10 7 11 6 12
REMARK SMILES IDX 1 13 2 14 3 15 96 16 4 17 5 18 89 19 90 20 94 21 91 22 93 23
REMARK SMILES IDX 92 24 95 25 18 27 19 28 20 29 21 30 22 31 23 32 24 33 25 34
REMARK SMILES IDX 26 35 27 36 88 37 28 38 87 39 29 40 30 41 31 42 81 43 32 44
REMARK SMILES IDX 86 45 80 46 82 47 33 48 85 49 79 50 78 51 34 53 66 54 46 55
REMARK SMILES IDX 65 56 47 57 50 58 64 59 83 60 48 61 49 62 63 64 84 65 51 66
REMARK SMILES IDX 35 67 36 68 44 69 37 70 38 71 42 72 45 73 39 74 40 75 43 76
REMARK SMILES IDX 41 77 67 78 68 79 76 80 69 81 70 82 74 83 77 84 71 85 72 86
REMARK SMILES IDX 75 87 73 88 52 89 53 90 61 91 54 92 55 93 59 94 62 95 56 96
REMARK SMILES IDX 57 97 60 98 58 99
REMARK H PARENT 95 26 82 52 50 63
REMARK Flexibility Score: inf
ROOT
ATOM      1  O   UNL     1      -2.054   5.211   1.085  1.00  0.00    -0.377 OA
ENDROOT
BRANCH   1   2
ATOM      2  C   UNL     1      -2.626   6.453   1.474  1.00  0.00     0.188 C 
BRANCH   2   3
ATOM      3  C   UNL     1      -3.665   6.476   2.595  1.00  0.00     0.188 C 
BRANCH   3   4
ATOM      4  O   UNL     1      -3.440   5.695   3.750  1.00  0.00    -0.376 OA
BRANCH   4   5
ATOM      5  C   UNL     1      -3.663   4.297   3.593  1.00  0.00     0.202 C 
BRANCH   5   6
ATOM      6  C   UNL     1      -4.851   3.850   2.741  1.00  0.00     0.261 C 
BRANCH   6   7
ATOM      7  O   UNL     1      -4.546   4.076   1.352  1.00  0.00    -0.463 OA
BRANCH   7   8
ATOM      8  C   UNL     1      -5.585   3.915   0.491  1.00  0.00     0.309 C 
ATOM      9  O   UNL     1      -6.634   3.392   0.772  1.00  0.00    -0.252 OA
BRANCH   8  10
ATOM     10  C   UNL     1      -5.367   4.735  -0.790  1.00  0.00     0.109 C 
BRANCH  10  11
ATOM     11  C   UNL     1      -5.764   6.173  -0.365  1.00  0.00     0.051 C 
BRANCH  11  12
ATOM     12  C   UNL     1      -6.855   6.815  -1.188  1.00  0.00    -0.047 A 
ATOM     13  C   UNL     1      -9.740   9.278  -0.827  1.00  0.00     0.044 C 
ATOM     14  C   UNL     1      -8.738   8.333  -1.415  1.00  0.00    -0.051 A 
ATOM     15  C   UNL     1      -8.788   8.062  -2.788  1.00  0.00     0.003 A 
ATOM     16  C   UNL     1      -7.761   7.717  -0.619  1.00  0.00     0.007 A 
ATOM     17  C   UNL     1      -7.897   7.169  -3.357  1.00  0.00     0.001 A 
ATOM     18  C   UNL     1      -6.954   6.554  -2.551  1.00  0.00     0.004 A 
ENDBRANCH  11  12
ENDBRANCH  10  11
BRANCH  10  19
ATOM     19  C   UNL     1      -4.014   4.422  -1.562  1.00  0.00     0.032 C 
ATOM     20  C   UNL     1      -2.922   5.469  -1.845  1.00  0.00     0.007 C 
ATOM     21  C   UNL     1      -4.226   3.740  -2.942  1.00  0.00     0.118 C 
ATOM     22  C   UNL     1      -3.359   6.603  -2.735  1.00  0.00     0.001 C 
ATOM     23  C   UNL     1      -4.405   4.684  -4.150  1.00  0.00     0.032 C 
ATOM     24  C   UNL     1      -3.810   6.101  -4.092  1.00  0.00     0.003 C 
BRANCH  21  25
ATOM     25  O   UNL     1      -5.303   2.811  -2.925  1.00  0.00    -0.393 OA
ATOM     26  H   UNL     1      -6.138   3.286  -2.789  1.00  0.00     0.210 HD
ENDBRANCH  21  25
ENDBRANCH  10  19
ENDBRANCH   8  10
ENDBRANCH   7   8
ENDBRANCH   6   7
ENDBRANCH   5   6
ENDBRANCH   4   5
ENDBRANCH   3   4
ENDBRANCH   2   3
ENDBRANCH   1   2
BRANCH   1  27
ATOM     27  C   UNL     1      -0.684   5.003   1.389  1.00  0.00     0.188 C 
BRANCH  27  28
ATOM     28  C   UNL     1       0.242   6.172   1.527  1.00  0.00     0.188 C 
BRANCH  28  29
ATOM     29  O   UNL     1      -0.072   6.789   2.766  1.00  0.00    -0.376 OA
BRANCH  29  30
ATOM     30  C   UNL     1       0.627   8.002   2.984  1.00  0.00     0.202 C 
BRANCH  30  31
ATOM     31  C   UNL     1       2.133   7.754   3.091  1.00  0.00     0.261 C 
BRANCH  31  32
ATOM     32  O   UNL     1       2.334   6.801   4.160  1.00  0.00    -0.460 OA
BRANCH  32  33
ATOM     33  C   UNL     1       2.926   5.629   3.804  1.00  0.00     0.338 C 
ATOM     34  O   UNL     1       3.940   5.539   3.131  1.00  0.00    -0.246 OA
BRANCH  33  35
ATOM     35  C   UNL     1       2.031   4.469   4.120  1.00  0.00     0.060 A 
ATOM     36  C   UNL     1       2.293   3.212   3.551  1.00  0.00     0.016 A 
ATOM     37  C   UNL     1       0.806   4.673   4.746  1.00  0.00     0.016 A 
ATOM     38  C   UNL     1       1.281   2.232   3.457  1.00  0.00     0.010 A 
ATOM     39  C   UNL     1      -0.199   3.716   4.619  1.00  0.00     0.010 A 
ATOM     40  C   UNL     1      -0.009   2.513   3.907  1.00  0.00    -0.014 A 
BRANCH  40  41
ATOM     41  C   UNL     1      -1.231   1.749   3.513  1.00  0.00     0.031 A 
ATOM     42  C   UNL     1      -2.268   1.411   4.548  1.00  0.00     0.074 A 
ATOM     43  C   UNL     1      -1.615   1.706   2.202  1.00  0.00     0.049 A 
ATOM     44  N   UNL     1      -3.407   0.855   4.299  1.00  0.00    -0.248 NA
ATOM     45  C   UNL     1      -2.158   1.764   5.955  1.00  0.00     0.031 C 
ATOM     46  C   UNL     1      -2.955   1.462   1.663  1.00  0.00     0.029 A 
ATOM     47  N   UNL     1      -0.905   1.972   1.016  1.00  0.00    -0.354 N 
ATOM     48  C   UNL     1      -4.285   1.104   5.335  1.00  0.00     0.074 A 
ATOM     49  C   UNL     1      -3.419   1.601   6.378  1.00  0.00     0.031 C 
ATOM     50  C   UNL     1      -2.942   1.338   0.331  1.00  0.00     0.029 A 
ATOM     51  C   UNL     1      -1.556   1.271  -0.023  1.00  0.00     0.049 A 
ATOM     52  H   UNL     1      -0.106   2.540   0.928  1.00  0.00     0.167 HD
ATOM     53  C   UNL     1      -5.636   0.975   5.096  1.00  0.00     0.037 A 
ATOM     54  C   UNL     1      -0.970   0.217  -0.642  1.00  0.00     0.037 A 
ATOM     55  C   UNL     1      -5.884   0.410   3.734  1.00  0.00     0.049 A 
ATOM     56  C   UNL     1      -1.803  -1.016  -0.341  1.00  0.00     0.074 A 
ATOM     57  C   UNL     1      -6.618   0.796   2.620  1.00  0.00     0.029 A 
ATOM     58  N   UNL     1      -5.112  -0.676   3.288  1.00  0.00    -0.354 N 
ATOM     59  N   UNL     1      -2.483  -1.164   0.781  1.00  0.00    -0.248 NA
ATOM     60  C   UNL     1      -2.222  -1.967  -1.365  1.00  0.00     0.031 C 
ATOM     61  C   UNL     1      -6.206   0.010   1.499  1.00  0.00     0.029 A 
ATOM     62  C   UNL     1      -5.250  -0.901   1.928  1.00  0.00     0.049 A 
ATOM     63  H   UNL     1      -4.537  -1.216   3.876  1.00  0.00     0.167 HD
ATOM     64  C   UNL     1      -3.537  -2.021   0.564  1.00  0.00     0.074 A 
ATOM     65  C   UNL     1      -3.283  -2.549  -0.773  1.00  0.00     0.031 C 
ATOM     66  C   UNL     1      -4.692  -2.100   1.306  1.00  0.00     0.037 A 
BRANCH  53  67
ATOM     67  C   UNL     1      -6.780   1.523   5.993  1.00  0.00     0.064 A 
ATOM     68  C   UNL     1      -8.132   1.544   5.559  1.00  0.00     0.173 A 
ATOM     69  C   UNL     1      -6.623   2.072   7.286  1.00  0.00     0.173 A 
ATOM     70  F   UNL     1      -8.509   0.986   4.404  1.00  0.00    -0.203 F 
ATOM     71  C   UNL     1      -9.183   2.115   6.303  1.00  0.00     0.198 A 
ATOM     72  C   UNL     1      -7.671   2.636   8.035  1.00  0.00     0.198 A 
ATOM     73  F   UNL     1      -5.458   2.061   7.928  1.00  0.00    -0.203 F 
ATOM     74  F   UNL     1     -10.429   2.116   5.807  1.00  0.00    -0.200 F 
ATOM     75  C   UNL     1      -8.951   2.668   7.541  1.00  0.00     0.200 A 
ATOM     76  F   UNL     1      -7.415   3.138   9.253  1.00  0.00    -0.200 F 
ATOM     77  F   UNL     1      -9.948   3.201   8.259  1.00  0.00    -0.200 F 
ENDBRANCH  53  67
BRANCH  54  78
ATOM     78  C   UNL     1       0.454   0.557  -0.955  1.00  0.00     0.064 A 
ATOM     79  C   UNL     1       0.591   1.616  -1.895  1.00  0.00     0.173 A 
ATOM     80  C   UNL     1       1.469   0.459   0.011  1.00  0.00     0.173 A 
ATOM     81  F   UNL     1      -0.339   1.773  -2.853  1.00  0.00    -0.203 F 
ATOM     82  C   UNL     1       1.529   2.640  -1.729  1.00  0.00     0.198 A 
ATOM     83  C   UNL     1       2.441   1.469   0.142  1.00  0.00     0.198 A 
ATOM     84  F   UNL     1       1.422  -0.501   0.944  1.00  0.00    -0.203 F 
ATOM     85  F   UNL     1       1.478   3.731  -2.509  1.00  0.00    -0.200 F 
ATOM     86  C   UNL     1       2.424   2.588  -0.679  1.00  0.00     0.200 A 
ATOM     87  F   UNL     1       3.329   1.416   1.146  1.00  0.00    -0.200 F 
ATOM     88  F   UNL     1       3.222   3.637  -0.424  1.00  0.00    -0.200 F 
ENDBRANCH  54  78
BRANCH  66  89
ATOM     89  C   UNL     1      -5.438  -3.399   1.579  1.00  0.00     0.064 A 
ATOM     90  C   UNL     1      -4.979  -4.660   1.179  1.00  0.00     0.173 A 
ATOM     91  C   UNL     1      -6.536  -3.421   2.488  1.00  0.00     0.173 A 
ATOM     92  F   UNL     1      -3.947  -4.803   0.340  1.00  0.00    -0.203 F 
ATOM     93  C   UNL     1      -5.542  -5.839   1.673  1.00  0.00     0.198 A 
ATOM     94  C   UNL     1      -7.045  -4.594   3.030  1.00  0.00     0.198 A 
ATOM     95  F   UNL     1      -7.136  -2.307   2.929  1.00  0.00    -0.203 F 
ATOM     96  F   UNL     1      -5.069  -7.018   1.249  1.00  0.00    -0.200 F 
ATOM     97  C   UNL     1      -6.546  -5.807   2.623  1.00  0.00     0.200 A 
ATOM     98  F   UNL     1      -7.996  -4.532   3.973  1.00  0.00    -0.200 F 
ATOM     99  F   UNL     1      -7.022  -6.941   3.151  1.00  0.00    -0.200 F 
ENDBRANCH  66  89
ENDBRANCH  40  41
ENDBRANCH  33  35
ENDBRANCH  32  33
ENDBRANCH  31  32
ENDBRANCH  30  31
ENDBRANCH  29  30
ENDBRANCH  28  29
ENDBRANCH  27  28
ENDBRANCH   1  27
TORSDOF 24
