REMARK SMILES [NH3+]CCOCC(=O)N1C[C@@H](C(=O)OCCOCCOCCOCCOC(=O)c2ccc(-c3c4nc(c(-c5c(F)c(F)c(F)c(F)c5F)c5ccc([nH]5)c(-c5c(F)c(F)c(F)c(F)c5F)c5nc(c(-c6c(F)c(F)c(F)c(F)c6F)c6ccc3[nH]6)C=C5)C=C4)cc2)Oc2ccccc21
REMARK SMILES IDX 17 1 16 2 15 3 14 4 13 5 11 6 12 7 10 8 8 9 9 10 97 11 92 12
REMARK SMILES IDX 96 13 91 14 93 15 95 16 94 17 6 18 7 19 5 20 4 21 3 22 2 23
REMARK SMILES IDX 1 24 18 28 19 29 20 30 21 31 22 32 23 33 24 34 25 35 26 36
REMARK SMILES IDX 27 37 28 38 29 39 90 40 30 41 89 42 31 43 32 44 33 45 83 46
REMARK SMILES IDX 34 47 88 48 82 49 84 50 35 51 87 52 81 53 80 54 36 56 68 57
REMARK SMILES IDX 48 58 67 59 49 60 52 61 66 62 85 63 50 64 51 65 65 67 86 68
REMARK SMILES IDX 53 69 37 70 38 71 46 72 39 73 40 74 44 75 47 76 41 77 42 78
REMARK SMILES IDX 45 79 43 80 69 81 70 82 78 83 71 84 72 85 76 86 79 87 73 88
REMARK SMILES IDX 74 89 77 90 75 91 54 92 55 93 63 94 56 95 57 96 61 97 64 98
REMARK SMILES IDX 58 99 59 100 62 101 60 102
REMARK H PARENT 1 25 1 26 1 27 84 55 52 66
REMARK Flexibility Score: inf
ROOT
ATOM      1  C   UNL     1       7.039   3.447   2.516  1.00  0.00     0.188 C 
ENDROOT
BRANCH   1   2
ATOM      2  O   UNL     1       7.495   2.253   3.118  1.00  0.00    -0.376 OA
BRANCH   2   3
ATOM      3  C   UNL     1       6.684   1.098   3.156  1.00  0.00     0.202 C 
BRANCH   3   4
ATOM      4  C   UNL     1       5.179   1.157   3.472  1.00  0.00     0.261 C 
BRANCH   4   5
ATOM      5  O   UNL     1       4.430   2.210   2.827  1.00  0.00    -0.460 OA
BRANCH   5   6
ATOM      6  C   UNL     1       3.926   3.202   3.611  1.00  0.00     0.349 C 
ATOM      7  O   UNL     1       3.964   3.168   4.838  1.00  0.00    -0.248 OA
BRANCH   6   8
ATOM      8  C   UNL     1       3.286   4.397   2.833  1.00  0.00     0.302 C 
ATOM      9  N   UNL     1       2.538   3.608   0.605  1.00  0.00    -0.303 N 
ATOM     10  C   UNL     1       2.118   3.953   1.964  1.00  0.00     0.183 C 
ATOM     11  C   UNL     1       3.404   4.567   0.012  1.00  0.00     0.086 A 
ATOM     12  C   UNL     1       4.009   5.523   0.843  1.00  0.00     0.144 A 
ATOM     13  C   UNL     1       3.608   4.644  -1.374  1.00  0.00     0.030 A 
ATOM     14  O   UNL     1       4.088   5.404   2.215  1.00  0.00    -0.475 OA
ATOM     15  C   UNL     1       4.702   6.602   0.280  1.00  0.00     0.049 A 
ATOM     16  C   UNL     1       4.329   5.704  -1.929  1.00  0.00     0.002 A 
ATOM     17  C   UNL     1       4.843   6.702  -1.107  1.00  0.00     0.004 A 
BRANCH   9  18
ATOM     18  C   UNL     1       1.993   2.554  -0.115  1.00  0.00     0.253 C 
ATOM     19  O   UNL     1       2.611   1.883  -0.944  1.00  0.00    -0.272 OA
BRANCH  18  20
ATOM     20  C   UNL     1       0.490   2.312   0.103  1.00  0.00     0.260 C 
BRANCH  20  21
ATOM     21  O   UNL     1       0.021   1.874   1.360  1.00  0.00    -0.366 OA
BRANCH  21  22
ATOM     22  C   UNL     1       0.726   0.769   1.927  1.00  0.00     0.222 C 
BRANCH  22  23
ATOM     23  C   UNL     1       0.384  -0.584   1.299  1.00  0.00     0.287 C 
BRANCH  23  24
ATOM     24  N   UNL     1       1.067  -0.856   0.035  1.00  0.00    -0.356 N 
ATOM     25  H   UNL     1       0.784  -1.772  -0.314  1.00  0.00     0.344 HD
ATOM     26  H   UNL     1       2.076  -0.845   0.184  1.00  0.00     0.344 HD
ATOM     27  H   UNL     1       0.816  -0.141  -0.648  1.00  0.00     0.344 HD
ENDBRANCH  23  24
ENDBRANCH  22  23
ENDBRANCH  21  22
ENDBRANCH  20  21
ENDBRANCH  18  20
ENDBRANCH   9  18
ENDBRANCH   6   8
ENDBRANCH   5   6
ENDBRANCH   4   5
ENDBRANCH   3   4
ENDBRANCH   2   3
ENDBRANCH   1   2
BRANCH   1  28
ATOM     28  C   UNL     1       6.374   3.443   1.125  1.00  0.00     0.188 C 
BRANCH  28  29
ATOM     29  O   UNL     1       6.863   2.914  -0.087  1.00  0.00    -0.377 OA
BRANCH  29  30
ATOM     30  C   UNL     1       7.881   1.956  -0.062  1.00  0.00     0.188 C 
BRANCH  30  31
ATOM     31  C   UNL     1       9.265   2.579   0.078  1.00  0.00     0.188 C 
BRANCH  31  32
ATOM     32  O   UNL     1       9.233   3.823   0.746  1.00  0.00    -0.376 OA
BRANCH  32  33
ATOM     33  C   UNL     1       9.161   5.028  -0.008  1.00  0.00     0.202 C 
BRANCH  33  34
ATOM     34  C   UNL     1       8.260   5.246  -1.244  1.00  0.00     0.261 C 
BRANCH  34  35
ATOM     35  O   UNL     1       8.005   4.145  -2.116  1.00  0.00    -0.460 OA
BRANCH  35  36
ATOM     36  C   UNL     1       8.944   3.821  -3.021  1.00  0.00     0.338 C 
ATOM     37  O   UNL     1      10.008   4.362  -3.213  1.00  0.00    -0.246 OA
BRANCH  36  38
ATOM     38  C   UNL     1       8.520   2.532  -3.607  1.00  0.00     0.060 A 
ATOM     39  C   UNL     1       9.304   1.408  -3.328  1.00  0.00     0.016 A 
ATOM     40  C   UNL     1       7.361   2.421  -4.383  1.00  0.00     0.016 A 
ATOM     41  C   UNL     1       8.944   0.168  -3.839  1.00  0.00     0.010 A 
ATOM     42  C   UNL     1       7.023   1.181  -4.934  1.00  0.00     0.010 A 
ATOM     43  C   UNL     1       7.835   0.061  -4.688  1.00  0.00    -0.014 A 
BRANCH  43  44
ATOM     44  C   UNL     1       7.710  -1.174  -5.492  1.00  0.00     0.031 A 
ATOM     45  C   UNL     1       8.351  -1.187  -6.850  1.00  0.00     0.074 A 
ATOM     46  C   UNL     1       7.151  -2.282  -4.980  1.00  0.00     0.049 A 
ATOM     47  N   UNL     1       8.452  -2.161  -7.716  1.00  0.00    -0.248 NA
ATOM     48  C   UNL     1       8.979   0.073  -7.286  1.00  0.00     0.031 C 
ATOM     49  C   UNL     1       6.559  -2.390  -3.648  1.00  0.00     0.029 A 
ATOM     50  N   UNL     1       7.005  -3.535  -5.519  1.00  0.00    -0.354 N 
ATOM     51  C   UNL     1       9.154  -1.633  -8.792  1.00  0.00     0.074 A 
ATOM     52  C   UNL     1       9.427  -0.247  -8.489  1.00  0.00     0.031 C 
ATOM     53  C   UNL     1       6.109  -3.645  -3.474  1.00  0.00     0.029 A 
ATOM     54  C   UNL     1       6.357  -4.416  -4.691  1.00  0.00     0.049 A 
ATOM     55  H   UNL     1       7.335  -3.778  -6.414  1.00  0.00     0.167 HD
ATOM     56  C   UNL     1       9.544  -2.257  -9.927  1.00  0.00     0.037 A 
ATOM     57  C   UNL     1       5.992  -5.695  -4.909  1.00  0.00     0.037 A 
ATOM     58  C   UNL     1       9.254  -3.635 -10.220  1.00  0.00     0.049 A 
ATOM     59  C   UNL     1       6.357  -6.340  -6.223  1.00  0.00     0.074 A 
ATOM     60  C   UNL     1       9.594  -4.370 -11.340  1.00  0.00     0.029 A 
ATOM     61  N   UNL     1       8.537  -4.481  -9.385  1.00  0.00    -0.354 N 
ATOM     62  N   UNL     1       7.037  -5.845  -7.231  1.00  0.00    -0.248 NA
ATOM     63  C   UNL     1       5.910  -7.724  -6.428  1.00  0.00     0.031 C 
ATOM     64  C   UNL     1       9.025  -5.641 -11.213  1.00  0.00     0.029 A 
ATOM     65  C   UNL     1       8.395  -5.723  -9.981  1.00  0.00     0.049 A 
ATOM     66  H   UNL     1       8.181  -4.235  -8.500  1.00  0.00     0.167 HD
ATOM     67  C   UNL     1       7.125  -6.862  -8.173  1.00  0.00     0.074 A 
ATOM     68  C   UNL     1       6.442  -8.008  -7.609  1.00  0.00     0.031 C 
ATOM     69  C   UNL     1       7.716  -6.852  -9.394  1.00  0.00     0.037 A 
BRANCH  56  70
ATOM     70  C   UNL     1      10.280  -1.440 -10.950  1.00  0.00     0.064 A 
ATOM     71  C   UNL     1      11.585  -0.972 -10.729  1.00  0.00     0.173 A 
ATOM     72  C   UNL     1       9.673  -1.132 -12.177  1.00  0.00     0.173 A 
ATOM     73  F   UNL     1      12.205  -1.220  -9.565  1.00  0.00    -0.203 F 
ATOM     74  C   UNL     1      12.242  -0.202 -11.687  1.00  0.00     0.198 A 
ATOM     75  C   UNL     1      10.345  -0.393 -13.145  1.00  0.00     0.198 A 
ATOM     76  F   UNL     1       8.427  -1.553 -12.439  1.00  0.00    -0.203 F 
ATOM     77  F   UNL     1      13.465   0.281 -11.432  1.00  0.00    -0.200 F 
ATOM     78  C   UNL     1      11.625   0.080 -12.896  1.00  0.00     0.200 A 
ATOM     79  F   UNL     1       9.752  -0.132 -14.318  1.00  0.00    -0.200 F 
ATOM     80  F   UNL     1      12.261   0.814 -13.820  1.00  0.00    -0.200 F 
ENDBRANCH  56  70
BRANCH  57  81
ATOM     81  C   UNL     1       5.226  -6.441  -3.875  1.00  0.00     0.064 A 
ATOM     82  C   UNL     1       5.770  -7.557  -3.224  1.00  0.00     0.173 A 
ATOM     83  C   UNL     1       3.918  -6.064  -3.533  1.00  0.00     0.173 A 
ATOM     84  F   UNL     1       7.006  -7.976  -3.533  1.00  0.00    -0.203 F 
ATOM     85  C   UNL     1       5.029  -8.279  -2.289  1.00  0.00     0.198 A 
ATOM     86  C   UNL     1       3.190  -6.766  -2.574  1.00  0.00     0.198 A 
ATOM     87  F   UNL     1       3.345  -5.008  -4.129  1.00  0.00    -0.203 F 
ATOM     88  F   UNL     1       5.554  -9.374  -1.723  1.00  0.00    -0.200 F 
ATOM     89  C   UNL     1       3.743  -7.878  -1.960  1.00  0.00     0.200 A 
ATOM     90  F   UNL     1       1.951  -6.369  -2.252  1.00  0.00    -0.200 F 
ATOM     91  F   UNL     1       3.032  -8.572  -1.060  1.00  0.00    -0.200 F 
ENDBRANCH  57  81
BRANCH  69  92
ATOM     92  C   UNL     1       7.691  -8.130 -10.184  1.00  0.00     0.064 A 
ATOM     93  C   UNL     1       6.508  -8.632 -10.745  1.00  0.00     0.173 A 
ATOM     94  C   UNL     1       8.881  -8.835 -10.424  1.00  0.00     0.173 A 
ATOM     95  F   UNL     1       5.341  -8.002 -10.537  1.00  0.00    -0.203 F 
ATOM     96  C   UNL     1       6.512  -9.809 -11.488  1.00  0.00     0.198 A 
ATOM     97  C   UNL     1       8.887  -9.991 -11.199  1.00  0.00     0.198 A 
ATOM     98  F   UNL     1      10.044  -8.393  -9.921  1.00  0.00    -0.203 F 
ATOM     99  F   UNL     1       5.360 -10.300 -11.967  1.00  0.00    -0.200 F 
ATOM    100  C   UNL     1       7.702 -10.482 -11.722  1.00  0.00     0.200 A 
ATOM    101  F   UNL     1      10.042 -10.627 -11.442  1.00  0.00    -0.200 F 
ATOM    102  F   UNL     1       7.705 -11.609 -12.448  1.00  0.00    -0.200 F 
ENDBRANCH  69  92
ENDBRANCH  43  44
ENDBRANCH  36  38
ENDBRANCH  35  36
ENDBRANCH  34  35
ENDBRANCH  33  34
ENDBRANCH  32  33
ENDBRANCH  31  32
ENDBRANCH  30  31
ENDBRANCH  29  30
ENDBRANCH  28  29
ENDBRANCH   1  28
TORSDOF 26
