REMARK SMILES C[C@H]([NH2+][C@@H](C)Cc1cccs1)[C@@H](C)C(=O)OCCOCCOCCOCCOC(=O)c1ccc(-c2c3nc(c(-c4c(F)c(F)c(F)c(F)c4F)c4ccc([nH]4)c(-c4c(F)c(F)c(F)c(F)c4F)c4nc(c(-c5c(F)c(F)c(F)c(F)c5F)c5ccc2[nH]5)C=C4)C=C3)cc1
REMARK SMILES IDX 20 1 19 2 18 3 17 4 16 5 14 6 15 7 12 8 13 9 2 10 1 11 3 12
REMARK SMILES IDX 4 15 5 16 6 17 7 18 8 19 11 20 9 21 10 22 21 23 22 24 23 25
REMARK SMILES IDX 24 26 25 27 26 28 27 29 28 30 29 31 30 32 31 33 32 34 93 35
REMARK SMILES IDX 33 36 92 37 34 38 35 39 36 40 86 41 37 42 91 43 85 44 87 45
REMARK SMILES IDX 38 46 90 47 84 48 83 49 39 51 71 52 51 53 70 54 52 55 55 56
REMARK SMILES IDX 69 57 88 58 53 59 54 60 68 62 89 63 56 64 40 65 41 66 49 67
REMARK SMILES IDX 42 68 43 69 47 70 50 71 44 72 45 73 48 74 46 75 72 76 73 77
REMARK SMILES IDX 81 78 74 79 75 80 79 81 82 82 76 83 77 84 80 85 78 86 57 87
REMARK SMILES IDX 58 88 66 89 59 90 60 91 64 92 67 93 61 94 62 95 65 96 63 97
REMARK H PARENT 3 13 3 14 87 50 55 61
REMARK Flexibility Score: inf
ROOT
ATOM      1  C   UNL     1      -1.246   4.637  -0.735  1.00  0.00     0.188 C 
ENDROOT
BRANCH   1   2
ATOM      2  O   UNL     1      -2.462   5.151  -0.201  1.00  0.00    -0.376 OA
BRANCH   2   3
ATOM      3  C   UNL     1      -2.522   5.563   1.151  1.00  0.00     0.202 C 
BRANCH   3   4
ATOM      4  C   UNL     1      -2.393   4.479   2.243  1.00  0.00     0.261 C 
BRANCH   4   5
ATOM      5  O   UNL     1      -1.469   3.386   2.024  1.00  0.00    -0.463 OA
BRANCH   5   6
ATOM      6  C   UNL     1      -1.920   2.400   1.204  1.00  0.00     0.314 C 
ATOM      7  O   UNL     1      -3.027   2.426   0.672  1.00  0.00    -0.252 OA
BRANCH   6   8
ATOM      8  C   UNL     1      -1.033   1.154   1.139  1.00  0.00     0.154 C 
ATOM      9  C   UNL     1      -1.053   0.565   2.560  1.00  0.00     0.026 C 
BRANCH   8  10
ATOM     10  C   UNL     1       0.368   0.931   0.479  1.00  0.00     0.193 C 
ATOM     11  C   UNL     1       0.773   1.671  -0.802  1.00  0.00     0.076 C 
BRANCH  10  12
ATOM     12  N   UNL     1       0.518  -0.550   0.326  1.00  0.00    -0.341 N 
ATOM     13  H   UNL     1      -0.175  -0.983   0.936  1.00  0.00     0.346 HD
ATOM     14  H   UNL     1       1.500  -0.715   0.551  1.00  0.00     0.346 HD
BRANCH  12  15
ATOM     15  C   UNL     1       0.360  -1.165  -1.011  1.00  0.00     0.184 C 
ATOM     16  C   UNL     1       1.709  -1.809  -1.373  1.00  0.00     0.075 C 
BRANCH  15  17
ATOM     17  C   UNL     1      -0.749  -2.254  -1.061  1.00  0.00     0.111 C 
BRANCH  17  18
ATOM     18  C   UNL     1      -2.141  -1.679  -1.066  1.00  0.00     0.010 A 
ATOM     19  C   UNL     1      -2.932  -1.361   0.020  1.00  0.00     0.015 A 
ATOM     20  S   UNL     1      -2.944  -1.320  -2.538  1.00  0.00    -0.149 S 
ATOM     21  C   UNL     1      -4.091  -0.622  -0.353  1.00  0.00     0.012 A 
ATOM     22  C   UNL     1      -4.243  -0.565  -1.719  1.00  0.00     0.065 A 
ENDBRANCH  17  18
ENDBRANCH  15  17
ENDBRANCH  12  15
ENDBRANCH  10  12
ENDBRANCH   8  10
ENDBRANCH   6   8
ENDBRANCH   5   6
ENDBRANCH   4   5
ENDBRANCH   3   4
ENDBRANCH   2   3
ENDBRANCH   1   2
BRANCH   1  23
ATOM     23  C   UNL     1       0.061   4.647   0.089  1.00  0.00     0.188 C 
BRANCH  23  24
ATOM     24  O   UNL     1       0.110   5.612   1.122  1.00  0.00    -0.377 OA
BRANCH  24  25
ATOM     25  C   UNL     1       0.903   6.744   0.847  1.00  0.00     0.188 C 
BRANCH  25  26
ATOM     26  C   UNL     1       0.606   7.469  -0.474  1.00  0.00     0.188 C 
BRANCH  26  27
ATOM     27  O   UNL     1       0.639   6.605  -1.604  1.00  0.00    -0.376 OA
BRANCH  27  28
ATOM     28  C   UNL     1       1.764   6.625  -2.464  1.00  0.00     0.202 C 
BRANCH  28  29
ATOM     29  C   UNL     1       3.050   5.939  -1.971  1.00  0.00     0.261 C 
BRANCH  29  30
ATOM     30  O   UNL     1       3.513   6.297  -0.662  1.00  0.00    -0.460 OA
BRANCH  30  31
ATOM     31  C   UNL     1       3.906   7.579  -0.477  1.00  0.00     0.338 C 
ATOM     32  O   UNL     1       3.943   8.457  -1.307  1.00  0.00    -0.246 OA
BRANCH  31  33
ATOM     33  C   UNL     1       4.080   7.794   0.982  1.00  0.00     0.060 A 
ATOM     34  C   UNL     1       3.305   8.787   1.597  1.00  0.00     0.016 A 
ATOM     35  C   UNL     1       4.951   7.008   1.742  1.00  0.00     0.016 A 
ATOM     36  C   UNL     1       3.423   9.022   2.965  1.00  0.00     0.010 A 
ATOM     37  C   UNL     1       5.104   7.274   3.108  1.00  0.00     0.010 A 
ATOM     38  C   UNL     1       4.370   8.311   3.713  1.00  0.00    -0.014 A 
BRANCH  38  39
ATOM     39  C   UNL     1       4.776   8.863   5.028  1.00  0.00     0.031 A 
ATOM     40  C   UNL     1       5.947   9.809   5.049  1.00  0.00     0.074 A 
ATOM     41  C   UNL     1       4.086   8.609   6.152  1.00  0.00     0.049 A 
ATOM     42  N   UNL     1       6.482  10.457   6.051  1.00  0.00    -0.248 NA
ATOM     43  C   UNL     1       6.603  10.062   3.754  1.00  0.00     0.031 C 
ATOM     44  C   UNL     1       2.907   7.752   6.249  1.00  0.00     0.029 A 
ATOM     45  N   UNL     1       4.284   9.057   7.435  1.00  0.00    -0.354 N 
ATOM     46  C   UNL     1       7.532  11.187   5.508  1.00  0.00     0.074 A 
ATOM     47  C   UNL     1       7.583  10.880   4.097  1.00  0.00     0.031 C 
ATOM     48  C   UNL     1       2.492   7.726   7.528  1.00  0.00     0.029 A 
ATOM     49  C   UNL     1       3.389   8.546   8.342  1.00  0.00     0.049 A 
ATOM     50  H   UNL     1       5.000   9.687   7.681  1.00  0.00     0.167 HD
ATOM     51  C   UNL     1       8.373  12.045   6.130  1.00  0.00     0.037 A 
ATOM     52  C   UNL     1       3.320   8.712   9.678  1.00  0.00     0.037 A 
ATOM     53  C   UNL     1       8.322  12.345   7.535  1.00  0.00     0.049 A 
ATOM     54  C   UNL     1       4.313   9.625  10.358  1.00  0.00     0.074 A 
ATOM     55  C   UNL     1       9.122  13.206   8.263  1.00  0.00     0.029 A 
ATOM     56  N   UNL     1       7.422  11.781   8.428  1.00  0.00    -0.354 N 
ATOM     57  N   UNL     1       5.286  10.333   9.835  1.00  0.00    -0.248 NA
ATOM     58  C   UNL     1       4.186   9.773  11.815  1.00  0.00     0.031 C 
ATOM     59  C   UNL     1       8.750  13.114   9.608  1.00  0.00     0.029 A 
ATOM     60  C   UNL     1       7.666  12.257   9.706  1.00  0.00     0.049 A 
ATOM     61  H   UNL     1       6.716  11.139   8.189  1.00  0.00     0.167 HD
ATOM     62  C   UNL     1       5.858  11.037  10.889  1.00  0.00     0.074 A 
ATOM     63  C   UNL     1       5.111  10.683  12.077  1.00  0.00     0.031 C 
ATOM     64  C   UNL     1       6.904  11.902  10.877  1.00  0.00     0.037 A 
BRANCH  51  65
ATOM     65  C   UNL     1       9.447  12.688   5.301  1.00  0.00     0.064 A 
ATOM     66  C   UNL     1       9.156  13.660   4.331  1.00  0.00     0.173 A 
ATOM     67  C   UNL     1      10.793  12.347   5.504  1.00  0.00     0.173 A 
ATOM     68  F   UNL     1       7.885  14.006   4.081  1.00  0.00    -0.203 F 
ATOM     69  C   UNL     1      10.172  14.250   3.582  1.00  0.00     0.198 A 
ATOM     70  C   UNL     1      11.807  12.963   4.778  1.00  0.00     0.198 A 
ATOM     71  F   UNL     1      11.125  11.421   6.416  1.00  0.00    -0.203 F 
ATOM     72  F   UNL     1       9.867  15.139   2.627  1.00  0.00    -0.200 F 
ATOM     73  C   UNL     1      11.496  13.909   3.813  1.00  0.00     0.200 A 
ATOM     74  F   UNL     1      13.087  12.640   5.011  1.00  0.00    -0.200 F 
ATOM     75  F   UNL     1      12.473  14.487   3.100  1.00  0.00    -0.200 F 
ENDBRANCH  51  65
BRANCH  52  76
ATOM     76  C   UNL     1       2.289   7.990  10.474  1.00  0.00     0.064 A 
ATOM     77  C   UNL     1       1.278   8.679  11.159  1.00  0.00     0.173 A 
ATOM     78  C   UNL     1       2.328   6.594  10.608  1.00  0.00     0.173 A 
ATOM     79  F   UNL     1       1.211  10.016  11.087  1.00  0.00    -0.203 F 
ATOM     80  C   UNL     1       0.367   8.004  11.971  1.00  0.00     0.198 A 
ATOM     81  C   UNL     1       1.396   5.917  11.392  1.00  0.00     0.198 A 
ATOM     82  F   UNL     1       3.276   5.884   9.979  1.00  0.00    -0.203 F 
ATOM     83  F   UNL     1      -0.546   8.695  12.667  1.00  0.00    -0.200 F 
ATOM     84  C   UNL     1       0.424   6.623  12.083  1.00  0.00     0.200 A 
ATOM     85  F   UNL     1       1.448   4.581  11.487  1.00  0.00    -0.200 F 
ATOM     86  F   UNL     1      -0.448   5.975  12.868  1.00  0.00    -0.200 F 
ENDBRANCH  52  76
BRANCH  64  87
ATOM     87  C   UNL     1       7.261  12.574  12.174  1.00  0.00     0.064 A 
ATOM     88  C   UNL     1       7.804  11.865  13.257  1.00  0.00     0.173 A 
ATOM     89  C   UNL     1       7.072  13.957  12.328  1.00  0.00     0.173 A 
ATOM     90  F   UNL     1       8.001  10.541  13.167  1.00  0.00    -0.203 F 
ATOM     91  C   UNL     1       8.097  12.506  14.458  1.00  0.00     0.198 A 
ATOM     92  C   UNL     1       7.404  14.601  13.516  1.00  0.00     0.198 A 
ATOM     93  F   UNL     1       6.570  14.688  11.321  1.00  0.00    -0.203 F 
ATOM     94  F   UNL     1       8.546  11.795  15.502  1.00  0.00    -0.200 F 
ATOM     95  C   UNL     1       7.902  13.873  14.585  1.00  0.00     0.200 A 
ATOM     96  F   UNL     1       7.235  15.926  13.627  1.00  0.00    -0.200 F 
ATOM     97  F   UNL     1       8.184  14.488  15.742  1.00  0.00    -0.200 F 
ENDBRANCH  64  87
ENDBRANCH  38  39
ENDBRANCH  31  33
ENDBRANCH  30  31
ENDBRANCH  29  30
ENDBRANCH  28  29
ENDBRANCH  27  28
ENDBRANCH  26  27
ENDBRANCH  25  26
ENDBRANCH  24  25
ENDBRANCH  23  24
ENDBRANCH   1  23
TORSDOF 25
