REMARK SMILES Cc1ccccc1OCC(=O)NCCC(=O)OCCOCCOCCOCCOC(=O)c1ccc(-c2c3nc(c(-c4c(F)c(F)c(F)c(F)c4F)c4ccc([nH]4)c(-c4c(F)c(F)c(F)c(F)c4F)c4nc(c(-c5c(F)c(F)c(F)c(F)c5F)c5ccc2[nH]5)C=C4)C=C3)cc1
REMARK SMILES IDX 21 1 20 2 19 3 18 4 17 5 15 6 16 7 14 8 13 9 12 10 10 11
REMARK SMILES IDX 11 12 9 14 8 15 7 16 1 17 2 18 3 19 4 20 6 21 5 22 22 23
REMARK SMILES IDX 23 24 24 25 25 26 26 27 27 28 28 29 29 30 30 31 31 32 32 33
REMARK SMILES IDX 33 34 94 35 34 36 93 37 35 38 36 39 37 40 87 41 38 42 92 43
REMARK SMILES IDX 86 44 88 45 39 46 91 47 85 48 84 49 40 51 72 52 52 53 71 54
REMARK SMILES IDX 53 55 56 56 70 57 89 58 54 59 55 60 69 62 90 63 57 64 41 65
REMARK SMILES IDX 42 66 50 67 43 68 44 69 48 70 51 71 45 72 46 73 49 74 47 75
REMARK SMILES IDX 73 76 74 77 82 78 75 79 76 80 80 81 83 82 77 83 78 84 81 85
REMARK SMILES IDX 79 86 58 87 59 88 67 89 60 90 61 91 65 92 68 93 62 94 63 95
REMARK SMILES IDX 66 96 64 97
REMARK H PARENT 12 13 88 50 56 61
REMARK Flexibility Score: inf
ROOT
ATOM      1  C   UNL     1       1.516   5.489   4.625  1.00  0.00     0.188 C 
ENDROOT
BRANCH   1   2
ATOM      2  O   UNL     1       1.389   5.129   5.993  1.00  0.00    -0.376 OA
BRANCH   2   3
ATOM      3  C   UNL     1       0.965   3.794   6.251  1.00  0.00     0.202 C 
BRANCH   3   4
ATOM      4  C   UNL     1      -0.383   3.384   5.685  1.00  0.00     0.261 C 
BRANCH   4   5
ATOM      5  O   UNL     1      -0.268   3.064   4.297  1.00  0.00    -0.463 OA
BRANCH   5   6
ATOM      6  C   UNL     1      -1.265   3.546   3.515  1.00  0.00     0.307 C 
ATOM      7  O   UNL     1      -2.234   4.164   3.902  1.00  0.00    -0.252 OA
BRANCH   6   8
ATOM      8  C   UNL     1      -1.027   3.196   2.073  1.00  0.00     0.144 C 
BRANCH   8   9
ATOM      9  C   UNL     1       0.359   3.569   1.579  1.00  0.00     0.127 C 
BRANCH   9  10
ATOM     10  N   UNL     1       1.392   2.598   1.898  1.00  0.00    -0.353 N 
ATOM     11  C   UNL     1       2.378   2.125   1.075  1.00  0.00     0.257 C 
ATOM     12  O   UNL     1       3.331   1.498   1.542  1.00  0.00    -0.271 OA
ATOM     13  H   UNL     1       1.382   2.239   2.814  1.00  0.00     0.163 HD
BRANCH  11  14
ATOM     14  C   UNL     1       2.284   2.442  -0.422  1.00  0.00     0.329 C 
BRANCH  14  15
ATOM     15  O   UNL     1       1.150   2.046  -1.178  1.00  0.00    -0.484 OA
BRANCH  15  16
ATOM     16  C   UNL     1       0.477   0.927  -0.768  1.00  0.00     0.122 A 
ATOM     17  C   UNL     1       2.479  -0.692  -0.744  1.00  0.00     0.048 C 
ATOM     18  C   UNL     1       1.029  -0.346  -0.579  1.00  0.00    -0.009 A 
ATOM     19  C   UNL     1       0.170  -1.398  -0.203  1.00  0.00     0.007 A 
ATOM     20  C   UNL     1      -1.200  -1.197  -0.029  1.00  0.00     0.001 A 
ATOM     21  C   UNL     1      -0.906   1.114  -0.621  1.00  0.00     0.047 A 
ATOM     22  C   UNL     1      -1.740   0.065  -0.232  1.00  0.00     0.004 A 
ENDBRANCH  15  16
ENDBRANCH  14  15
ENDBRANCH  11  14
ENDBRANCH   9  10
ENDBRANCH   8   9
ENDBRANCH   6   8
ENDBRANCH   5   6
ENDBRANCH   4   5
ENDBRANCH   3   4
ENDBRANCH   2   3
ENDBRANCH   1   2
BRANCH   1  23
ATOM     23  C   UNL     1       2.716   4.945   3.832  1.00  0.00     0.188 C 
BRANCH  23  24
ATOM     24  O   UNL     1       2.912   3.547   3.930  1.00  0.00    -0.377 OA
BRANCH  24  25
ATOM     25  C   UNL     1       4.116   3.068   4.529  1.00  0.00     0.188 C 
BRANCH  25  26
ATOM     26  C   UNL     1       5.125   4.052   5.093  1.00  0.00     0.188 C 
BRANCH  26  27
ATOM     27  O   UNL     1       4.452   4.806   6.096  1.00  0.00    -0.376 OA
BRANCH  27  28
ATOM     28  C   UNL     1       4.915   6.133   6.300  1.00  0.00     0.202 C 
BRANCH  28  29
ATOM     29  C   UNL     1       6.375   6.182   6.747  1.00  0.00     0.261 C 
BRANCH  29  30
ATOM     30  O   UNL     1       6.482   5.566   8.049  1.00  0.00    -0.460 OA
BRANCH  30  31
ATOM     31  C   UNL     1       6.937   4.282   8.046  1.00  0.00     0.338 C 
ATOM     32  O   UNL     1       7.978   3.914   7.526  1.00  0.00    -0.246 OA
BRANCH  31  33
ATOM     33  C   UNL     1       5.866   3.344   8.510  1.00  0.00     0.060 A 
ATOM     34  C   UNL     1       6.024   1.957   8.358  1.00  0.00     0.016 A 
ATOM     35  C   UNL     1       4.599   3.847   8.756  1.00  0.00     0.016 A 
ATOM     36  C   UNL     1       4.897   1.117   8.241  1.00  0.00     0.010 A 
ATOM     37  C   UNL     1       3.505   3.032   8.516  1.00  0.00     0.010 A 
ATOM     38  C   UNL     1       3.620   1.666   8.198  1.00  0.00    -0.014 A 
BRANCH  38  39
ATOM     39  C   UNL     1       2.383   0.987   7.716  1.00  0.00     0.031 A 
ATOM     40  C   UNL     1       1.099   1.222   8.478  1.00  0.00     0.074 A 
ATOM     41  C   UNL     1       2.312   0.464   6.453  1.00  0.00     0.049 A 
ATOM     42  N   UNL     1      -0.071   0.867   8.071  1.00  0.00    -0.248 NA
ATOM     43  C   UNL     1       1.005   1.927   9.758  1.00  0.00     0.031 C 
ATOM     44  C   UNL     1       1.108   0.370   5.614  1.00  0.00     0.029 A 
ATOM     45  N   UNL     1       3.298  -0.066   5.601  1.00  0.00    -0.354 N 
ATOM     46  C   UNL     1      -1.043   1.535   8.790  1.00  0.00     0.074 A 
ATOM     47  C   UNL     1      -0.314   2.134   9.877  1.00  0.00     0.031 C 
ATOM     48  C   UNL     1       1.357  -0.255   4.457  1.00  0.00     0.029 A 
ATOM     49  C   UNL     1       2.646  -0.863   4.623  1.00  0.00     0.049 A 
ATOM     50  H   UNL     1       4.268   0.089   5.670  1.00  0.00     0.167 HD
ATOM     51  C   UNL     1      -2.318   1.554   8.285  1.00  0.00     0.037 A 
ATOM     52  C   UNL     1       2.829  -2.216   4.583  1.00  0.00     0.037 A 
ATOM     53  C   UNL     1      -2.432   0.618   7.153  1.00  0.00     0.049 A 
ATOM     54  C   UNL     1       1.560  -2.962   4.960  1.00  0.00     0.074 A 
ATOM     55  C   UNL     1      -2.753   0.719   5.809  1.00  0.00     0.029 A 
ATOM     56  N   UNL     1      -1.983  -0.685   7.342  1.00  0.00    -0.354 N 
ATOM     57  N   UNL     1       0.603  -2.419   5.674  1.00  0.00    -0.248 NA
ATOM     58  C   UNL     1       1.184  -4.287   4.476  1.00  0.00     0.031 C 
ATOM     59  C   UNL     1      -2.436  -0.525   5.187  1.00  0.00     0.029 A 
ATOM     60  C   UNL     1      -1.977  -1.394   6.166  1.00  0.00     0.049 A 
ATOM     61  H   UNL     1      -1.705  -1.054   8.211  1.00  0.00     0.167 HD
ATOM     62  C   UNL     1      -0.507  -3.217   5.662  1.00  0.00     0.074 A 
ATOM     63  C   UNL     1      -0.076  -4.400   4.942  1.00  0.00     0.031 C 
ATOM     64  C   UNL     1      -1.704  -2.823   6.192  1.00  0.00     0.037 A 
BRANCH  51  65
ATOM     65  C   UNL     1      -3.484   2.460   8.686  1.00  0.00     0.064 A 
ATOM     66  C   UNL     1      -4.747   2.332   8.048  1.00  0.00     0.173 A 
ATOM     67  C   UNL     1      -3.427   3.513   9.621  1.00  0.00     0.173 A 
ATOM     68  F   UNL     1      -4.987   1.363   7.155  1.00  0.00    -0.203 F 
ATOM     69  C   UNL     1      -5.827   3.190   8.299  1.00  0.00     0.198 A 
ATOM     70  C   UNL     1      -4.524   4.344   9.904  1.00  0.00     0.198 A 
ATOM     71  F   UNL     1      -2.310   3.809  10.286  1.00  0.00    -0.203 F 
ATOM     72  F   UNL     1      -6.975   3.033   7.623  1.00  0.00    -0.200 F 
ATOM     73  C   UNL     1      -5.718   4.192   9.235  1.00  0.00     0.200 A 
ATOM     74  F   UNL     1      -4.402   5.306  10.832  1.00  0.00    -0.200 F 
ATOM     75  F   UNL     1      -6.754   5.003   9.492  1.00  0.00    -0.200 F 
ENDBRANCH  51  65
BRANCH  52  76
ATOM     76  C   UNL     1       4.280  -2.543   4.744  1.00  0.00     0.064 A 
ATOM     77  C   UNL     1       5.072  -2.076   3.666  1.00  0.00     0.173 A 
ATOM     78  C   UNL     1       4.857  -2.491   6.023  1.00  0.00     0.173 A 
ATOM     79  F   UNL     1       4.607  -2.176   2.410  1.00  0.00    -0.203 F 
ATOM     80  C   UNL     1       6.205  -1.294   3.894  1.00  0.00     0.198 A 
ATOM     81  C   UNL     1       6.029  -1.754   6.238  1.00  0.00     0.198 A 
ATOM     82  F   UNL     1       4.178  -2.944   7.087  1.00  0.00    -0.203 F 
ATOM     83  F   UNL     1       6.791  -0.647   2.876  1.00  0.00    -0.200 F 
ATOM     84  C   UNL     1       6.644  -1.083   5.188  1.00  0.00     0.200 A 
ATOM     85  F   UNL     1       6.491  -1.576   7.485  1.00  0.00    -0.200 F 
ATOM     86  F   UNL     1       7.611  -0.186   5.433  1.00  0.00    -0.200 F 
ENDBRANCH  52  76
BRANCH  64  87
ATOM     87  C   UNL     1      -2.770  -3.724   6.794  1.00  0.00     0.064 A 
ATOM     88  C   UNL     1      -2.580  -5.086   7.065  1.00  0.00     0.173 A 
ATOM     89  C   UNL     1      -3.966  -3.170   7.336  1.00  0.00     0.173 A 
ATOM     90  F   UNL     1      -1.464  -5.727   6.703  1.00  0.00    -0.203 F 
ATOM     91  C   UNL     1      -3.514  -5.837   7.784  1.00  0.00     0.198 A 
ATOM     92  C   UNL     1      -4.856  -3.905   8.115  1.00  0.00     0.198 A 
ATOM     93  F   UNL     1      -4.301  -1.883   7.174  1.00  0.00    -0.203 F 
ATOM     94  F   UNL     1      -3.294  -7.144   7.982  1.00  0.00    -0.200 F 
ATOM     95  C   UNL     1      -4.638  -5.245   8.327  1.00  0.00     0.200 A 
ATOM     96  F   UNL     1      -5.906  -3.292   8.683  1.00  0.00    -0.200 F 
ATOM     97  F   UNL     1      -5.495  -5.959   9.067  1.00  0.00    -0.200 F 
ENDBRANCH  64  87
ENDBRANCH  38  39
ENDBRANCH  31  33
ENDBRANCH  30  31
ENDBRANCH  29  30
ENDBRANCH  28  29
ENDBRANCH  27  28
ENDBRANCH  26  27
ENDBRANCH  25  26
ENDBRANCH  24  25
ENDBRANCH  23  24
ENDBRANCH   1  23
TORSDOF 25
