REMARK SMILES C[NH+]1CCC(C(=O)N2C[C@@H](C(=O)OCCOCCOCCOCCOC(=O)c3ccc(-c4c5nc(c(-c6c(F)c(F)c(F)c(F)c6F)c6ccc([nH]6)c(-c6c(F)c(F)c(F)c(F)c6F)c6nc(c(-c7c(F)c(F)c(F)c(F)c7F)c7ccc4[nH]7)C=C6)C=C5)cc3)[C@H](c3ccc4c(c3)OCO4)C2)CC1
REMARK SMILES IDX 19 1 18 2 17 3 16 4 15 5 14 6 13 7 11 8 12 9 10 10 8 11 9 12
REMARK SMILES IDX 101 13 91 14 6 15 7 16 5 17 1 18 2 19 3 20 103 21 4 23
REMARK SMILES IDX 102 24 92 25 93 26 97 27 94 28 96 29 95 30 98 31 100 32
REMARK SMILES IDX 99 33 20 34 21 35 22 36 23 37 24 38 25 39 26 40 27 41 28 42
REMARK SMILES IDX 29 43 90 44 30 45 89 46 31 47 32 48 33 49 83 50 34 51 88 52
REMARK SMILES IDX 82 53 84 54 35 55 87 56 81 57 80 58 36 60 68 61 48 62 67 63
REMARK SMILES IDX 49 64 52 65 66 66 85 67 50 68 51 69 65 71 86 72 53 73 37 74
REMARK SMILES IDX 38 75 46 76 39 77 40 78 44 79 47 80 41 81 42 82 45 83 43 84
REMARK SMILES IDX 69 85 70 86 78 87 71 88 72 89 76 90 79 91 73 92 74 93 77 94
REMARK SMILES IDX 75 95 54 96 55 97 63 98 56 99 57 100 61 101 64 102 58 103
REMARK SMILES IDX 59 104 62 105 60 106
REMARK H PARENT 2 22 84 59 52 70
REMARK Flexibility Score: inf
ROOT
ATOM      1  O   UNL     1       0.669  -1.259   6.216  1.00  0.00    -0.377 OA
ENDROOT
BRANCH   1   2
ATOM      2  C   UNL     1       0.854  -1.775   4.911  1.00  0.00     0.188 C 
BRANCH   2   3
ATOM      3  C   UNL     1       1.853  -2.952   4.853  1.00  0.00     0.188 C 
BRANCH   3   4
ATOM      4  O   UNL     1       2.220  -3.628   6.043  1.00  0.00    -0.376 OA
BRANCH   4   5
ATOM      5  C   UNL     1       2.812  -2.987   7.162  1.00  0.00     0.202 C 
BRANCH   5   6
ATOM      6  C   UNL     1       3.522  -1.626   7.149  1.00  0.00     0.261 C 
BRANCH   6   7
ATOM      7  O   UNL     1       3.315  -0.810   6.007  1.00  0.00    -0.463 OA
BRANCH   7   8
ATOM      8  C   UNL     1       4.222  -0.892   5.004  1.00  0.00     0.311 C 
ATOM      9  O   UNL     1       5.214  -1.603   4.992  1.00  0.00    -0.252 OA
BRANCH   8  10
ATOM     10  C   UNL     1       3.792   0.033   3.900  1.00  0.00     0.128 C 
ATOM     11  N   UNL     1       3.688   0.347   1.625  1.00  0.00    -0.341 N 
ATOM     12  C   UNL     1       3.606  -0.708   2.599  1.00  0.00     0.135 C 
ATOM     13  C   UNL     1       4.670   1.334   2.077  1.00  0.00     0.128 C 
ATOM     14  C   UNL     1       4.833   1.134   3.608  1.00  0.00     0.055 C 
BRANCH  11  15
ATOM     15  C   UNL     1       3.398   0.180   0.288  1.00  0.00     0.226 C 
ATOM     16  O   UNL     1       4.254   0.383  -0.575  1.00  0.00    -0.275 OA
BRANCH  15  17
ATOM     17  C   UNL     1       1.927   0.001  -0.126  1.00  0.00     0.090 C 
ATOM     18  C   UNL     1      -2.375  -0.031  -0.152  1.00  0.00     0.332 C 
ATOM     19  N   UNL     1      -0.971  -0.035   0.263  1.00  0.00    -0.337 N 
ATOM     20  C   UNL     1      -0.305   1.191  -0.196  1.00  0.00     0.262 C 
ATOM     21  C   UNL     1      -0.274  -1.228  -0.243  1.00  0.00     0.262 C 
ATOM     22  H   UNL     1      -0.936  -0.065   1.282  1.00  0.00     0.347 HD
ATOM     23  C   UNL     1       1.136   1.243   0.306  1.00  0.00     0.075 C 
ATOM     24  C   UNL     1       1.173  -1.265   0.281  1.00  0.00     0.075 C 
ENDBRANCH  15  17
ENDBRANCH  11  15
BRANCH  14  25
ATOM     25  C   UNL     1       4.564   2.280   4.587  1.00  0.00    -0.038 A 
ATOM     26  C   UNL     1       4.006   3.518   4.206  1.00  0.00     0.008 A 
ATOM     27  C   UNL     1       4.702   2.005   5.968  1.00  0.00     0.054 A 
ATOM     28  C   UNL     1       3.478   4.400   5.163  1.00  0.00     0.051 A 
ATOM     29  C   UNL     1       4.083   2.836   6.873  1.00  0.00     0.166 A 
ATOM     30  C   UNL     1       3.473   3.998   6.479  1.00  0.00     0.165 A 
ATOM     31  O   UNL     1       3.907   2.577   8.198  1.00  0.00    -0.454 OA
ATOM     32  O   UNL     1       2.845   4.620   7.514  1.00  0.00    -0.454 OA
ATOM     33  C   UNL     1       2.917   3.579   8.511  1.00  0.00     0.468 C 
ENDBRANCH  14  25
ENDBRANCH   8  10
ENDBRANCH   7   8
ENDBRANCH   6   7
ENDBRANCH   5   6
ENDBRANCH   4   5
ENDBRANCH   3   4
ENDBRANCH   2   3
ENDBRANCH   1   2
BRANCH   1  34
ATOM     34  C   UNL     1      -0.389  -1.827   6.980  1.00  0.00     0.188 C 
BRANCH  34  35
ATOM     35  C   UNL     1      -0.714  -3.329   6.825  1.00  0.00     0.188 C 
BRANCH  35  36
ATOM     36  O   UNL     1      -0.777  -3.773   5.478  1.00  0.00    -0.376 OA
BRANCH  36  37
ATOM     37  C   UNL     1      -2.039  -4.012   4.883  1.00  0.00     0.202 C 
BRANCH  37  38
ATOM     38  C   UNL     1      -2.943  -2.793   4.646  1.00  0.00     0.261 C 
BRANCH  38  39
ATOM     39  O   UNL     1      -3.207  -1.975   5.795  1.00  0.00    -0.460 OA
BRANCH  39  40
ATOM     40  C   UNL     1      -3.887  -2.536   6.815  1.00  0.00     0.338 C 
ATOM     41  O   UNL     1      -4.340  -3.668   6.868  1.00  0.00    -0.246 OA
BRANCH  40  42
ATOM     42  C   UNL     1      -3.830  -1.600   7.955  1.00  0.00     0.060 A 
ATOM     43  C   UNL     1      -3.215  -2.011   9.146  1.00  0.00     0.016 A 
ATOM     44  C   UNL     1      -4.370  -0.317   7.844  1.00  0.00     0.016 A 
ATOM     45  C   UNL     1      -3.165  -1.147  10.240  1.00  0.00     0.010 A 
ATOM     46  C   UNL     1      -4.342   0.537   8.949  1.00  0.00     0.010 A 
ATOM     47  C   UNL     1      -3.768   0.114  10.161  1.00  0.00    -0.014 A 
BRANCH  47  48
ATOM     48  C   UNL     1      -3.974   0.913  11.393  1.00  0.00     0.031 A 
ATOM     49  C   UNL     1      -5.320   0.852  12.061  1.00  0.00     0.074 A 
ATOM     50  C   UNL     1      -2.994   1.674  11.910  1.00  0.00     0.049 A 
ATOM     51  N   UNL     1      -5.771   1.523  13.090  1.00  0.00    -0.248 NA
ATOM     52  C   UNL     1      -6.292  -0.093  11.486  1.00  0.00     0.031 C 
ATOM     53  C   UNL     1      -1.637   1.782  11.378  1.00  0.00     0.029 A 
ATOM     54  N   UNL     1      -3.001   2.518  12.993  1.00  0.00    -0.354 N 
ATOM     55  C   UNL     1      -7.081   1.096  13.271  1.00  0.00     0.074 A 
ATOM     56  C   UNL     1      -7.360   0.123  12.239  1.00  0.00     0.031 C 
ATOM     57  C   UNL     1      -0.948   2.665  12.123  1.00  0.00     0.029 A 
ATOM     58  C   UNL     1      -1.827   3.213  13.156  1.00  0.00     0.049 A 
ATOM     59  H   UNL     1      -3.773   2.616  13.596  1.00  0.00     0.167 HD
ATOM     60  C   UNL     1      -7.968   1.483  14.216  1.00  0.00     0.037 A 
ATOM     61  C   UNL     1      -1.516   4.203  14.016  1.00  0.00     0.037 A 
ATOM     62  C   UNL     1      -7.682   2.444  15.248  1.00  0.00     0.049 A 
ATOM     63  C   UNL     1      -2.547   4.661  15.020  1.00  0.00     0.074 A 
ATOM     64  C   UNL     1      -8.501   2.872  16.277  1.00  0.00     0.029 A 
ATOM     65  N   UNL     1      -6.487   3.138  15.371  1.00  0.00    -0.354 N 
ATOM     66  N   UNL     1      -3.769   4.226  15.212  1.00  0.00    -0.248 NA
ATOM     67  C   UNL     1      -2.154   5.748  15.929  1.00  0.00     0.031 C 
ATOM     68  C   UNL     1      -7.830   3.875  16.981  1.00  0.00     0.029 A 
ATOM     69  C   UNL     1      -6.563   4.019  16.438  1.00  0.00     0.049 A 
ATOM     70  H   UNL     1      -5.703   3.021  14.789  1.00  0.00     0.167 HD
ATOM     71  C   UNL     1      -4.275   4.959  16.280  1.00  0.00     0.074 A 
ATOM     72  C   UNL     1      -3.222   5.855  16.705  1.00  0.00     0.031 C 
ATOM     73  C   UNL     1      -5.501   4.898  16.857  1.00  0.00     0.037 A 
BRANCH  60  74
ATOM     74  C   UNL     1      -9.350   0.899  14.164  1.00  0.00     0.064 A 
ATOM     75  C   UNL     1      -9.605  -0.440  14.491  1.00  0.00     0.173 A 
ATOM     76  C   UNL     1     -10.444   1.716  13.839  1.00  0.00     0.173 A 
ATOM     77  F   UNL     1      -8.593  -1.267  14.794  1.00  0.00    -0.203 F 
ATOM     78  C   UNL     1     -10.904  -0.944  14.481  1.00  0.00     0.198 A 
ATOM     79  C   UNL     1     -11.743   1.217  13.861  1.00  0.00     0.198 A 
ATOM     80  F   UNL     1     -10.255   3.005  13.518  1.00  0.00    -0.203 F 
ATOM     81  F   UNL     1     -11.121  -2.237  14.761  1.00  0.00    -0.200 F 
ATOM     82  C   UNL     1     -11.972  -0.113  14.177  1.00  0.00     0.200 A 
ATOM     83  F   UNL     1     -12.774   2.026  13.581  1.00  0.00    -0.200 F 
ATOM     84  F   UNL     1     -13.222  -0.595  14.186  1.00  0.00    -0.200 F 
ENDBRANCH  60  74
BRANCH  61  85
ATOM     85  C   UNL     1      -0.185   4.867  13.947  1.00  0.00     0.064 A 
ATOM     86  C   UNL     1       0.729   4.783  15.007  1.00  0.00     0.173 A 
ATOM     87  C   UNL     1       0.180   5.645  12.838  1.00  0.00     0.173 A 
ATOM     88  F   UNL     1       0.420   4.072  16.102  1.00  0.00    -0.203 F 
ATOM     89  C   UNL     1       1.938   5.477  14.975  1.00  0.00     0.198 A 
ATOM     90  C   UNL     1       1.405   6.308  12.790  1.00  0.00     0.198 A 
ATOM     91  F   UNL     1      -0.654   5.761  11.794  1.00  0.00    -0.203 F 
ATOM     92  F   UNL     1       2.761   5.431  16.031  1.00  0.00    -0.200 F 
ATOM     93  C   UNL     1       2.276   6.235  13.865  1.00  0.00     0.200 A 
ATOM     94  F   UNL     1       1.734   7.024  11.707  1.00  0.00    -0.200 F 
ATOM     95  F   UNL     1       3.437   6.904  13.835  1.00  0.00    -0.200 F 
ENDBRANCH  61  85
BRANCH  73  96
ATOM     96  C   UNL     1      -5.760   5.788  18.040  1.00  0.00     0.064 A 
ATOM     97  C   UNL     1      -5.874   7.180  17.910  1.00  0.00     0.173 A 
ATOM     98  C   UNL     1      -5.942   5.233  19.317  1.00  0.00     0.173 A 
ATOM     99  F   UNL     1      -5.697   7.764  16.715  1.00  0.00    -0.203 F 
ATOM    100  C   UNL     1      -6.128   7.985  19.019  1.00  0.00     0.198 A 
ATOM    101  C   UNL     1      -6.234   6.037  20.415  1.00  0.00     0.198 A 
ATOM    102  F   UNL     1      -5.855   3.906  19.497  1.00  0.00    -0.203 F 
ATOM    103  F   UNL     1      -6.178   9.317  18.879  1.00  0.00    -0.200 F 
ATOM    104  C   UNL     1      -6.317   7.412  20.267  1.00  0.00     0.200 A 
ATOM    105  F   UNL     1      -6.436   5.478  21.617  1.00  0.00    -0.200 F 
ATOM    106  F   UNL     1      -6.573   8.187  21.330  1.00  0.00    -0.200 F 
ENDBRANCH  73  96
ENDBRANCH  47  48
ENDBRANCH  40  42
ENDBRANCH  39  40
ENDBRANCH  38  39
ENDBRANCH  37  38
ENDBRANCH  36  37
ENDBRANCH  35  36
ENDBRANCH  34  35
ENDBRANCH   1  34
TORSDOF 23
