REMARK SMILES CCc1ccc2[nH]c(C(=O)c3cc(C)ccn3)c(CC(=O)OCCOCCOCCOCCOC(=O)c3ccc(-c4c5nc(c(-c6c(F)c(F)c(F)c(F)c6F)c6ccc([nH]6)c(-c6c(F)c(F)c(F)c(F)c6F)c6nc(c(-c7c(F)c(F)c(F)c(F)c7F)c7ccc4[nH]7)C=C6)C=C5)cc3)c2c1
REMARK SMILES IDX 27 1 26 2 25 3 24 4 23 5 22 6 20 7 21 8 19 9 18 10 3 11 4 12
REMARK SMILES IDX 101 13 5 14 100 15 6 16 7 17 8 18 2 20 1 21 9 22 10 23 11 24
REMARK SMILES IDX 12 25 17 26 13 27 16 28 14 29 15 30 28 31 29 32 30 33 31 34
REMARK SMILES IDX 32 35 33 36 34 37 35 38 36 39 37 40 38 41 99 42 39 43 98 44
REMARK SMILES IDX 40 45 41 46 42 47 92 48 43 49 97 50 91 51 93 52 44 53 96 54
REMARK SMILES IDX 90 55 89 56 45 58 77 59 57 60 76 61 58 62 61 63 75 64 94 65
REMARK SMILES IDX 59 66 60 67 74 69 95 70 62 71 46 72 47 73 55 74 48 75 49 76
REMARK SMILES IDX 53 77 56 78 50 79 51 80 54 81 52 82 78 83 79 84 87 85 80 86
REMARK SMILES IDX 81 87 85 88 88 89 82 90 83 91 86 92 84 93 63 94 64 95 72 96
REMARK SMILES IDX 65 97 66 98 70 99 73 100 67 101 68 102 71 103 69 104
REMARK H PARENT 7 19 93 57 61 68
REMARK Flexibility Score: inf
ROOT
ATOM      1  C   UNL     1       0.725   2.237   7.589  1.00  0.00     0.188 C 
ENDROOT
BRANCH   1   2
ATOM      2  C   UNL     1       0.741   3.765   7.805  1.00  0.00     0.188 C 
BRANCH   2   3
ATOM      3  O   UNL     1      -0.556   4.309   7.995  1.00  0.00    -0.376 OA
BRANCH   3   4
ATOM      4  C   UNL     1      -1.180   4.927   6.884  1.00  0.00     0.202 C 
BRANCH   4   5
ATOM      5  C   UNL     1      -1.363   4.100   5.596  1.00  0.00     0.261 C 
BRANCH   5   6
ATOM      6  O   UNL     1      -0.208   3.348   5.152  1.00  0.00    -0.463 OA
BRANCH   6   7
ATOM      7  C   UNL     1       0.733   3.960   4.401  1.00  0.00     0.310 C 
ATOM      8  O   UNL     1       0.580   5.101   3.969  1.00  0.00    -0.252 OA
BRANCH   7   9
ATOM      9  C   UNL     1       2.024   3.170   4.151  1.00  0.00     0.161 C 
BRANCH   9  10
ATOM     10  C   UNL     1       2.224   1.743   4.664  1.00  0.00     0.000 A 
ATOM     11  C   UNL     1       0.869  -0.961   2.295  1.00  0.00    -0.048 A 
ATOM     12  C   UNL     1       1.270  -2.049   3.080  1.00  0.00     0.006 A 
ATOM     13  C   UNL     1       1.024   0.345   2.797  1.00  0.00     0.014 A 
ATOM     14  C   UNL     1       1.893  -1.864   4.317  1.00  0.00     0.027 A 
ATOM     15  C   UNL     1       1.732   0.564   3.997  1.00  0.00     0.004 A 
ATOM     16  C   UNL     1       2.149  -0.548   4.718  1.00  0.00     0.046 A 
ATOM     17  N   UNL     1       2.820  -0.076   5.816  1.00  0.00    -0.352 N 
ATOM     18  C   UNL     1       3.070   1.278   5.699  1.00  0.00     0.093 A 
ATOM     19  H   UNL     1       3.088  -0.629   6.585  1.00  0.00     0.167 HD
BRANCH  11  20
ATOM     20  C   UNL     1       0.297  -1.206   0.917  1.00  0.00     0.032 C 
ATOM     21  C   UNL     1       0.808  -0.229  -0.138  1.00  0.00     0.009 C 
ENDBRANCH  11  20
BRANCH  18  22
ATOM     22  C   UNL     1       3.986   2.037   6.566  1.00  0.00     0.227 C 
ATOM     23  O   UNL     1       4.285   3.204   6.318  1.00  0.00    -0.285 OA
BRANCH  22  24
ATOM     24  C   UNL     1       4.517   1.456   7.860  1.00  0.00     0.113 A 
ATOM     25  C   UNL     1       5.203   0.245   7.949  1.00  0.00     0.036 A 
ATOM     26  N   UNL     1       4.287   2.239   8.950  1.00  0.00    -0.253 NA
ATOM     27  C   UNL     1       5.644  -0.190   9.213  1.00  0.00    -0.047 A 
ATOM     28  C   UNL     1       4.738   1.808  10.146  1.00  0.00     0.112 A 
ATOM     29  C   UNL     1       6.397  -1.475   9.408  1.00  0.00     0.044 C 
ATOM     30  C   UNL     1       5.383   0.603  10.332  1.00  0.00     0.023 A 
ENDBRANCH  22  24
ENDBRANCH  18  22
ENDBRANCH   9  10
ENDBRANCH   7   9
ENDBRANCH   6   7
ENDBRANCH   5   6
ENDBRANCH   4   5
ENDBRANCH   3   4
ENDBRANCH   2   3
ENDBRANCH   1   2
BRANCH   1  31
ATOM     31  O   UNL     1      -0.046   1.323   8.351  1.00  0.00    -0.377 OA
BRANCH  31  32
ATOM     32  C   UNL     1      -1.263   1.796   8.876  1.00  0.00     0.188 C 
BRANCH  32  33
ATOM     33  C   UNL     1      -1.060   2.431  10.254  1.00  0.00     0.188 C 
BRANCH  33  34
ATOM     34  O   UNL     1       0.234   2.956  10.473  1.00  0.00    -0.376 OA
BRANCH  34  35
ATOM     35  C   UNL     1       1.303   2.135  10.928  1.00  0.00     0.202 C 
BRANCH  35  36
ATOM     36  C   UNL     1       1.540   0.653  10.553  1.00  0.00     0.261 C 
BRANCH  36  37
ATOM     37  O   UNL     1       0.409  -0.210  10.493  1.00  0.00    -0.460 OA
BRANCH  37  38
ATOM     38  C   UNL     1      -0.236  -0.480  11.636  1.00  0.00     0.338 C 
ATOM     39  O   UNL     1       0.064  -0.144  12.768  1.00  0.00    -0.246 OA
BRANCH  38  40
ATOM     40  C   UNL     1      -1.516  -1.068  11.212  1.00  0.00     0.060 A 
ATOM     41  C   UNL     1      -2.691  -0.385  11.547  1.00  0.00     0.016 A 
ATOM     42  C   UNL     1      -1.547  -2.210  10.404  1.00  0.00     0.016 A 
ATOM     43  C   UNL     1      -3.908  -0.839  11.068  1.00  0.00     0.010 A 
ATOM     44  C   UNL     1      -2.774  -2.699   9.967  1.00  0.00     0.010 A 
ATOM     45  C   UNL     1      -3.953  -2.026  10.327  1.00  0.00    -0.014 A 
BRANCH  45  46
ATOM     46  C   UNL     1      -5.257  -2.692  10.191  1.00  0.00     0.031 A 
ATOM     47  C   UNL     1      -5.641  -3.657  11.272  1.00  0.00     0.074 A 
ATOM     48  C   UNL     1      -6.089  -2.377   9.189  1.00  0.00     0.049 A 
ATOM     49  N   UNL     1      -6.738  -4.346  11.424  1.00  0.00    -0.248 NA
ATOM     50  C   UNL     1      -4.643  -3.867  12.336  1.00  0.00     0.031 C 
ATOM     51  C   UNL     1      -5.814  -1.398   8.140  1.00  0.00     0.029 A 
ATOM     52  N   UNL     1      -7.342  -2.844   8.902  1.00  0.00    -0.354 N 
ATOM     53  C   UNL     1      -6.561  -5.071  12.595  1.00  0.00     0.074 A 
ATOM     54  C   UNL     1      -5.241  -4.768  13.096  1.00  0.00     0.031 C 
ATOM     55  C   UNL     1      -6.876  -1.334   7.319  1.00  0.00     0.029 A 
ATOM     56  C   UNL     1      -7.884  -2.291   7.771  1.00  0.00     0.049 A 
ATOM     57  H   UNL     1      -7.809  -3.512   9.455  1.00  0.00     0.167 HD
ATOM     58  C   UNL     1      -7.433  -5.911  13.197  1.00  0.00     0.037 A 
ATOM     59  C   UNL     1      -9.061  -2.552   7.175  1.00  0.00     0.037 A 
ATOM     60  C   UNL     1      -8.732  -6.209  12.659  1.00  0.00     0.049 A 
ATOM     61  C   UNL     1      -9.976  -3.566   7.809  1.00  0.00     0.074 A 
ATOM     62  C   UNL     1      -9.708  -7.044  13.167  1.00  0.00     0.029 A 
ATOM     63  N   UNL     1      -9.225  -5.687  11.469  1.00  0.00    -0.354 N 
ATOM     64  N   UNL     1      -9.819  -4.242   8.924  1.00  0.00    -0.248 NA
ATOM     65  C   UNL     1     -11.231  -3.854   7.105  1.00  0.00     0.031 C 
ATOM     66  C   UNL     1     -10.762  -7.082  12.248  1.00  0.00     0.029 A 
ATOM     67  C   UNL     1     -10.478  -6.212  11.204  1.00  0.00     0.049 A 
ATOM     68  H   UNL     1      -8.752  -5.039  10.898  1.00  0.00     0.167 HD
ATOM     69  C   UNL     1     -10.964  -5.013   9.072  1.00  0.00     0.074 A 
ATOM     70  C   UNL     1     -11.812  -4.709   7.935  1.00  0.00     0.031 C 
ATOM     71  C   UNL     1     -11.292  -5.888  10.057  1.00  0.00     0.037 A 
BRANCH  58  72
ATOM     72  C   UNL     1      -6.966  -6.600  14.447  1.00  0.00     0.064 A 
ATOM     73  C   UNL     1      -6.710  -5.899  15.637  1.00  0.00     0.173 A 
ATOM     74  C   UNL     1      -6.726  -7.982  14.441  1.00  0.00     0.173 A 
ATOM     75  F   UNL     1      -6.898  -4.571  15.693  1.00  0.00    -0.203 F 
ATOM     76  C   UNL     1      -6.187  -6.546  16.754  1.00  0.00     0.198 A 
ATOM     77  C   UNL     1      -6.239  -8.633  15.571  1.00  0.00     0.198 A 
ATOM     78  F   UNL     1      -6.947  -8.702  13.331  1.00  0.00    -0.203 F 
ATOM     79  F   UNL     1      -5.874  -5.841  17.850  1.00  0.00    -0.200 F 
ATOM     80  C   UNL     1      -5.956  -7.913  16.721  1.00  0.00     0.200 A 
ATOM     81  F   UNL     1      -6.025  -9.955  15.540  1.00  0.00    -0.200 F 
ATOM     82  F   UNL     1      -5.444  -8.534  17.793  1.00  0.00    -0.200 F 
ENDBRANCH  58  72
BRANCH  59  83
ATOM     83  C   UNL     1      -9.432  -1.836   5.927  1.00  0.00     0.064 A 
ATOM     84  C   UNL     1     -10.481  -0.908   5.911  1.00  0.00     0.173 A 
ATOM     85  C   UNL     1      -8.728  -2.044   4.731  1.00  0.00     0.173 A 
ATOM     86  F   UNL     1     -11.197  -0.687   7.024  1.00  0.00    -0.203 F 
ATOM     87  C   UNL     1     -10.817  -0.220   4.746  1.00  0.00     0.198 A 
ATOM     88  C   UNL     1      -9.047  -1.337   3.574  1.00  0.00     0.198 A 
ATOM     89  F   UNL     1      -7.715  -2.922   4.691  1.00  0.00    -0.203 F 
ATOM     90  F   UNL     1     -11.846   0.639   4.751  1.00  0.00    -0.200 F 
ATOM     91  C   UNL     1     -10.095  -0.428   3.581  1.00  0.00     0.200 A 
ATOM     92  F   UNL     1      -8.336  -1.530   2.454  1.00  0.00    -0.200 F 
ATOM     93  F   UNL     1     -10.409   0.243   2.465  1.00  0.00    -0.200 F 
ENDBRANCH  59  83
BRANCH  71  94
ATOM     94  C   UNL     1     -12.636  -6.551   9.962  1.00  0.00     0.064 A 
ATOM     95  C   UNL     1     -12.917  -7.518   8.987  1.00  0.00     0.173 A 
ATOM     96  C   UNL     1     -13.642  -6.243  10.893  1.00  0.00     0.173 A 
ATOM     97  F   UNL     1     -11.994  -7.838   8.067  1.00  0.00    -0.203 F 
ATOM     98  C   UNL     1     -14.166  -8.131   8.927  1.00  0.00     0.198 A 
ATOM     99  C   UNL     1     -14.874  -6.886  10.854  1.00  0.00     0.198 A 
ATOM    100  F   UNL     1     -13.420  -5.333  11.853  1.00  0.00    -0.203 F 
ATOM    101  F   UNL     1     -14.432  -9.011   7.952  1.00  0.00    -0.200 F 
ATOM    102  C   UNL     1     -15.139  -7.821   9.866  1.00  0.00     0.200 A 
ATOM    103  F   UNL     1     -15.806  -6.600  11.774  1.00  0.00    -0.200 F 
ATOM    104  F   UNL     1     -16.337  -8.420   9.813  1.00  0.00    -0.200 F 
ENDBRANCH  71  94
ENDBRANCH  45  46
ENDBRANCH  38  40
ENDBRANCH  37  38
ENDBRANCH  36  37
ENDBRANCH  35  36
ENDBRANCH  34  35
ENDBRANCH  33  34
ENDBRANCH  32  33
ENDBRANCH  31  32
ENDBRANCH   1  31
TORSDOF 24
