REMARK SMILES O=C(CCC1CCCC1)N[C@H]1CCCCC[C@H]1C(=O)OCCOCCOCCOCCOC(=O)c1ccc(-c2c3nc(c(-c4c(F)c(F)c(F)c(F)c4F)c4ccc([nH]4)c(-c4c(F)c(F)c(F)c(F)c4F)c4nc(c(-c5c(F)c(F)c(F)c(F)c5F)c5ccc2[nH]5)C=C4)C=C3)cc1
REMARK SMILES IDX 24 1 23 2 22 3 21 4 20 5 18 6 19 7 17 8 11 9 10 11 1 12 2 13
REMARK SMILES IDX 3 15 4 16 5 17 6 18 9 19 7 20 8 21 16 22 15 23 14 24 13 25
REMARK SMILES IDX 12 26 25 28 26 29 27 30 28 31 29 32 30 33 31 34 32 35 33 36
REMARK SMILES IDX 34 37 35 38 36 39 97 40 37 41 96 42 38 43 39 44 40 45 90 46
REMARK SMILES IDX 41 47 95 48 89 49 91 50 42 51 94 52 88 53 87 54 43 56 75 57
REMARK SMILES IDX 55 58 74 59 56 60 59 61 73 62 92 63 57 64 58 65 72 67 93 68
REMARK SMILES IDX 60 69 44 70 45 71 53 72 46 73 47 74 51 75 54 76 48 77 49 78
REMARK SMILES IDX 52 79 50 80 76 81 77 82 85 83 78 84 79 85 83 86 86 87 80 88
REMARK SMILES IDX 81 89 84 90 82 91 61 92 62 93 70 94 63 95 64 96 68 97 71 98
REMARK SMILES IDX 65 99 66 100 69 101 67 102
REMARK H PARENT 10 14 91 55 59 66
REMARK Flexibility Score: 90.00
ROOT
ATOM      1  C   UNL     1      -0.154   1.473  -4.942  1.00  0.00     0.188 C 
ENDROOT
BRANCH   1   2
ATOM      2  O   UNL     1      -1.498   1.786  -5.292  1.00  0.00    -0.376 OA
BRANCH   2   3
ATOM      3  C   UNL     1      -2.088   2.960  -4.783  1.00  0.00     0.202 C 
BRANCH   3   4
ATOM      4  C   UNL     1      -2.403   2.985  -3.279  1.00  0.00     0.261 C 
BRANCH   4   5
ATOM      5  O   UNL     1      -1.285   2.756  -2.380  1.00  0.00    -0.463 OA
BRANCH   5   6
ATOM      6  C   UNL     1      -1.055   1.482  -1.959  1.00  0.00     0.311 C 
ATOM      7  O   UNL     1      -1.785   0.549  -2.283  1.00  0.00    -0.252 OA
BRANCH   6   8
ATOM      8  C   UNL     1       0.046   1.311  -0.885  1.00  0.00     0.121 C 
BRANCH   8   9
ATOM      9  C   UNL     1       1.572   1.688  -0.879  1.00  0.00     0.096 CG0
ATOM     10  G   UNL     1       1.959   3.097  -0.353  1.00  0.00     0.000 G0
BRANCH   9  11
ATOM     11  N   UNL     1       2.504   1.337  -1.973  1.00  0.00    -0.353 N 
ATOM     12  O   UNL     1       1.841  -0.737  -2.687  1.00  0.00    -0.275 OA
ATOM     13  C   UNL     1       2.566   0.242  -2.806  1.00  0.00     0.220 C 
ATOM     14  H   UNL     1       3.208   2.006  -2.135  1.00  0.00     0.163 HD
BRANCH  13  15
ATOM     15  C   UNL     1       3.551   0.411  -3.991  1.00  0.00     0.100 C 
BRANCH  15  16
ATOM     16  C   UNL     1       2.915   0.834  -5.353  1.00  0.00     0.013 C 
BRANCH  16  17
ATOM     17  C   UNL     1       2.816   2.371  -5.773  1.00  0.00    -0.011 C 
ATOM     18  C   UNL     1       1.153   3.391  -6.431  1.00  0.00     0.003 C 
ATOM     19  C   UNL     1       3.647   3.519  -4.335  1.00  0.00     0.003 C 
ATOM     20  C   UNL     1       0.871   4.977  -5.201  1.00  0.00     0.000 C 
ATOM     21  C   UNL     1       2.452   5.088  -3.994  1.00  0.00     0.000 C 
ENDBRANCH  16  17
ENDBRANCH  15  16
ENDBRANCH  13  15
ENDBRANCH   9  11
ENDBRANCH   8   9
BRANCH   8  22
ATOM     22  C   UNL     1      -0.606   1.714   0.460  1.00  0.00     0.017 C 
BRANCH  22  23
ATOM     23  C   UNL     1      -1.127   3.152   0.572  1.00  0.00     0.001 C 
BRANCH  23  24
ATOM     24  C   UNL     1      -0.080   4.255   0.611  1.00  0.00     0.000 C 
BRANCH  24  25
ATOM     25  C   UNL     1       0.954   4.228  -0.504  1.00  0.00     0.002 C 
BRANCH  25  26
ATOM     26  C   UNL     1       1.959   3.097  -0.353  1.00  0.00     0.026 CG0
ATOM     27  G   UNL     1       1.572   1.688  -0.879  1.00  0.00     0.000 G0
ENDBRANCH  25  26
ENDBRANCH  24  25
ENDBRANCH  23  24
ENDBRANCH  22  23
ENDBRANCH   8  22
ENDBRANCH   6   8
ENDBRANCH   5   6
ENDBRANCH   4   5
ENDBRANCH   3   4
ENDBRANCH   2   3
ENDBRANCH   1   2
BRANCH   1  28
ATOM     28  C   UNL     1       0.794   2.544  -4.278  1.00  0.00     0.188 C 
BRANCH  28  29
ATOM     29  O   UNL     1       1.863   3.493  -4.734  1.00  0.00    -0.377 OA
BRANCH  29  30
ATOM     30  C   UNL     1       2.843   4.510  -6.113  1.00  0.00     0.188 C 
BRANCH  30  31
ATOM     31  C   UNL     1       3.456   4.083  -7.593  1.00  0.00     0.188 C 
BRANCH  31  32
ATOM     32  O   UNL     1       4.867   3.957  -7.737  1.00  0.00    -0.376 OA
BRANCH  32  33
ATOM     33  C   UNL     1       5.656   3.037  -6.993  1.00  0.00     0.202 C 
BRANCH  33  34
ATOM     34  C   UNL     1       6.933   3.740  -6.534  1.00  0.00     0.261 C 
BRANCH  34  35
ATOM     35  O   UNL     1       6.584   5.008  -5.955  1.00  0.00    -0.460 OA
BRANCH  35  36
ATOM     36  C   UNL     1       6.356   5.977  -6.873  1.00  0.00     0.338 C 
ATOM     37  O   UNL     1       6.661   5.987  -8.060  1.00  0.00    -0.246 OA
BRANCH  36  38
ATOM     38  C   UNL     1       5.550   7.032  -6.255  1.00  0.00     0.060 A 
ATOM     39  C   UNL     1       4.449   7.544  -6.959  1.00  0.00     0.016 A 
ATOM     40  C   UNL     1       5.965   7.587  -5.044  1.00  0.00     0.016 A 
ATOM     41  C   UNL     1       3.822   8.691  -6.503  1.00  0.00     0.010 A 
ATOM     42  C   UNL     1       5.370   8.760  -4.610  1.00  0.00     0.010 A 
ATOM     43  C   UNL     1       4.362   9.347  -5.392  1.00  0.00    -0.014 A 
BRANCH  43  44
ATOM     44  C   UNL     1       4.153  10.798  -5.280  1.00  0.00     0.031 A 
ATOM     45  C   UNL     1       5.150  11.684  -5.976  1.00  0.00     0.074 A 
ATOM     46  C   UNL     1       3.109  11.278  -4.595  1.00  0.00     0.049 A 
ATOM     47  N   UNL     1       5.255  12.985  -5.969  1.00  0.00    -0.248 NA
ATOM     48  C   UNL     1       6.178  11.006  -6.789  1.00  0.00     0.031 C 
ATOM     49  C   UNL     1       2.080  10.465  -3.950  1.00  0.00     0.029 A 
ATOM     50  N   UNL     1       2.754  12.567  -4.319  1.00  0.00    -0.354 N 
ATOM     51  C   UNL     1       6.358  13.274  -6.765  1.00  0.00     0.074 A 
ATOM     52  C   UNL     1       6.910  12.020  -7.217  1.00  0.00     0.031 C 
ATOM     53  C   UNL     1       1.214  11.282  -3.327  1.00  0.00     0.029 A 
ATOM     54  C   UNL     1       1.659  12.662  -3.501  1.00  0.00     0.049 A 
ATOM     55  H   UNL     1       3.237  13.350  -4.672  1.00  0.00     0.167 HD
ATOM     56  C   UNL     1       6.856  14.488  -7.086  1.00  0.00     0.037 A 
ATOM     57  C   UNL     1       1.115  13.755  -2.938  1.00  0.00     0.037 A 
ATOM     58  C   UNL     1       6.286  15.714  -6.600  1.00  0.00     0.049 A 
ATOM     59  C   UNL     1       1.736  15.093  -3.249  1.00  0.00     0.074 A 
ATOM     60  C   UNL     1       6.686  17.013  -6.841  1.00  0.00     0.029 A 
ATOM     61  N   UNL     1       5.184  15.778  -5.755  1.00  0.00    -0.354 N 
ATOM     62  N   UNL     1       2.770  15.370  -4.009  1.00  0.00    -0.248 NA
ATOM     63  C   UNL     1       1.112  16.267  -2.630  1.00  0.00     0.031 C 
ATOM     64  C   UNL     1       5.865  17.860  -6.090  1.00  0.00     0.029 A 
ATOM     65  C   UNL     1       4.907  17.095  -5.440  1.00  0.00     0.049 A 
ATOM     66  H   UNL     1       4.676  15.000  -5.428  1.00  0.00     0.167 HD
ATOM     67  C   UNL     1       2.904  16.751  -3.987  1.00  0.00     0.074 A 
ATOM     68  C   UNL     1       1.832  17.252  -3.147  1.00  0.00     0.031 C 
ATOM     69  C   UNL     1       3.822  17.541  -4.600  1.00  0.00     0.037 A 
BRANCH  56  70
ATOM     70  C   UNL     1       8.085  14.536  -7.949  1.00  0.00     0.064 A 
ATOM     71  C   UNL     1       8.065  14.146  -9.298  1.00  0.00     0.173 A 
ATOM     72  C   UNL     1       9.305  14.983  -7.419  1.00  0.00     0.173 A 
ATOM     73  F   UNL     1       6.932  13.688  -9.852  1.00  0.00    -0.203 F 
ATOM     74  C   UNL     1       9.223  14.180 -10.074  1.00  0.00     0.198 A 
ATOM     75  C   UNL     1      10.453  15.046  -8.207  1.00  0.00     0.198 A 
ATOM     76  F   UNL     1       9.387  15.360  -6.135  1.00  0.00    -0.203 F 
ATOM     77  F   UNL     1       9.189  13.752 -11.344  1.00  0.00    -0.200 F 
ATOM     78  C   UNL     1      10.413  14.637  -9.530  1.00  0.00     0.200 A 
ATOM     79  F   UNL     1      11.600  15.498  -7.680  1.00  0.00    -0.200 F 
ATOM     80  F   UNL     1      11.524  14.676 -10.279  1.00  0.00    -0.200 F 
ENDBRANCH  56  70
BRANCH  57  81
ATOM     81  C   UNL     1      -0.054  13.619  -2.033  1.00  0.00     0.064 A 
ATOM     82  C   UNL     1      -1.309  14.128  -2.389  1.00  0.00     0.173 A 
ATOM     83  C   UNL     1       0.054  12.960  -0.798  1.00  0.00     0.173 A 
ATOM     84  F   UNL     1      -1.463  14.775  -3.554  1.00  0.00    -0.203 F 
ATOM     85  C   UNL     1      -2.405  14.004  -1.537  1.00  0.00     0.198 A 
ATOM     86  C   UNL     1      -1.049  12.808   0.039  1.00  0.00     0.198 A 
ATOM     87  F   UNL     1       1.231  12.445  -0.411  1.00  0.00    -0.203 F 
ATOM     88  F   UNL     1      -3.584  14.538  -1.885  1.00  0.00    -0.200 F 
ATOM     89  C   UNL     1      -2.276  13.338  -0.328  1.00  0.00     0.200 A 
ATOM     90  F   UNL     1      -0.924  12.145   1.196  1.00  0.00    -0.200 F 
ATOM     91  F   UNL     1      -3.333  13.211   0.486  1.00  0.00    -0.200 F 
ENDBRANCH  57  81
BRANCH  69  92
ATOM     92  C   UNL     1       3.673  19.023  -4.415  1.00  0.00     0.064 A 
ATOM     93  C   UNL     1       3.940  19.643  -3.186  1.00  0.00     0.173 A 
ATOM     94  C   UNL     1       3.301  19.834  -5.498  1.00  0.00     0.173 A 
ATOM     95  F   UNL     1       4.287  18.907  -2.119  1.00  0.00    -0.203 F 
ATOM     96  C   UNL     1       3.805  21.020  -3.040  1.00  0.00     0.198 A 
ATOM     97  C   UNL     1       3.206  21.213  -5.358  1.00  0.00     0.198 A 
ATOM     98  F   UNL     1       3.047  19.288  -6.697  1.00  0.00    -0.203 F 
ATOM     99  F   UNL     1       4.005  21.586  -1.842  1.00  0.00    -0.200 F 
ATOM    100  C   UNL     1       3.447  21.804  -4.127  1.00  0.00     0.200 A 
ATOM    101  F   UNL     1       2.882  21.971  -6.414  1.00  0.00    -0.200 F 
ATOM    102  F   UNL     1       3.328  23.131  -3.986  1.00  0.00    -0.200 F 
ENDBRANCH  69  92
ENDBRANCH  43  44
ENDBRANCH  36  38
ENDBRANCH  35  36
ENDBRANCH  34  35
ENDBRANCH  33  34
ENDBRANCH  32  33
ENDBRANCH  31  32
ENDBRANCH  30  31
ENDBRANCH  29  30
ENDBRANCH  28  29
ENDBRANCH   1  28
TORSDOF 24
