REMARK SMILES CCOc1cc([C@@H]2[NH2+][C@H](C(=O)OCCOCCOCCOCCOC(=O)c3ccc(-c4c5nc(c(-c6c(F)c(F)c(F)c(F)c6F)c6ccc([nH]6)c(-c6c(F)c(F)c(F)c(F)c6F)c6nc(c(-c7c(F)c(F)c(F)c(F)c7F)c7ccc4[nH]7)C=C6)C=C5)cc3)CS2)ccc1OCc1ccc(Cl)cc1
REMARK SMILES IDX 17 1 16 2 15 3 14 4 13 5 12 6 10 7 11 8 9 9 7 10 8 11 91 12
REMARK SMILES IDX 90 15 6 16 4 17 5 18 94 19 93 20 92 21 3 22 2 23 1 24 95 25
REMARK SMILES IDX 96 26 97 27 98 28 103 29 99 30 102 31 100 32 101 33 18 34
REMARK SMILES IDX 19 35 20 36 21 37 22 38 23 39 24 40 25 41 26 42 27 43 28 44
REMARK SMILES IDX 89 45 29 46 88 47 30 48 31 49 32 50 82 51 33 52 87 53 81 54
REMARK SMILES IDX 83 55 34 56 86 57 80 58 79 59 35 61 67 62 47 63 66 64 48 65
REMARK SMILES IDX 51 66 65 67 84 68 49 69 50 70 64 72 85 73 52 74 36 75 37 76
REMARK SMILES IDX 45 77 38 78 39 79 43 80 46 81 40 82 41 83 44 84 42 85 68 86
REMARK SMILES IDX 69 87 77 88 70 89 71 90 75 91 78 92 72 93 73 94 76 95 74 96
REMARK SMILES IDX 53 97 54 98 62 99 55 100 56 101 60 102 63 103 57 104 58 105
REMARK SMILES IDX 61 106 59 107
REMARK H PARENT 8 13 8 14 83 60 51 71
REMARK Flexibility Score: inf
ROOT
ATOM      1  C   UNL     1       4.194   1.817  -4.940  1.00  0.00     0.188 C 
ENDROOT
BRANCH   1   2
ATOM      2  C   UNL     1       5.219   0.865  -5.557  1.00  0.00     0.188 C 
BRANCH   2   3
ATOM      3  O   UNL     1       5.381  -0.427  -4.976  1.00  0.00    -0.376 OA
BRANCH   3   4
ATOM      4  C   UNL     1       5.686  -0.573  -3.594  1.00  0.00     0.202 C 
BRANCH   4   5
ATOM      5  C   UNL     1       6.690   0.366  -2.917  1.00  0.00     0.261 C 
BRANCH   5   6
ATOM      6  O   UNL     1       6.410   1.758  -3.135  1.00  0.00    -0.459 OA
BRANCH   6   7
ATOM      7  C   UNL     1       7.485   2.582  -3.157  1.00  0.00     0.365 C 
ATOM      8  O   UNL     1       8.631   2.201  -2.929  1.00  0.00    -0.245 OA
BRANCH   7   9
ATOM      9  C   UNL     1       7.196   4.042  -3.547  1.00  0.00     0.304 C 
ATOM     10  C   UNL     1       5.280   5.171  -2.586  1.00  0.00     0.274 C 
ATOM     11  N   UNL     1       5.768   4.424  -3.760  1.00  0.00    -0.319 N 
ATOM     12  S   UNL     1       6.651   6.208  -2.076  1.00  0.00    -0.087 SA
ATOM     13  H   UNL     1       5.693   5.011  -4.591  1.00  0.00     0.348 HD
ATOM     14  H   UNL     1       5.205   3.583  -3.887  1.00  0.00     0.348 HD
ATOM     15  C   UNL     1       7.875   4.959  -2.527  1.00  0.00     0.153 C 
BRANCH  10  16
ATOM     16  C   UNL     1       4.733   4.181  -1.578  1.00  0.00     0.024 A 
ATOM     17  C   UNL     1       3.172   2.336  -1.340  1.00  0.00     0.161 A 
ATOM     18  C   UNL     1       3.528   3.547  -1.921  1.00  0.00     0.061 A 
ATOM     19  C   UNL     1       3.991   1.781  -0.359  1.00  0.00     0.161 A 
ATOM     20  C   UNL     1       5.118   2.465   0.088  1.00  0.00     0.051 A 
ATOM     21  C   UNL     1       5.470   3.677  -0.497  1.00  0.00     0.015 A 
BRANCH  17  22
ATOM     22  O   UNL     1       2.114   1.729  -1.937  1.00  0.00    -0.490 OA
BRANCH  22  23
ATOM     23  C   UNL     1       1.136   1.116  -1.122  1.00  0.00     0.226 C 
ATOM     24  C   UNL     1       1.172  -0.400  -1.233  1.00  0.00     0.049 C 
ENDBRANCH  22  23
ENDBRANCH  17  22
BRANCH  19  25
ATOM     25  O   UNL     1       3.777   0.516   0.071  1.00  0.00    -0.485 OA
BRANCH  25  26
ATOM     26  C   UNL     1       3.279   0.344   1.399  1.00  0.00     0.265 C 
BRANCH  26  27
ATOM     27  C   UNL     1       2.967   1.487   2.352  1.00  0.00    -0.011 A 
ATOM     28  C   UNL     1       2.306   2.673   1.987  1.00  0.00     0.009 A 
ATOM     29  C   UNL     1       3.233   1.279   3.711  1.00  0.00     0.009 A 
ATOM     30  C   UNL     1       1.907   3.611   2.936  1.00  0.00     0.021 A 
ATOM     31  C   UNL     1       2.855   2.227   4.660  1.00  0.00     0.021 A 
ATOM     32  C   UNL     1       2.170   3.376   4.274  1.00  0.00     0.041 A 
ATOM     33  Cl  UNL     1       1.629   4.501   5.452  1.00  0.00    -0.084 Cl
ENDBRANCH  26  27
ENDBRANCH  25  26
ENDBRANCH  19  25
ENDBRANCH  10  16
ENDBRANCH   7   9
ENDBRANCH   6   7
ENDBRANCH   5   6
ENDBRANCH   4   5
ENDBRANCH   3   4
ENDBRANCH   2   3
ENDBRANCH   1   2
BRANCH   1  34
ATOM     34  O   UNL     1       2.847   1.458  -5.166  1.00  0.00    -0.377 OA
BRANCH  34  35
ATOM     35  C   UNL     1       2.404   0.351  -4.402  1.00  0.00     0.188 C 
BRANCH  35  36
ATOM     36  C   UNL     1       2.038  -0.847  -5.255  1.00  0.00     0.188 C 
BRANCH  36  37
ATOM     37  O   UNL     1       1.978  -0.616  -6.644  1.00  0.00    -0.376 OA
BRANCH  37  38
ATOM     38  C   UNL     1       1.227   0.457  -7.189  1.00  0.00     0.202 C 
BRANCH  38  39
ATOM     39  C   UNL     1       0.293   1.440  -6.434  1.00  0.00     0.261 C 
BRANCH  39  40
ATOM     40  O   UNL     1      -0.273   1.117  -5.152  1.00  0.00    -0.460 OA
BRANCH  40  41
ATOM     41  C   UNL     1      -1.244   0.197  -5.061  1.00  0.00     0.338 C 
ATOM     42  O   UNL     1      -1.676  -0.504  -5.971  1.00  0.00    -0.246 OA
BRANCH  41  43
ATOM     43  C   UNL     1      -1.659   0.081  -3.634  1.00  0.00     0.060 A 
ATOM     44  C   UNL     1      -1.653  -1.177  -3.026  1.00  0.00     0.016 A 
ATOM     45  C   UNL     1      -2.057   1.196  -2.879  1.00  0.00     0.016 A 
ATOM     46  C   UNL     1      -2.004  -1.317  -1.669  1.00  0.00     0.010 A 
ATOM     47  C   UNL     1      -2.420   1.052  -1.519  1.00  0.00     0.010 A 
ATOM     48  C   UNL     1      -2.377  -0.204  -0.888  1.00  0.00    -0.014 A 
BRANCH  48  49
ATOM     49  C   UNL     1      -2.940  -0.424   0.487  1.00  0.00     0.031 A 
ATOM     50  C   UNL     1      -4.404  -0.752   0.570  1.00  0.00     0.074 A 
ATOM     51  C   UNL     1      -2.236  -0.389   1.642  1.00  0.00     0.049 A 
ATOM     52  N   UNL     1      -5.140  -1.030   1.616  1.00  0.00    -0.248 NA
ATOM     53  C   UNL     1      -5.136  -0.741  -0.705  1.00  0.00     0.031 C 
ATOM     54  C   UNL     1      -0.834  -0.033   1.778  1.00  0.00     0.029 A 
ATOM     55  N   UNL     1      -2.611  -0.666   2.943  1.00  0.00    -0.354 N 
ATOM     56  C   UNL     1      -6.418  -1.236   1.124  1.00  0.00     0.074 A 
ATOM     57  C   UNL     1      -6.366  -1.013  -0.306  1.00  0.00     0.031 C 
ATOM     58  C   UNL     1      -0.444  -0.161   3.059  1.00  0.00     0.029 A 
ATOM     59  C   UNL     1      -1.588  -0.562   3.862  1.00  0.00     0.049 A 
ATOM     60  H   UNL     1      -3.530  -0.916   3.192  1.00  0.00     0.167 HD
ATOM     61  C   UNL     1      -7.542  -1.581   1.793  1.00  0.00     0.037 A 
ATOM     62  C   UNL     1      -1.567  -0.734   5.200  1.00  0.00     0.037 A 
ATOM     63  C   UNL     1      -7.637  -1.744   3.216  1.00  0.00     0.049 A 
ATOM     64  C   UNL     1      -2.845  -1.030   5.929  1.00  0.00     0.074 A 
ATOM     65  C   UNL     1      -8.745  -2.079   3.974  1.00  0.00     0.029 A 
ATOM     66  N   UNL     1      -6.589  -1.554   4.104  1.00  0.00    -0.354 N 
ATOM     67  N   UNL     1      -4.047  -1.212   5.448  1.00  0.00    -0.248 NA
ATOM     68  C   UNL     1      -2.763  -1.107   7.397  1.00  0.00     0.031 C 
ATOM     69  C   UNL     1      -8.380  -2.046   5.325  1.00  0.00     0.029 A 
ATOM     70  C   UNL     1      -7.030  -1.752   5.404  1.00  0.00     0.049 A 
ATOM     71  H   UNL     1      -5.668  -1.315   3.849  1.00  0.00     0.167 HD
ATOM     72  C   UNL     1      -4.864  -1.426   6.547  1.00  0.00     0.074 A 
ATOM     73  C   UNL     1      -4.021  -1.361   7.722  1.00  0.00     0.031 C 
ATOM     74  C   UNL     1      -6.196  -1.663   6.573  1.00  0.00     0.037 A 
BRANCH  61  75
ATOM     75  C   UNL     1      -8.772  -1.751   0.956  1.00  0.00     0.064 A 
ATOM     76  C   UNL     1      -8.908  -2.830   0.068  1.00  0.00     0.173 A 
ATOM     77  C   UNL     1      -9.787  -0.786   0.987  1.00  0.00     0.173 A 
ATOM     78  F   UNL     1      -7.942  -3.758  -0.019  1.00  0.00    -0.203 F 
ATOM     79  C   UNL     1      -9.995  -2.908  -0.796  1.00  0.00     0.198 A 
ATOM     80  C   UNL     1     -10.889  -0.886   0.144  1.00  0.00     0.198 A 
ATOM     81  F   UNL     1      -9.695   0.267   1.812  1.00  0.00    -0.203 F 
ATOM     82  F   UNL     1     -10.063  -3.899  -1.696  1.00  0.00    -0.200 F 
ATOM     83  C   UNL     1     -10.985  -1.938  -0.756  1.00  0.00     0.200 A 
ATOM     84  F   UNL     1     -11.846   0.051   0.183  1.00  0.00    -0.200 F 
ATOM     85  F   UNL     1     -12.022  -2.004  -1.601  1.00  0.00    -0.200 F 
ENDBRANCH  61  75
BRANCH  62  86
ATOM     86  C   UNL     1      -0.327  -0.545   6.002  1.00  0.00     0.064 A 
ATOM     87  C   UNL     1       0.385  -1.637   6.521  1.00  0.00     0.173 A 
ATOM     88  C   UNL     1       0.069   0.739   6.396  1.00  0.00     0.173 A 
ATOM     89  F   UNL     1      -0.005  -2.888   6.237  1.00  0.00    -0.203 F 
ATOM     90  C   UNL     1       1.459  -1.449   7.393  1.00  0.00     0.198 A 
ATOM     91  C   UNL     1       1.132   0.922   7.279  1.00  0.00     0.198 A 
ATOM     92  F   UNL     1      -0.601   1.810   5.950  1.00  0.00    -0.203 F 
ATOM     93  F   UNL     1       2.105  -2.507   7.902  1.00  0.00    -0.200 F 
ATOM     94  C   UNL     1       1.835  -0.168   7.765  1.00  0.00     0.200 A 
ATOM     95  F   UNL     1       1.482   2.158   7.659  1.00  0.00    -0.200 F 
ATOM     96  F   UNL     1       2.867   0.017   8.599  1.00  0.00    -0.200 F 
ENDBRANCH  62  86
BRANCH  74  97
ATOM     97  C   UNL     1      -6.811  -1.925   7.914  1.00  0.00     0.064 A 
ATOM     98  C   UNL     1      -6.996  -0.909   8.862  1.00  0.00     0.173 A 
ATOM     99  C   UNL     1      -7.209  -3.226   8.254  1.00  0.00     0.173 A 
ATOM    100  F   UNL     1      -6.602   0.345   8.595  1.00  0.00    -0.203 F 
ATOM    101  C   UNL     1      -7.534  -1.193  10.115  1.00  0.00     0.198 A 
ATOM    102  C   UNL     1      -7.774  -3.501   9.495  1.00  0.00     0.198 A 
ATOM    103  F   UNL     1      -7.045  -4.233   7.383  1.00  0.00    -0.203 F 
ATOM    104  F   UNL     1      -7.648  -0.220  11.030  1.00  0.00    -0.200 F 
ATOM    105  C   UNL     1      -7.927  -2.486  10.428  1.00  0.00     0.200 A 
ATOM    106  F   UNL     1      -8.157  -4.750   9.793  1.00  0.00    -0.200 F 
ATOM    107  F   UNL     1      -8.441  -2.759  11.635  1.00  0.00    -0.200 F 
ENDBRANCH  74  97
ENDBRANCH  48  49
ENDBRANCH  41  43
ENDBRANCH  40  41
ENDBRANCH  39  40
ENDBRANCH  38  39
ENDBRANCH  37  38
ENDBRANCH  36  37
ENDBRANCH  35  36
ENDBRANCH  34  35
ENDBRANCH   1  34
TORSDOF 26
