REMARK SMILES CC(C)[C@@H]1SC[C@@H](C(=O)OCCOCCOCCOCCOC(=O)c2ccc(-c3c4nc(c(-c5c(F)c(F)c(F)c(F)c5F)c5ccc([nH]5)c(-c5c(F)c(F)c(F)c(F)c5F)c5nc(c(-c6c(F)c(F)c(F)c(F)c6F)c6ccc3[nH]6)C=C5)C=C4)cc2)N1C(=O)COCC[NH3+]
REMARK SMILES IDX 14 1 13 2 12 3 11 4 10 5 8 6 9 7 7 8 4 9 5 10 88 11 6 12
REMARK SMILES IDX 2 13 1 14 3 15 89 16 90 17 91 18 92 19 93 20 94 21 95 22
REMARK SMILES IDX 15 26 16 27 17 28 18 29 19 30 20 31 21 32 22 33 23 34 24 35
REMARK SMILES IDX 25 36 26 37 87 38 27 39 86 40 28 41 29 42 30 43 80 44 31 45
REMARK SMILES IDX 85 46 79 47 81 48 32 49 84 50 78 51 77 52 33 54 65 55 45 56
REMARK SMILES IDX 64 57 46 58 49 59 63 60 82 61 47 62 48 63 62 65 83 66 50 67
REMARK SMILES IDX 34 68 35 69 43 70 36 71 37 72 41 73 44 74 38 75 39 76 42 77
REMARK SMILES IDX 40 78 66 79 67 80 75 81 68 82 69 83 73 84 76 85 70 86 71 87
REMARK SMILES IDX 74 88 72 89 51 90 52 91 60 92 53 93 54 94 58 95 61 96 55 97
REMARK SMILES IDX 56 98 59 99 57 100
REMARK H PARENT 95 23 95 24 95 25 81 53 49 64
REMARK Flexibility Score: inf
ROOT
ATOM      1  C   UNL     1      -0.243  -4.061   4.800  1.00  0.00     0.188 C 
ENDROOT
BRANCH   1   2
ATOM      2  O   UNL     1       0.904  -4.864   4.666  1.00  0.00    -0.376 OA
BRANCH   2   3
ATOM      3  C   UNL     1       1.769  -4.882   3.557  1.00  0.00     0.202 C 
BRANCH   3   4
ATOM      4  C   UNL     1       1.552  -4.165   2.212  1.00  0.00     0.261 C 
BRANCH   4   5
ATOM      5  O   UNL     1       0.500  -3.197   2.094  1.00  0.00    -0.462 OA
BRANCH   5   6
ATOM      6  C   UNL     1      -0.680  -3.669   1.611  1.00  0.00     0.329 C 
ATOM      7  O   UNL     1      -0.852  -4.851   1.315  1.00  0.00    -0.250 OA
BRANCH   6   8
ATOM      8  C   UNL     1      -1.762  -2.583   1.306  1.00  0.00     0.206 C 
ATOM      9  C   UNL     1      -1.008  -0.204   1.163  1.00  0.00     0.146 C 
ATOM     10  S   UNL     1      -0.558  -1.072  -0.428  1.00  0.00    -0.134 SA
ATOM     11  N   UNL     1      -1.808  -1.197   1.908  1.00  0.00    -0.314 N 
ATOM     12  C   UNL     1      -1.730  -2.425  -0.202  1.00  0.00     0.109 C 
BRANCH   9  13
ATOM     13  C   UNL     1      -1.543   1.195   0.714  1.00  0.00     0.016 C 
ATOM     14  C   UNL     1      -2.877   1.225  -0.035  1.00  0.00     0.010 C 
ATOM     15  C   UNL     1      -1.535   2.281   1.782  1.00  0.00     0.010 C 
ENDBRANCH   9  13
BRANCH  11  16
ATOM     16  C   UNL     1      -2.440  -1.111   3.141  1.00  0.00     0.250 C 
ATOM     17  O   UNL     1      -2.939  -2.148   3.616  1.00  0.00    -0.272 OA
BRANCH  16  18
ATOM     18  C   UNL     1      -2.670   0.182   3.986  1.00  0.00     0.260 C 
BRANCH  18  19
ATOM     19  O   UNL     1      -1.768   1.226   4.251  1.00  0.00    -0.366 OA
BRANCH  19  20
ATOM     20  C   UNL     1      -0.859   1.067   5.331  1.00  0.00     0.222 C 
BRANCH  20  21
ATOM     21  C   UNL     1      -1.200   1.931   6.566  1.00  0.00     0.287 C 
BRANCH  21  22
ATOM     22  N   UNL     1      -2.327   1.467   7.378  1.00  0.00    -0.356 N 
ATOM     23  H   UNL     1      -3.181   1.494   6.821  1.00  0.00     0.344 HD
ATOM     24  H   UNL     1      -2.432   2.073   8.192  1.00  0.00     0.344 HD
ATOM     25  H   UNL     1      -2.152   0.510   7.687  1.00  0.00     0.344 HD
ENDBRANCH  21  22
ENDBRANCH  20  21
ENDBRANCH  19  20
ENDBRANCH  18  19
ENDBRANCH  16  18
ENDBRANCH  11  16
ENDBRANCH   6   8
ENDBRANCH   5   6
ENDBRANCH   4   5
ENDBRANCH   3   4
ENDBRANCH   2   3
ENDBRANCH   1   2
BRANCH   1  26
ATOM     26  C   UNL     1      -0.162  -2.524   4.765  1.00  0.00     0.188 C 
BRANCH  26  27
ATOM     27  O   UNL     1       0.865  -1.684   5.253  1.00  0.00    -0.377 OA
BRANCH  27  28
ATOM     28  C   UNL     1       2.150  -2.209   5.459  1.00  0.00     0.188 C 
BRANCH  28  29
ATOM     29  C   UNL     1       2.254  -3.008   6.759  1.00  0.00     0.188 C 
BRANCH  29  30
ATOM     30  O   UNL     1       0.981  -3.386   7.263  1.00  0.00    -0.376 OA
BRANCH  30  31
ATOM     31  C   UNL     1       0.438  -2.603   8.318  1.00  0.00     0.202 C 
BRANCH  31  32
ATOM     32  C   UNL     1       0.160  -1.106   8.092  1.00  0.00     0.261 C 
BRANCH  32  33
ATOM     33  O   UNL     1       1.222  -0.306   7.540  1.00  0.00    -0.460 OA
BRANCH  33  34
ATOM     34  C   UNL     1       2.278  -0.035   8.326  1.00  0.00     0.338 C 
ATOM     35  O   UNL     1       2.422  -0.359   9.496  1.00  0.00    -0.246 OA
BRANCH  34  36
ATOM     36  C   UNL     1       3.343   0.562   7.490  1.00  0.00     0.060 A 
ATOM     37  C   UNL     1       4.531  -0.161   7.318  1.00  0.00     0.016 A 
ATOM     38  C   UNL     1       3.194   1.816   6.888  1.00  0.00     0.016 A 
ATOM     39  C   UNL     1       5.581   0.374   6.572  1.00  0.00     0.010 A 
ATOM     40  C   UNL     1       4.262   2.366   6.162  1.00  0.00     0.010 A 
ATOM     41  C   UNL     1       5.474   1.662   6.032  1.00  0.00    -0.014 A 
BRANCH  41  42
ATOM     42  C   UNL     1       6.705   2.334   5.538  1.00  0.00     0.031 A 
ATOM     43  C   UNL     1       7.434   3.261   6.473  1.00  0.00     0.074 A 
ATOM     44  C   UNL     1       7.215   2.076   4.321  1.00  0.00     0.049 A 
ATOM     45  N   UNL     1       8.535   3.943   6.286  1.00  0.00    -0.248 NA
ATOM     46  C   UNL     1       6.836   3.439   7.806  1.00  0.00     0.031 C 
ATOM     47  C   UNL     1       6.636   1.162   3.339  1.00  0.00     0.029 A 
ATOM     48  N   UNL     1       8.342   2.564   3.705  1.00  0.00    -0.354 N 
ATOM     49  C   UNL     1       8.762   4.625   7.474  1.00  0.00     0.074 A 
ATOM     50  C   UNL     1       7.662   4.312   8.360  1.00  0.00     0.031 C 
ATOM     51  C   UNL     1       7.407   1.163   2.237  1.00  0.00     0.029 A 
ATOM     52  C   UNL     1       8.517   2.098   2.425  1.00  0.00     0.049 A 
ATOM     53  H   UNL     1       8.966   3.188   4.140  1.00  0.00     0.167 HD
ATOM     54  C   UNL     1       9.801   5.429   7.806  1.00  0.00     0.037 A 
ATOM     55  C   UNL     1       9.453   2.408   1.504  1.00  0.00     0.037 A 
ATOM     56  C   UNL     1      10.887   5.753   6.920  1.00  0.00     0.049 A 
ATOM     57  C   UNL     1      10.552   3.379   1.862  1.00  0.00     0.074 A 
ATOM     58  C   UNL     1      11.986   6.559   7.160  1.00  0.00     0.029 A 
ATOM     59  N   UNL     1      11.003   5.299   5.614  1.00  0.00    -0.354 N 
ATOM     60  N   UNL     1      10.774   4.001   2.995  1.00  0.00    -0.248 NA
ATOM     61  C   UNL     1      11.536   3.685   0.813  1.00  0.00     0.031 C 
ATOM     62  C   UNL     1      12.732   6.644   5.980  1.00  0.00     0.029 A 
ATOM     63  C   UNL     1      12.139   5.832   5.026  1.00  0.00     0.049 A 
ATOM     64  H   UNL     1      10.371   4.688   5.170  1.00  0.00     0.167 HD
ATOM     65  C   UNL     1      11.934   4.743   2.807  1.00  0.00     0.074 A 
ATOM     66  C   UNL     1      12.378   4.484   1.454  1.00  0.00     0.031 C 
ATOM     67  C   UNL     1      12.575   5.562   3.678  1.00  0.00     0.037 A 
BRANCH  54  68
ATOM     68  C   UNL     1       9.786   6.042   9.178  1.00  0.00     0.064 A 
ATOM     69  C   UNL     1       9.953   5.267  10.338  1.00  0.00     0.173 A 
ATOM     70  C   UNL     1       9.610   7.425   9.336  1.00  0.00     0.173 A 
ATOM     71  F   UNL     1      10.110   3.938  10.245  1.00  0.00    -0.203 F 
ATOM     72  C   UNL     1       9.903   5.849  11.602  1.00  0.00     0.198 A 
ATOM     73  C   UNL     1       9.598   8.008  10.601  1.00  0.00     0.198 A 
ATOM     74  F   UNL     1       9.451   8.214   8.263  1.00  0.00    -0.203 F 
ATOM     75  F   UNL     1       9.999   5.080  12.696  1.00  0.00    -0.200 F 
ATOM     76  C   UNL     1       9.733   7.219  11.733  1.00  0.00     0.200 A 
ATOM     77  F   UNL     1       9.449   9.334  10.724  1.00  0.00    -0.200 F 
ATOM     78  F   UNL     1       9.687   7.777  12.950  1.00  0.00    -0.200 F 
ENDBRANCH  54  68
BRANCH  55  79
ATOM     79  C   UNL     1       9.383   1.809   0.144  1.00  0.00     0.064 A 
ATOM     80  C   UNL     1      10.361   0.915  -0.314  1.00  0.00     0.173 A 
ATOM     81  C   UNL     1       8.339   2.136  -0.737  1.00  0.00     0.173 A 
ATOM     82  F   UNL     1      11.394   0.591   0.478  1.00  0.00    -0.203 F 
ATOM     83  C   UNL     1      10.307   0.384  -1.602  1.00  0.00     0.198 A 
ATOM     84  C   UNL     1       8.269   1.580  -2.012  1.00  0.00     0.198 A 
ATOM     85  F   UNL     1       7.380   2.991  -0.353  1.00  0.00    -0.203 F 
ATOM     86  F   UNL     1      11.281  -0.430  -2.030  1.00  0.00    -0.200 F 
ATOM     87  C   UNL     1       9.257   0.711  -2.447  1.00  0.00     0.200 A 
ATOM     88  F   UNL     1       7.245   1.889  -2.819  1.00  0.00    -0.200 F 
ATOM     89  F   UNL     1       9.202   0.195  -3.682  1.00  0.00    -0.200 F 
ENDBRANCH  55  79
BRANCH  67  90
ATOM     90  C   UNL     1      13.853   6.209   3.218  1.00  0.00     0.064 A 
ATOM     91  C   UNL     1      13.867   7.218   2.243  1.00  0.00     0.173 A 
ATOM     92  C   UNL     1      15.079   5.846   3.800  1.00  0.00     0.173 A 
ATOM     93  F   UNL     1      12.726   7.595   1.646  1.00  0.00    -0.203 F 
ATOM     94  C   UNL     1      15.061   7.819   1.850  1.00  0.00     0.198 A 
ATOM     95  C   UNL     1      16.265   6.475   3.431  1.00  0.00     0.198 A 
ATOM     96  F   UNL     1      15.124   4.894   4.744  1.00  0.00    -0.203 F 
ATOM     97  F   UNL     1      15.055   8.744   0.881  1.00  0.00    -0.200 F 
ATOM     98  C   UNL     1      16.256   7.454   2.450  1.00  0.00     0.200 A 
ATOM     99  F   UNL     1      17.416   6.133   4.027  1.00  0.00    -0.200 F 
ATOM    100  F   UNL     1      17.402   8.042   2.079  1.00  0.00    -0.200 F 
ENDBRANCH  67  90
ENDBRANCH  41  42
ENDBRANCH  34  36
ENDBRANCH  33  34
ENDBRANCH  32  33
ENDBRANCH  31  32
ENDBRANCH  30  31
ENDBRANCH  29  30
ENDBRANCH  28  29
ENDBRANCH  27  28
ENDBRANCH  26  27
ENDBRANCH   1  26
TORSDOF 27
