REMARK SMILES C[C@H](Oc1cccc(/C=C2/SC(=S)N(c3ccc(Cl)c(Cl)c3)C2=O)c1)C(=O)OCCOCCOCCOCCOC(=O)c1ccc(-c2c3nc(c(-c4c(F)c(F)c(F)c(F)c4F)c4ccc([nH]4)c(-c4c(F)c(F)c(F)c(F)c4F)c4nc(c(-c5c(F)c(F)c(F)c(F)c5F)c5ccc2[nH]5)C=C4)C=C3)cc1
REMARK SMILES IDX 33 1 32 2 31 3 30 4 29 5 28 6 26 7 27 8 2 9 1 10 3 11 4 12
REMARK SMILES IDX 5 13 25 14 6 15 8 16 7 17 9 18 10 19 11 20 23 21 12 22 14 23
REMARK SMILES IDX 24 24 13 25 15 26 16 27 22 28 17 29 20 30 18 31 21 32 19 33
REMARK SMILES IDX 34 34 35 35 36 36 37 37 38 38 39 39 40 40 41 41 42 42 43 43
REMARK SMILES IDX 44 44 105 45 45 46 104 47 46 48 47 49 48 50 98 51 49 52
REMARK SMILES IDX 103 53 97 54 99 55 50 56 102 57 96 58 95 59 51 61 83 62
REMARK SMILES IDX 63 63 82 64 64 65 67 66 81 67 100 68 65 69 66 70 80 72
REMARK SMILES IDX 101 73 68 74 52 75 53 76 61 77 54 78 55 79 59 80 62 81 56 82
REMARK SMILES IDX 57 83 60 84 58 85 84 86 85 87 93 88 86 89 87 90 91 91 94 92
REMARK SMILES IDX 88 93 89 94 92 95 90 96 69 97 70 98 78 99 71 100 72 101
REMARK SMILES IDX 76 102 79 103 73 104 74 105 77 106 75 107
REMARK H PARENT 99 60 67 71
REMARK Flexibility Score: inf
ROOT
ATOM      1  C   UNL     1      -1.219   1.088  -0.111  1.00  0.00     0.188 C 
ENDROOT
BRANCH   1   2
ATOM      2  C   UNL     1      -1.742   1.164  -1.556  1.00  0.00     0.188 C 
BRANCH   2   3
ATOM      3  O   UNL     1      -3.043   0.707  -1.897  1.00  0.00    -0.376 OA
BRANCH   3   4
ATOM      4  C   UNL     1      -3.567  -0.515  -1.400  1.00  0.00     0.202 C 
BRANCH   4   5
ATOM      5  C   UNL     1      -2.749  -1.815  -1.321  1.00  0.00     0.261 C 
BRANCH   5   6
ATOM      6  O   UNL     1      -1.355  -1.697  -1.018  1.00  0.00    -0.461 OA
BRANCH   6   7
ATOM      7  C   UNL     1      -0.518  -1.733  -2.084  1.00  0.00     0.347 C 
ATOM      8  O   UNL     1      -0.886  -1.855  -3.249  1.00  0.00    -0.248 OA
BRANCH   7   9
ATOM      9  C   UNL     1       0.967  -1.651  -1.692  1.00  0.00     0.279 C 
ATOM     10  C   UNL     1       1.473  -3.090  -1.720  1.00  0.00     0.066 C 
BRANCH   9  11
ATOM     11  O   UNL     1       1.227  -1.030  -0.433  1.00  0.00    -0.479 OA
BRANCH  11  12
ATOM     12  C   UNL     1       2.508  -0.676  -0.096  1.00  0.00     0.121 A 
ATOM     13  C   UNL     1       3.632  -0.823  -0.904  1.00  0.00     0.046 A 
ATOM     14  C   UNL     1       2.672  -0.169   1.200  1.00  0.00     0.054 A 
ATOM     15  C   UNL     1       4.909  -0.575  -0.393  1.00  0.00     0.004 A 
ATOM     16  C   UNL     1       3.954   0.072   1.730  1.00  0.00    -0.021 A 
ATOM     17  C   UNL     1       5.072  -0.144   0.922  1.00  0.00     0.008 A 
BRANCH  16  18
ATOM     18  C   UNL     1       4.162   0.534   3.110  1.00  0.00     0.029 C 
ATOM     19  C   UNL     1       3.731  -0.083   4.219  1.00  0.00     0.081 C 
ATOM     20  S   UNL     1       3.932   0.566   5.799  1.00  0.00    -0.054 SA
ATOM     21  C   UNL     1       2.973  -1.363   4.293  1.00  0.00     0.270 C 
ATOM     22  C   UNL     1       2.882  -0.648   6.535  1.00  0.00     0.152 C 
ATOM     23  N   UNL     1       2.421  -1.525   5.562  1.00  0.00    -0.261 N 
ATOM     24  O   UNL     1       2.863  -2.125   3.342  1.00  0.00    -0.268 OA
ATOM     25  S   UNL     1       2.649  -0.668   8.192  1.00  0.00    -0.051 S 
BRANCH  23  26
ATOM     26  C   UNL     1       1.418  -2.529   5.758  1.00  0.00     0.052 A 
ATOM     27  C   UNL     1       1.520  -3.782   5.135  1.00  0.00     0.028 A 
ATOM     28  C   UNL     1       0.247  -2.245   6.473  1.00  0.00     0.048 A 
ATOM     29  C   UNL     1       0.477  -4.711   5.196  1.00  0.00     0.024 A 
ATOM     30  C   UNL     1      -0.792  -3.182   6.554  1.00  0.00     0.061 A 
ATOM     31  C   UNL     1      -0.688  -4.409   5.896  1.00  0.00     0.059 A 
ATOM     32  Cl  UNL     1      -2.178  -2.743   7.479  1.00  0.00    -0.083 Cl
ATOM     33  Cl  UNL     1      -1.964  -5.570   5.880  1.00  0.00    -0.083 Cl
ENDBRANCH  23  26
ENDBRANCH  16  18
ENDBRANCH  11  12
ENDBRANCH   9  11
ENDBRANCH   7   9
ENDBRANCH   6   7
ENDBRANCH   5   6
ENDBRANCH   4   5
ENDBRANCH   3   4
ENDBRANCH   2   3
ENDBRANCH   1   2
BRANCH   1  34
ATOM     34  O   UNL     1      -1.982   0.258   0.743  1.00  0.00    -0.377 OA
BRANCH  34  35
ATOM     35  C   UNL     1      -2.933   0.903   1.578  1.00  0.00     0.188 C 
BRANCH  35  36
ATOM     36  C   UNL     1      -3.724   2.098   1.004  1.00  0.00     0.188 C 
BRANCH  36  37
ATOM     37  O   UNL     1      -2.919   3.085   0.373  1.00  0.00    -0.376 OA
BRANCH  37  38
ATOM     38  C   UNL     1      -2.589   4.260   1.098  1.00  0.00     0.202 C 
BRANCH  38  39
ATOM     39  C   UNL     1      -1.632   4.099   2.292  1.00  0.00     0.261 C 
BRANCH  39  40
ATOM     40  O   UNL     1      -2.064   3.201   3.327  1.00  0.00    -0.460 OA
BRANCH  40  41
ATOM     41  C   UNL     1      -3.222   3.498   3.946  1.00  0.00     0.338 C 
ATOM     42  O   UNL     1      -3.909   4.498   3.783  1.00  0.00    -0.246 OA
BRANCH  41  43
ATOM     43  C   UNL     1      -3.655   2.326   4.732  1.00  0.00     0.060 A 
ATOM     44  C   UNL     1      -4.929   1.799   4.490  1.00  0.00     0.016 A 
ATOM     45  C   UNL     1      -2.840   1.782   5.728  1.00  0.00     0.016 A 
ATOM     46  C   UNL     1      -5.429   0.781   5.298  1.00  0.00     0.010 A 
ATOM     47  C   UNL     1      -3.349   0.772   6.551  1.00  0.00     0.010 A 
ATOM     48  C   UNL     1      -4.669   0.314   6.377  1.00  0.00    -0.014 A 
BRANCH  48  49
ATOM     49  C   UNL     1      -5.358  -0.435   7.458  1.00  0.00     0.031 A 
ATOM     50  C   UNL     1      -5.765   0.324   8.695  1.00  0.00     0.074 A 
ATOM     51  C   UNL     1      -5.685  -1.732   7.326  1.00  0.00     0.049 A 
ATOM     52  N   UNL     1      -6.392  -0.093   9.766  1.00  0.00    -0.248 NA
ATOM     53  C   UNL     1      -5.422   1.756   8.725  1.00  0.00     0.031 C 
ATOM     54  C   UNL     1      -5.394  -2.566   6.162  1.00  0.00     0.029 A 
ATOM     55  N   UNL     1      -6.323  -2.579   8.197  1.00  0.00    -0.354 N 
ATOM     56  C   UNL     1      -6.512   1.020  10.590  1.00  0.00     0.074 A 
ATOM     57  C   UNL     1      -5.855   2.119   9.921  1.00  0.00     0.031 C 
ATOM     58  C   UNL     1      -5.824  -3.816   6.404  1.00  0.00     0.029 A 
ATOM     59  C   UNL     1      -6.412  -3.870   7.742  1.00  0.00     0.049 A 
ATOM     60  H   UNL     1      -6.683  -2.287   9.066  1.00  0.00     0.167 HD
ATOM     61  C   UNL     1      -7.134   1.122  11.789  1.00  0.00     0.037 A 
ATOM     62  C   UNL     1      -6.900  -4.970   8.347  1.00  0.00     0.037 A 
ATOM     63  C   UNL     1      -7.791   0.028  12.451  1.00  0.00     0.049 A 
ATOM     64  C   UNL     1      -7.512  -4.849   9.720  1.00  0.00     0.074 A 
ATOM     65  C   UNL     1      -8.475   0.032  13.654  1.00  0.00     0.029 A 
ATOM     66  N   UNL     1      -7.833  -1.273  11.971  1.00  0.00    -0.354 N 
ATOM     67  N   UNL     1      -7.664  -3.787  10.473  1.00  0.00    -0.248 NA
ATOM     68  C   UNL     1      -8.043  -6.084  10.315  1.00  0.00     0.031 C 
ATOM     69  C   UNL     1      -8.873  -1.279  13.934  1.00  0.00     0.029 A 
ATOM     70  C   UNL     1      -8.506  -2.086  12.870  1.00  0.00     0.049 A 
ATOM     71  H   UNL     1      -7.443  -1.574  11.119  1.00  0.00     0.167 HD
ATOM     72  C   UNL     1      -8.348  -4.214  11.605  1.00  0.00     0.074 A 
ATOM     73  C   UNL     1      -8.587  -5.631  11.435  1.00  0.00     0.031 C 
ATOM     74  C   UNL     1      -8.751  -3.494  12.683  1.00  0.00     0.037 A 
BRANCH  61  75
ATOM     75  C   UNL     1      -7.103   2.459  12.474  1.00  0.00     0.064 A 
ATOM     76  C   UNL     1      -7.805   3.568  11.975  1.00  0.00     0.173 A 
ATOM     77  C   UNL     1      -6.375   2.627  13.662  1.00  0.00     0.173 A 
ATOM     78  F   UNL     1      -8.504   3.468  10.834  1.00  0.00    -0.203 F 
ATOM     79  C   UNL     1      -7.752   4.801  12.621  1.00  0.00     0.198 A 
ATOM     80  C   UNL     1      -6.353   3.851  14.324  1.00  0.00     0.198 A 
ATOM     81  F   UNL     1      -5.687   1.601  14.185  1.00  0.00    -0.203 F 
ATOM     82  F   UNL     1      -8.383   5.859  12.095  1.00  0.00    -0.200 F 
ATOM     83  C   UNL     1      -7.033   4.939  13.799  1.00  0.00     0.200 A 
ATOM     84  F   UNL     1      -5.670   3.979  15.470  1.00  0.00    -0.200 F 
ATOM     85  F   UNL     1      -6.989   6.124  14.424  1.00  0.00    -0.200 F 
ENDBRANCH  61  75
BRANCH  62  86
ATOM     86  C   UNL     1      -6.849  -6.285   7.656  1.00  0.00     0.064 A 
ATOM     87  C   UNL     1      -8.021  -6.921   7.222  1.00  0.00     0.173 A 
ATOM     88  C   UNL     1      -5.631  -6.949   7.447  1.00  0.00     0.173 A 
ATOM     89  F   UNL     1      -9.213  -6.342   7.429  1.00  0.00    -0.203 F 
ATOM     90  C   UNL     1      -7.978  -8.179   6.624  1.00  0.00     0.198 A 
ATOM     91  C   UNL     1      -5.587  -8.191   6.818  1.00  0.00     0.198 A 
ATOM     92  F   UNL     1      -4.486  -6.392   7.863  1.00  0.00    -0.203 F 
ATOM     93  F   UNL     1      -9.118  -8.790   6.272  1.00  0.00    -0.200 F 
ATOM     94  C   UNL     1      -6.761  -8.809   6.415  1.00  0.00     0.200 A 
ATOM     95  F   UNL     1      -4.409  -8.796   6.614  1.00  0.00    -0.200 F 
ATOM     96  F   UNL     1      -6.721 -10.020   5.842  1.00  0.00    -0.200 F 
ENDBRANCH  62  86
BRANCH  74  97
ATOM     97  C   UNL     1      -9.555  -4.211  13.732  1.00  0.00     0.064 A 
ATOM     98  C   UNL     1      -8.997  -5.199  14.557  1.00  0.00     0.173 A 
ATOM     99  C   UNL     1     -10.907  -3.884  13.927  1.00  0.00     0.173 A 
ATOM    100  F   UNL     1      -7.713  -5.558  14.408  1.00  0.00    -0.203 F 
ATOM    101  C   UNL     1      -9.772  -5.863  15.505  1.00  0.00     0.198 A 
ATOM    102  C   UNL     1     -11.668  -4.521  14.903  1.00  0.00     0.198 A 
ATOM    103  F   UNL     1     -11.491  -2.938  13.175  1.00  0.00    -0.203 F 
ATOM    104  F   UNL     1      -9.235  -6.851  16.234  1.00  0.00    -0.200 F 
ATOM    105  C   UNL     1     -11.104  -5.519  15.682  1.00  0.00     0.200 A 
ATOM    106  F   UNL     1     -12.949  -4.172  15.086  1.00  0.00    -0.200 F 
ATOM    107  F   UNL     1     -11.847  -6.157  16.597  1.00  0.00    -0.200 F 
ENDBRANCH  74  97
ENDBRANCH  48  49
ENDBRANCH  41  43
ENDBRANCH  40  41
ENDBRANCH  39  40
ENDBRANCH  38  39
ENDBRANCH  37  38
ENDBRANCH  36  37
ENDBRANCH  35  36
ENDBRANCH  34  35
ENDBRANCH   1  34
TORSDOF 24
