REMARK SMILES CC(C)[C@@H](NC(=O)[C@@](C)([NH3+])C(F)(F)F)C(=O)OCCOCCOCCOCCOC(=O)c1ccc(-c2c3nc(c(-c4c(F)c(F)c(F)c(F)c4F)c4ccc([nH]4)c(-c4c(F)c(F)c(F)c(F)c4F)c4nc(c(-c5c(F)c(F)c(F)c(F)c5F)c5ccc2[nH]5)C=C4)C=C3)cc1
REMARK SMILES IDX 22 1 21 2 20 3 19 4 18 5 17 6 15 7 16 8 4 9 2 10 1 11 3 12
REMARK SMILES IDX 5 13 6 14 7 16 8 17 9 18 10 19 11 23 12 24 13 25 14 26 23 27
REMARK SMILES IDX 24 28 25 29 26 30 27 31 28 32 29 33 30 34 31 35 32 36 33 37
REMARK SMILES IDX 94 38 34 39 93 40 35 41 36 42 37 43 87 44 38 45 92 46 86 47
REMARK SMILES IDX 88 48 39 49 91 50 85 51 84 52 40 54 72 55 52 56 71 57 53 58
REMARK SMILES IDX 56 59 70 60 89 61 54 62 55 63 69 65 90 66 57 67 41 68 42 69
REMARK SMILES IDX 50 70 43 71 44 72 48 73 51 74 45 75 46 76 49 77 47 78 73 79
REMARK SMILES IDX 74 80 82 81 75 82 76 83 80 84 83 85 77 86 78 87 81 88 79 89
REMARK SMILES IDX 58 90 59 91 67 92 60 93 61 94 65 95 68 96 62 97 63 98 66 99
REMARK SMILES IDX 64 100
REMARK H PARENT 5 15 10 20 10 21 10 22 88 53 56 64
REMARK Flexibility Score: inf
ROOT
ATOM      1  C   UNL     1      -0.567  -1.535  -4.418  1.00  0.00     0.188 C 
ENDROOT
BRANCH   1   2
ATOM      2  C   UNL     1      -1.934  -1.749  -5.059  1.00  0.00     0.188 C 
BRANCH   2   3
ATOM      3  O   UNL     1      -2.267  -0.920  -6.156  1.00  0.00    -0.376 OA
BRANCH   3   4
ATOM      4  C   UNL     1      -2.383   0.481  -5.936  1.00  0.00     0.202 C 
BRANCH   4   5
ATOM      5  C   UNL     1      -2.784   1.018  -4.557  1.00  0.00     0.261 C 
BRANCH   5   6
ATOM      6  O   UNL     1      -1.791   0.975  -3.486  1.00  0.00    -0.462 OA
BRANCH   6   7
ATOM      7  C   UNL     1      -2.106   0.295  -2.350  1.00  0.00     0.328 C 
ATOM      8  O   UNL     1      -3.127  -0.387  -2.256  1.00  0.00    -0.250 OA
BRANCH   7   9
ATOM      9  C   UNL     1      -1.290   0.648  -1.073  1.00  0.00     0.195 C 
BRANCH   9  10
ATOM     10  C   UNL     1       0.271   0.756  -0.990  1.00  0.00     0.017 C 
ATOM     11  C   UNL     1       0.723   0.700   0.493  1.00  0.00     0.010 C 
ATOM     12  C   UNL     1       1.052  -0.379  -1.668  1.00  0.00     0.010 C 
ENDBRANCH   9  10
BRANCH   9  13
ATOM     13  N   UNL     1      -1.982   1.639  -0.181  1.00  0.00    -0.337 N 
ATOM     14  C   UNL     1      -2.526   2.897  -0.317  1.00  0.00     0.291 C 
ATOM     15  H   UNL     1      -2.069   1.302   0.740  1.00  0.00     0.164 HD
ATOM     16  O   UNL     1      -2.644   3.550   0.722  1.00  0.00    -0.267 OA
BRANCH  14  17
ATOM     17  C   UNL     1      -3.032   3.419  -1.671  1.00  0.00     0.267 C 
ATOM     18  C   UNL     1      -1.812   3.671  -2.579  1.00  0.00     0.100 C 
BRANCH  17  19
ATOM     19  N   UNL     1      -4.069   2.463  -2.156  1.00  0.00    -0.337 N 
ATOM     20  H   UNL     1      -3.654   1.538  -2.265  1.00  0.00     0.345 HD
ATOM     21  H   UNL     1      -4.430   2.782  -3.055  1.00  0.00     0.345 HD
ATOM     22  H   UNL     1      -4.831   2.417  -1.480  1.00  0.00     0.345 HD
ENDBRANCH  17  19
BRANCH  17  23
ATOM     23  C   UNL     1      -3.732   4.799  -1.530  1.00  0.00     0.453 C 
ATOM     24  F   UNL     1      -4.840   4.768  -0.759  1.00  0.00    -0.164 F 
ATOM     25  F   UNL     1      -2.918   5.775  -1.077  1.00  0.00    -0.164 F 
ATOM     26  F   UNL     1      -4.144   5.199  -2.775  1.00  0.00    -0.164 F 
ENDBRANCH  17  23
ENDBRANCH  14  17
ENDBRANCH   9  13
ENDBRANCH   7   9
ENDBRANCH   6   7
ENDBRANCH   5   6
ENDBRANCH   4   5
ENDBRANCH   3   4
ENDBRANCH   2   3
ENDBRANCH   1   2
BRANCH   1  27
ATOM     27  O   UNL     1      -0.006  -0.258  -4.620  1.00  0.00    -0.377 OA
BRANCH  27  28
ATOM     28  C   UNL     1       0.888  -0.025  -5.690  1.00  0.00     0.188 C 
BRANCH  28  29
ATOM     29  C   UNL     1       0.870  -0.959  -6.898  1.00  0.00     0.188 C 
BRANCH  29  30
ATOM     30  O   UNL     1       1.174  -2.330  -6.739  1.00  0.00    -0.376 OA
BRANCH  30  31
ATOM     31  C   UNL     1       2.238  -2.835  -5.957  1.00  0.00     0.202 C 
BRANCH  31  32
ATOM     32  C   UNL     1       3.595  -2.160  -5.721  1.00  0.00     0.261 C 
BRANCH  32  33
ATOM     33  O   UNL     1       3.725  -0.771  -5.989  1.00  0.00    -0.460 OA
BRANCH  33  34
ATOM     34  C   UNL     1       3.970  -0.445  -7.270  1.00  0.00     0.338 C 
ATOM     35  O   UNL     1       4.038  -1.195  -8.234  1.00  0.00    -0.246 OA
BRANCH  34  36
ATOM     36  C   UNL     1       4.044   1.020  -7.348  1.00  0.00     0.060 A 
ATOM     37  C   UNL     1       3.148   1.719  -8.168  1.00  0.00     0.016 A 
ATOM     38  C   UNL     1       5.059   1.686  -6.660  1.00  0.00     0.016 A 
ATOM     39  C   UNL     1       3.314   3.087  -8.361  1.00  0.00     0.010 A 
ATOM     40  C   UNL     1       5.234   3.050  -6.867  1.00  0.00     0.010 A 
ATOM     41  C   UNL     1       4.397   3.740  -7.761  1.00  0.00    -0.014 A 
BRANCH  41  42
ATOM     42  C   UNL     1       4.826   5.069  -8.245  1.00  0.00     0.031 A 
ATOM     43  C   UNL     1       5.969   5.120  -9.221  1.00  0.00     0.074 A 
ATOM     44  C   UNL     1       4.237   6.194  -7.811  1.00  0.00     0.049 A 
ATOM     45  N   UNL     1       6.644   6.148  -9.662  1.00  0.00    -0.248 NA
ATOM     46  C   UNL     1       6.423   3.825  -9.761  1.00  0.00     0.031 C 
ATOM     47  C   UNL     1       3.087   6.255  -6.914  1.00  0.00     0.029 A 
ATOM     48  N   UNL     1       4.552   7.506  -8.054  1.00  0.00    -0.354 N 
ATOM     49  C   UNL     1       7.607   5.625 -10.516  1.00  0.00     0.074 A 
ATOM     50  C   UNL     1       7.455   4.188 -10.506  1.00  0.00     0.031 C 
ATOM     51  C   UNL     1       2.805   7.545  -6.659  1.00  0.00     0.029 A 
ATOM     52  C   UNL     1       3.785   8.391  -7.338  1.00  0.00     0.049 A 
ATOM     53  H   UNL     1       5.259   7.785  -8.679  1.00  0.00     0.167 HD
ATOM     54  C   UNL     1       8.530   6.291 -11.247  1.00  0.00     0.037 A 
ATOM     55  C   UNL     1       3.897   9.728  -7.223  1.00  0.00     0.037 A 
ATOM     56  C   UNL     1       8.672   7.722 -11.244  1.00  0.00     0.049 A 
ATOM     57  C   UNL     1       4.997  10.438  -7.975  1.00  0.00     0.074 A 
ATOM     58  C   UNL     1       9.575   8.502 -11.941  1.00  0.00     0.029 A 
ATOM     59  N   UNL     1       7.884   8.587 -10.498  1.00  0.00    -0.354 N 
ATOM     60  N   UNL     1       5.905   9.945  -8.783  1.00  0.00    -0.248 NA
ATOM     61  C   UNL     1       5.086  11.894  -7.798  1.00  0.00     0.031 C 
ATOM     62  C   UNL     1       9.370   9.836 -11.576  1.00  0.00     0.029 A 
ATOM     63  C   UNL     1       8.292   9.893 -10.706  1.00  0.00     0.049 A 
ATOM     64  H   UNL     1       7.144   8.312  -9.909  1.00  0.00     0.167 HD
ATOM     65  C   UNL     1       6.636  11.031  -9.248  1.00  0.00     0.074 A 
ATOM     66  C   UNL     1       6.065  12.210  -8.633  1.00  0.00     0.031 C 
ATOM     67  C   UNL     1       7.684  11.054 -10.109  1.00  0.00     0.037 A 
BRANCH  54  68
ATOM     68  C   UNL     1       9.469   5.480 -12.091  1.00  0.00     0.064 A 
ATOM     69  C   UNL     1       9.029   4.791 -13.232  1.00  0.00     0.173 A 
ATOM     70  C   UNL     1      10.836   5.422 -11.779  1.00  0.00     0.173 A 
ATOM     71  F   UNL     1       7.729   4.798 -13.566  1.00  0.00    -0.203 F 
ATOM     72  C   UNL     1       9.917   4.057 -14.014  1.00  0.00     0.198 A 
ATOM     73  C   UNL     1      11.727   4.715 -12.582  1.00  0.00     0.198 A 
ATOM     74  F   UNL     1      11.311   6.061 -10.699  1.00  0.00    -0.203 F 
ATOM     75  F   UNL     1       9.465   3.368 -15.071  1.00  0.00    -0.200 F 
ATOM     76  C   UNL     1      11.266   4.028 -13.694  1.00  0.00     0.200 A 
ATOM     77  F   UNL     1      13.032   4.700 -12.279  1.00  0.00    -0.200 F 
ATOM     78  F   UNL     1      12.122   3.333 -14.456  1.00  0.00    -0.200 F 
ENDBRANCH  54  68
BRANCH  55  79
ATOM     79  C   UNL     1       2.961  10.490  -6.353  1.00  0.00     0.064 A 
ATOM     80  C   UNL     1       2.069  11.423  -6.900  1.00  0.00     0.173 A 
ATOM     81  C   UNL     1       2.968  10.338  -4.959  1.00  0.00     0.173 A 
ATOM     82  F   UNL     1       2.039  11.621  -8.227  1.00  0.00    -0.203 F 
ATOM     83  C   UNL     1       1.248  12.200  -6.085  1.00  0.00     0.198 A 
ATOM     84  C   UNL     1       2.121  11.090  -4.147  1.00  0.00     0.198 A 
ATOM     85  F   UNL     1       3.800   9.457  -4.382  1.00  0.00    -0.203 F 
ATOM     86  F   UNL     1       0.455  13.131  -6.632  1.00  0.00    -0.200 F 
ATOM     87  C   UNL     1       1.272  12.030  -4.710  1.00  0.00     0.200 A 
ATOM     88  F   UNL     1       2.138  10.912  -2.819  1.00  0.00    -0.200 F 
ATOM     89  F   UNL     1       0.488  12.782  -3.926  1.00  0.00    -0.200 F 
ENDBRANCH  55  79
BRANCH  67  90
ATOM     90  C   UNL     1       8.230  12.397 -10.505  1.00  0.00     0.064 A 
ATOM     91  C   UNL     1       8.957  13.198  -9.614  1.00  0.00     0.173 A 
ATOM     92  C   UNL     1       8.069  12.857 -11.822  1.00  0.00     0.173 A 
ATOM     93  F   UNL     1       9.130  12.809  -8.342  1.00  0.00    -0.203 F 
ATOM     94  C   UNL     1       9.481  14.423 -10.020  1.00  0.00     0.198 A 
ATOM     95  C   UNL     1       8.625  14.065 -12.233  1.00  0.00     0.198 A 
ATOM     96  F   UNL     1       7.391  12.124 -12.717  1.00  0.00    -0.203 F 
ATOM     97  F   UNL     1      10.130  15.196  -9.138  1.00  0.00    -0.200 F 
ATOM     98  C   UNL     1       9.323  14.850 -11.330  1.00  0.00     0.200 A 
ATOM     99  F   UNL     1       8.489  14.464 -13.505  1.00  0.00    -0.200 F 
ATOM    100  F   UNL     1       9.841  16.023 -11.721  1.00  0.00    -0.200 F 
ENDBRANCH  67  90
ENDBRANCH  41  42
ENDBRANCH  34  36
ENDBRANCH  33  34
ENDBRANCH  32  33
ENDBRANCH  31  32
ENDBRANCH  30  31
ENDBRANCH  29  30
ENDBRANCH  28  29
ENDBRANCH  27  28
ENDBRANCH   1  27
TORSDOF 25
