REMARK SMILES O=C(Cc1ccccc1-c1ccn(C(F)F)c(=O)c1)OCCOCCOCCOCCOC(=O)c1ccc(-c2c3nc(c(-c4c(F)c(F)c(F)c(F)c4F)c4ccc([nH]4)c(-c4c(F)c(F)c(F)c(F)c4F)c4nc(c(-c5c(F)c(F)c(F)c(F)c5F)c5ccc2[nH]5)C=C4)C=C3)cc1
REMARK SMILES IDX 25 1 24 2 23 3 22 4 21 5 20 6 2 7 1 8 3 9 4 10 5 11 9 12
REMARK SMILES IDX 6 13 8 14 7 15 10 16 11 17 19 18 12 19 17 20 13 21 18 22
REMARK SMILES IDX 14 23 15 24 16 25 26 26 27 27 28 28 29 29 30 30 31 31 32 32
REMARK SMILES IDX 33 33 34 34 35 35 36 36 97 37 37 38 96 39 38 40 39 41 40 42
REMARK SMILES IDX 90 43 41 44 95 45 89 46 91 47 42 48 94 49 88 50 87 51 43 53
REMARK SMILES IDX 75 54 55 55 74 56 56 57 59 58 73 59 92 60 57 61 58 62 72 64
REMARK SMILES IDX 93 65 60 66 44 67 45 68 53 69 46 70 47 71 51 72 54 73 48 74
REMARK SMILES IDX 49 75 52 76 50 77 76 78 77 79 85 80 78 81 79 82 83 83 86 84
REMARK SMILES IDX 80 85 81 86 84 87 82 88 61 89 62 90 70 91 63 92 64 93 68 94
REMARK SMILES IDX 71 95 65 96 66 97 69 98 67 99
REMARK H PARENT 91 52 59 63
REMARK Flexibility Score: inf
ROOT
ATOM      1  C   UNL     1       2.214  -1.323   2.201  1.00  0.00     0.188 C 
ENDROOT
BRANCH   1   2
ATOM      2  C   UNL     1       2.764  -2.287   1.124  1.00  0.00     0.188 C 
BRANCH   2   3
ATOM      3  O   UNL     1       3.793  -2.005   0.174  1.00  0.00    -0.376 OA
BRANCH   3   4
ATOM      4  C   UNL     1       4.784  -1.016   0.299  1.00  0.00     0.202 C 
BRANCH   4   5
ATOM      5  C   UNL     1       4.328   0.427   0.140  1.00  0.00     0.261 C 
BRANCH   5   6
ATOM      6  O   UNL     1       2.908   0.619   0.118  1.00  0.00    -0.463 OA
BRANCH   6   7
ATOM      7  C   UNL     1       2.021   0.102  -0.762  1.00  0.00     0.310 C 
ATOM      8  O   UNL     1       0.830   0.068  -0.451  1.00  0.00    -0.252 OA
BRANCH   7   9
ATOM      9  C   UNL     1       2.482  -0.449  -2.083  1.00  0.00     0.158 C 
BRANCH   9  10
ATOM     10  C   UNL     1       3.586   0.289  -2.807  1.00  0.00    -0.029 A 
ATOM     11  C   UNL     1       4.624  -0.500  -3.341  1.00  0.00     0.005 A 
ATOM     12  C   UNL     1       3.637   1.704  -2.939  1.00  0.00    -0.014 A 
ATOM     13  C   UNL     1       5.724   0.092  -3.949  1.00  0.00     0.000 A 
ATOM     14  C   UNL     1       4.755   2.278  -3.556  1.00  0.00     0.009 A 
ATOM     15  C   UNL     1       5.790   1.478  -4.054  1.00  0.00     0.001 A 
BRANCH  12  16
ATOM     16  C   UNL     1       2.635   2.588  -2.287  1.00  0.00    -0.011 A 
ATOM     17  C   UNL     1       2.915   3.274  -1.032  1.00  0.00     0.027 A 
ATOM     18  C   UNL     1       1.371   2.578  -2.745  1.00  0.00     0.080 A 
ATOM     19  C   UNL     1       1.911   3.602  -0.209  1.00  0.00     0.095 A 
ATOM     20  C   UNL     1       0.254   3.104  -1.901  1.00  0.00     0.255 A 
ATOM     21  N   UNL     1       0.595   3.433  -0.598  1.00  0.00    -0.258 N 
ATOM     22  O   UNL     1      -0.873   3.145  -2.382  1.00  0.00    -0.269 OA
BRANCH  21  23
ATOM     23  C   UNL     1      -0.471   3.681   0.340  1.00  0.00     0.451 C 
ATOM     24  F   UNL     1      -0.955   4.938   0.190  1.00  0.00    -0.185 F 
ATOM     25  F   UNL     1      -1.504   2.817   0.195  1.00  0.00    -0.185 F 
ENDBRANCH  21  23
ENDBRANCH  12  16
ENDBRANCH   9  10
ENDBRANCH   7   9
ENDBRANCH   6   7
ENDBRANCH   5   6
ENDBRANCH   4   5
ENDBRANCH   3   4
ENDBRANCH   2   3
ENDBRANCH   1   2
BRANCH   1  26
ATOM     26  O   UNL     1       2.824  -1.274   3.484  1.00  0.00    -0.377 OA
BRANCH  26  27
ATOM     27  C   UNL     1       4.178  -0.871   3.536  1.00  0.00     0.188 C 
BRANCH  27  28
ATOM     28  C   UNL     1       5.139  -2.068   3.580  1.00  0.00     0.188 C 
BRANCH  28  29
ATOM     29  O   UNL     1       4.521  -3.285   3.199  1.00  0.00    -0.376 OA
BRANCH  29  30
ATOM     30  C   UNL     1       4.054  -4.117   4.264  1.00  0.00     0.202 C 
BRANCH  30  31
ATOM     31  C   UNL     1       3.006  -3.551   5.248  1.00  0.00     0.261 C 
BRANCH  31  32
ATOM     32  O   UNL     1       3.393  -2.374   5.987  1.00  0.00    -0.460 OA
BRANCH  32  33
ATOM     33  C   UNL     1       4.517  -2.434   6.725  1.00  0.00     0.338 C 
ATOM     34  O   UNL     1       5.210  -3.414   6.944  1.00  0.00    -0.246 OA
BRANCH  33  35
ATOM     35  C   UNL     1       4.934  -1.049   7.035  1.00  0.00     0.060 A 
ATOM     36  C   UNL     1       6.231  -0.650   6.678  1.00  0.00     0.016 A 
ATOM     37  C   UNL     1       4.070  -0.158   7.676  1.00  0.00     0.016 A 
ATOM     38  C   UNL     1       6.695   0.614   7.026  1.00  0.00     0.010 A 
ATOM     39  C   UNL     1       4.548   1.099   8.061  1.00  0.00     0.010 A 
ATOM     40  C   UNL     1       5.881   1.458   7.792  1.00  0.00    -0.014 A 
BRANCH  40  41
ATOM     41  C   UNL     1       6.548   2.511   8.594  1.00  0.00     0.031 A 
ATOM     42  C   UNL     1       6.987   2.135   9.986  1.00  0.00     0.074 A 
ATOM     43  C   UNL     1       6.837   3.721   8.088  1.00  0.00     0.049 A 
ATOM     44  N   UNL     1       7.627   2.841  10.882  1.00  0.00    -0.248 NA
ATOM     45  C   UNL     1       6.661   0.766  10.424  1.00  0.00     0.031 C 
ATOM     46  C   UNL     1       6.515   4.175   6.739  1.00  0.00     0.029 A 
ATOM     47  N   UNL     1       7.481   4.787   8.662  1.00  0.00    -0.354 N 
ATOM     48  C   UNL     1       7.769   2.006  11.984  1.00  0.00     0.074 A 
ATOM     49  C   UNL     1       7.123   0.755  11.663  1.00  0.00     0.031 C 
ATOM     50  C   UNL     1       6.964   5.435   6.587  1.00  0.00     0.029 A 
ATOM     51  C   UNL     1       7.582   5.878   7.836  1.00  0.00     0.049 A 
ATOM     52  H   UNL     1       7.837   4.772   9.580  1.00  0.00     0.167 HD
ATOM     53  C   UNL     1       8.394   2.254  13.158  1.00  0.00     0.037 A 
ATOM     54  C   UNL     1       8.110   7.095   8.075  1.00  0.00     0.037 A 
ATOM     55  C   UNL     1       9.037   3.500  13.473  1.00  0.00     0.049 A 
ATOM     56  C   UNL     1       8.741   7.372   9.419  1.00  0.00     0.074 A 
ATOM     57  C   UNL     1       9.704   3.858  14.630  1.00  0.00     0.029 A 
ATOM     58  N   UNL     1       9.081   4.597  12.625  1.00  0.00    -0.354 N 
ATOM     59  N   UNL     1       8.895   6.571  10.447  1.00  0.00    -0.248 NA
ATOM     60  C   UNL     1       9.285   8.721   9.627  1.00  0.00     0.031 C 
ATOM     61  C   UNL     1      10.103   5.193  14.504  1.00  0.00     0.029 A 
ATOM     62  C   UNL     1       9.746   5.642  13.242  1.00  0.00     0.049 A 
ATOM     63  H   UNL     1       8.697   4.627  11.719  1.00  0.00     0.167 HD
ATOM     64  C   UNL     1       9.591   7.303  11.403  1.00  0.00     0.074 A 
ATOM     65  C   UNL     1       9.835   8.609  10.827  1.00  0.00     0.031 C 
ATOM     66  C   UNL     1       9.998   6.928  12.642  1.00  0.00     0.037 A 
BRANCH  53  67
ATOM     67  C   UNL     1       8.369   1.170  14.195  1.00  0.00     0.064 A 
ATOM     68  C   UNL     1       9.086  -0.027  14.039  1.00  0.00     0.173 A 
ATOM     69  C   UNL     1       7.614   1.333  15.367  1.00  0.00     0.173 A 
ATOM     70  F   UNL     1       9.805  -0.244  12.927  1.00  0.00    -0.203 F 
ATOM     71  C   UNL     1       9.023  -1.031  15.002  1.00  0.00     0.198 A 
ATOM     72  C   UNL     1       7.581   0.341  16.343  1.00  0.00     0.198 A 
ATOM     73  F   UNL     1       6.907   2.455  15.564  1.00  0.00    -0.203 F 
ATOM     74  F   UNL     1       9.668  -2.189  14.804  1.00  0.00    -0.200 F 
ATOM     75  C   UNL     1       8.277  -0.843  16.156  1.00  0.00     0.200 A 
ATOM     76  F   UNL     1       6.868   0.529  17.462  1.00  0.00    -0.200 F 
ATOM     77  F   UNL     1       8.221  -1.808  17.084  1.00  0.00    -0.200 F 
ENDBRANCH  53  67
BRANCH  54  78
ATOM     78  C   UNL     1       8.078   8.147   7.023  1.00  0.00     0.064 A 
ATOM     79  C   UNL     1       9.259   8.616   6.430  1.00  0.00     0.173 A 
ATOM     80  C   UNL     1       6.869   8.729   6.614  1.00  0.00     0.173 A 
ATOM     81  F   UNL     1      10.443   8.108   6.804  1.00  0.00    -0.203 F 
ATOM     82  C   UNL     1       9.234   9.643   5.488  1.00  0.00     0.198 A 
ATOM     83  C   UNL     1       6.843   9.734   5.649  1.00  0.00     0.198 A 
ATOM     84  F   UNL     1       5.710   8.318   7.149  1.00  0.00    -0.203 F 
ATOM     85  F   UNL     1      10.383  10.107   4.977  1.00  0.00    -0.200 F 
ATOM     86  C   UNL     1       8.026  10.197   5.094  1.00  0.00     0.200 A 
ATOM     87  F   UNL     1       5.672  10.257   5.261  1.00  0.00    -0.200 F 
ATOM     88  F   UNL     1       8.003  11.183   4.187  1.00  0.00    -0.200 F 
ENDBRANCH  54  78
BRANCH  66  89
ATOM     89  C   UNL     1      10.812   7.915  13.431  1.00  0.00     0.064 A 
ATOM     90  C   UNL     1      10.257   9.093  13.951  1.00  0.00     0.173 A 
ATOM     91  C   UNL     1      12.166   7.655  13.695  1.00  0.00     0.173 A 
ATOM     92  F   UNL     1       8.970   9.393  13.720  1.00  0.00    -0.203 F 
ATOM     93  C   UNL     1      11.038   9.994  14.671  1.00  0.00     0.198 A 
ATOM     94  C   UNL     1      12.934   8.540  14.447  1.00  0.00     0.198 A 
ATOM     95  F   UNL     1      12.744   6.536  13.233  1.00  0.00    -0.203 F 
ATOM     96  F   UNL     1      10.502  11.144  15.103  1.00  0.00    -0.200 F 
ATOM     97  C   UNL     1      12.373   9.714  14.923  1.00  0.00     0.200 A 
ATOM     98  F   UNL     1      14.218   8.257  14.706  1.00  0.00    -0.200 F 
ATOM     99  F   UNL     1      13.121  10.581  15.619  1.00  0.00    -0.200 F 
ENDBRANCH  66  89
ENDBRANCH  40  41
ENDBRANCH  33  35
ENDBRANCH  32  33
ENDBRANCH  31  32
ENDBRANCH  30  31
ENDBRANCH  29  30
ENDBRANCH  28  29
ENDBRANCH  27  28
ENDBRANCH  26  27
ENDBRANCH   1  26
TORSDOF 23
