REMARK SMILES O=C(OCCOCCOCCOCCOC(=O)[C@@H](c1c[nH]c2cc(OCc3ccccc3)ccc12)[NH+]1CCSCC1)c1ccc(-c2c3nc(c(-c4c(F)c(F)c(F)c(F)c4F)c4ccc([nH]4)c(-c4c(F)c(F)c(F)c(F)c4F)c4nc(c(-c5c(F)c(F)c(F)c(F)c5F)c5ccc2[nH]5)C=C4)C=C3)cc1
REMARK SMILES IDX 10 1 9 2 8 3 7 4 6 5 5 6 4 7 3 8 2 9 1 10 42 11 43 12 104 13
REMARK SMILES IDX 44 14 103 15 45 16 46 17 47 18 97 19 48 20 102 21 96 22
REMARK SMILES IDX 98 23 49 24 101 25 95 26 94 27 50 29 82 30 62 31 81 32 63 33
REMARK SMILES IDX 66 34 80 35 99 36 64 37 65 38 79 40 100 41 67 42 51 43 52 44
REMARK SMILES IDX 60 45 53 46 54 47 58 48 61 49 55 50 56 51 59 52 57 53 83 54
REMARK SMILES IDX 84 55 92 56 85 57 86 58 90 59 93 60 87 61 88 62 91 63 89 64
REMARK SMILES IDX 68 65 69 66 77 67 70 68 71 69 75 70 78 71 72 72 73 73 76 74
REMARK SMILES IDX 74 75 11 76 12 77 13 78 14 79 15 80 16 81 17 82 18 83 19 84
REMARK SMILES IDX 20 85 35 86 21 87 22 88 34 89 23 91 33 92 24 93 25 94 26 95
REMARK SMILES IDX 27 96 28 97 32 98 29 99 31 100 30 101 36 102 37 103 41 104
REMARK SMILES IDX 38 106 40 107 39 108
REMARK H PARENT 98 28 66 39 21 90 36 105
REMARK Flexibility Score: inf
ROOT
ATOM      1  C   UNL     1       5.159  -2.004  -3.329  1.00  0.00     0.188 C 
ENDROOT
BRANCH   1   2
ATOM      2  O   UNL     1       3.777  -2.333  -3.227  1.00  0.00    -0.377 OA
BRANCH   2   3
ATOM      3  C   UNL     1       2.758  -1.361  -3.370  1.00  0.00     0.188 C 
BRANCH   3   4
ATOM      4  C   UNL     1       2.873  -0.263  -2.381  1.00  0.00     0.188 C 
BRANCH   4   5
ATOM      5  O   UNL     1       4.195   0.262  -2.376  1.00  0.00    -0.376 OA
BRANCH   5   6
ATOM      6  C   UNL     1       4.882   0.393  -1.143  1.00  0.00     0.202 C 
BRANCH   6   7
ATOM      7  C   UNL     1       4.149   0.064   0.139  1.00  0.00     0.261 C 
BRANCH   7   8
ATOM      8  O   UNL     1       2.717   0.351   0.324  1.00  0.00    -0.460 OA
BRANCH   8   9
ATOM      9  C   UNL     1       1.881   1.420   0.310  1.00  0.00     0.338 C 
ATOM     10  O   UNL     1       0.725   1.325   0.658  1.00  0.00    -0.246 OA
BRANCH   9  11
ATOM     11  C   UNL     1       2.421   2.719  -0.102  1.00  0.00     0.060 A 
ATOM     12  C   UNL     1       3.266   2.747  -1.171  1.00  0.00     0.016 A 
ATOM     13  C   UNL     1       2.079   3.927   0.485  1.00  0.00     0.016 A 
ATOM     14  C   UNL     1       4.167   3.741  -1.330  1.00  0.00     0.010 A 
ATOM     15  C   UNL     1       2.742   5.086   0.059  1.00  0.00     0.010 A 
ATOM     16  C   UNL     1       3.835   4.968  -0.815  1.00  0.00    -0.014 A 
BRANCH  16  17
ATOM     17  C   UNL     1       4.743   6.037  -1.224  1.00  0.00     0.031 A 
ATOM     18  C   UNL     1       5.593   6.641  -0.166  1.00  0.00     0.074 A 
ATOM     19  C   UNL     1       4.962   6.223  -2.544  1.00  0.00     0.049 A 
ATOM     20  N   UNL     1       6.409   7.648  -0.250  1.00  0.00    -0.248 NA
ATOM     21  C   UNL     1       5.532   6.019   1.171  1.00  0.00     0.031 C 
ATOM     22  C   UNL     1       4.329   5.451  -3.633  1.00  0.00     0.029 A 
ATOM     23  N   UNL     1       5.828   7.043  -3.205  1.00  0.00    -0.354 N 
ATOM     24  C   UNL     1       6.897   7.831   1.032  1.00  0.00     0.074 A 
ATOM     25  C   UNL     1       6.328   6.807   1.874  1.00  0.00     0.031 C 
ATOM     26  C   UNL     1       4.887   5.783  -4.803  1.00  0.00     0.029 A 
ATOM     27  C   UNL     1       5.756   6.918  -4.573  1.00  0.00     0.049 A 
ATOM     28  H   UNL     1       6.442   7.662  -2.749  1.00  0.00     0.167 HD
ATOM     29  C   UNL     1       7.710   8.826   1.447  1.00  0.00     0.037 A 
ATOM     30  C   UNL     1       6.257   7.718  -5.529  1.00  0.00     0.037 A 
ATOM     31  C   UNL     1       8.187   9.831   0.538  1.00  0.00     0.049 A 
ATOM     32  C   UNL     1       7.015   8.913  -5.034  1.00  0.00     0.074 A 
ATOM     33  C   UNL     1       8.866  11.000   0.803  1.00  0.00     0.029 A 
ATOM     34  N   UNL     1       8.001   9.771  -0.844  1.00  0.00    -0.354 N 
ATOM     35  N   UNL     1       7.347   9.216  -3.798  1.00  0.00    -0.248 NA
ATOM     36  C   UNL     1       7.422   9.900  -6.033  1.00  0.00     0.031 C 
ATOM     37  C   UNL     1       9.028  11.680  -0.411  1.00  0.00     0.029 A 
ATOM     38  C   UNL     1       8.520  10.901  -1.444  1.00  0.00     0.049 A 
ATOM     39  H   UNL     1       7.564   9.030  -1.322  1.00  0.00     0.167 HD
ATOM     40  C   UNL     1       8.007  10.428  -3.864  1.00  0.00     0.074 A 
ATOM     41  C   UNL     1       8.046  10.790  -5.272  1.00  0.00     0.031 C 
ATOM     42  C   UNL     1       8.526  11.182  -2.862  1.00  0.00     0.037 A 
BRANCH  29  43
ATOM     43  C   UNL     1       7.937   8.930   2.924  1.00  0.00     0.064 A 
ATOM     44  C   UNL     1       8.710   8.001   3.637  1.00  0.00     0.173 A 
ATOM     45  C   UNL     1       7.257   9.915   3.658  1.00  0.00     0.173 A 
ATOM     46  F   UNL     1       9.334   7.004   2.991  1.00  0.00    -0.203 F 
ATOM     47  C   UNL     1       8.768   8.036   5.030  1.00  0.00     0.198 A 
ATOM     48  C   UNL     1       7.338   9.962   5.047  1.00  0.00     0.198 A 
ATOM     49  F   UNL     1       6.477  10.807   3.031  1.00  0.00    -0.203 F 
ATOM     50  F   UNL     1       9.447   7.090   5.695  1.00  0.00    -0.200 F 
ATOM     51  C   UNL     1       8.084   9.017   5.733  1.00  0.00     0.200 A 
ATOM     52  F   UNL     1       6.665  10.903   5.723  1.00  0.00    -0.200 F 
ATOM     53  F   UNL     1       8.120   9.033   7.073  1.00  0.00    -0.200 F 
ENDBRANCH  29  43
BRANCH  30  54
ATOM     54  C   UNL     1       5.928   7.485  -6.962  1.00  0.00     0.064 A 
ATOM     55  C   UNL     1       6.924   7.218  -7.909  1.00  0.00     0.173 A 
ATOM     56  C   UNL     1       4.595   7.489  -7.417  1.00  0.00     0.173 A 
ATOM     57  F   UNL     1       8.214   7.218  -7.541  1.00  0.00    -0.203 F 
ATOM     58  C   UNL     1       6.604   6.966  -9.245  1.00  0.00     0.198 A 
ATOM     59  C   UNL     1       4.274   7.201  -8.742  1.00  0.00     0.198 A 
ATOM     60  F   UNL     1       3.592   7.744  -6.563  1.00  0.00    -0.203 F 
ATOM     61  F   UNL     1       7.581   6.747 -10.135  1.00  0.00    -0.200 F 
ATOM     62  C   UNL     1       5.280   6.947  -9.657  1.00  0.00     0.200 A 
ATOM     63  F   UNL     1       2.990   7.162  -9.125  1.00  0.00    -0.200 F 
ATOM     64  F   UNL     1       4.974   6.688 -10.936  1.00  0.00    -0.200 F 
ENDBRANCH  30  54
BRANCH  42  65
ATOM     65  C   UNL     1       9.220  12.435  -3.284  1.00  0.00     0.064 A 
ATOM     66  C   UNL     1       8.508  13.560  -3.718  1.00  0.00     0.173 A 
ATOM     67  C   UNL     1      10.616  12.515  -3.196  1.00  0.00     0.173 A 
ATOM     68  F   UNL     1       7.172  13.513  -3.833  1.00  0.00    -0.203 F 
ATOM     69  C   UNL     1       9.178  14.724  -4.071  1.00  0.00     0.198 A 
ATOM     70  C   UNL     1      11.278  13.691  -3.516  1.00  0.00     0.198 A 
ATOM     71  F   UNL     1      11.330  11.458  -2.779  1.00  0.00    -0.203 F 
ATOM     72  F   UNL     1       8.489  15.778  -4.529  1.00  0.00    -0.200 F 
ATOM     73  C   UNL     1      10.560  14.792  -3.960  1.00  0.00     0.200 A 
ATOM     74  F   UNL     1      12.611  13.761  -3.393  1.00  0.00    -0.200 F 
ATOM     75  F   UNL     1      11.203  15.921  -4.287  1.00  0.00    -0.200 F 
ENDBRANCH  42  65
ENDBRANCH  16  17
ENDBRANCH   9  11
ENDBRANCH   8   9
ENDBRANCH   7   8
ENDBRANCH   6   7
ENDBRANCH   5   6
ENDBRANCH   4   5
ENDBRANCH   3   4
ENDBRANCH   2   3
ENDBRANCH   1   2
BRANCH   1  76
ATOM     76  C   UNL     1       5.670  -1.194  -4.534  1.00  0.00     0.188 C 
BRANCH  76  77
ATOM     77  O   UNL     1       4.753  -0.269  -5.077  1.00  0.00    -0.376 OA
BRANCH  77  78
ATOM     78  C   UNL     1       3.941  -0.649  -6.184  1.00  0.00     0.202 C 
BRANCH  78  79
ATOM     79  C   UNL     1       3.553  -2.125  -6.527  1.00  0.00     0.261 C 
BRANCH  79  80
ATOM     80  O   UNL     1       3.219  -3.080  -5.473  1.00  0.00    -0.459 OA
BRANCH  80  81
ATOM     81  C   UNL     1       4.220  -3.943  -5.118  1.00  0.00     0.370 C 
ATOM     82  O   UNL     1       5.279  -3.960  -5.765  1.00  0.00    -0.245 OA
BRANCH  81  83
ATOM     83  C   UNL     1       3.990  -5.022  -3.999  1.00  0.00     0.328 C 
BRANCH  83  84
ATOM     84  C   UNL     1       3.848  -5.114  -2.403  1.00  0.00     0.046 A 
ATOM     85  C   UNL     1       4.602  -6.112  -1.764  1.00  0.00     0.094 A 
ATOM     86  C   UNL     1       3.207  -4.423  -1.241  1.00  0.00     0.009 A 
ATOM     87  N   UNL     1       4.503  -6.034  -0.414  1.00  0.00    -0.361 N 
ATOM     88  C   UNL     1       3.798  -4.921  -0.065  1.00  0.00     0.050 A 
ATOM     89  C   UNL     1       2.233  -3.425  -0.960  1.00  0.00     0.015 A 
ATOM     90  H   UNL     1       4.883  -6.684   0.220  1.00  0.00     0.166 HD
ATOM     91  C   UNL     1       3.645  -4.365   1.224  1.00  0.00     0.073 A 
ATOM     92  C   UNL     1       2.090  -2.820   0.339  1.00  0.00     0.047 A 
ATOM     93  C   UNL     1       2.859  -3.232   1.416  1.00  0.00     0.121 A 
BRANCH  93  94
ATOM     94  O   UNL     1       2.932  -2.724   2.686  1.00  0.00    -0.489 OA
BRANCH  94  95
ATOM     95  C   UNL     1       2.531  -1.386   3.033  1.00  0.00     0.265 C 
BRANCH  95  96
ATOM     96  C   UNL     1       3.689  -0.398   3.211  1.00  0.00    -0.011 A 
ATOM     97  C   UNL     1       5.027  -0.810   3.309  1.00  0.00     0.007 A 
ATOM     98  C   UNL     1       3.429   0.990   3.208  1.00  0.00     0.007 A 
ATOM     99  C   UNL     1       6.072   0.128   3.267  1.00  0.00     0.000 A 
ATOM    100  C   UNL     1       4.474   1.926   3.139  1.00  0.00     0.000 A 
ATOM    101  C   UNL     1       5.798   1.491   3.146  1.00  0.00     0.000 A 
ENDBRANCH  95  96
ENDBRANCH  94  95
ENDBRANCH  93  94
ENDBRANCH  83  84
BRANCH  83 102
ATOM    102  N   UNL     1       3.580  -6.230  -4.712  1.00  0.00    -0.318 N 
ATOM    103  C   UNL     1       2.171  -6.450  -4.918  1.00  0.00     0.274 C 
ATOM    104  C   UNL     1       4.492  -7.360  -4.751  1.00  0.00     0.274 C 
ATOM    105  H   UNL     1       3.788  -5.920  -5.662  1.00  0.00     0.349 HD
ATOM    106  C   UNL     1       1.910  -7.122  -6.272  1.00  0.00     0.131 C 
ATOM    107  C   UNL     1       4.443  -8.138  -6.066  1.00  0.00     0.131 C 
ATOM    108  S   UNL     1       2.763  -8.727  -6.443  1.00  0.00    -0.150 SA
ENDBRANCH  83 102
ENDBRANCH  81  83
ENDBRANCH  80  81
ENDBRANCH  79  80
ENDBRANCH  78  79
ENDBRANCH  77  78
ENDBRANCH  76  77
ENDBRANCH   1  76
TORSDOF 25
