REMARK SMILES CC1(C)CCC[C@H]1NS(=O)(=O)c1cccc(C(=O)OCCOCCOCCOCCOC(=O)c2ccc(-c3c4nc(c(-c5c(F)c(F)c(F)c(F)c5F)c5ccc([nH]5)c(-c5c(F)c(F)c(F)c(F)c5F)c5nc(c(-c6c(F)c(F)c(F)c(F)c6F)c6ccc3[nH]6)C=C5)C=C4)cc2)c1
REMARK SMILES IDX 24 1 23 2 22 3 21 4 20 5 19 6 17 7 18 8 16 9 12 10 13 11
REMARK SMILES IDX 97 12 14 13 15 14 9 15 10 16 11 17 8 18 7 20 1 21 2 22 3 23
REMARK SMILES IDX 4 24 5 25 6 26 25 27 26 28 27 29 28 30 29 31 30 32 31 33
REMARK SMILES IDX 32 34 33 35 34 36 35 37 96 38 36 39 95 40 37 41 38 42 39 43
REMARK SMILES IDX 89 44 40 45 94 46 88 47 90 48 41 49 93 50 87 51 86 52 42 54
REMARK SMILES IDX 74 55 54 56 73 57 55 58 58 59 72 60 91 61 56 62 57 63 71 65
REMARK SMILES IDX 92 66 59 67 43 68 44 69 52 70 45 71 46 72 50 73 53 74 47 75
REMARK SMILES IDX 48 76 51 77 49 78 75 79 76 80 84 81 77 82 78 83 82 84 85 85
REMARK SMILES IDX 79 86 80 87 83 88 81 89 60 90 61 91 69 92 62 93 63 94 67 95
REMARK SMILES IDX 70 96 64 97 65 98 68 99 66 100
REMARK H PARENT 8 19 90 53 58 64
REMARK Flexibility Score: inf
ROOT
ATOM      1  C   UNL     1      -0.209   8.548   1.994  1.00  0.00     0.188 C 
ENDROOT
BRANCH   1   2
ATOM      2  C   UNL     1      -0.721   9.565   0.961  1.00  0.00     0.188 C 
BRANCH   2   3
ATOM      3  O   UNL     1      -1.772  10.395   1.449  1.00  0.00    -0.376 OA
BRANCH   3   4
ATOM      4  C   UNL     1      -3.048  10.200   0.854  1.00  0.00     0.202 C 
BRANCH   4   5
ATOM      5  C   UNL     1      -3.796   8.955   1.346  1.00  0.00     0.261 C 
BRANCH   5   6
ATOM      6  O   UNL     1      -3.119   7.713   1.106  1.00  0.00    -0.460 OA
BRANCH   6   7
ATOM      7  C   UNL     1      -2.937   7.329  -0.181  1.00  0.00     0.338 C 
ATOM      8  O   UNL     1      -3.336   7.886  -1.178  1.00  0.00    -0.246 OA
BRANCH   7   9
ATOM      9  C   UNL     1      -1.942   6.227  -0.152  1.00  0.00     0.061 A 
ATOM     10  C   UNL     1      -0.971   4.307   0.940  1.00  0.00     0.083 A 
ATOM     11  C   UNL     1       0.167   4.411   0.136  1.00  0.00     0.022 A 
ATOM     12  C   UNL     1      -2.023   5.219   0.810  1.00  0.00     0.037 A 
ATOM     13  C   UNL     1       0.222   5.394  -0.855  1.00  0.00     0.002 A 
ATOM     14  C   UNL     1      -0.838   6.293  -1.011  1.00  0.00     0.016 A 
BRANCH  10  15
ATOM     15  S   UNL     1      -1.178   2.989   2.101  1.00  0.00     0.240 S 
ATOM     16  O   UNL     1      -2.573   2.610   2.086  1.00  0.00    -0.207 OA
ATOM     17  O   UNL     1      -0.528   3.391   3.328  1.00  0.00    -0.207 OA
BRANCH  15  18
ATOM     18  N   UNL     1      -0.284   1.695   1.519  1.00  0.00    -0.208 NA
ATOM     19  H   UNL     1       0.691   1.994   1.561  1.00  0.00     0.141 HD
BRANCH  18  20
ATOM     20  C   UNL     1      -0.455   1.094   0.186  1.00  0.00     0.075 C 
ATOM     21  C   UNL     1       1.920   0.116   0.711  1.00  0.00     0.013 C 
ATOM     22  C   UNL     1       0.586  -0.044  -0.037  1.00  0.00    -0.019 C 
ATOM     23  C   UNL     1       0.911  -0.171  -1.540  1.00  0.00     0.013 C 
ATOM     24  C   UNL     1      -0.169  -1.284   0.465  1.00  0.00     0.008 C 
ATOM     25  C   UNL     1      -1.597  -1.083  -0.015  1.00  0.00     0.002 C 
ATOM     26  C   UNL     1      -1.822   0.427  -0.013  1.00  0.00     0.020 C 
ENDBRANCH  18  20
ENDBRANCH  15  18
ENDBRANCH  10  15
ENDBRANCH   7   9
ENDBRANCH   6   7
ENDBRANCH   5   6
ENDBRANCH   4   5
ENDBRANCH   3   4
ENDBRANCH   2   3
ENDBRANCH   1   2
BRANCH   1  27
ATOM     27  O   UNL     1      -0.914   8.485   3.220  1.00  0.00    -0.377 OA
BRANCH  27  28
ATOM     28  C   UNL     1      -0.964   9.636   4.056  1.00  0.00     0.188 C 
BRANCH  28  29
ATOM     29  C   UNL     1      -0.132  10.908   3.775  1.00  0.00     0.188 C 
BRANCH  29  30
ATOM     30  O   UNL     1       1.081  10.695   3.062  1.00  0.00    -0.376 OA
BRANCH  30  31
ATOM     31  C   UNL     1       2.286  10.862   3.796  1.00  0.00     0.202 C 
BRANCH  31  32
ATOM     32  C   UNL     1       2.615   9.670   4.700  1.00  0.00     0.261 C 
BRANCH  32  33
ATOM     33  O   UNL     1       1.671   9.448   5.758  1.00  0.00    -0.460 OA
BRANCH  33  34
ATOM     34  C   UNL     1       1.523  10.441   6.661  1.00  0.00     0.338 C 
ATOM     35  O   UNL     1       2.129  11.495   6.714  1.00  0.00    -0.246 OA
BRANCH  34  36
ATOM     36  C   UNL     1       0.358  10.112   7.501  1.00  0.00     0.060 A 
ATOM     37  C   UNL     1      -0.698  11.029   7.582  1.00  0.00     0.016 A 
ATOM     38  C   UNL     1       0.315   8.906   8.204  1.00  0.00     0.016 A 
ATOM     39  C   UNL     1      -1.788  10.757   8.407  1.00  0.00     0.010 A 
ATOM     40  C   UNL     1      -0.768   8.643   9.042  1.00  0.00     0.010 A 
ATOM     41  C   UNL     1      -1.804   9.584   9.174  1.00  0.00    -0.014 A 
BRANCH  41  42
ATOM     42  C   UNL     1      -2.792   9.433  10.266  1.00  0.00     0.031 A 
ATOM     43  C   UNL     1      -2.383   9.842  11.653  1.00  0.00     0.074 A 
ATOM     44  C   UNL     1      -4.020   8.941  10.036  1.00  0.00     0.049 A 
ATOM     45  N   UNL     1      -3.052   9.770  12.775  1.00  0.00    -0.248 NA
ATOM     46  C   UNL     1      -1.030  10.406  11.792  1.00  0.00     0.031 C 
ATOM     47  C   UNL     1      -4.536   8.529   8.733  1.00  0.00     0.029 A 
ATOM     48  N   UNL     1      -5.053   8.693  10.905  1.00  0.00    -0.354 N 
ATOM     49  C   UNL     1      -2.201  10.273  13.750  1.00  0.00     0.074 A 
ATOM     50  C   UNL     1      -0.958  10.618  13.096  1.00  0.00     0.031 C 
ATOM     51  C   UNL     1      -5.787   8.062   8.891  1.00  0.00     0.029 A 
ATOM     52  C   UNL     1      -6.147   8.120  10.308  1.00  0.00     0.049 A 
ATOM     53  H   UNL     1      -5.012   8.906  11.866  1.00  0.00     0.167 HD
ATOM     54  C   UNL     1      -2.439  10.438  15.072  1.00  0.00     0.037 A 
ATOM     55  C   UNL     1      -7.296   7.675  10.852  1.00  0.00     0.037 A 
ATOM     56  C   UNL     1      -3.673  10.086  15.721  1.00  0.00     0.049 A 
ATOM     57  C   UNL     1      -7.517   7.816  12.336  1.00  0.00     0.074 A 
ATOM     58  C   UNL     1      -4.025  10.242  17.050  1.00  0.00     0.029 A 
ATOM     59  N   UNL     1      -4.754   9.492  15.086  1.00  0.00    -0.354 N 
ATOM     60  N   UNL     1      -6.729   8.336  13.247  1.00  0.00    -0.248 NA
ATOM     61  C   UNL     1      -8.791   7.311  12.868  1.00  0.00     0.031 C 
ATOM     62  C   UNL     1      -5.299   9.694  17.230  1.00  0.00     0.029 A 
ATOM     63  C   UNL     1      -5.763   9.247  16.003  1.00  0.00     0.049 A 
ATOM     64  H   UNL     1      -4.797   9.276  14.127  1.00  0.00     0.167 HD
ATOM     65  C   UNL     1      -7.419   8.245  14.449  1.00  0.00     0.074 A 
ATOM     66  C   UNL     1      -8.696   7.631  14.151  1.00  0.00     0.031 C 
ATOM     67  C   UNL     1      -7.031   8.638  15.688  1.00  0.00     0.037 A 
BRANCH  54  68
ATOM     68  C   UNL     1      -1.324  10.998  15.905  1.00  0.00     0.064 A 
ATOM     69  C   UNL     1      -0.926  12.339  15.800  1.00  0.00     0.173 A 
ATOM     70  C   UNL     1      -0.651  10.182  16.826  1.00  0.00     0.173 A 
ATOM     71  F   UNL     1      -1.527  13.155  14.921  1.00  0.00    -0.203 F 
ATOM     72  C   UNL     1       0.125  12.836  16.567  1.00  0.00     0.198 A 
ATOM     73  C   UNL     1       0.380  10.690  17.612  1.00  0.00     0.198 A 
ATOM     74  F   UNL     1      -0.993   8.893  16.965  1.00  0.00    -0.203 F 
ATOM     75  F   UNL     1       0.523  14.106  16.413  1.00  0.00    -0.200 F 
ATOM     76  C   UNL     1       0.773  12.012  17.476  1.00  0.00     0.200 A 
ATOM     77  F   UNL     1       0.999   9.895  18.496  1.00  0.00    -0.200 F 
ATOM     78  F   UNL     1       1.783  12.492  18.214  1.00  0.00    -0.200 F 
ENDBRANCH  54  68
BRANCH  55  79
ATOM     79  C   UNL     1      -8.328   7.047   9.987  1.00  0.00     0.064 A 
ATOM     80  C   UNL     1      -9.550   7.686   9.736  1.00  0.00     0.173 A 
ATOM     81  C   UNL     1      -8.118   5.789   9.403  1.00  0.00     0.173 A 
ATOM     82  F   UNL     1      -9.809   8.878  10.295  1.00  0.00    -0.203 F 
ATOM     83  C   UNL     1     -10.527   7.086   8.945  1.00  0.00     0.198 A 
ATOM     84  C   UNL     1      -9.086   5.201   8.591  1.00  0.00     0.198 A 
ATOM     85  F   UNL     1      -6.969   5.132   9.618  1.00  0.00    -0.203 F 
ATOM     86  F   UNL     1     -11.703   7.700   8.757  1.00  0.00    -0.200 F 
ATOM     87  C   UNL     1     -10.292   5.847   8.368  1.00  0.00     0.200 A 
ATOM     88  F   UNL     1      -8.852   4.007   8.030  1.00  0.00    -0.200 F 
ATOM     89  F   UNL     1     -11.232   5.272   7.605  1.00  0.00    -0.200 F 
ENDBRANCH  55  79
BRANCH  67  90
ATOM     90  C   UNL     1      -8.009   8.448  16.813  1.00  0.00     0.064 A 
ATOM     91  C   UNL     1      -8.300   7.177  17.330  1.00  0.00     0.173 A 
ATOM     92  C   UNL     1      -8.623   9.558  17.413  1.00  0.00     0.173 A 
ATOM     93  F   UNL     1      -7.749   6.083  16.783  1.00  0.00    -0.203 F 
ATOM     94  C   UNL     1      -9.188   7.023  18.391  1.00  0.00     0.198 A 
ATOM     95  C   UNL     1      -9.487   9.403  18.493  1.00  0.00     0.198 A 
ATOM     96  F   UNL     1      -8.371  10.796  16.962  1.00  0.00    -0.203 F 
ATOM     97  F   UNL     1      -9.486   5.796  18.841  1.00  0.00    -0.200 F 
ATOM     98  C   UNL     1      -9.774   8.136  18.977  1.00  0.00     0.200 A 
ATOM     99  F   UNL     1     -10.040  10.480  19.067  1.00  0.00    -0.200 F 
ATOM    100  F   UNL     1     -10.622   7.986  20.004  1.00  0.00    -0.200 F 
ENDBRANCH  67  90
ENDBRANCH  41  42
ENDBRANCH  34  36
ENDBRANCH  33  34
ENDBRANCH  32  33
ENDBRANCH  31  32
ENDBRANCH  30  31
ENDBRANCH  29  30
ENDBRANCH  28  29
ENDBRANCH  27  28
ENDBRANCH   1  27
TORSDOF 23
