REMARK SMILES O=C(CSc1nc(O)cc(=O)[nH]1)Nc1cccc(C(=O)OCCOCCOCCOCCOC(=O)c2ccc(-c3c4nc(c(-c5c(F)c(F)c(F)c(F)c5F)c5ccc([nH]5)c(-c5c(F)c(F)c(F)c(F)c5F)c5nc(c(-c6c(F)c(F)c(F)c(F)c6F)c6ccc3[nH]6)C=C5)C=C4)cc2)c1
REMARK SMILES IDX 25 1 24 2 23 3 22 4 21 5 19 6 20 7 18 8 14 9 15 10 99 11
REMARK SMILES IDX 16 12 17 13 13 14 1 15 2 16 3 18 4 19 5 20 6 21 12 22 7 23
REMARK SMILES IDX 10 24 9 26 11 27 8 28 26 30 27 31 28 32 29 33 30 34 31 35
REMARK SMILES IDX 32 36 33 37 34 38 35 39 36 40 37 41 98 42 38 43 97 44 39 45
REMARK SMILES IDX 40 46 41 47 91 48 42 49 96 50 90 51 92 52 43 53 95 54 89 55
REMARK SMILES IDX 88 56 44 58 76 59 56 60 75 61 57 62 60 63 74 64 93 65 58 66
REMARK SMILES IDX 59 67 73 69 94 70 61 71 45 72 46 73 54 74 47 75 48 76 52 77
REMARK SMILES IDX 55 78 49 79 50 80 53 81 51 82 77 83 78 84 86 85 79 86 80 87
REMARK SMILES IDX 84 88 87 89 81 90 82 91 85 92 83 93 62 94 63 95 71 96 64 97
REMARK SMILES IDX 65 98 69 99 72 100 66 101 67 102 70 103 68 104
REMARK H PARENT 13 17 12 25 8 29 92 57 60 68
REMARK Flexibility Score: inf
ROOT
ATOM      1  C   UNL     1      -0.487   4.883  -4.137  1.00  0.00     0.188 C 
ENDROOT
BRANCH   1   2
ATOM      2  O   UNL     1      -1.568   5.567  -3.529  1.00  0.00    -0.376 OA
BRANCH   2   3
ATOM      3  C   UNL     1      -2.694   4.829  -3.097  1.00  0.00     0.202 C 
BRANCH   3   4
ATOM      4  C   UNL     1      -2.487   3.769  -2.008  1.00  0.00     0.261 C 
BRANCH   4   5
ATOM      5  O   UNL     1      -1.350   2.918  -2.176  1.00  0.00    -0.460 OA
BRANCH   5   6
ATOM      6  C   UNL     1      -1.413   1.966  -3.135  1.00  0.00     0.338 C 
ATOM      7  O   UNL     1      -2.341   1.746  -3.890  1.00  0.00    -0.246 OA
BRANCH   6   8
ATOM      8  C   UNL     1      -0.055   1.386  -3.256  1.00  0.00     0.062 A 
ATOM      9  C   UNL     1       1.978   0.585  -2.209  1.00  0.00     0.042 A 
ATOM     10  C   UNL     1       2.583   0.522  -3.470  1.00  0.00     0.026 A 
ATOM     11  C   UNL     1       0.672   1.061  -2.107  1.00  0.00     0.041 A 
ATOM     12  C   UNL     1       1.860   0.853  -4.622  1.00  0.00     0.003 A 
ATOM     13  C   UNL     1       0.530   1.260  -4.519  1.00  0.00     0.016 A 
BRANCH   9  14
ATOM     14  N   UNL     1       2.712   0.119  -1.099  1.00  0.00    -0.325 N 
ATOM     15  O   UNL     1       1.023  -0.043   0.500  1.00  0.00    -0.274 OA
ATOM     16  C   UNL     1       2.186  -0.215   0.140  1.00  0.00     0.234 C 
ATOM     17  H   UNL     1       3.685   0.023  -1.214  1.00  0.00     0.169 HD
BRANCH  16  18
ATOM     18  C   UNL     1       3.189  -0.802   1.116  1.00  0.00     0.178 C 
BRANCH  18  19
ATOM     19  S   UNL     1       4.310  -2.033   0.393  1.00  0.00    -0.078 SA
BRANCH  19  20
ATOM     20  C   UNL     1       3.183  -3.245  -0.133  1.00  0.00     0.172 A 
ATOM     21  N   UNL     1       2.101  -2.952  -0.767  1.00  0.00    -0.189 NA
ATOM     22  N   UNL     1       3.595  -4.508   0.143  1.00  0.00    -0.301 N 
ATOM     23  C   UNL     1       1.335  -4.004  -1.174  1.00  0.00     0.218 A 
ATOM     24  C   UNL     1       2.876  -5.593  -0.257  1.00  0.00     0.255 A 
ATOM     25  H   UNL     1       4.432  -4.642   0.643  1.00  0.00     0.172 HD
ATOM     26  C   UNL     1       1.635  -5.290  -0.980  1.00  0.00     0.139 A 
ATOM     27  O   UNL     1       3.234  -6.744  -0.041  1.00  0.00    -0.269 OA
BRANCH  23  28
ATOM     28  O   UNL     1       0.184  -3.670  -1.837  1.00  0.00    -0.493 OA
ATOM     29  H   UNL     1      -0.032  -2.769  -1.976  1.00  0.00     0.295 HD
ENDBRANCH  23  28
ENDBRANCH  19  20
ENDBRANCH  18  19
ENDBRANCH  16  18
ENDBRANCH   9  14
ENDBRANCH   6   8
ENDBRANCH   5   6
ENDBRANCH   4   5
ENDBRANCH   3   4
ENDBRANCH   2   3
ENDBRANCH   1   2
BRANCH   1  30
ATOM     30  C   UNL     1       0.806   4.867  -3.290  1.00  0.00     0.188 C 
BRANCH  30  31
ATOM     31  O   UNL     1       0.812   5.404  -1.972  1.00  0.00    -0.377 OA
BRANCH  31  32
ATOM     32  C   UNL     1       0.083   6.592  -1.683  1.00  0.00     0.188 C 
BRANCH  32  33
ATOM     33  C   UNL     1      -0.061   7.710  -2.741  1.00  0.00     0.188 C 
BRANCH  33  34
ATOM     34  O   UNL     1       0.622   7.459  -3.957  1.00  0.00    -0.376 OA
BRANCH  34  35
ATOM     35  C   UNL     1       1.791   8.210  -4.226  1.00  0.00     0.202 C 
BRANCH  35  36
ATOM     36  C   UNL     1       2.972   8.039  -3.260  1.00  0.00     0.261 C 
BRANCH  36  37
ATOM     37  O   UNL     1       2.683   8.221  -1.866  1.00  0.00    -0.460 OA
BRANCH  37  38
ATOM     38  C   UNL     1       2.340   9.462  -1.465  1.00  0.00     0.338 C 
ATOM     39  O   UNL     1       2.253  10.466  -2.155  1.00  0.00    -0.246 OA
BRANCH  38  40
ATOM     40  C   UNL     1       1.900   9.374  -0.059  1.00  0.00     0.060 A 
ATOM     41  C   UNL     1       0.588   9.743   0.270  1.00  0.00     0.016 A 
ATOM     42  C   UNL     1       2.780   8.929   0.930  1.00  0.00     0.016 A 
ATOM     43  C   UNL     1       0.166   9.705   1.598  1.00  0.00     0.010 A 
ATOM     44  C   UNL     1       2.362   8.912   2.264  1.00  0.00     0.010 A 
ATOM     45  C   UNL     1       1.067   9.337   2.607  1.00  0.00    -0.014 A 
BRANCH  45  46
ATOM     46  C   UNL     1       0.716   9.596   4.024  1.00  0.00     0.031 A 
ATOM     47  C   UNL     1       1.248  10.845   4.673  1.00  0.00     0.074 A 
ATOM     48  C   UNL     1      -0.090   8.768   4.710  1.00  0.00     0.049 A 
ATOM     49  N   UNL     1       1.091  11.282   5.897  1.00  0.00    -0.248 NA
ATOM     50  C   UNL     1       2.074  11.719   3.824  1.00  0.00     0.031 C 
ATOM     51  C   UNL     1      -0.699   7.551   4.180  1.00  0.00     0.029 A 
ATOM     52  N   UNL     1      -0.532   8.831   6.008  1.00  0.00    -0.354 N 
ATOM     53  C   UNL     1       1.798  12.476   5.963  1.00  0.00     0.074 A 
ATOM     54  C   UNL     1       2.418  12.675   4.671  1.00  0.00     0.031 C 
ATOM     55  C   UNL     1      -1.434   6.976   5.148  1.00  0.00     0.029 A 
ATOM     56  C   UNL     1      -1.321   7.768   6.372  1.00  0.00     0.049 A 
ATOM     57  H   UNL     1      -0.305   9.568   6.620  1.00  0.00     0.167 HD
ATOM     58  C   UNL     1       1.909  13.336   7.003  1.00  0.00     0.037 A 
ATOM     59  C   UNL     1      -1.870   7.464   7.565  1.00  0.00     0.037 A 
ATOM     60  C   UNL     1       1.296  13.132   8.289  1.00  0.00     0.049 A 
ATOM     61  C   UNL     1      -1.668   8.400   8.731  1.00  0.00     0.074 A 
ATOM     62  C   UNL     1       1.339  13.947   9.405  1.00  0.00     0.029 A 
ATOM     63  N   UNL     1       0.534  12.024   8.632  1.00  0.00    -0.354 N 
ATOM     64  N   UNL     1      -1.021   9.540   8.780  1.00  0.00    -0.248 NA
ATOM     65  C   UNL     1      -2.283   8.008  10.007  1.00  0.00     0.031 C 
ATOM     66  C   UNL     1       0.657  13.304  10.443  1.00  0.00     0.029 A 
ATOM     67  C   UNL     1       0.125  12.122   9.953  1.00  0.00     0.049 A 
ATOM     68  H   UNL     1       0.316  11.278   8.027  1.00  0.00     0.167 HD
ATOM     69  C   UNL     1      -1.182  10.018  10.076  1.00  0.00     0.074 A 
ATOM     70  C   UNL     1      -2.001   9.051  10.775  1.00  0.00     0.031 C 
ATOM     71  C   UNL     1      -0.697  11.155  10.636  1.00  0.00     0.037 A 
BRANCH  58  72
ATOM     72  C   UNL     1       2.755  14.562   6.801  1.00  0.00     0.064 A 
ATOM     73  C   UNL     1       2.362  15.600   5.942  1.00  0.00     0.173 A 
ATOM     74  C   UNL     1       3.965  14.710   7.495  1.00  0.00     0.173 A 
ATOM     75  F   UNL     1       1.222  15.503   5.241  1.00  0.00    -0.203 F 
ATOM     76  C   UNL     1       3.162  16.726   5.765  1.00  0.00     0.198 A 
ATOM     77  C   UNL     1       4.745  15.852   7.343  1.00  0.00     0.198 A 
ATOM     78  F   UNL     1       4.388  13.749   8.330  1.00  0.00    -0.203 F 
ATOM     79  F   UNL     1       2.793  17.680   4.899  1.00  0.00    -0.200 F 
ATOM     80  C   UNL     1       4.349  16.855   6.472  1.00  0.00     0.200 A 
ATOM     81  F   UNL     1       5.884  15.981   8.037  1.00  0.00    -0.200 F 
ATOM     82  F   UNL     1       5.114  17.943   6.307  1.00  0.00    -0.200 F 
ENDBRANCH  58  72
BRANCH  59  83
ATOM     83  C   UNL     1      -2.662   6.214   7.726  1.00  0.00     0.064 A 
ATOM     84  C   UNL     1      -4.037   6.255   7.995  1.00  0.00     0.173 A 
ATOM     85  C   UNL     1      -2.052   4.953   7.649  1.00  0.00     0.173 A 
ATOM     86  F   UNL     1      -4.662   7.437   8.106  1.00  0.00    -0.203 F 
ATOM     87  C   UNL     1      -4.766   5.086   8.204  1.00  0.00     0.198 A 
ATOM     88  C   UNL     1      -2.788   3.784   7.825  1.00  0.00     0.198 A 
ATOM     89  F   UNL     1      -0.738   4.856   7.400  1.00  0.00    -0.203 F 
ATOM     90  F   UNL     1      -6.067   5.158   8.518  1.00  0.00    -0.200 F 
ATOM     91  C   UNL     1      -4.143   3.851   8.114  1.00  0.00     0.200 A 
ATOM     92  F   UNL     1      -2.183   2.592   7.726  1.00  0.00    -0.200 F 
ATOM     93  F   UNL     1      -4.844   2.727   8.316  1.00  0.00    -0.200 F 
ENDBRANCH  59  83
BRANCH  71  94
ATOM     94  C   UNL     1      -1.083  11.442  12.061  1.00  0.00     0.064 A 
ATOM     95  C   UNL     1      -0.610  10.667  13.131  1.00  0.00     0.173 A 
ATOM     96  C   UNL     1      -1.925  12.525  12.362  1.00  0.00     0.173 A 
ATOM     97  F   UNL     1       0.189   9.614  12.902  1.00  0.00    -0.203 F 
ATOM     98  C   UNL     1      -0.999  10.940  14.441  1.00  0.00     0.198 A 
ATOM     99  C   UNL     1      -2.279  12.819  13.675  1.00  0.00     0.198 A 
ATOM    100  F   UNL     1      -2.397  13.308  11.380  1.00  0.00    -0.203 F 
ATOM    101  F   UNL     1      -0.588  10.144  15.439  1.00  0.00    -0.200 F 
ATOM    102  C   UNL     1      -1.827  12.018  14.713  1.00  0.00     0.200 A 
ATOM    103  F   UNL     1      -3.064  13.873  13.937  1.00  0.00    -0.200 F 
ATOM    104  F   UNL     1      -2.198  12.280  15.973  1.00  0.00    -0.200 F 
ENDBRANCH  71  94
ENDBRANCH  45  46
ENDBRANCH  38  40
ENDBRANCH  37  38
ENDBRANCH  36  37
ENDBRANCH  35  36
ENDBRANCH  34  35
ENDBRANCH  33  34
ENDBRANCH  32  33
ENDBRANCH  31  32
ENDBRANCH  30  31
ENDBRANCH   1  30
TORSDOF 25
