REMARK SMILES CC[C@@H]1CCC[C@@H]([NH+]2CC(n3cc(C(=O)OCCOCCOCCOCCOC(=O)c4ccc(-c5c6nc(c(-c7c(F)c(F)c(F)c(F)c7F)c7ccc([nH]7)c(-c7c(F)c(F)c(F)c(F)c7F)c7nc(c(-c8c(F)c(F)c(F)c(F)c8F)c8ccc5[nH]8)C=C7)C=C6)cc4)nn3)C2)C1
REMARK SMILES IDX 21 1 20 2 19 3 18 4 17 5 16 6 14 7 15 8 13 9 11 10 12 11
REMARK SMILES IDX 95 12 94 13 10 14 8 15 9 16 96 17 7 19 3 20 4 21 97 22 5 23
REMARK SMILES IDX 6 24 2 25 1 26 22 27 23 28 24 29 25 30 26 31 27 32 28 33
REMARK SMILES IDX 29 34 30 35 31 36 32 37 93 38 33 39 92 40 34 41 35 42 36 43
REMARK SMILES IDX 86 44 37 45 91 46 85 47 87 48 38 49 90 50 84 51 83 52 39 54
REMARK SMILES IDX 71 55 51 56 70 57 52 58 55 59 69 60 88 61 53 62 54 63 68 65
REMARK SMILES IDX 89 66 56 67 40 68 41 69 49 70 42 71 43 72 47 73 50 74 44 75
REMARK SMILES IDX 45 76 48 77 46 78 72 79 73 80 81 81 74 82 75 83 79 84 82 85
REMARK SMILES IDX 76 86 77 87 80 88 78 89 57 90 58 91 66 92 59 93 60 94 64 95
REMARK SMILES IDX 67 96 61 97 62 98 65 99 63 100
REMARK H PARENT 8 18 87 53 55 64
REMARK Flexibility Score: inf
ROOT
ATOM      1  C   UNL     1       8.562   5.483   2.472  1.00  0.00     0.188 C 
ENDROOT
BRANCH   1   2
ATOM      2  C   UNL     1       9.669   5.552   1.400  1.00  0.00     0.188 C 
BRANCH   2   3
ATOM      3  O   UNL     1      10.633   6.549   1.659  1.00  0.00    -0.376 OA
BRANCH   3   4
ATOM      4  C   UNL     1      10.762   7.701   0.864  1.00  0.00     0.202 C 
BRANCH   4   5
ATOM      5  C   UNL     1       9.544   8.593   0.604  1.00  0.00     0.261 C 
BRANCH   5   6
ATOM      6  O   UNL     1       8.302   7.925   0.383  1.00  0.00    -0.458 OA
BRANCH   6   7
ATOM      7  C   UNL     1       8.154   7.296  -0.812  1.00  0.00     0.360 C 
ATOM      8  O   UNL     1       9.006   7.299  -1.705  1.00  0.00    -0.244 OA
BRANCH   7   9
ATOM      9  C   UNL     1       6.931   6.523  -0.851  1.00  0.00     0.190 A 
ATOM     10  N   UNL     1       4.973   5.682  -0.470  1.00  0.00    -0.237 N 
ATOM     11  C   UNL     1       5.801   6.689  -0.072  1.00  0.00     0.147 A 
ATOM     12  N   UNL     1       5.573   4.894  -1.379  1.00  0.00    -0.066 NA
ATOM     13  N   UNL     1       6.765   5.412  -1.638  1.00  0.00    -0.123 NA
BRANCH  10  14
ATOM     14  C   UNL     1       3.768   5.344   0.208  1.00  0.00     0.218 C 
ATOM     15  N   UNL     1       1.760   4.833  -0.231  1.00  0.00    -0.329 N 
ATOM     16  C   UNL     1       3.043   4.110  -0.336  1.00  0.00     0.296 C 
ATOM     17  C   UNL     1       2.516   6.115  -0.253  1.00  0.00     0.296 C 
ATOM     18  H   UNL     1       1.016   4.623  -0.895  1.00  0.00     0.348 HD
BRANCH  15  19
ATOM     19  C   UNL     1       0.938   4.625   0.982  1.00  0.00     0.184 C 
ATOM     20  C   UNL     1       1.009   2.061   1.310  1.00  0.00    -0.006 C 
ATOM     21  C   UNL     1       1.625   2.257   2.705  1.00  0.00     0.004 C 
ATOM     22  C   UNL     1       0.165   3.282   0.907  1.00  0.00     0.068 C 
ATOM     23  C   UNL     1       2.362   3.583   2.869  1.00  0.00     0.006 C 
ATOM     24  C   UNL     1       1.531   4.773   2.399  1.00  0.00     0.065 C 
BRANCH  20  25
ATOM     25  C   UNL     1       0.211   0.744   1.242  1.00  0.00     0.000 C 
ATOM     26  C   UNL     1       0.720  -0.145   0.111  1.00  0.00     0.004 C 
ENDBRANCH  20  25
ENDBRANCH  15  19
ENDBRANCH  10  14
ENDBRANCH   7   9
ENDBRANCH   6   7
ENDBRANCH   5   6
ENDBRANCH   4   5
ENDBRANCH   3   4
ENDBRANCH   2   3
ENDBRANCH   1   2
BRANCH   1  27
ATOM     27  O   UNL     1       8.398   6.541   3.405  1.00  0.00    -0.377 OA
BRANCH  27  28
ATOM     28  C   UNL     1       9.517   7.109   4.080  1.00  0.00     0.188 C 
BRANCH  28  29
ATOM     29  C   UNL     1      10.858   6.364   4.343  1.00  0.00     0.188 C 
BRANCH  29  30
ATOM     30  O   UNL     1      11.025   5.103   3.733  1.00  0.00    -0.376 OA
BRANCH  30  31
ATOM     31  C   UNL     1      10.857   3.855   4.364  1.00  0.00     0.202 C 
BRANCH  31  32
ATOM     32  C   UNL     1       9.766   3.596   5.389  1.00  0.00     0.261 C 
BRANCH  32  33
ATOM     33  O   UNL     1       9.228   4.756   5.979  1.00  0.00    -0.460 OA
BRANCH  33  34
ATOM     34  C   UNL     1       9.970   5.242   6.988  1.00  0.00     0.338 C 
ATOM     35  O   UNL     1      11.122   4.952   7.273  1.00  0.00    -0.246 OA
BRANCH  34  36
ATOM     36  C   UNL     1       9.103   6.086   7.806  1.00  0.00     0.060 A 
ATOM     37  C   UNL     1       9.724   6.732   8.871  1.00  0.00     0.016 A 
ATOM     38  C   UNL     1       7.721   5.845   7.759  1.00  0.00     0.016 A 
ATOM     39  C   UNL     1       9.005   6.854  10.031  1.00  0.00     0.010 A 
ATOM     40  C   UNL     1       7.012   5.946   8.924  1.00  0.00     0.010 A 
ATOM     41  C   UNL     1       7.699   6.345  10.063  1.00  0.00    -0.014 A 
BRANCH  41  42
ATOM     42  C   UNL     1       7.018   6.337  11.330  1.00  0.00     0.031 A 
ATOM     43  C   UNL     1       6.634   7.698  11.744  1.00  0.00     0.074 A 
ATOM     44  C   UNL     1       6.731   5.204  11.995  1.00  0.00     0.049 A 
ATOM     45  N   UNL     1       7.134   8.382  12.717  1.00  0.00    -0.248 NA
ATOM     46  C   UNL     1       5.756   8.466  10.846  1.00  0.00     0.031 C 
ATOM     47  C   UNL     1       6.859   3.814  11.555  1.00  0.00     0.029 A 
ATOM     48  N   UNL     1       6.173   5.082  13.227  1.00  0.00    -0.354 N 
ATOM     49  C   UNL     1       6.480   9.604  12.676  1.00  0.00     0.074 A 
ATOM     50  C   UNL     1       5.804   9.673  11.408  1.00  0.00     0.031 C 
ATOM     51  C   UNL     1       6.184   3.011  12.413  1.00  0.00     0.029 A 
ATOM     52  C   UNL     1       5.696   3.812  13.523  1.00  0.00     0.049 A 
ATOM     53  H   UNL     1       6.112   5.834  13.860  1.00  0.00     0.167 HD
ATOM     54  C   UNL     1       6.320  10.331  13.811  1.00  0.00     0.037 A 
ATOM     55  C   UNL     1       4.896   3.503  14.575  1.00  0.00     0.037 A 
ATOM     56  C   UNL     1       7.278   9.946  14.818  1.00  0.00     0.049 A 
ATOM     57  C   UNL     1       5.033   4.603  15.569  1.00  0.00     0.074 A 
ATOM     58  C   UNL     1       8.659   9.940  14.875  1.00  0.00     0.029 A 
ATOM     59  N   UNL     1       6.863   9.100  15.817  1.00  0.00    -0.354 N 
ATOM     60  N   UNL     1       6.119   4.815  16.259  1.00  0.00    -0.248 NA
ATOM     61  C   UNL     1       4.146   5.751  15.431  1.00  0.00     0.031 C 
ATOM     62  C   UNL     1       8.999   8.739  15.563  1.00  0.00     0.029 A 
ATOM     63  C   UNL     1       7.813   8.118  15.951  1.00  0.00     0.049 A 
ATOM     64  H   UNL     1       6.034   9.182  16.342  1.00  0.00     0.167 HD
ATOM     65  C   UNL     1       6.270   6.194  16.262  1.00  0.00     0.074 A 
ATOM     66  C   UNL     1       4.989   6.722  15.796  1.00  0.00     0.031 C 
ATOM     67  C   UNL     1       7.507   6.765  16.351  1.00  0.00     0.037 A 
BRANCH  54  68
ATOM     68  C   UNL     1       5.054  11.081  14.121  1.00  0.00     0.064 A 
ATOM     69  C   UNL     1       5.021  11.934  15.238  1.00  0.00     0.173 A 
ATOM     70  C   UNL     1       3.798  10.777  13.546  1.00  0.00     0.173 A 
ATOM     71  F   UNL     1       6.153  12.261  15.878  1.00  0.00    -0.203 F 
ATOM     72  C   UNL     1       3.817  12.391  15.776  1.00  0.00     0.198 A 
ATOM     73  C   UNL     1       2.604  11.282  14.050  1.00  0.00     0.198 A 
ATOM     74  F   UNL     1       3.656   9.891  12.553  1.00  0.00    -0.203 F 
ATOM     75  F   UNL     1       3.825  13.097  16.914  1.00  0.00    -0.200 F 
ATOM     76  C   UNL     1       2.610  12.063  15.184  1.00  0.00     0.200 A 
ATOM     77  F   UNL     1       1.446  10.932  13.472  1.00  0.00    -0.200 F 
ATOM     78  F   UNL     1       1.452  12.452  15.732  1.00  0.00    -0.200 F 
ENDBRANCH  54  68
BRANCH  55  79
ATOM     79  C   UNL     1       3.785   2.522  14.645  1.00  0.00     0.064 A 
ATOM     80  C   UNL     1       3.228   2.153  15.882  1.00  0.00     0.173 A 
ATOM     81  C   UNL     1       3.055   2.159  13.498  1.00  0.00     0.173 A 
ATOM     82  F   UNL     1       3.836   2.496  17.026  1.00  0.00    -0.203 F 
ATOM     83  C   UNL     1       1.996   1.494  15.965  1.00  0.00     0.198 A 
ATOM     84  C   UNL     1       1.829   1.497  13.582  1.00  0.00     0.198 A 
ATOM     85  F   UNL     1       3.464   2.529  12.276  1.00  0.00    -0.203 F 
ATOM     86  F   UNL     1       1.464   1.220  17.165  1.00  0.00    -0.200 F 
ATOM     87  C   UNL     1       1.292   1.179  14.816  1.00  0.00     0.200 A 
ATOM     88  F   UNL     1       1.139   1.232  12.464  1.00  0.00    -0.200 F 
ATOM     89  F   UNL     1       0.081   0.610  14.896  1.00  0.00    -0.200 F 
ENDBRANCH  55  79
BRANCH  67  90
ATOM     90  C   UNL     1       8.666   5.864  16.681  1.00  0.00     0.064 A 
ATOM     91  C   UNL     1       9.082   4.784  15.879  1.00  0.00     0.173 A 
ATOM     92  C   UNL     1       9.459   6.179  17.792  1.00  0.00     0.173 A 
ATOM     93  F   UNL     1       8.444   4.484  14.741  1.00  0.00    -0.203 F 
ATOM     94  C   UNL     1      10.203   4.023  16.212  1.00  0.00     0.198 A 
ATOM     95  C   UNL     1      10.600   5.443  18.099  1.00  0.00     0.198 A 
ATOM     96  F   UNL     1       9.147   7.233  18.561  1.00  0.00    -0.203 F 
ATOM     97  F   UNL     1      10.564   2.984  15.444  1.00  0.00    -0.200 F 
ATOM     98  C   UNL     1      10.963   4.357  17.320  1.00  0.00     0.200 A 
ATOM     99  F   UNL     1      11.361   5.802  19.142  1.00  0.00    -0.200 F 
ATOM    100  F   UNL     1      12.060   3.648  17.622  1.00  0.00    -0.200 F 
ENDBRANCH  67  90
ENDBRANCH  41  42
ENDBRANCH  34  36
ENDBRANCH  33  34
ENDBRANCH  32  33
ENDBRANCH  31  32
ENDBRANCH  30  31
ENDBRANCH  29  30
ENDBRANCH  28  29
ENDBRANCH  27  28
ENDBRANCH   1  27
TORSDOF 23
