REMARK SMILES CC1(C)[C@H](O)CC[C@]2(C)[C@@H]1CC[C@@]1(C)Oc3oc(C(=O)OCCOCCOCCOCCOC(=O)c4ccc(-c5c6nc(c(-c7c(F)c(F)c(F)c(F)c7F)c7ccc([nH]7)c(-c7c(F)c(F)c(F)c(F)c7F)c7nc(c(-c8c(F)c(F)c(F)c(F)c8F)c8ccc5[nH]8)C=C7)C=C6)cc4)cc(=O)c3C[C@H]21
REMARK SMILES IDX 28 1 27 2 26 3 25 4 24 5 23 6 22 7 21 8 19 9 20 10 18 11
REMARK SMILES IDX 1 12 2 13 3 14 4 15 10 16 6 17 8 18 11 19 7 20 9 21 104 22
REMARK SMILES IDX 12 23 13 24 103 25 14 26 15 27 102 28 16 29 100 30 17 31
REMARK SMILES IDX 99 32 101 33 5 34 29 36 30 37 31 38 32 39 33 40 34 41 35 42
REMARK SMILES IDX 36 43 37 44 98 45 38 46 97 47 39 48 40 49 41 50 91 51 42 52
REMARK SMILES IDX 96 53 90 54 92 55 43 56 95 57 89 58 88 59 44 61 76 62 56 63
REMARK SMILES IDX 75 64 57 65 60 66 74 67 93 68 58 69 59 70 73 72 94 73 61 74
REMARK SMILES IDX 45 75 46 76 54 77 47 78 48 79 52 80 55 81 49 82 50 83 53 84
REMARK SMILES IDX 51 85 77 86 78 87 86 88 79 89 80 90 84 91 87 92 81 93 82 94
REMARK SMILES IDX 85 95 83 96 62 97 63 98 71 99 64 100 65 101 69 102 72 103
REMARK SMILES IDX 66 104 67 105 70 106 68 107
REMARK H PARENT 5 35 92 60 60 71
REMARK Flexibility Score: inf
ROOT
ATOM      1  C   UNL     1       9.326   4.176  -8.346  1.00  0.00     0.188 C 
ENDROOT
BRANCH   1   2
ATOM      2  O   UNL     1       8.078   3.603  -7.942  1.00  0.00    -0.377 OA
BRANCH   2   3
ATOM      3  C   UNL     1       7.842   2.241  -8.262  1.00  0.00     0.188 C 
BRANCH   3   4
ATOM      4  C   UNL     1       7.489   2.011  -9.749  1.00  0.00     0.188 C 
BRANCH   4   5
ATOM      5  O   UNL     1       7.836   3.111 -10.579  1.00  0.00    -0.376 OA
BRANCH   5   6
ATOM      6  C   UNL     1       6.871   4.048 -11.024  1.00  0.00     0.202 C 
BRANCH   6   7
ATOM      7  C   UNL     1       5.904   4.712 -10.047  1.00  0.00     0.261 C 
BRANCH   7   8
ATOM      8  O   UNL     1       5.377   3.852  -9.049  1.00  0.00    -0.457 OA
BRANCH   8   9
ATOM      9  C   UNL     1       4.522   2.835  -9.331  1.00  0.00     0.374 C 
ATOM     10  O   UNL     1       4.035   2.567 -10.410  1.00  0.00    -0.242 OA
BRANCH   9  11
ATOM     11  C   UNL     1       4.419   2.043  -8.068  1.00  0.00     0.219 A 
ATOM     12  C   UNL     1       1.400  -2.401  -0.000  1.00  0.00     0.014 C 
ATOM     13  C   UNL     1       0.908  -2.095  -1.452  1.00  0.00    -0.006 C 
ATOM     14  C   UNL     1      -0.501  -2.724  -1.539  1.00  0.00     0.014 C 
ATOM     15  C   UNL     1       0.637  -0.418  -1.389  1.00  0.00     0.120 C 
ATOM     16  C   UNL     1       2.169  -2.574  -2.629  1.00  0.00     0.004 C 
ATOM     17  C   UNL     1       1.887   0.434  -1.512  1.00  0.00     0.033 C 
ATOM     18  C   UNL     1       2.331  -1.267  -3.369  1.00  0.00    -0.022 C 
ATOM     19  C   UNL     1       2.378  -3.715  -3.684  1.00  0.00     0.009 C 
ATOM     20  C   UNL     1       2.890  -0.443  -2.140  1.00  0.00     0.010 C 
ATOM     21  C   UNL     1       0.936  -1.276  -4.170  1.00  0.00     0.012 C 
ATOM     22  C   UNL     1       3.204  -0.937  -4.556  1.00  0.00     0.044 C 
ATOM     23  C   UNL     1       3.233  -3.352  -5.062  1.00  0.00     0.049 C 
ATOM     24  C   UNL     1       4.065  -1.985  -5.175  1.00  0.00     0.113 C 
ATOM     25  C   UNL     1       3.870   0.401  -4.410  1.00  0.00     0.055 C 
ATOM     26  C   UNL     1       5.431  -2.172  -4.507  1.00  0.00     0.057 C 
ATOM     27  O   UNL     1       4.298  -1.451  -6.593  1.00  0.00    -0.458 OA
ATOM     28  C   UNL     1       4.394   0.804  -5.690  1.00  0.00     0.081 A 
ATOM     29  C   UNL     1       4.459  -0.007  -6.750  1.00  0.00     0.292 A 
ATOM     30  C   UNL     1       4.580   2.251  -5.708  1.00  0.00     0.192 A 
ATOM     31  O   UNL     1       4.537   0.623  -8.028  1.00  0.00    -0.418 OA
ATOM     32  C   UNL     1       4.415   2.850  -6.995  1.00  0.00     0.107 A 
ATOM     33  O   UNL     1       4.777   2.922  -4.704  1.00  0.00    -0.289 OA
BRANCH  15  34
ATOM     34  O   UNL     1      -0.329   0.048  -2.338  1.00  0.00    -0.393 OA
ATOM     35  H   UNL     1       0.019  -0.064  -3.236  1.00  0.00     0.210 HD
ENDBRANCH  15  34
ENDBRANCH   9  11
ENDBRANCH   8   9
ENDBRANCH   7   8
ENDBRANCH   6   7
ENDBRANCH   5   6
ENDBRANCH   4   5
ENDBRANCH   3   4
ENDBRANCH   2   3
ENDBRANCH   1   2
BRANCH   1  36
ATOM     36  C   UNL     1      10.263   3.497  -9.383  1.00  0.00     0.188 C 
BRANCH  36  37
ATOM     37  O   UNL     1      10.237   2.080  -9.359  1.00  0.00    -0.376 OA
BRANCH  37  38
ATOM     38  C   UNL     1      11.346   1.370  -8.849  1.00  0.00     0.202 C 
BRANCH  38  39
ATOM     39  C   UNL     1      11.675   1.559  -7.364  1.00  0.00     0.261 C 
BRANCH  39  40
ATOM     40  O   UNL     1      11.753   2.913  -6.903  1.00  0.00    -0.460 OA
BRANCH  40  41
ATOM     41  C   UNL     1      12.792   3.663  -7.351  1.00  0.00     0.338 C 
ATOM     42  O   UNL     1      13.668   3.338  -8.103  1.00  0.00    -0.246 OA
BRANCH  41  43
ATOM     43  C   UNL     1      12.543   5.038  -6.858  1.00  0.00     0.060 A 
ATOM     44  C   UNL     1      12.212   6.049  -7.770  1.00  0.00     0.016 A 
ATOM     45  C   UNL     1      12.610   5.306  -5.490  1.00  0.00     0.016 A 
ATOM     46  C   UNL     1      11.953   7.340  -7.311  1.00  0.00     0.010 A 
ATOM     47  C   UNL     1      12.390   6.607  -5.035  1.00  0.00     0.010 A 
ATOM     48  C   UNL     1      12.088   7.632  -5.948  1.00  0.00    -0.014 A 
BRANCH  48  49
ATOM     49  C   UNL     1      12.170   9.047  -5.521  1.00  0.00     0.031 A 
ATOM     50  C   UNL     1      13.529   9.688  -5.503  1.00  0.00     0.074 A 
ATOM     51  C   UNL     1      11.077   9.754  -5.189  1.00  0.00     0.049 A 
ATOM     52  N   UNL     1      13.871  10.906  -5.177  1.00  0.00    -0.248 NA
ATOM     53  C   UNL     1      14.658   8.835  -5.914  1.00  0.00     0.031 C 
ATOM     54  C   UNL     1       9.706   9.252  -5.210  1.00  0.00     0.029 A 
ATOM     55  N   UNL     1      10.956  11.055  -4.768  1.00  0.00    -0.354 N 
ATOM     56  C   UNL     1      15.245  10.968  -5.359  1.00  0.00     0.074 A 
ATOM     57  C   UNL     1      15.685   9.658  -5.778  1.00  0.00     0.031 C 
ATOM     58  C   UNL     1       8.879  10.235  -4.812  1.00  0.00     0.029 A 
ATOM     59  C   UNL     1       9.665  11.426  -4.486  1.00  0.00     0.049 A 
ATOM     60  H   UNL     1      11.724  11.665  -4.676  1.00  0.00     0.167 HD
ATOM     61  C   UNL     1      16.066  12.032  -5.207  1.00  0.00     0.037 A 
ATOM     62  C   UNL     1       9.183  12.591  -4.009  1.00  0.00     0.037 A 
ATOM     63  C   UNL     1      15.628  13.330  -4.773  1.00  0.00     0.049 A 
ATOM     64  C   UNL     1      10.135  13.731  -3.739  1.00  0.00     0.074 A 
ATOM     65  C   UNL     1      16.381  14.475  -4.595  1.00  0.00     0.029 A 
ATOM     66  N   UNL     1      14.321  13.648  -4.435  1.00  0.00    -0.354 N 
ATOM     67  N   UNL     1      11.427  13.800  -3.956  1.00  0.00    -0.248 NA
ATOM     68  C   UNL     1       9.564  14.955  -3.157  1.00  0.00     0.031 C 
ATOM     69  C   UNL     1      15.542  15.471  -4.091  1.00  0.00     0.029 A 
ATOM     70  C   UNL     1      14.254  14.965  -4.013  1.00  0.00     0.049 A 
ATOM     71  H   UNL     1      13.556  13.031  -4.489  1.00  0.00     0.167 HD
ATOM     72  C   UNL     1      11.817  15.074  -3.560  1.00  0.00     0.074 A 
ATOM     73  C   UNL     1      10.622  15.753  -3.106  1.00  0.00     0.031 C 
ATOM     74  C   UNL     1      13.054  15.629  -3.570  1.00  0.00     0.037 A 
BRANCH  61  75
ATOM     75  C   UNL     1      17.521  11.836  -5.505  1.00  0.00     0.064 A 
ATOM     76  C   UNL     1      17.982  11.663  -6.818  1.00  0.00     0.173 A 
ATOM     77  C   UNL     1      18.471  11.877  -4.473  1.00  0.00     0.173 A 
ATOM     78  F   UNL     1      17.111  11.598  -7.837  1.00  0.00    -0.203 F 
ATOM     79  C   UNL     1      19.341  11.525  -7.087  1.00  0.00     0.198 A 
ATOM     80  C   UNL     1      19.831  11.770  -4.749  1.00  0.00     0.198 A 
ATOM     81  F   UNL     1      18.081  12.039  -3.200  1.00  0.00    -0.203 F 
ATOM     82  F   UNL     1      19.756  11.324  -8.345  1.00  0.00    -0.200 F 
ATOM     83  C   UNL     1      20.264  11.590  -6.054  1.00  0.00     0.200 A 
ATOM     84  F   UNL     1      20.723  11.845  -3.752  1.00  0.00    -0.200 F 
ATOM     85  F   UNL     1      21.573  11.476  -6.316  1.00  0.00    -0.200 F 
ENDBRANCH  61  75
BRANCH  62  86
ATOM     86  C   UNL     1       7.724  12.745  -3.762  1.00  0.00     0.064 A 
ATOM     87  C   UNL     1       6.951  13.621  -4.536  1.00  0.00     0.173 A 
ATOM     88  C   UNL     1       7.073  12.027  -2.747  1.00  0.00     0.173 A 
ATOM     89  F   UNL     1       7.531  14.353  -5.499  1.00  0.00    -0.203 F 
ATOM     90  C   UNL     1       5.586  13.778  -4.301  1.00  0.00     0.198 A 
ATOM     91  C   UNL     1       5.703  12.163  -2.532  1.00  0.00     0.198 A 
ATOM     92  F   UNL     1       7.768  11.183  -1.970  1.00  0.00    -0.203 F 
ATOM     93  F   UNL     1       4.879  14.651  -5.032  1.00  0.00    -0.200 F 
ATOM     94  C   UNL     1       4.961  13.042  -3.305  1.00  0.00     0.200 A 
ATOM     95  F   UNL     1       5.102  11.444  -1.574  1.00  0.00    -0.200 F 
ATOM     96  F   UNL     1       3.647  13.187  -3.087  1.00  0.00    -0.200 F 
ENDBRANCH  62  86
BRANCH  74  97
ATOM     97  C   UNL     1      13.200  17.042  -3.082  1.00  0.00     0.064 A 
ATOM     98  C   UNL     1      13.109  17.356  -1.718  1.00  0.00     0.173 A 
ATOM     99  C   UNL     1      13.555  18.070  -3.970  1.00  0.00     0.173 A 
ATOM    100  F   UNL     1      12.764  16.412  -0.830  1.00  0.00    -0.203 F 
ATOM    101  C   UNL     1      13.365  18.646  -1.263  1.00  0.00     0.198 A 
ATOM    102  C   UNL     1      13.841  19.351  -3.507  1.00  0.00     0.198 A 
ATOM    103  F   UNL     1      13.668  17.819  -5.284  1.00  0.00    -0.203 F 
ATOM    104  F   UNL     1      13.251  18.928   0.043  1.00  0.00    -0.200 F 
ATOM    105  C   UNL     1      13.745  19.638  -2.155  1.00  0.00     0.200 A 
ATOM    106  F   UNL     1      14.230  20.302  -4.368  1.00  0.00    -0.200 F 
ATOM    107  F   UNL     1      14.021  20.872  -1.709  1.00  0.00    -0.200 F 
ENDBRANCH  74  97
ENDBRANCH  48  49
ENDBRANCH  41  43
ENDBRANCH  40  41
ENDBRANCH  39  40
ENDBRANCH  38  39
ENDBRANCH  37  38
ENDBRANCH  36  37
ENDBRANCH   1  36
TORSDOF 21
