REMARK SMILES C[C@@](COc1ccccc1)(NC(=O)CN1CSCC1=O)C(=O)OCCOCCOCCOCCOC(=O)c1ccc(-c2c3nc(c(-c4c(F)c(F)c(F)c(F)c4F)c4ccc([nH]4)c(-c4c(F)c(F)c(F)c(F)c4F)c4nc(c(-c5c(F)c(F)c(F)c(F)c5F)c5ccc2[nH]5)C=C4)C=C3)cc1
REMARK SMILES IDX 28 1 27 2 26 3 25 4 24 5 23 6 21 7 22 8 2 9 1 10 3 11 4 12
REMARK SMILES IDX 5 13 6 14 10 15 7 16 9 17 8 18 11 19 12 20 13 22 14 23 15 24
REMARK SMILES IDX 16 25 19 26 17 27 18 28 20 29 29 30 30 31 31 32 32 33 33 34
REMARK SMILES IDX 34 35 35 36 36 37 37 38 38 39 39 40 100 41 40 42 99 43 41 44
REMARK SMILES IDX 42 45 43 46 93 47 44 48 98 49 92 50 94 51 45 52 97 53 91 54
REMARK SMILES IDX 90 55 46 57 78 58 58 59 77 60 59 61 62 62 76 63 95 64 60 65
REMARK SMILES IDX 61 66 75 68 96 69 63 70 47 71 48 72 56 73 49 74 50 75 54 76
REMARK SMILES IDX 57 77 51 78 52 79 55 80 53 81 79 82 80 83 88 84 81 85 82 86
REMARK SMILES IDX 86 87 89 88 83 89 84 90 87 91 85 92 64 93 65 94 73 95 66 96
REMARK SMILES IDX 67 97 71 98 74 99 68 100 69 101 72 102 70 103
REMARK H PARENT 11 21 94 56 62 67
REMARK Flexibility Score: inf
ROOT
ATOM      1  C   UNL     1      -0.634   1.688  -3.186  1.00  0.00     0.188 C 
ENDROOT
BRANCH   1   2
ATOM      2  C   UNL     1       0.973   1.788  -3.276  1.00  0.00     0.188 C 
BRANCH   2   3
ATOM      3  O   UNL     1       2.387   0.582  -3.965  1.00  0.00    -0.376 OA
BRANCH   3   4
ATOM      4  C   UNL     1       2.804  -0.840  -4.464  1.00  0.00     0.202 C 
BRANCH   4   5
ATOM      5  C   UNL     1       3.219  -2.035  -3.522  1.00  0.00     0.261 C 
BRANCH   5   6
ATOM      6  O   UNL     1       2.190  -2.499  -2.607  1.00  0.00    -0.461 OA
BRANCH   6   7
ATOM      7  C   UNL     1       2.365  -2.344  -1.262  1.00  0.00     0.335 C 
ATOM      8  O   UNL     1       3.447  -2.065  -0.755  1.00  0.00    -0.249 OA
BRANCH   7   9
ATOM      9  C   UNL     1       1.029  -2.368  -0.451  1.00  0.00     0.169 C 
ATOM     10  C   UNL     1       0.506  -0.993   0.000  1.00  0.00     0.051 C 
BRANCH   9  11
ATOM     11  C   UNL     1       1.413  -3.242   0.801  1.00  0.00     0.269 C 
BRANCH  11  12
ATOM     12  O   UNL     1       0.605  -3.044   1.970  1.00  0.00    -0.491 OA
BRANCH  12  13
ATOM     13  C   UNL     1       0.984  -2.113   2.908  1.00  0.00     0.119 A 
ATOM     14  C   UNL     1       0.219  -2.127   4.077  1.00  0.00     0.046 A 
ATOM     15  C   UNL     1       1.964  -1.127   2.764  1.00  0.00     0.046 A 
ATOM     16  C   UNL     1       0.377  -1.135   5.050  1.00  0.00     0.004 A 
ATOM     17  C   UNL     1       2.082  -0.098   3.707  1.00  0.00     0.004 A 
ATOM     18  C   UNL     1       1.284  -0.099   4.848  1.00  0.00     0.000 A 
ENDBRANCH  12  13
ENDBRANCH  11  12
ENDBRANCH   9  11
BRANCH   9  19
ATOM     19  N   UNL     1      -0.086  -2.932  -1.224  1.00  0.00    -0.336 N 
ATOM     20  C   UNL     1      -0.723  -2.389  -2.301  1.00  0.00     0.240 C 
ATOM     21  H   UNL     1      -0.414  -3.812  -0.927  1.00  0.00     0.164 HD
ATOM     22  O   UNL     1      -1.856  -2.840  -2.522  1.00  0.00    -0.273 OA
BRANCH  20  23
ATOM     23  C   UNL     1      -0.063  -1.460  -3.368  1.00  0.00     0.220 C 
BRANCH  23  24
ATOM     24  N   UNL     1       0.820  -0.248  -3.358  1.00  0.00    -0.323 N 
ATOM     25  C   UNL     1       2.167   0.387  -2.132  1.00  0.00     0.190 C 
ATOM     26  C   UNL     1       0.844   0.525  -5.001  1.00  0.00     0.233 C 
ATOM     27  S   UNL     1       3.338   2.210  -3.129  1.00  0.00    -0.130 SA
ATOM     28  C   UNL     1       2.183   1.969  -5.188  1.00  0.00     0.171 C 
ATOM     29  O   UNL     1       0.206   0.046  -5.952  1.00  0.00    -0.274 OA
ENDBRANCH  23  24
ENDBRANCH  20  23
ENDBRANCH   9  19
ENDBRANCH   7   9
ENDBRANCH   6   7
ENDBRANCH   5   6
ENDBRANCH   4   5
ENDBRANCH   3   4
ENDBRANCH   2   3
ENDBRANCH   1   2
BRANCH   1  30
ATOM     30  O   UNL     1      -1.163   2.234  -4.375  1.00  0.00    -0.377 OA
BRANCH  30  31
ATOM     31  C   UNL     1      -2.141   1.422  -5.013  1.00  0.00     0.188 C 
BRANCH  31  32
ATOM     32  C   UNL     1      -2.351   2.067  -6.378  1.00  0.00     0.188 C 
BRANCH  32  33
ATOM     33  O   UNL     1      -3.157   3.247  -6.433  1.00  0.00    -0.376 OA
BRANCH  33  34
ATOM     34  C   UNL     1      -3.855   3.622  -5.253  1.00  0.00     0.202 C 
BRANCH  34  35
ATOM     35  C   UNL     1      -5.166   2.860  -4.987  1.00  0.00     0.261 C 
BRANCH  35  36
ATOM     36  O   UNL     1      -5.135   1.465  -5.332  1.00  0.00    -0.460 OA
BRANCH  36  37
ATOM     37  C   UNL     1      -5.399   1.195  -6.633  1.00  0.00     0.338 C 
ATOM     38  O   UNL     1      -5.708   1.983  -7.509  1.00  0.00    -0.246 OA
BRANCH  37  39
ATOM     39  C   UNL     1      -5.191  -0.243  -6.888  1.00  0.00     0.060 A 
ATOM     40  C   UNL     1      -4.363  -0.633  -7.952  1.00  0.00     0.016 A 
ATOM     41  C   UNL     1      -5.938  -1.190  -6.186  1.00  0.00     0.016 A 
ATOM     42  C   UNL     1      -4.327  -1.965  -8.360  1.00  0.00     0.010 A 
ATOM     43  C   UNL     1      -5.944  -2.513  -6.627  1.00  0.00     0.010 A 
ATOM     44  C   UNL     1      -5.191  -2.885  -7.756  1.00  0.00    -0.014 A 
BRANCH  44  45
ATOM     45  C   UNL     1      -5.603  -4.095  -8.504  1.00  0.00     0.031 A 
ATOM     46  C   UNL     1      -6.728  -3.936  -9.495  1.00  0.00     0.074 A 
ATOM     47  C   UNL     1      -5.040  -5.295  -8.291  1.00  0.00     0.049 A 
ATOM     48  N   UNL     1      -7.405  -4.847 -10.144  1.00  0.00    -0.248 NA
ATOM     49  C   UNL     1      -7.150  -2.554  -9.788  1.00  0.00     0.031 C 
ATOM     50  C   UNL     1      -3.900  -5.555  -7.418  1.00  0.00     0.029 A 
ATOM     51  N   UNL     1      -5.380  -6.529  -8.786  1.00  0.00    -0.354 N 
ATOM     52  C   UNL     1      -8.328  -4.148 -10.912  1.00  0.00     0.074 A 
ATOM     53  C   UNL     1      -8.137  -2.742 -10.648  1.00  0.00     0.031 C 
ATOM     54  C   UNL     1      -3.650  -6.877  -7.415  1.00  0.00     0.029 A 
ATOM     55  C   UNL     1      -4.643  -7.555  -8.248  1.00  0.00     0.049 A 
ATOM     56  H   UNL     1      -6.083  -6.665  -9.461  1.00  0.00     0.167 HD
ATOM     57  C   UNL     1      -9.264  -4.636 -11.758  1.00  0.00     0.037 A 
ATOM     58  C   UNL     1      -4.793  -8.887  -8.386  1.00  0.00     0.037 A 
ATOM     59  C   UNL     1      -9.480  -6.036 -11.985  1.00  0.00     0.049 A 
ATOM     60  C   UNL     1      -5.916  -9.413  -9.248  1.00  0.00     0.074 A 
ATOM     61  C   UNL     1     -10.437  -6.648 -12.772  1.00  0.00     0.029 A 
ATOM     62  N   UNL     1      -8.722  -7.044 -11.410  1.00  0.00    -0.354 N 
ATOM     63  N   UNL     1      -6.803  -8.753  -9.954  1.00  0.00    -0.248 NA
ATOM     64  C   UNL     1      -6.067 -10.875  -9.323  1.00  0.00     0.031 C 
ATOM     65  C   UNL     1     -10.279  -8.031 -12.646  1.00  0.00     0.029 A 
ATOM     66  C   UNL     1      -9.194  -8.277 -11.819  1.00  0.00     0.049 A 
ATOM     67  H   UNL     1      -7.961  -6.902 -10.801  1.00  0.00     0.167 HD
ATOM     68  C   UNL     1      -7.585  -9.712 -10.585  1.00  0.00     0.074 A 
ATOM     69  C   UNL     1      -7.072 -11.002 -10.178  1.00  0.00     0.031 C 
ATOM     70  C   UNL     1      -8.633  -9.543 -11.428  1.00  0.00     0.037 A 
BRANCH  57  71
ATOM     71  C   UNL     1     -10.143  -3.643 -12.455  1.00  0.00     0.064 A 
ATOM     72  C   UNL     1      -9.658  -2.843 -13.500  1.00  0.00     0.173 A 
ATOM     73  C   UNL     1     -11.483  -3.489 -12.074  1.00  0.00     0.173 A 
ATOM     74  F   UNL     1      -8.376  -2.937 -13.883  1.00  0.00    -0.203 F 
ATOM     75  C   UNL     1     -10.480  -1.910 -14.127  1.00  0.00     0.198 A 
ATOM     76  C   UNL     1     -12.309  -2.572 -12.719  1.00  0.00     0.198 A 
ATOM     77  F   UNL     1     -11.992  -4.225 -11.075  1.00  0.00    -0.203 F 
ATOM     78  F   UNL     1      -9.985  -1.126 -15.094  1.00  0.00    -0.200 F 
ATOM     79  C   UNL     1     -11.806  -1.780 -13.740  1.00  0.00     0.200 A 
ATOM     80  F   UNL     1     -13.591  -2.451 -12.347  1.00  0.00    -0.200 F 
ATOM     81  F   UNL     1     -12.597  -0.884 -14.346  1.00  0.00    -0.200 F 
ENDBRANCH  57  71
BRANCH  58  82
ATOM     82  C   UNL     1      -3.888  -9.826  -7.673  1.00  0.00     0.064 A 
ATOM     83  C   UNL     1      -2.996 -10.644  -8.380  1.00  0.00     0.173 A 
ATOM     84  C   UNL     1      -3.927  -9.960  -6.277  1.00  0.00     0.173 A 
ATOM     85  F   UNL     1      -2.943 -10.576  -9.718  1.00  0.00    -0.203 F 
ATOM     86  C   UNL     1      -2.195 -11.575  -7.721  1.00  0.00     0.198 A 
ATOM     87  C   UNL     1      -3.105 -10.871  -5.617  1.00  0.00     0.198 A 
ATOM     88  F   UNL     1      -4.769  -9.208  -5.552  1.00  0.00    -0.203 F 
ATOM     89  F   UNL     1      -1.391 -12.383  -8.427  1.00  0.00    -0.200 F 
ATOM     90  C   UNL     1      -2.247 -11.685  -6.340  1.00  0.00     0.200 A 
ATOM     91  F   UNL     1      -3.154 -10.970  -4.281  1.00  0.00    -0.200 F 
ATOM     92  F   UNL     1      -1.480 -12.584  -5.707  1.00  0.00    -0.200 F 
ENDBRANCH  58  82
BRANCH  70  93
ATOM     93  C   UNL     1      -9.247 -10.771 -12.029  1.00  0.00     0.064 A 
ATOM     94  C   UNL     1     -10.088 -11.614 -11.291  1.00  0.00     0.173 A 
ATOM     95  C   UNL     1      -9.053 -11.056 -13.390  1.00  0.00     0.173 A 
ATOM     96  F   UNL     1     -10.295 -11.387  -9.985  1.00  0.00    -0.203 F 
ATOM     97  C   UNL     1     -10.703 -12.709 -11.891  1.00  0.00     0.198 A 
ATOM     98  C   UNL     1      -9.690 -12.136 -13.992  1.00  0.00     0.198 A 
ATOM     99  F   UNL     1      -8.264 -10.271 -14.139  1.00  0.00    -0.203 F 
ATOM    100  F   UNL     1     -11.481 -13.522 -11.162  1.00  0.00    -0.200 F 
ATOM    101  C   UNL     1     -10.512 -12.963 -13.242  1.00  0.00     0.200 A 
ATOM    102  F   UNL     1      -9.515 -12.371 -15.300  1.00  0.00    -0.200 F 
ATOM    103  F   UNL     1     -11.118 -14.009 -13.821  1.00  0.00    -0.200 F 
ENDBRANCH  70  93
ENDBRANCH  44  45
ENDBRANCH  37  39
ENDBRANCH  36  37
ENDBRANCH  35  36
ENDBRANCH  34  35
ENDBRANCH  33  34
ENDBRANCH  32  33
ENDBRANCH  31  32
ENDBRANCH  30  31
ENDBRANCH   1  30
TORSDOF 26
