REMARK SMILES COc1ccccc1[C@@H]1C[N@@H+](Cc2cc(C(C)=O)cn2C)C[C@H]1C(=O)OCCOCCOCCOCCOC(=O)c1ccc(-c2c3nc(c(-c4c(F)c(F)c(F)c(F)c4F)c4ccc([nH]4)c(-c4c(F)c(F)c(F)c(F)c4F)c4nc(c(-c5c(F)c(F)c(F)c(F)c5F)c5ccc2[nH]5)C=C4)C=C3)cc1
REMARK SMILES IDX 31 1 30 2 29 3 28 4 27 5 26 6 24 7 25 8 23 9 9 10 10 11
REMARK SMILES IDX 11 12 22 13 8 15 3 16 4 17 5 18 7 19 6 20 2 21 1 22 12 23
REMARK SMILES IDX 13 24 14 25 20 26 15 27 19 28 21 29 16 30 17 31 18 32 32 33
REMARK SMILES IDX 33 34 34 35 35 36 36 37 37 38 38 39 39 40 40 41 41 42 42 43
REMARK SMILES IDX 103 44 43 45 102 46 44 47 45 48 46 49 96 50 47 51 101 52
REMARK SMILES IDX 95 53 97 54 48 55 100 56 94 57 93 58 49 60 81 61 61 62 80 63
REMARK SMILES IDX 62 64 65 65 79 66 98 67 63 68 64 69 78 71 99 72 66 73 50 74
REMARK SMILES IDX 51 75 59 76 52 77 53 78 57 79 60 80 54 81 55 82 58 83 56 84
REMARK SMILES IDX 82 85 83 86 91 87 84 88 85 89 89 90 92 91 86 92 87 93 90 94
REMARK SMILES IDX 88 95 67 96 68 97 76 98 69 99 70 100 74 101 77 102 71 103
REMARK SMILES IDX 72 104 75 105 73 106
REMARK H PARENT 11 14 97 59 65 70
REMARK Flexibility Score: inf
ROOT
ATOM      1  C   UNL     1       2.202   3.194   2.676  1.00  0.00     0.188 C 
ENDROOT
BRANCH   1   2
ATOM      2  C   UNL     1       1.639   2.508   3.925  1.00  0.00     0.188 C 
BRANCH   2   3
ATOM      3  O   UNL     1       2.380   2.560   5.124  1.00  0.00    -0.376 OA
BRANCH   3   4
ATOM      4  C   UNL     1       3.589   1.833   5.252  1.00  0.00     0.202 C 
BRANCH   4   5
ATOM      5  C   UNL     1       4.014   0.689   4.315  1.00  0.00     0.261 C 
BRANCH   5   6
ATOM      6  O   UNL     1       3.753   0.837   2.904  1.00  0.00    -0.463 OA
BRANCH   6   7
ATOM      7  C   UNL     1       3.014  -0.140   2.343  1.00  0.00     0.315 C 
ATOM      8  O   UNL     1       2.597  -1.111   2.978  1.00  0.00    -0.252 OA
BRANCH   7   9
ATOM      9  C   UNL     1       2.700  -0.043   0.862  1.00  0.00     0.167 C 
ATOM     10  C   UNL     1       2.990   1.118  -0.099  1.00  0.00     0.098 C 
ATOM     11  C   UNL     1       3.545   0.440  -1.367  1.00  0.00     0.272 C 
ATOM     12  N   UNL     1       4.147  -0.817  -0.937  1.00  0.00    -0.329 N 
ATOM     13  C   UNL     1       3.365  -1.266   0.213  1.00  0.00     0.278 C 
ATOM     14  H   UNL     1       4.090  -1.508  -1.685  1.00  0.00     0.348 HD
BRANCH  10  15
ATOM     15  C   UNL     1       1.922   2.140  -0.546  1.00  0.00     0.004 A 
ATOM     16  C   UNL     1       0.532   2.022  -0.744  1.00  0.00     0.122 A 
ATOM     17  C   UNL     1      -0.212   3.184  -1.081  1.00  0.00     0.047 A 
ATOM     18  C   UNL     1       0.365   4.434  -1.272  1.00  0.00     0.004 A 
ATOM     19  C   UNL     1       2.487   3.432  -0.794  1.00  0.00     0.008 A 
ATOM     20  C   UNL     1       1.732   4.553  -1.151  1.00  0.00     0.001 A 
BRANCH  16  21
ATOM     21  O   UNL     1      -0.360   1.000  -0.657  1.00  0.00    -0.496 OA
ATOM     22  C   UNL     1      -0.073  -0.375  -0.637  1.00  0.00     0.278 C 
ENDBRANCH  16  21
ENDBRANCH  10  15
BRANCH  12  23
ATOM     23  C   UNL     1       5.604  -0.811  -0.773  1.00  0.00     0.317 C 
BRANCH  23  24
ATOM     24  C   UNL     1       6.189   0.289   0.060  1.00  0.00     0.073 A 
ATOM     25  C   UNL     1       6.598   1.554  -0.343  1.00  0.00     0.041 A 
ATOM     26  N   UNL     1       6.502   0.186   1.398  1.00  0.00    -0.349 N 
ATOM     27  C   UNL     1       7.028   2.279   0.799  1.00  0.00     0.035 A 
ATOM     28  C   UNL     1       6.917   1.406   1.863  1.00  0.00     0.097 A 
ATOM     29  C   UNL     1       6.471  -1.006   2.215  1.00  0.00     0.149 C 
BRANCH  27  30
ATOM     30  C   UNL     1       7.492   3.655   0.925  1.00  0.00     0.161 C 
ATOM     31  C   UNL     1       8.053   4.364  -0.282  1.00  0.00     0.093 C 
ATOM     32  O   UNL     1       7.467   4.226   2.015  1.00  0.00    -0.294 OA
ENDBRANCH  27  30
ENDBRANCH  23  24
ENDBRANCH  12  23
ENDBRANCH   7   9
ENDBRANCH   6   7
ENDBRANCH   5   6
ENDBRANCH   4   5
ENDBRANCH   3   4
ENDBRANCH   2   3
ENDBRANCH   1   2
BRANCH   1  33
ATOM     33  O   UNL     1       3.596   3.404   2.569  1.00  0.00    -0.377 OA
BRANCH  33  34
ATOM     34  C   UNL     1       4.238   4.400   3.351  1.00  0.00     0.188 C 
BRANCH  34  35
ATOM     35  C   UNL     1       3.428   5.310   4.292  1.00  0.00     0.188 C 
BRANCH  35  36
ATOM     36  O   UNL     1       2.098   5.565   3.877  1.00  0.00    -0.376 OA
BRANCH  36  37
ATOM     37  C   UNL     1       1.836   6.728   3.107  1.00  0.00     0.202 C 
BRANCH  37  38
ATOM     38  C   UNL     1       2.581   6.903   1.775  1.00  0.00     0.261 C 
BRANCH  38  39
ATOM     39  O   UNL     1       4.015   6.960   1.830  1.00  0.00    -0.460 OA
BRANCH  39  40
ATOM     40  C   UNL     1       4.588   7.906   2.598  1.00  0.00     0.338 C 
ATOM     41  O   UNL     1       4.030   8.788   3.230  1.00  0.00    -0.246 OA
BRANCH  40  42
ATOM     42  C   UNL     1       6.030   7.607   2.675  1.00  0.00     0.060 A 
ATOM     43  C   UNL     1       6.599   7.286   3.915  1.00  0.00     0.016 A 
ATOM     44  C   UNL     1       6.819   7.659   1.525  1.00  0.00     0.016 A 
ATOM     45  C   UNL     1       7.971   7.047   4.013  1.00  0.00     0.010 A 
ATOM     46  C   UNL     1       8.195   7.437   1.628  1.00  0.00     0.010 A 
ATOM     47  C   UNL     1       8.782   7.161   2.878  1.00  0.00    -0.014 A 
BRANCH  47  48
ATOM     48  C   UNL     1      10.258   7.213   3.022  1.00  0.00     0.031 A 
ATOM     49  C   UNL     1      10.916   8.564   2.990  1.00  0.00     0.074 A 
ATOM     50  C   UNL     1      11.001   6.104   3.188  1.00  0.00     0.049 A 
ATOM     51  N   UNL     1      12.186   8.876   3.036  1.00  0.00    -0.248 NA
ATOM     52  C   UNL     1      10.015   9.725   2.889  1.00  0.00     0.031 C 
ATOM     53  C   UNL     1      10.481   4.746   3.299  1.00  0.00     0.029 A 
ATOM     54  N   UNL     1      12.363   5.949   3.278  1.00  0.00    -0.354 N 
ATOM     55  C   UNL     1      12.232  10.262   2.966  1.00  0.00     0.074 A 
ATOM     56  C   UNL     1      10.872  10.731   2.829  1.00  0.00     0.031 C 
ATOM     57  C   UNL     1      11.510   3.887   3.404  1.00  0.00     0.029 A 
ATOM     58  C   UNL     1      12.763   4.637   3.358  1.00  0.00     0.049 A 
ATOM     59  H   UNL     1      12.993   6.705   3.286  1.00  0.00     0.167 HD
ATOM     60  C   UNL     1      13.314  11.072   3.027  1.00  0.00     0.037 A 
ATOM     61  C   UNL     1      14.001   4.104   3.377  1.00  0.00     0.037 A 
ATOM     62  C   UNL     1      14.665  10.600   3.170  1.00  0.00     0.049 A 
ATOM     63  C   UNL     1      15.195   5.023   3.365  1.00  0.00     0.074 A 
ATOM     64  C   UNL     1      15.829  11.340   3.273  1.00  0.00     0.029 A 
ATOM     65  N   UNL     1      15.033   9.263   3.218  1.00  0.00    -0.354 N 
ATOM     66  N   UNL     1      15.232   6.333   3.335  1.00  0.00    -0.248 NA
ATOM     67  C   UNL     1      16.521   4.389   3.406  1.00  0.00     0.031 C 
ATOM     68  C   UNL     1      16.907  10.450   3.314  1.00  0.00     0.029 A 
ATOM     69  C   UNL     1      16.411   9.156   3.312  1.00  0.00     0.049 A 
ATOM     70  H   UNL     1      14.407   8.503   3.190  1.00  0.00     0.167 HD
ATOM     71  C   UNL     1      16.576   6.681   3.393  1.00  0.00     0.074 A 
ATOM     72  C   UNL     1      17.323   5.443   3.468  1.00  0.00     0.031 C 
ATOM     73  C   UNL     1      17.140   7.915   3.391  1.00  0.00     0.037 A 
BRANCH  60  74
ATOM     74  C   UNL     1      13.081  12.550   2.906  1.00  0.00     0.064 A 
ATOM     75  C   UNL     1      12.445  13.287   3.917  1.00  0.00     0.173 A 
ATOM     76  C   UNL     1      13.526  13.243   1.770  1.00  0.00     0.173 A 
ATOM     77  F   UNL     1      11.984  12.670   5.015  1.00  0.00    -0.203 F 
ATOM     78  C   UNL     1      12.239  14.658   3.782  1.00  0.00     0.198 A 
ATOM     79  C   UNL     1      13.349  14.618   1.654  1.00  0.00     0.198 A 
ATOM     80  F   UNL     1      14.140  12.586   0.774  1.00  0.00    -0.203 F 
ATOM     81  F   UNL     1      11.582  15.332   4.736  1.00  0.00    -0.200 F 
ATOM     82  C   UNL     1      12.699  15.323   2.656  1.00  0.00     0.200 A 
ATOM     83  F   UNL     1      13.806  15.261   0.571  1.00  0.00    -0.200 F 
ATOM     84  F   UNL     1      12.510  16.644   2.532  1.00  0.00    -0.200 F 
ENDBRANCH  60  74
BRANCH  61  85
ATOM     85  C   UNL     1      14.175   2.627   3.418  1.00  0.00     0.064 A 
ATOM     86  C   UNL     1      14.705   1.990   4.549  1.00  0.00     0.173 A 
ATOM     87  C   UNL     1      13.828   1.823   2.322  1.00  0.00     0.173 A 
ATOM     88  F   UNL     1      15.076   2.715   5.614  1.00  0.00    -0.203 F 
ATOM     89  C   UNL     1      14.899   0.610   4.574  1.00  0.00     0.198 A 
ATOM     90  C   UNL     1      13.995   0.440   2.359  1.00  0.00     0.198 A 
ATOM     91  F   UNL     1      13.320   2.381   1.213  1.00  0.00    -0.203 F 
ATOM     92  F   UNL     1      15.453   0.033   5.650  1.00  0.00    -0.200 F 
ATOM     93  C   UNL     1      14.538  -0.165   3.482  1.00  0.00     0.200 A 
ATOM     94  F   UNL     1      13.634  -0.305   1.306  1.00  0.00    -0.200 F 
ATOM     95  F   UNL     1      14.721  -1.492   3.509  1.00  0.00    -0.200 F 
ENDBRANCH  61  85
BRANCH  73  96
ATOM     96  C   UNL     1      18.635   7.995   3.514  1.00  0.00     0.064 A 
ATOM     97  C   UNL     1      19.486   7.592   2.475  1.00  0.00     0.173 A 
ATOM     98  C   UNL     1      19.221   8.532   4.671  1.00  0.00     0.173 A 
ATOM     99  F   UNL     1      18.978   7.061   1.352  1.00  0.00    -0.203 F 
ATOM    100  C   UNL     1      20.869   7.696   2.602  1.00  0.00     0.198 A 
ATOM    101  C   UNL     1      20.602   8.668   4.779  1.00  0.00     0.198 A 
ATOM    102  F   UNL     1      18.453   8.943   5.691  1.00  0.00    -0.203 F 
ATOM    103  F   UNL     1      21.665   7.255   1.617  1.00  0.00    -0.200 F 
ATOM    104  C   UNL     1      21.425   8.242   3.749  1.00  0.00     0.200 A 
ATOM    105  F   UNL     1      21.136   9.215   5.881  1.00  0.00    -0.200 F 
ATOM    106  F   UNL     1      22.756   8.351   3.864  1.00  0.00    -0.200 F 
ENDBRANCH  73  96
ENDBRANCH  47  48
ENDBRANCH  40  42
ENDBRANCH  39  40
ENDBRANCH  38  39
ENDBRANCH  37  38
ENDBRANCH  36  37
ENDBRANCH  35  36
ENDBRANCH  34  35
ENDBRANCH  33  34
ENDBRANCH   1  33
TORSDOF 25
