REMARK SMILES O=C(OCCOCCOCCOCCOC(=O)c1ccc(-c2c3nc(c(-c4c(F)c(F)c(F)c(F)c4F)c4ccc([nH]4)c(-c4c(F)c(F)c(F)c(F)c4F)c4nc(c(-c5c(F)c(F)c(F)c(F)c5F)c5ccc2[nH]5)C=C4)C=C3)cc1)c1ccc(NC(=O)[C@H]2CCS(=O)(=O)C2)cc1
REMARK SMILES IDX 9 1 8 2 7 3 6 4 5 5 4 6 3 7 2 8 1 9 81 10 82 11 96 12 83 13
REMARK SMILES IDX 95 14 84 15 85 16 86 17 87 19 88 20 89 21 94 22 90 23 91 24
REMARK SMILES IDX 92 25 93 26 10 27 11 28 12 29 13 30 14 31 15 32 16 33 17 34
REMARK SMILES IDX 18 35 19 36 80 37 20 38 79 39 21 40 22 41 23 42 73 43 24 44
REMARK SMILES IDX 78 45 72 46 74 47 25 48 77 49 71 50 70 51 26 53 58 54 38 55
REMARK SMILES IDX 57 56 39 57 42 58 56 59 75 60 40 61 41 62 55 64 76 65 43 66
REMARK SMILES IDX 27 67 28 68 36 69 29 70 30 71 34 72 37 73 31 74 32 75 35 76
REMARK SMILES IDX 33 77 59 78 60 79 68 80 61 81 62 82 66 83 69 84 63 85 64 86
REMARK SMILES IDX 67 87 65 88 44 89 45 90 53 91 46 92 47 93 51 94 54 95 48 96
REMARK SMILES IDX 49 97 52 98 50 99
REMARK H PARENT 85 18 74 52 42 63
REMARK Flexibility Score: inf
ROOT
ATOM      1  O   UNL     1      -0.141   4.144  -6.451  1.00  0.00    -0.377 OA
ENDROOT
BRANCH   1   2
ATOM      2  C   UNL     1       0.651   5.036  -5.662  1.00  0.00     0.188 C 
BRANCH   2   3
ATOM      3  C   UNL     1       0.811   4.653  -4.187  1.00  0.00     0.188 C 
BRANCH   3   4
ATOM      4  O   UNL     1       1.484   3.408  -4.080  1.00  0.00    -0.376 OA
BRANCH   4   5
ATOM      5  C   UNL     1       1.267   2.560  -2.968  1.00  0.00     0.202 C 
BRANCH   5   6
ATOM      6  C   UNL     1       1.246   3.193  -1.577  1.00  0.00     0.261 C 
BRANCH   6   7
ATOM      7  O   UNL     1       1.590   4.597  -1.492  1.00  0.00    -0.460 OA
BRANCH   7   8
ATOM      8  C   UNL     1       2.796   5.206  -1.361  1.00  0.00     0.338 C 
ATOM      9  O   UNL     1       2.861   6.385  -1.030  1.00  0.00    -0.246 OA
BRANCH   8  10
ATOM     10  C   UNL     1       4.054   4.486  -1.658  1.00  0.00     0.060 A 
ATOM     11  C   UNL     1       4.149   3.692  -2.775  1.00  0.00     0.018 A 
ATOM     12  C   UNL     1       5.237   4.724  -0.961  1.00  0.00     0.018 A 
ATOM     13  C   UNL     1       5.276   2.952  -3.079  1.00  0.00     0.027 A 
ATOM     14  C   UNL     1       6.433   4.063  -1.337  1.00  0.00     0.027 A 
ATOM     15  C   UNL     1       6.454   3.124  -2.384  1.00  0.00     0.041 A 
BRANCH  15  16
ATOM     16  N   UNL     1       7.668   2.485  -2.725  1.00  0.00    -0.326 N 
ATOM     17  C   UNL     1       8.004   1.513  -3.642  1.00  0.00     0.228 C 
ATOM     18  H   UNL     1       8.434   2.800  -2.194  1.00  0.00     0.169 HD
ATOM     19  O   UNL     1       9.197   1.245  -3.799  1.00  0.00    -0.274 OA
BRANCH  17  20
ATOM     20  C   UNL     1       6.945   0.740  -4.401  1.00  0.00     0.095 C 
ATOM     21  C   UNL     1       7.377  -0.130  -5.588  1.00  0.00     0.030 C 
ATOM     22  C   UNL     1       6.251  -0.240  -3.457  1.00  0.00     0.150 C 
ATOM     23  C   UNL     1       6.097  -0.860  -6.026  1.00  0.00     0.138 C 
ATOM     24  S   UNL     1       5.188  -1.187  -4.518  1.00  0.00     0.151 S 
ATOM     25  O   UNL     1       3.908  -0.505  -4.579  1.00  0.00    -0.229 OA
ATOM     26  O   UNL     1       5.302  -2.584  -4.171  1.00  0.00    -0.229 OA
ENDBRANCH  17  20
ENDBRANCH  15  16
ENDBRANCH   8  10
ENDBRANCH   7   8
ENDBRANCH   6   7
ENDBRANCH   5   6
ENDBRANCH   4   5
ENDBRANCH   3   4
ENDBRANCH   2   3
ENDBRANCH   1   2
BRANCH   1  27
ATOM     27  C   UNL     1       0.093   2.748  -6.262  1.00  0.00     0.188 C 
BRANCH  27  28
ATOM     28  C   UNL     1       1.496   2.177  -6.601  1.00  0.00     0.188 C 
BRANCH  28  29
ATOM     29  O   UNL     1       2.520   3.158  -6.660  1.00  0.00    -0.376 OA
BRANCH  29  30
ATOM     30  C   UNL     1       2.996   3.538  -7.943  1.00  0.00     0.202 C 
BRANCH  30  31
ATOM     31  C   UNL     1       2.026   3.970  -9.066  1.00  0.00     0.261 C 
BRANCH  31  32
ATOM     32  O   UNL     1       0.731   3.356  -9.091  1.00  0.00    -0.460 OA
BRANCH  32  33
ATOM     33  C   UNL     1       0.613   2.157  -9.708  1.00  0.00     0.338 C 
ATOM     34  O   UNL     1       1.485   1.546 -10.287  1.00  0.00    -0.246 OA
BRANCH  33  35
ATOM     35  C   UNL     1      -0.708   1.583  -9.335  1.00  0.00     0.060 A 
ATOM     36  C   UNL     1      -0.720   0.310  -8.747  1.00  0.00     0.016 A 
ATOM     37  C   UNL     1      -1.900   2.306  -9.462  1.00  0.00     0.016 A 
ATOM     38  C   UNL     1      -1.921  -0.256  -8.320  1.00  0.00     0.010 A 
ATOM     39  C   UNL     1      -3.111   1.725  -9.058  1.00  0.00     0.010 A 
ATOM     40  C   UNL     1      -3.130   0.425  -8.522  1.00  0.00    -0.014 A 
BRANCH  40  41
ATOM     41  C   UNL     1      -4.396  -0.343  -8.396  1.00  0.00     0.031 A 
ATOM     42  C   UNL     1      -4.974  -0.948  -9.648  1.00  0.00     0.074 A 
ATOM     43  C   UNL     1      -4.966  -0.591  -7.203  1.00  0.00     0.049 A 
ATOM     44  N   UNL     1      -6.016  -1.726  -9.798  1.00  0.00    -0.248 NA
ATOM     45  C   UNL     1      -4.271  -0.638 -10.904  1.00  0.00     0.031 C 
ATOM     46  C   UNL     1      -4.489  -0.094  -5.916  1.00  0.00     0.029 A 
ATOM     47  N   UNL     1      -6.074  -1.340  -6.886  1.00  0.00    -0.354 N 
ATOM     48  C   UNL     1      -6.079  -2.011 -11.156  1.00  0.00     0.074 A 
ATOM     49  C   UNL     1      -5.008  -1.280 -11.796  1.00  0.00     0.031 C 
ATOM     50  C   UNL     1      -5.303  -0.547  -4.945  1.00  0.00     0.029 A 
ATOM     51  C   UNL     1      -6.369  -1.350  -5.544  1.00  0.00     0.049 A 
ATOM     52  H   UNL     1      -6.607  -1.824  -7.557  1.00  0.00     0.167 HD
ATOM     53  C   UNL     1      -6.937  -2.826 -11.812  1.00  0.00     0.037 A 
ATOM     54  C   UNL     1      -7.389  -1.933  -4.882  1.00  0.00     0.037 A 
ATOM     55  C   UNL     1      -8.016  -3.539 -11.182  1.00  0.00     0.049 A 
ATOM     56  C   UNL     1      -8.383  -2.773  -5.649  1.00  0.00     0.074 A 
ATOM     57  C   UNL     1      -8.951  -4.378 -11.761  1.00  0.00     0.029 A 
ATOM     58  N   UNL     1      -8.309  -3.488  -9.827  1.00  0.00    -0.354 N 
ATOM     59  N   UNL     1      -8.420  -3.059  -6.928  1.00  0.00    -0.248 NA
ATOM     60  C   UNL     1      -9.470  -3.386  -4.871  1.00  0.00     0.031 C 
ATOM     61  C   UNL     1      -9.844  -4.790 -10.766  1.00  0.00     0.029 A 
ATOM     62  C   UNL     1      -9.425  -4.264  -9.555  1.00  0.00     0.049 A 
ATOM     63  H   UNL     1      -7.800  -2.976  -9.158  1.00  0.00     0.167 HD
ATOM     64  C   UNL     1      -9.511  -3.902  -7.104  1.00  0.00     0.074 A 
ATOM     65  C   UNL     1     -10.092  -4.105  -5.794  1.00  0.00     0.031 C 
ATOM     66  C   UNL     1      -9.994  -4.455  -8.245  1.00  0.00     0.037 A 
BRANCH  53  67
ATOM     67  C   UNL     1      -6.751  -2.974 -13.295  1.00  0.00     0.064 A 
ATOM     68  C   UNL     1      -5.646  -3.651 -13.835  1.00  0.00     0.173 A 
ATOM     69  C   UNL     1      -7.701  -2.456 -14.187  1.00  0.00     0.173 A 
ATOM     70  F   UNL     1      -4.698  -4.149 -13.026  1.00  0.00    -0.203 F 
ATOM     71  C   UNL     1      -5.489  -3.783 -15.212  1.00  0.00     0.198 A 
ATOM     72  C   UNL     1      -7.558  -2.619 -15.562  1.00  0.00     0.198 A 
ATOM     73  F   UNL     1      -8.776  -1.798 -13.725  1.00  0.00    -0.203 F 
ATOM     74  F   UNL     1      -4.400  -4.389 -15.705  1.00  0.00    -0.200 F 
ATOM     75  C   UNL     1      -6.449  -3.275 -16.074  1.00  0.00     0.200 A 
ATOM     76  F   UNL     1      -8.493  -2.139 -16.393  1.00  0.00    -0.200 F 
ATOM     77  F   UNL     1      -6.301  -3.412 -17.399  1.00  0.00    -0.200 F 
ENDBRANCH  53  67
BRANCH  54  78
ATOM     78  C   UNL     1      -7.544  -1.731  -3.414  1.00  0.00     0.064 A 
ATOM     79  C   UNL     1      -7.431  -2.796  -2.509  1.00  0.00     0.173 A 
ATOM     80  C   UNL     1      -7.860  -0.468  -2.891  1.00  0.00     0.173 A 
ATOM     81  F   UNL     1      -7.160  -4.031  -2.958  1.00  0.00    -0.203 F 
ATOM     82  C   UNL     1      -7.657  -2.612  -1.145  1.00  0.00     0.198 A 
ATOM     83  C   UNL     1      -8.050  -0.277  -1.524  1.00  0.00     0.198 A 
ATOM     84  F   UNL     1      -7.986   0.586  -3.711  1.00  0.00    -0.203 F 
ATOM     85  F   UNL     1      -7.607  -3.661  -0.313  1.00  0.00    -0.200 F 
ATOM     86  C   UNL     1      -7.960  -1.352  -0.653  1.00  0.00     0.200 A 
ATOM     87  F   UNL     1      -8.329   0.945  -1.053  1.00  0.00    -0.200 F 
ATOM     88  F   UNL     1      -8.178  -1.175   0.657  1.00  0.00    -0.200 F 
ENDBRANCH  54  78
BRANCH  66  89
ATOM     89  C   UNL     1     -11.189  -5.362  -8.120  1.00  0.00     0.064 A 
ATOM     90  C   UNL     1     -12.454  -4.875  -7.755  1.00  0.00     0.173 A 
ATOM     91  C   UNL     1     -11.069  -6.737  -8.377  1.00  0.00     0.173 A 
ATOM     92  F   UNL     1     -12.625  -3.570  -7.489  1.00  0.00    -0.203 F 
ATOM     93  C   UNL     1     -13.538  -5.736  -7.604  1.00  0.00     0.198 A 
ATOM     94  C   UNL     1     -12.164  -7.588  -8.264  1.00  0.00     0.198 A 
ATOM     95  F   UNL     1      -9.887  -7.256  -8.744  1.00  0.00    -0.203 F 
ATOM     96  F   UNL     1     -14.717  -5.257  -7.182  1.00  0.00    -0.200 F 
ATOM     97  C   UNL     1     -13.394  -7.090  -7.863  1.00  0.00     0.200 A 
ATOM     98  F   UNL     1     -12.027  -8.893  -8.535  1.00  0.00    -0.200 F 
ATOM     99  F   UNL     1     -14.438  -7.917  -7.715  1.00  0.00    -0.200 F 
ENDBRANCH  66  89
ENDBRANCH  40  41
ENDBRANCH  33  35
ENDBRANCH  32  33
ENDBRANCH  31  32
ENDBRANCH  30  31
ENDBRANCH  29  30
ENDBRANCH  28  29
ENDBRANCH  27  28
ENDBRANCH   1  27
TORSDOF 22
