REMARK SMILES O=C(OCCOCCOCCOCCOC(=O)[C@@H](NC(=O)[C@H]1CC[C@@H]2CCCC[C@H]2[NH2+]1)C1CC1)c1ccc(-c2c3nc(c(-c4c(F)c(F)c(F)c(F)c4F)c4ccc([nH]4)c(-c4c(F)c(F)c(F)c(F)c4F)c4nc(c(-c5c(F)c(F)c(F)c(F)c5F)c5ccc2[nH]5)C=C4)C=C3)cc1
REMARK SMILES IDX 9 1 8 2 7 3 6 4 5 5 4 6 3 7 2 8 1 9 35 10 36 11 97 12 37 13
REMARK SMILES IDX 96 14 38 15 39 16 40 17 90 18 41 19 95 20 89 21 91 22 42 23
REMARK SMILES IDX 94 24 88 25 87 26 43 28 75 29 55 30 74 31 56 32 59 33 73 34
REMARK SMILES IDX 92 35 57 36 58 37 72 39 93 40 60 41 44 42 45 43 53 44 46 45
REMARK SMILES IDX 47 46 51 47 54 48 48 49 49 50 52 51 50 52 76 53 77 54 85 55
REMARK SMILES IDX 78 56 79 57 83 58 86 59 80 60 81 61 84 62 82 63 61 64 62 65
REMARK SMILES IDX 70 66 63 67 64 68 68 69 71 70 65 71 66 72 69 73 67 74 10 75
REMARK SMILES IDX 11 76 12 77 13 78 14 79 15 80 16 81 17 82 18 83 19 84 20 85
REMARK SMILES IDX 21 87 22 88 23 89 31 90 24 91 30 92 25 95 29 96 26 97 28 98
REMARK SMILES IDX 27 99 32 100 33 101 34 102
REMARK H PARENT 91 27 59 38 19 86 31 93 31 94
REMARK Flexibility Score: inf
ROOT
ATOM      1  O   UNL     1       4.802   5.299   8.133  1.00  0.00    -0.377 OA
ENDROOT
BRANCH   1   2
ATOM      2  C   UNL     1       5.358   4.085   8.649  1.00  0.00     0.188 C 
BRANCH   2   3
ATOM      3  C   UNL     1       6.805   4.215   9.113  1.00  0.00     0.188 C 
BRANCH   3   4
ATOM      4  O   UNL     1       6.874   5.178  10.150  1.00  0.00    -0.376 OA
BRANCH   4   5
ATOM      5  C   UNL     1       7.888   6.174  10.071  1.00  0.00     0.202 C 
BRANCH   5   6
ATOM      6  C   UNL     1       9.273   5.666  10.407  1.00  0.00     0.261 C 
BRANCH   6   7
ATOM      7  O   UNL     1       9.364   4.240  10.578  1.00  0.00    -0.460 OA
BRANCH   7   8
ATOM      8  C   UNL     1       8.862   3.427  11.527  1.00  0.00     0.338 C 
ATOM      9  O   UNL     1       9.006   2.202  11.383  1.00  0.00    -0.246 OA
BRANCH   8  10
ATOM     10  C   UNL     1       8.227   3.879  12.793  1.00  0.00     0.060 A 
ATOM     11  C   UNL     1       7.307   4.918  12.914  1.00  0.00     0.016 A 
ATOM     12  C   UNL     1       8.484   3.108  13.937  1.00  0.00     0.016 A 
ATOM     13  C   UNL     1       6.742   5.266  14.120  1.00  0.00     0.010 A 
ATOM     14  C   UNL     1       7.875   3.409  15.158  1.00  0.00     0.010 A 
ATOM     15  C   UNL     1       7.027   4.518  15.248  1.00  0.00    -0.014 A 
BRANCH  15  16
ATOM     16  C   UNL     1       6.577   5.084  16.522  1.00  0.00     0.031 A 
ATOM     17  C   UNL     1       7.615   5.755  17.361  1.00  0.00     0.074 A 
ATOM     18  C   UNL     1       5.262   5.184  16.779  1.00  0.00     0.049 A 
ATOM     19  N   UNL     1       7.514   6.262  18.556  1.00  0.00    -0.248 NA
ATOM     20  C   UNL     1       8.955   5.890  16.759  1.00  0.00     0.031 C 
ATOM     21  C   UNL     1       4.187   4.745  15.880  1.00  0.00     0.029 A 
ATOM     22  N   UNL     1       4.602   5.729  17.843  1.00  0.00    -0.354 N 
ATOM     23  C   UNL     1       8.785   6.722  18.868  1.00  0.00     0.074 A 
ATOM     24  C   UNL     1       9.641   6.452  17.739  1.00  0.00     0.031 C 
ATOM     25  C   UNL     1       3.002   5.055  16.429  1.00  0.00     0.029 A 
ATOM     26  C   UNL     1       3.237   5.616  17.752  1.00  0.00     0.049 A 
ATOM     27  H   UNL     1       5.060   6.159  18.601  1.00  0.00     0.167 HD
ATOM     28  C   UNL     1       9.186   7.301  20.020  1.00  0.00     0.037 A 
ATOM     29  C   UNL     1       2.300   5.884  18.679  1.00  0.00     0.037 A 
ATOM     30  C   UNL     1       8.281   7.551  21.106  1.00  0.00     0.049 A 
ATOM     31  C   UNL     1       2.788   6.402  20.006  1.00  0.00     0.074 A 
ATOM     32  C   UNL     1       8.547   8.034  22.370  1.00  0.00     0.029 A 
ATOM     33  N   UNL     1       6.909   7.328  21.035  1.00  0.00    -0.354 N 
ATOM     34  N   UNL     1       4.010   6.719  20.370  1.00  0.00    -0.248 NA
ATOM     35  C   UNL     1       1.783   6.574  21.058  1.00  0.00     0.031 C 
ATOM     36  C   UNL     1       7.342   8.056  23.080  1.00  0.00     0.029 A 
ATOM     37  C   UNL     1       6.314   7.645  22.240  1.00  0.00     0.049 A 
ATOM     38  H   UNL     1       6.432   6.993  20.241  1.00  0.00     0.167 HD
ATOM     39  C   UNL     1       3.923   7.143  21.686  1.00  0.00     0.074 A 
ATOM     40  C   UNL     1       2.518   7.063  22.046  1.00  0.00     0.031 C 
ATOM     41  C   UNL     1       4.903   7.555  22.528  1.00  0.00     0.037 A 
BRANCH  28  42
ATOM     42  C   UNL     1      10.652   7.573  20.170  1.00  0.00     0.064 A 
ATOM     43  C   UNL     1      11.310   8.574  19.439  1.00  0.00     0.173 A 
ATOM     44  C   UNL     1      11.428   6.758  21.008  1.00  0.00     0.173 A 
ATOM     45  F   UNL     1      10.622   9.352  18.589  1.00  0.00    -0.203 F 
ATOM     46  C   UNL     1      12.693   8.728  19.519  1.00  0.00     0.198 A 
ATOM     47  C   UNL     1      12.806   6.933  21.107  1.00  0.00     0.198 A 
ATOM     48  F   UNL     1      10.853   5.772  21.713  1.00  0.00    -0.203 F 
ATOM     49  F   UNL     1      13.309   9.642  18.757  1.00  0.00    -0.200 F 
ATOM     50  C   UNL     1      13.438   7.910  20.355  1.00  0.00     0.200 A 
ATOM     51  F   UNL     1      13.524   6.138  21.913  1.00  0.00    -0.200 F 
ATOM     52  F   UNL     1      14.770   8.050  20.420  1.00  0.00    -0.200 F 
ENDBRANCH  28  42
BRANCH  29  53
ATOM     53  C   UNL     1       0.866   5.586  18.421  1.00  0.00     0.064 A 
ATOM     54  C   UNL     1      -0.104   6.598  18.425  1.00  0.00     0.173 A 
ATOM     55  C   UNL     1       0.425   4.272  18.185  1.00  0.00     0.173 A 
ATOM     56  F   UNL     1       0.255   7.868  18.662  1.00  0.00    -0.203 F 
ATOM     57  C   UNL     1      -1.454   6.306  18.226  1.00  0.00     0.198 A 
ATOM     58  C   UNL     1      -0.918   3.986  17.952  1.00  0.00     0.198 A 
ATOM     59  F   UNL     1       1.304   3.259  18.172  1.00  0.00    -0.203 F 
ATOM     60  F   UNL     1      -2.364   7.288  18.286  1.00  0.00    -0.200 F 
ATOM     61  C   UNL     1      -1.859   5.002  17.984  1.00  0.00     0.200 A 
ATOM     62  F   UNL     1      -1.300   2.726  17.701  1.00  0.00    -0.200 F 
ATOM     63  F   UNL     1      -3.156   4.724  17.793  1.00  0.00    -0.200 F 
ENDBRANCH  29  53
BRANCH  41  64
ATOM     64  C   UNL     1       4.471   7.988  23.894  1.00  0.00     0.064 A 
ATOM     65  C   UNL     1       4.056   7.063  24.861  1.00  0.00     0.173 A 
ATOM     66  C   UNL     1       4.532   9.343  24.251  1.00  0.00     0.173 A 
ATOM     67  F   UNL     1       3.967   5.759  24.556  1.00  0.00    -0.203 F 
ATOM     68  C   UNL     1       3.694   7.484  26.136  1.00  0.00     0.198 A 
ATOM     69  C   UNL     1       4.205   9.755  25.536  1.00  0.00     0.198 A 
ATOM     70  F   UNL     1       4.932  10.261  23.357  1.00  0.00    -0.203 F 
ATOM     71  F   UNL     1       3.254   6.592  27.033  1.00  0.00    -0.200 F 
ATOM     72  C   UNL     1       3.779   8.827  26.475  1.00  0.00     0.200 A 
ATOM     73  F   UNL     1       4.305  11.049  25.868  1.00  0.00    -0.200 F 
ATOM     74  F   UNL     1       3.445   9.228  27.708  1.00  0.00    -0.200 F 
ENDBRANCH  41  64
ENDBRANCH  15  16
ENDBRANCH   8  10
ENDBRANCH   7   8
ENDBRANCH   6   7
ENDBRANCH   5   6
ENDBRANCH   4   5
ENDBRANCH   3   4
ENDBRANCH   2   3
ENDBRANCH   1   2
BRANCH   1  75
ATOM     75  C   UNL     1       4.815   6.439   8.986  1.00  0.00     0.188 C 
BRANCH  75  76
ATOM     76  C   UNL     1       3.939   6.452  10.243  1.00  0.00     0.188 C 
BRANCH  76  77
ATOM     77  O   UNL     1       3.801   5.172  10.824  1.00  0.00    -0.376 OA
BRANCH  77  78
ATOM     78  C   UNL     1       2.499   4.603  10.796  1.00  0.00     0.202 C 
BRANCH  78  79
ATOM     79  C   UNL     1       1.692   4.488   9.475  1.00  0.00     0.261 C 
BRANCH  79  80
ATOM     80  O   UNL     1       2.174   5.245   8.349  1.00  0.00    -0.462 OA
BRANCH  80  81
ATOM     81  C   UNL     1       1.443   6.314   7.941  1.00  0.00     0.329 C 
ATOM     82  O   UNL     1       0.349   6.607   8.434  1.00  0.00    -0.250 OA
BRANCH  81  83
ATOM     83  C   UNL     1       2.250   7.291   7.028  1.00  0.00     0.195 C 
BRANCH  83  84
ATOM     84  N   UNL     1       3.416   6.919   6.185  1.00  0.00    -0.337 N 
ATOM     85  C   UNL     1       3.775   6.249   5.070  1.00  0.00     0.278 C 
ATOM     86  H   UNL     1       4.227   7.303   6.590  1.00  0.00     0.164 HD
ATOM     87  O   UNL     1       5.000   6.195   4.866  1.00  0.00    -0.268 OA
BRANCH  85  88
ATOM     88  C   UNL     1       2.838   5.699   3.988  1.00  0.00     0.272 C 
ATOM     89  C   UNL     1       1.836   4.660   4.481  1.00  0.00     0.076 C 
ATOM     90  N   UNL     1       2.299   6.875   3.308  1.00  0.00    -0.333 N 
ATOM     91  C   UNL     1       0.712   4.422   3.462  1.00  0.00     0.016 C 
ATOM     92  C   UNL     1       1.167   6.665   2.427  1.00  0.00     0.186 C 
ATOM     93  H   UNL     1       3.052   7.280   2.752  1.00  0.00     0.347 HD
ATOM     94  H   UNL     1       1.946   7.473   4.055  1.00  0.00     0.347 HD
ATOM     95  C   UNL     1       0.103   5.773   3.089  1.00  0.00     0.048 C 
ATOM     96  C   UNL     1       0.639   8.065   2.076  1.00  0.00     0.065 C 
ATOM     97  C   UNL     1      -1.169   5.723   2.252  1.00  0.00     0.010 C 
ATOM     98  C   UNL     1      -0.713   8.049   1.381  1.00  0.00     0.006 C 
ATOM     99  C   UNL     1      -1.712   7.149   2.102  1.00  0.00     0.001 C 
ENDBRANCH  85  88
ENDBRANCH  83  84
BRANCH  83 100
ATOM    100  C   UNL     1       1.478   8.537   6.663  1.00  0.00     0.023 C 
ATOM    101  C   UNL     1       1.617   9.309   5.383  1.00  0.00     0.007 C 
ATOM    102  C   UNL     1       0.422   8.424   5.626  1.00  0.00     0.007 C 
ENDBRANCH  83 100
ENDBRANCH  81  83
ENDBRANCH  80  81
ENDBRANCH  79  80
ENDBRANCH  78  79
ENDBRANCH  77  78
ENDBRANCH  76  77
ENDBRANCH  75  76
ENDBRANCH   1  75
TORSDOF 23
