REMARK SMILES O=C(OCCOCCOCCOCCOC(=O)[C@H]1CC2(CC[NH+](S(=O)(=O)N3CCOCC3)CC2)C[NH2+]1)c1ccc(-c2c3nc(c(-c4c(F)c(F)c(F)c(F)c4F)c4ccc([nH]4)c(-c4c(F)c(F)c(F)c(F)c4F)c4nc(c(-c5c(F)c(F)c(F)c(F)c5F)c5ccc2[nH]5)C=C4)C=C3)cc1
REMARK SMILES IDX 9 1 8 2 7 3 6 4 5 5 4 6 3 7 2 8 1 9 37 10 38 11 99 12 39 13
REMARK SMILES IDX 98 14 40 15 41 16 42 17 92 18 43 19 97 20 91 21 93 22 44 23
REMARK SMILES IDX 96 24 90 25 89 26 45 28 77 29 57 30 76 31 58 32 61 33 75 34
REMARK SMILES IDX 94 35 59 36 60 37 74 39 95 40 62 41 46 42 47 43 55 44 48 45
REMARK SMILES IDX 49 46 53 47 56 48 50 49 51 50 54 51 52 52 78 53 79 54 87 55
REMARK SMILES IDX 80 56 81 57 85 58 88 59 82 60 83 61 86 62 84 63 63 64 64 65
REMARK SMILES IDX 72 66 65 67 66 68 70 69 73 70 67 71 68 72 71 73 69 74 10 75
REMARK SMILES IDX 11 76 12 77 13 78 14 79 15 80 16 81 17 82 18 83 19 84 36 85
REMARK SMILES IDX 20 86 35 87 21 90 34 91 22 92 33 93 23 94 24 96 25 97 26 98
REMARK SMILES IDX 27 99 28 100 32 101 29 102 31 103 30 104
REMARK H PARENT 93 27 61 38 36 88 36 89 23 95
REMARK Flexibility Score: inf
ROOT
ATOM      1  O   UNL     1       6.935   1.869  -6.015  1.00  0.00    -0.377 OA
ENDROOT
BRANCH   1   2
ATOM      2  C   UNL     1       8.076   2.572  -6.487  1.00  0.00     0.188 C 
BRANCH   2   3
ATOM      3  C   UNL     1       9.469   2.047  -6.099  1.00  0.00     0.188 C 
BRANCH   3   4
ATOM      4  O   UNL     1       9.732   0.672  -6.417  1.00  0.00    -0.376 OA
BRANCH   4   5
ATOM      5  C   UNL     1      10.156  -0.217  -5.364  1.00  0.00     0.202 C 
BRANCH   5   6
ATOM      6  C   UNL     1      11.432   0.144  -4.610  1.00  0.00     0.261 C 
BRANCH   6   7
ATOM      7  O   UNL     1      11.945   1.471  -4.816  1.00  0.00    -0.460 OA
BRANCH   7   8
ATOM      8  C   UNL     1      12.505   2.063  -5.893  1.00  0.00     0.338 C 
ATOM      9  O   UNL     1      12.780   3.260  -5.819  1.00  0.00    -0.246 OA
BRANCH   8  10
ATOM     10  C   UNL     1      12.792   1.371  -7.183  1.00  0.00     0.060 A 
ATOM     11  C   UNL     1      12.245   0.155  -7.567  1.00  0.00     0.016 A 
ATOM     12  C   UNL     1      13.645   2.009  -8.096  1.00  0.00     0.016 A 
ATOM     13  C   UNL     1      12.502  -0.437  -8.775  1.00  0.00     0.010 A 
ATOM     14  C   UNL     1      13.975   1.399  -9.311  1.00  0.00     0.010 A 
ATOM     15  C   UNL     1      13.421   0.153  -9.620  1.00  0.00    -0.014 A 
BRANCH  15  16
ATOM     16  C   UNL     1      13.997  -0.781 -10.587  1.00  0.00     0.031 A 
ATOM     17  C   UNL     1      15.262  -1.466 -10.167  1.00  0.00     0.074 A 
ATOM     18  C   UNL     1      13.240  -1.214 -11.607  1.00  0.00     0.049 A 
ATOM     19  N   UNL     1      15.986  -2.340 -10.804  1.00  0.00    -0.248 NA
ATOM     20  C   UNL     1      15.764  -1.145  -8.815  1.00  0.00     0.031 C 
ATOM     21  C   UNL     1      11.866  -0.779 -11.883  1.00  0.00     0.029 A 
ATOM     22  N   UNL     1      13.489  -2.160 -12.555  1.00  0.00    -0.354 N 
ATOM     23  C   UNL     1      17.054  -2.619  -9.962  1.00  0.00     0.074 A 
ATOM     24  C   UNL     1      16.881  -1.848  -8.758  1.00  0.00     0.031 C 
ATOM     25  C   UNL     1      11.395  -1.464 -12.937  1.00  0.00     0.029 A 
ATOM     26  C   UNL     1      12.460  -2.313 -13.449  1.00  0.00     0.049 A 
ATOM     27  H   UNL     1      14.323  -2.681 -12.595  1.00  0.00     0.167 HD
ATOM     28  C   UNL     1      18.101  -3.435 -10.210  1.00  0.00     0.037 A 
ATOM     29  C   UNL     1      12.435  -3.032 -14.584  1.00  0.00     0.037 A 
ATOM     30  C   UNL     1      18.208  -4.180 -11.432  1.00  0.00     0.049 A 
ATOM     31  C   UNL     1      13.679  -3.810 -14.917  1.00  0.00     0.074 A 
ATOM     32  C   UNL     1      19.244  -4.969 -11.885  1.00  0.00     0.029 A 
ATOM     33  N   UNL     1      17.213  -4.212 -12.406  1.00  0.00    -0.354 N 
ATOM     34  N   UNL     1      14.770  -3.973 -14.203  1.00  0.00    -0.248 NA
ATOM     35  C   UNL     1      13.702  -4.489 -16.214  1.00  0.00     0.031 C 
ATOM     36  C   UNL     1      18.904  -5.421 -13.165  1.00  0.00     0.029 A 
ATOM     37  C   UNL     1      17.621  -4.985 -13.474  1.00  0.00     0.049 A 
ATOM     38  H   UNL     1      16.346  -3.750 -12.342  1.00  0.00     0.167 HD
ATOM     39  C   UNL     1      15.597  -4.802 -14.943  1.00  0.00     0.074 A 
ATOM     40  C   UNL     1      14.870  -5.113 -16.162  1.00  0.00     0.031 C 
ATOM     41  C   UNL     1      16.837  -5.271 -14.653  1.00  0.00     0.037 A 
BRANCH  28  42
ATOM     42  C   UNL     1      19.225  -3.417  -9.217  1.00  0.00     0.064 A 
ATOM     43  C   UNL     1      19.102  -3.933  -7.918  1.00  0.00     0.173 A 
ATOM     44  C   UNL     1      20.426  -2.770  -9.550  1.00  0.00     0.173 A 
ATOM     45  F   UNL     1      17.959  -4.520  -7.529  1.00  0.00    -0.203 F 
ATOM     46  C   UNL     1      20.120  -3.765  -6.979  1.00  0.00     0.198 A 
ATOM     47  C   UNL     1      21.454  -2.634  -8.621  1.00  0.00     0.198 A 
ATOM     48  F   UNL     1      20.590  -2.236 -10.770  1.00  0.00    -0.203 F 
ATOM     49  F   UNL     1      19.944  -4.188  -5.720  1.00  0.00    -0.200 F 
ATOM     50  C   UNL     1      21.295  -3.119  -7.333  1.00  0.00     0.200 A 
ATOM     51  F   UNL     1      22.587  -2.007  -8.966  1.00  0.00    -0.200 F 
ATOM     52  F   UNL     1      22.265  -2.943  -6.425  1.00  0.00    -0.200 F 
ENDBRANCH  28  42
BRANCH  29  53
ATOM     53  C   UNL     1      11.254  -2.988 -15.486  1.00  0.00     0.064 A 
ATOM     54  C   UNL     1      10.512  -4.141 -15.770  1.00  0.00     0.173 A 
ATOM     55  C   UNL     1      10.851  -1.791 -16.103  1.00  0.00     0.173 A 
ATOM     56  F   UNL     1      10.861  -5.313 -15.220  1.00  0.00    -0.203 F 
ATOM     57  C   UNL     1       9.432  -4.106 -16.651  1.00  0.00     0.198 A 
ATOM     58  C   UNL     1       9.752  -1.750 -16.958  1.00  0.00     0.198 A 
ATOM     59  F   UNL     1      11.523  -0.653 -15.871  1.00  0.00    -0.203 F 
ATOM     60  F   UNL     1       8.773  -5.235 -16.944  1.00  0.00    -0.200 F 
ATOM     61  C   UNL     1       9.050  -2.910 -17.241  1.00  0.00     0.200 A 
ATOM     62  F   UNL     1       9.380  -0.588 -17.513  1.00  0.00    -0.200 F 
ATOM     63  F   UNL     1       8.014  -2.878 -18.090  1.00  0.00    -0.200 F 
ENDBRANCH  29  53
BRANCH  41  64
ATOM     64  C   UNL     1      17.438  -6.226 -15.637  1.00  0.00     0.064 A 
ATOM     65  C   UNL     1      17.880  -5.811 -16.900  1.00  0.00     0.173 A 
ATOM     66  C   UNL     1      17.615  -7.571 -15.279  1.00  0.00     0.173 A 
ATOM     67  F   UNL     1      17.719  -4.537 -17.289  1.00  0.00    -0.203 F 
ATOM     68  C   UNL     1      18.448  -6.720 -17.786  1.00  0.00     0.198 A 
ATOM     69  C   UNL     1      18.222  -8.466 -16.150  1.00  0.00     0.198 A 
ATOM     70  F   UNL     1      17.217  -8.010 -14.075  1.00  0.00    -0.203 F 
ATOM     71  F   UNL     1      18.808  -6.320 -19.012  1.00  0.00    -0.200 F 
ATOM     72  C   UNL     1      18.628  -8.043 -17.406  1.00  0.00     0.200 A 
ATOM     73  F   UNL     1      18.417  -9.737 -15.772  1.00  0.00    -0.200 F 
ATOM     74  F   UNL     1      19.188  -8.914 -18.256  1.00  0.00    -0.200 F 
ENDBRANCH  41  64
ENDBRANCH  15  16
ENDBRANCH   8  10
ENDBRANCH   7   8
ENDBRANCH   6   7
ENDBRANCH   5   6
ENDBRANCH   4   5
ENDBRANCH   3   4
ENDBRANCH   2   3
ENDBRANCH   1   2
BRANCH   1  75
ATOM     75  C   UNL     1       7.145   0.492  -5.803  1.00  0.00     0.188 C 
BRANCH  75  76
ATOM     76  C   UNL     1       7.088  -0.523  -6.964  1.00  0.00     0.188 C 
BRANCH  76  77
ATOM     77  O   UNL     1       7.587  -0.207  -8.249  1.00  0.00    -0.376 OA
BRANCH  77  78
ATOM     78  C   UNL     1       7.007   0.791  -9.070  1.00  0.00     0.202 C 
BRANCH  78  79
ATOM     79  C   UNL     1       5.588   1.369  -8.909  1.00  0.00     0.261 C 
BRANCH  79  80
ATOM     80  O   UNL     1       4.977   1.256  -7.621  1.00  0.00    -0.459 OA
BRANCH  80  81
ATOM     81  C   UNL     1       4.047   0.279  -7.520  1.00  0.00     0.364 C 
ATOM     82  O   UNL     1       3.679  -0.394  -8.482  1.00  0.00    -0.245 OA
BRANCH  81  83
ATOM     83  C   UNL     1       3.479   0.091  -6.100  1.00  0.00     0.294 C 
ATOM     84  C   UNL     1       2.803  -1.251  -6.100  1.00  0.00     0.090 C 
ATOM     85  N   UNL     1       4.451  -0.047  -5.018  1.00  0.00    -0.334 N 
ATOM     86  C   UNL     1       2.988  -1.860  -4.712  1.00  0.00     0.036 C 
ATOM     87  C   UNL     1       4.299  -1.271  -4.243  1.00  0.00     0.268 C 
ATOM     88  H   UNL     1       4.346   0.748  -4.387  1.00  0.00     0.347 HD
ATOM     89  H   UNL     1       5.374  -0.082  -5.451  1.00  0.00     0.347 HD
ATOM     90  C   UNL     1       3.054  -3.375  -4.886  1.00  0.00     0.076 C 
ATOM     91  C   UNL     1       1.839  -1.491  -3.755  1.00  0.00     0.076 C 
ATOM     92  C   UNL     1       1.712  -3.818  -5.441  1.00  0.00     0.280 C 
ATOM     93  C   UNL     1       0.501  -2.099  -4.187  1.00  0.00     0.280 C 
ATOM     94  N   UNL     1       0.624  -3.561  -4.481  1.00  0.00    -0.215 N 
ATOM     95  H   UNL     1      -0.211  -3.861  -4.985  1.00  0.00     0.367 HD
BRANCH  94  96
ATOM     96  S   UNL     1       0.467  -4.576  -3.136  1.00  0.00     0.371 S 
ATOM     97  O   UNL     1       1.689  -4.532  -2.382  1.00  0.00    -0.157 OA
ATOM     98  O   UNL     1      -0.800  -4.239  -2.514  1.00  0.00    -0.157 OA
BRANCH  96  99
ATOM     99  N   UNL     1       0.333  -6.063  -3.845  1.00  0.00    -0.151 NA
ATOM    100  C   UNL     1      -0.936  -6.805  -3.873  1.00  0.00     0.136 C 
ATOM    101  C   UNL     1       1.458  -6.826  -4.415  1.00  0.00     0.136 C 
ATOM    102  C   UNL     1      -1.223  -7.238  -5.313  1.00  0.00     0.177 C 
ATOM    103  C   UNL     1       1.076  -7.265  -5.847  1.00  0.00     0.177 C 
ATOM    104  O   UNL     1      -0.141  -8.027  -5.845  1.00  0.00    -0.379 OA
ENDBRANCH  96  99
ENDBRANCH  94  96
ENDBRANCH  81  83
ENDBRANCH  80  81
ENDBRANCH  79  80
ENDBRANCH  78  79
ENDBRANCH  77  78
ENDBRANCH  76  77
ENDBRANCH  75  76
ENDBRANCH   1  75
TORSDOF 22
