REMARK SMILES C=CC[C@@]1(C(=O)OCCOCCOCCOCCOC(=O)c2ccc(-c3c4nc(c(-c5c(F)c(F)c(F)c(F)c5F)c5ccc([nH]5)c(-c5c(F)c(F)c(F)c(F)c5F)c5nc(c(-c6c(F)c(F)c(F)c(F)c6F)c6ccc3[nH]6)C=C5)C=C4)cc2)CCCN(c2nccc(N3CCC(O)CC3)n2)C1
REMARK SMILES IDX 12 1 11 2 10 3 9 4 8 5 7 6 5 7 6 8 4 9 85 10 102 11 86 12
REMARK SMILES IDX 88 13 87 14 3 15 2 16 1 17 89 18 90 19 101 20 91 21 93 22
REMARK SMILES IDX 92 23 94 24 95 25 100 26 96 27 99 28 97 29 98 30 13 32 14 33
REMARK SMILES IDX 15 34 16 35 17 36 18 37 19 38 20 39 21 40 22 41 23 42 84 43
REMARK SMILES IDX 24 44 83 45 25 46 26 47 27 48 77 49 28 50 82 51 76 52 78 53
REMARK SMILES IDX 29 54 81 55 75 56 74 57 30 59 62 60 42 61 61 62 43 63 46 64
REMARK SMILES IDX 60 65 79 66 44 67 45 68 59 70 80 71 47 72 31 73 32 74 40 75
REMARK SMILES IDX 33 76 34 77 38 78 41 79 35 80 36 81 39 82 37 83 63 84 64 85
REMARK SMILES IDX 72 86 65 87 66 88 70 89 73 90 67 91 68 92 71 93 69 94 48 95
REMARK SMILES IDX 49 96 57 97 50 98 51 99 55 100 58 101 52 102 53 103 56 104
REMARK SMILES IDX 54 105
REMARK H PARENT 98 31 78 58 46 69
REMARK Flexibility Score: inf
ROOT
ATOM      1  C   UNL     1      -2.572  -1.474  -0.834  1.00  0.00     0.188 C 
ENDROOT
BRANCH   1   2
ATOM      2  C   UNL     1      -2.142  -0.801  -2.132  1.00  0.00     0.188 C 
BRANCH   2   3
ATOM      3  O   UNL     1      -0.877  -1.153  -2.682  1.00  0.00    -0.376 OA
BRANCH   3   4
ATOM      4  C   UNL     1       0.269  -1.173  -1.837  1.00  0.00     0.202 C 
BRANCH   4   5
ATOM      5  C   UNL     1       0.775   0.134  -1.198  1.00  0.00     0.261 C 
BRANCH   5   6
ATOM      6  O   UNL     1      -0.144   0.852  -0.352  1.00  0.00    -0.463 OA
BRANCH   6   7
ATOM      7  C   UNL     1      -0.801   1.863  -0.977  1.00  0.00     0.314 C 
ATOM      8  O   UNL     1      -0.812   1.992  -2.200  1.00  0.00    -0.252 OA
BRANCH   7   9
ATOM      9  C   UNL     1      -1.486   2.861  -0.033  1.00  0.00     0.089 C 
ATOM     10  C   UNL     1      -1.998   4.049  -0.928  1.00  0.00     0.023 C 
ATOM     11  C   UNL     1      -0.439   3.397   0.943  1.00  0.00     0.138 C 
ATOM     12  C   UNL     1      -0.883   4.886  -1.567  1.00  0.00     0.023 C 
ATOM     13  N   UNL     1       0.560   4.168   0.224  1.00  0.00    -0.340 N 
ATOM     14  C   UNL     1       0.153   5.329  -0.536  1.00  0.00     0.120 C 
BRANCH   9  15
ATOM     15  C   UNL     1      -2.759   2.345   0.699  1.00  0.00     0.047 C 
BRANCH  15  16
ATOM     16  C   UNL     1      -2.829   1.185   1.653  1.00  0.00    -0.034 C 
ATOM     17  C   UNL     1      -2.080   0.919   2.728  1.00  0.00     0.004 C 
ENDBRANCH  15  16
ENDBRANCH   9  15
BRANCH  13  18
ATOM     18  C   UNL     1       1.863   3.992   0.602  1.00  0.00     0.227 A 
ATOM     19  N   UNL     1       2.348   2.741   0.536  1.00  0.00    -0.221 NA
ATOM     20  N   UNL     1       2.566   5.041   1.044  1.00  0.00    -0.196 NA
ATOM     21  C   UNL     1       3.624   2.561   0.894  1.00  0.00     0.119 A 
ATOM     22  C   UNL     1       3.830   4.819   1.438  1.00  0.00     0.134 A 
ATOM     23  C   UNL     1       4.418   3.575   1.352  1.00  0.00     0.067 A 
BRANCH  22  24
ATOM     24  N   UNL     1       4.537   5.861   1.993  1.00  0.00    -0.356 N 
ATOM     25  C   UNL     1       4.041   6.469   3.215  1.00  0.00     0.121 C 
ATOM     26  C   UNL     1       5.650   6.447   1.273  1.00  0.00     0.121 C 
ATOM     27  C   UNL     1       3.808   7.958   3.016  1.00  0.00     0.053 C 
ATOM     28  C   UNL     1       5.382   7.930   1.049  1.00  0.00     0.053 C 
ATOM     29  C   UNL     1       5.022   8.616   2.365  1.00  0.00     0.118 C 
BRANCH  29  30
ATOM     30  O   UNL     1       4.753   9.996   2.131  1.00  0.00    -0.393 OA
ATOM     31  H   UNL     1       3.998  10.080   1.528  1.00  0.00     0.210 HD
ENDBRANCH  29  30
ENDBRANCH  22  24
ENDBRANCH  13  18
ENDBRANCH   7   9
ENDBRANCH   6   7
ENDBRANCH   5   6
ENDBRANCH   4   5
ENDBRANCH   3   4
ENDBRANCH   2   3
ENDBRANCH   1   2
BRANCH   1  32
ATOM     32  O   UNL     1      -1.617  -1.310   0.201  1.00  0.00    -0.377 OA
BRANCH  32  33
ATOM     33  C   UNL     1      -1.281  -2.405   1.045  1.00  0.00     0.188 C 
BRANCH  33  34
ATOM     34  C   UNL     1      -1.807  -3.791   0.666  1.00  0.00     0.188 C 
BRANCH  34  35
ATOM     35  O   UNL     1      -3.201  -4.068   0.825  1.00  0.00    -0.376 OA
BRANCH  35  36
ATOM     36  C   UNL     1      -4.015  -3.168   1.566  1.00  0.00     0.202 C 
BRANCH  36  37
ATOM     37  C   UNL     1      -4.048  -3.360   3.084  1.00  0.00     0.261 C 
BRANCH  37  38
ATOM     38  O   UNL     1      -2.744  -3.407   3.676  1.00  0.00    -0.460 OA
BRANCH  38  39
ATOM     39  C   UNL     1      -2.233  -4.656   3.781  1.00  0.00     0.338 C 
ATOM     40  O   UNL     1      -2.768  -5.708   3.491  1.00  0.00    -0.246 OA
BRANCH  39  41
ATOM     41  C   UNL     1      -0.821  -4.566   4.190  1.00  0.00     0.060 A 
ATOM     42  C   UNL     1       0.123  -5.265   3.430  1.00  0.00     0.016 A 
ATOM     43  C   UNL     1      -0.444  -3.884   5.350  1.00  0.00     0.016 A 
ATOM     44  C   UNL     1       1.446  -5.313   3.841  1.00  0.00     0.010 A 
ATOM     45  C   UNL     1       0.880  -3.961   5.784  1.00  0.00     0.010 A 
ATOM     46  C   UNL     1       1.816  -4.709   5.048  1.00  0.00    -0.014 A 
BRANCH  46  47
ATOM     47  C   UNL     1       3.137  -5.051   5.612  1.00  0.00     0.031 A 
ATOM     48  C   UNL     1       3.221  -6.170   6.610  1.00  0.00     0.074 A 
ATOM     49  C   UNL     1       4.245  -4.446   5.156  1.00  0.00     0.049 A 
ATOM     50  N   UNL     1       4.272  -6.692   7.187  1.00  0.00    -0.248 NA
ATOM     51  C   UNL     1       1.946  -6.792   7.005  1.00  0.00     0.031 C 
ATOM     52  C   UNL     1       4.271  -3.390   4.145  1.00  0.00     0.029 A 
ATOM     53  N   UNL     1       5.562  -4.646   5.474  1.00  0.00    -0.354 N 
ATOM     54  C   UNL     1       3.787  -7.701   8.008  1.00  0.00     0.074 A 
ATOM     55  C   UNL     1       2.346  -7.697   7.884  1.00  0.00     0.031 C 
ATOM     56  C   UNL     1       5.548  -3.034   3.924  1.00  0.00     0.029 A 
ATOM     57  C   UNL     1       6.419  -3.816   4.799  1.00  0.00     0.049 A 
ATOM     58  H   UNL     1       5.863  -5.320   6.125  1.00  0.00     0.167 HD
ATOM     59  C   UNL     1       4.486  -8.560   8.787  1.00  0.00     0.037 A 
ATOM     60  C   UNL     1       7.757  -3.698   4.894  1.00  0.00     0.037 A 
ATOM     61  C   UNL     1       5.921  -8.547   8.907  1.00  0.00     0.049 A 
ATOM     62  C   UNL     1       8.502  -4.616   5.827  1.00  0.00     0.074 A 
ATOM     63  C   UNL     1       6.733  -9.371   9.664  1.00  0.00     0.029 A 
ATOM     64  N   UNL     1       6.758  -7.651   8.255  1.00  0.00    -0.354 N 
ATOM     65  N   UNL     1       8.043  -5.580   6.589  1.00  0.00    -0.248 NA
ATOM     66  C   UNL     1       9.957  -4.434   5.905  1.00  0.00     0.031 C 
ATOM     67  C   UNL     1       8.054  -8.933   9.521  1.00  0.00     0.029 A 
ATOM     68  C   UNL     1       8.075  -7.881   8.619  1.00  0.00     0.049 A 
ATOM     69  H   UNL     1       6.459  -6.954   7.627  1.00  0.00     0.167 HD
ATOM     70  C   UNL     1       9.151  -6.136   7.215  1.00  0.00     0.074 A 
ATOM     71  C   UNL     1      10.307  -5.418   6.719  1.00  0.00     0.031 C 
ATOM     72  C   UNL     1       9.211  -7.145   8.121  1.00  0.00     0.037 A 
BRANCH  59  73
ATOM     73  C   UNL     1       3.705  -9.555   9.598  1.00  0.00     0.064 A 
ATOM     74  C   UNL     1       3.014 -10.622   9.003  1.00  0.00     0.173 A 
ATOM     75  C   UNL     1       3.666  -9.449  10.997  1.00  0.00     0.173 A 
ATOM     76  F   UNL     1       3.003 -10.759   7.668  1.00  0.00    -0.203 F 
ATOM     77  C   UNL     1       2.292 -11.529   9.776  1.00  0.00     0.198 A 
ATOM     78  C   UNL     1       2.971 -10.377  11.768  1.00  0.00     0.198 A 
ATOM     79  F   UNL     1       4.307  -8.448  11.618  1.00  0.00    -0.203 F 
ATOM     80  F   UNL     1       1.597 -12.509   9.182  1.00  0.00    -0.200 F 
ATOM     81  C   UNL     1       2.278 -11.411  11.157  1.00  0.00     0.200 A 
ATOM     82  F   UNL     1       2.969 -10.267  13.104  1.00  0.00    -0.200 F 
ATOM     83  F   UNL     1       1.590 -12.289  11.900  1.00  0.00    -0.200 F 
ENDBRANCH  59  73
BRANCH  60  84
ATOM     84  C   UNL     1       8.472  -2.669   4.094  1.00  0.00     0.064 A 
ATOM     85  C   UNL     1       9.380  -3.027   3.089  1.00  0.00     0.173 A 
ATOM     86  C   UNL     1       8.274  -1.300   4.335  1.00  0.00     0.173 A 
ATOM     87  F   UNL     1       9.619  -4.322   2.833  1.00  0.00    -0.203 F 
ATOM     88  C   UNL     1      10.081  -2.059   2.373  1.00  0.00     0.198 A 
ATOM     89  C   UNL     1       8.949  -0.333   3.595  1.00  0.00     0.198 A 
ATOM     90  F   UNL     1       7.415  -0.901   5.285  1.00  0.00    -0.203 F 
ATOM     91  F   UNL     1      10.983  -2.430   1.455  1.00  0.00    -0.200 F 
ATOM     92  C   UNL     1       9.861  -0.712   2.623  1.00  0.00     0.200 A 
ATOM     93  F   UNL     1       8.716   0.967   3.826  1.00  0.00    -0.200 F 
ATOM     94  F   UNL     1      10.530   0.219   1.930  1.00  0.00    -0.200 F 
ENDBRANCH  60  84
BRANCH  72  95
ATOM     95  C   UNL     1      10.578  -7.542   8.607  1.00  0.00     0.064 A 
ATOM     96  C   UNL     1      11.355  -6.689   9.406  1.00  0.00     0.173 A 
ATOM     97  C   UNL     1      11.120  -8.791   8.264  1.00  0.00     0.173 A 
ATOM     98  F   UNL     1      10.890  -5.480   9.754  1.00  0.00    -0.203 F 
ATOM     99  C   UNL     1      12.643  -7.049   9.797  1.00  0.00     0.198 A 
ATOM    100  C   UNL     1      12.391  -9.164   8.692  1.00  0.00     0.198 A 
ATOM    101  F   UNL     1      10.416  -9.652   7.513  1.00  0.00    -0.203 F 
ATOM    102  F   UNL     1      13.395  -6.184  10.491  1.00  0.00    -0.200 F 
ATOM    103  C   UNL     1      13.157  -8.287   9.444  1.00  0.00     0.200 A 
ATOM    104  F   UNL     1      12.878 -10.369   8.367  1.00  0.00    -0.200 F 
ATOM    105  F   UNL     1      14.398  -8.630   9.816  1.00  0.00    -0.200 F 
ENDBRANCH  72  95
ENDBRANCH  46  47
ENDBRANCH  39  41
ENDBRANCH  38  39
ENDBRANCH  37  38
ENDBRANCH  36  37
ENDBRANCH  35  36
ENDBRANCH  34  35
ENDBRANCH  33  34
ENDBRANCH  32  33
ENDBRANCH   1  32
TORSDOF 25
