REMARK SMILES CNC(=O)[C@H]1CCCCN1C(=O)NCCOCC(=O)OCCOCCOCCOCCOC(=O)c1ccc(-c2c3nc(c(-c4c(F)c(F)c(F)c(F)c4F)c4ccc([nH]4)c(-c4c(F)c(F)c(F)c(F)c4F)c4nc(c(-c5c(F)c(F)c(F)c(F)c5F)c5ccc2[nH]5)C=C4)C=C3)cc1
REMARK SMILES IDX 24 1 23 2 22 3 21 4 20 5 18 6 19 7 17 8 16 9 15 10 14 11
REMARK SMILES IDX 13 12 11 13 12 14 10 16 5 17 6 18 7 19 9 20 8 21 3 22 1 23
REMARK SMILES IDX 2 24 4 26 25 27 26 28 27 29 28 30 29 31 30 32 31 33 32 34
REMARK SMILES IDX 33 35 34 36 35 37 36 38 97 39 37 40 96 41 38 42 39 43 40 44
REMARK SMILES IDX 90 45 41 46 95 47 89 48 91 49 42 50 94 51 88 52 87 53 43 55
REMARK SMILES IDX 75 56 55 57 74 58 56 59 59 60 73 61 92 62 57 63 58 64 72 66
REMARK SMILES IDX 93 67 60 68 44 69 45 70 53 71 46 72 47 73 51 74 54 75 48 76
REMARK SMILES IDX 49 77 52 78 50 79 76 80 77 81 85 82 78 83 79 84 83 85 86 86
REMARK SMILES IDX 80 87 81 88 84 89 82 90 61 91 62 92 70 93 63 94 64 95 68 96
REMARK SMILES IDX 71 97 65 98 66 99 69 100 67 101
REMARK H PARENT 13 15 2 25 91 54 59 65
REMARK Flexibility Score: inf
ROOT
ATOM      1  C   UNL     1      -2.743  -1.040   5.280  1.00  0.00     0.188 C 
ENDROOT
BRANCH   1   2
ATOM      2  O   UNL     1      -3.498  -2.248   5.380  1.00  0.00    -0.376 OA
BRANCH   2   3
ATOM      3  C   UNL     1      -4.558  -2.285   6.332  1.00  0.00     0.202 C 
BRANCH   3   4
ATOM      4  C   UNL     1      -4.181  -2.169   7.821  1.00  0.00     0.261 C 
BRANCH   4   5
ATOM      5  O   UNL     1      -3.454  -0.974   8.192  1.00  0.00    -0.462 OA
BRANCH   5   6
ATOM      6  C   UNL     1      -2.172  -1.168   8.594  1.00  0.00     0.332 C 
ATOM      7  O   UNL     1      -1.632  -2.269   8.678  1.00  0.00    -0.250 OA
BRANCH   6   8
ATOM      8  C   UNL     1      -1.388   0.121   8.930  1.00  0.00     0.282 C 
BRANCH   8   9
ATOM      9  O   UNL     1      -1.855   1.447   9.005  1.00  0.00    -0.368 OA
BRANCH   9  10
ATOM     10  C   UNL     1      -2.038   2.189   7.799  1.00  0.00     0.182 C 
BRANCH  10  11
ATOM     11  C   UNL     1      -0.779   2.548   6.975  1.00  0.00     0.146 C 
BRANCH  11  12
ATOM     12  N   UNL     1      -0.298   1.497   6.072  1.00  0.00    -0.336 N 
ATOM     13  C   UNL     1      -0.234   1.153   4.778  1.00  0.00     0.318 C 
ATOM     14  O   UNL     1       0.320   0.060   4.603  1.00  0.00    -0.249 OA
ATOM     15  H   UNL     1       0.131   0.792   6.608  1.00  0.00     0.165 HD
BRANCH  13  16
ATOM     16  N   UNL     1      -0.717   1.867   3.725  1.00  0.00    -0.313 N 
ATOM     17  C   UNL     1      -0.542   1.277   2.355  1.00  0.00     0.176 C 
ATOM     18  C   UNL     1       0.452   2.151   1.569  1.00  0.00     0.035 C 
ATOM     19  C   UNL     1       0.051   3.627   1.565  1.00  0.00     0.004 C 
ATOM     20  C   UNL     1      -1.205   3.241   3.702  1.00  0.00     0.122 C 
ATOM     21  C   UNL     1      -0.207   4.140   2.983  1.00  0.00     0.022 C 
BRANCH  17  22
ATOM     22  C   UNL     1      -1.863   1.052   1.562  1.00  0.00     0.242 C 
ATOM     23  C   UNL     1      -0.810  -0.393  -0.254  1.00  0.00     0.142 C 
ATOM     24  N   UNL     1      -1.867   0.346   0.393  1.00  0.00    -0.357 N 
ATOM     25  H   UNL     1      -2.729   0.341  -0.084  1.00  0.00     0.163 HD
ATOM     26  O   UNL     1      -2.945   1.515   1.926  1.00  0.00    -0.273 OA
ENDBRANCH  17  22
ENDBRANCH  13  16
ENDBRANCH  11  12
ENDBRANCH  10  11
ENDBRANCH   9  10
ENDBRANCH   8   9
ENDBRANCH   6   8
ENDBRANCH   5   6
ENDBRANCH   4   5
ENDBRANCH   3   4
ENDBRANCH   2   3
ENDBRANCH   1   2
BRANCH   1  27
ATOM     27  C   UNL     1      -3.553   0.237   5.051  1.00  0.00     0.188 C 
BRANCH  27  28
ATOM     28  O   UNL     1      -4.448   0.479   6.131  1.00  0.00    -0.377 OA
BRANCH  28  29
ATOM     29  C   UNL     1      -5.725   1.047   5.869  1.00  0.00     0.188 C 
BRANCH  29  30
ATOM     30  C   UNL     1      -6.219   1.000   4.424  1.00  0.00     0.188 C 
BRANCH  30  31
ATOM     31  O   UNL     1      -5.708   1.952   3.493  1.00  0.00    -0.376 OA
BRANCH  31  32
ATOM     32  C   UNL     1      -4.944   3.058   3.955  1.00  0.00     0.202 C 
BRANCH  32  33
ATOM     33  C   UNL     1      -5.740   4.324   4.263  1.00  0.00     0.261 C 
BRANCH  33  34
ATOM     34  O   UNL     1      -6.807   4.071   5.177  1.00  0.00    -0.460 OA
BRANCH  34  35
ATOM     35  C   UNL     1      -7.970   3.723   4.582  1.00  0.00     0.338 C 
ATOM     36  O   UNL     1      -8.232   3.694   3.389  1.00  0.00    -0.246 OA
BRANCH  35  37
ATOM     37  C   UNL     1      -8.880   3.230   5.620  1.00  0.00     0.060 A 
ATOM     38  C   UNL     1      -9.535   2.011   5.408  1.00  0.00     0.016 A 
ATOM     39  C   UNL     1      -9.116   3.991   6.766  1.00  0.00     0.016 A 
ATOM     40  C   UNL     1     -10.450   1.550   6.340  1.00  0.00     0.010 A 
ATOM     41  C   UNL     1     -10.066   3.552   7.680  1.00  0.00     0.010 A 
ATOM     42  C   UNL     1     -10.758   2.353   7.443  1.00  0.00    -0.014 A 
BRANCH  42  43
ATOM     43  C   UNL     1     -11.985   2.065   8.201  1.00  0.00     0.031 A 
ATOM     44  C   UNL     1     -13.235   2.791   7.797  1.00  0.00     0.074 A 
ATOM     45  C   UNL     1     -11.979   1.156   9.187  1.00  0.00     0.049 A 
ATOM     46  N   UNL     1     -14.418   2.776   8.348  1.00  0.00    -0.248 NA
ATOM     47  C   UNL     1     -13.134   3.655   6.606  1.00  0.00     0.031 C 
ATOM     48  C   UNL     1     -10.824   0.358   9.595  1.00  0.00     0.029 A 
ATOM     49  N   UNL     1     -12.982   0.760  10.029  1.00  0.00    -0.354 N 
ATOM     50  C   UNL     1     -15.200   3.621   7.571  1.00  0.00     0.074 A 
ATOM     51  C   UNL     1     -14.353   4.166   6.536  1.00  0.00     0.031 C 
ATOM     52  C   UNL     1     -11.182  -0.425  10.627  1.00  0.00     0.029 A 
ATOM     53  C   UNL     1     -12.574  -0.149  10.971  1.00  0.00     0.049 A 
ATOM     54  H   UNL     1     -13.905   1.095   9.964  1.00  0.00     0.167 HD
ATOM     55  C   UNL     1     -16.515   3.900   7.709  1.00  0.00     0.037 A 
ATOM     56  C   UNL     1     -13.257  -0.665  12.010  1.00  0.00     0.037 A 
ATOM     57  C   UNL     1     -17.335   3.355   8.756  1.00  0.00     0.049 A 
ATOM     58  C   UNL     1     -14.693  -0.243  12.205  1.00  0.00     0.074 A 
ATOM     59  C   UNL     1     -18.672   3.587   9.018  1.00  0.00     0.029 A 
ATOM     60  N   UNL     1     -16.883   2.465   9.721  1.00  0.00    -0.354 N 
ATOM     61  N   UNL     1     -15.433   0.555  11.473  1.00  0.00    -0.248 NA
ATOM     62  C   UNL     1     -15.389  -0.798  13.373  1.00  0.00     0.031 C 
ATOM     63  C   UNL     1     -19.017   2.875  10.170  1.00  0.00     0.029 A 
ATOM     64  C   UNL     1     -17.912   2.149  10.589  1.00  0.00     0.049 A 
ATOM     65  H   UNL     1     -15.966   2.111   9.778  1.00  0.00     0.167 HD
ATOM     66  C   UNL     1     -16.690   0.562  12.064  1.00  0.00     0.074 A 
ATOM     67  C   UNL     1     -16.614  -0.324  13.207  1.00  0.00     0.031 C 
ATOM     68  C   UNL     1     -17.808   1.239  11.701  1.00  0.00     0.037 A 
BRANCH  55  69
ATOM     69  C   UNL     1     -17.136   4.841   6.720  1.00  0.00     0.064 A 
ATOM     70  C   UNL     1     -17.343   4.470   5.383  1.00  0.00     0.173 A 
ATOM     71  C   UNL     1     -17.567   6.114   7.122  1.00  0.00     0.173 A 
ATOM     72  F   UNL     1     -16.929   3.272   4.942  1.00  0.00    -0.203 F 
ATOM     73  C   UNL     1     -17.945   5.344   4.481  1.00  0.00     0.198 A 
ATOM     74  C   UNL     1     -18.196   6.973   6.225  1.00  0.00     0.198 A 
ATOM     75  F   UNL     1     -17.388   6.521   8.387  1.00  0.00    -0.203 F 
ATOM     76  F   UNL     1     -18.096   4.983   3.199  1.00  0.00    -0.200 F 
ATOM     77  C   UNL     1     -18.381   6.590   4.906  1.00  0.00     0.200 A 
ATOM     78  F   UNL     1     -18.627   8.173   6.640  1.00  0.00    -0.200 F 
ATOM     79  F   UNL     1     -18.976   7.423   4.041  1.00  0.00    -0.200 F 
ENDBRANCH  55  69
BRANCH  56  80
ATOM     80  C   UNL     1     -12.602  -1.607  12.956  1.00  0.00     0.064 A 
ATOM     81  C   UNL     1     -13.057  -2.926  13.092  1.00  0.00     0.173 A 
ATOM     82  C   UNL     1     -11.550  -1.194  13.787  1.00  0.00     0.173 A 
ATOM     83  F   UNL     1     -14.072  -3.366  12.333  1.00  0.00    -0.203 F 
ATOM     84  C   UNL     1     -12.517  -3.780  14.052  1.00  0.00     0.198 A 
ATOM     85  C   UNL     1     -10.986  -2.060  14.721  1.00  0.00     0.198 A 
ATOM     86  F   UNL     1     -11.072   0.056  13.698  1.00  0.00    -0.203 F 
ATOM     87  F   UNL     1     -13.024  -5.010  14.210  1.00  0.00    -0.200 F 
ATOM     88  C   UNL     1     -11.481  -3.347  14.865  1.00  0.00     0.200 A 
ATOM     89  F   UNL     1      -9.975  -1.642  15.494  1.00  0.00    -0.200 F 
ATOM     90  F   UNL     1     -10.972  -4.164  15.796  1.00  0.00    -0.200 F 
ENDBRANCH  56  80
BRANCH  68  91
ATOM     91  C   UNL     1     -19.051   0.993  12.507  1.00  0.00     0.064 A 
ATOM     92  C   UNL     1     -19.182   1.452  13.825  1.00  0.00     0.173 A 
ATOM     93  C   UNL     1     -20.141   0.320  11.933  1.00  0.00     0.173 A 
ATOM     94  F   UNL     1     -18.164   2.090  14.424  1.00  0.00    -0.203 F 
ATOM     95  C   UNL     1     -20.346   1.215  14.551  1.00  0.00     0.198 A 
ATOM     96  C   UNL     1     -21.317   0.120  12.648  1.00  0.00     0.198 A 
ATOM     97  F   UNL     1     -20.070  -0.129  10.670  1.00  0.00    -0.203 F 
ATOM     98  F   UNL     1     -20.427   1.609  15.829  1.00  0.00    -0.200 F 
ATOM     99  C   UNL     1     -21.414   0.557  13.960  1.00  0.00     0.200 A 
ATOM    100  F   UNL     1     -22.355  -0.497  12.067  1.00  0.00    -0.200 F 
ATOM    101  F   UNL     1     -22.537   0.339  14.657  1.00  0.00    -0.200 F 
ENDBRANCH  68  91
ENDBRANCH  42  43
ENDBRANCH  35  37
ENDBRANCH  34  35
ENDBRANCH  33  34
ENDBRANCH  32  33
ENDBRANCH  31  32
ENDBRANCH  30  31
ENDBRANCH  29  30
ENDBRANCH  28  29
ENDBRANCH  27  28
ENDBRANCH   1  27
TORSDOF 26
