REMARK SMILES CCCN1CCC[C@@]2(CCN(c3ccc(C(=O)OCCOCCOCCOCCOC(=O)c4ccc(-c5c6nc(c(-c7c(F)c(F)c(F)c(F)c7F)c7ccc([nH]7)c(-c7c(F)c(F)c(F)c(F)c7F)c7nc(c(-c8c(F)c(F)c(F)c(F)c8F)c8ccc5[nH]8)C=C7)C=C6)cc4)cn3)C2)C1=O
REMARK SMILES IDX 23 1 22 2 21 3 20 4 19 5 18 6 16 7 17 8 15 9 12 10 13 11
REMARK SMILES IDX 97 12 14 13 96 14 11 15 4 16 5 17 99 18 6 19 8 20 100 21
REMARK SMILES IDX 7 22 9 23 98 24 10 25 3 26 2 27 1 28 24 29 25 30 26 31 27 32
REMARK SMILES IDX 28 33 29 34 30 35 31 36 32 37 33 38 34 39 95 40 35 41 94 42
REMARK SMILES IDX 36 43 37 44 38 45 88 46 39 47 93 48 87 49 89 50 40 51 92 52
REMARK SMILES IDX 86 53 85 54 41 56 73 57 53 58 72 59 54 60 57 61 71 62 90 63
REMARK SMILES IDX 55 64 56 65 70 67 91 68 58 69 42 70 43 71 51 72 44 73 45 74
REMARK SMILES IDX 49 75 52 76 46 77 47 78 50 79 48 80 74 81 75 82 83 83 76 84
REMARK SMILES IDX 77 85 81 86 84 87 78 88 79 89 82 90 80 91 59 92 60 93 68 94
REMARK SMILES IDX 61 95 62 96 66 97 69 98 63 99 64 100 67 101 65 102
REMARK H PARENT 89 55 57 66
REMARK Flexibility Score: inf
ROOT
ATOM      1  C   UNL     1       1.502   7.620  -0.824  1.00  0.00     0.188 C 
ENDROOT
BRANCH   1   2
ATOM      2  C   UNL     1       2.410   7.351  -2.040  1.00  0.00     0.188 C 
BRANCH   2   3
ATOM      3  O   UNL     1       2.080   8.154  -3.161  1.00  0.00    -0.376 OA
BRANCH   3   4
ATOM      4  C   UNL     1       1.361   7.595  -4.243  1.00  0.00     0.202 C 
BRANCH   4   5
ATOM      5  C   UNL     1       0.043   6.835  -4.019  1.00  0.00     0.261 C 
BRANCH   5   6
ATOM      6  O   UNL     1      -0.045   6.002  -2.860  1.00  0.00    -0.460 OA
BRANCH   6   7
ATOM      7  C   UNL     1       0.619   4.827  -2.868  1.00  0.00     0.339 C 
ATOM      8  O   UNL     1       1.298   4.376  -3.771  1.00  0.00    -0.246 OA
BRANCH   7   9
ATOM      9  C   UNL     1       0.526   4.261  -1.509  1.00  0.00     0.078 A 
ATOM     10  C   UNL     1       0.522   3.223   1.054  1.00  0.00     0.128 A 
ATOM     11  C   UNL     1      -0.639   3.798   0.528  1.00  0.00     0.048 A 
ATOM     12  N   UNL     1       1.676   3.223   0.356  1.00  0.00    -0.238 NA
ATOM     13  C   UNL     1      -0.639   4.334  -0.755  1.00  0.00     0.021 A 
ATOM     14  C   UNL     1       1.652   3.713  -0.913  1.00  0.00     0.129 A 
BRANCH  10  15
ATOM     15  N   UNL     1       0.437   2.556   2.259  1.00  0.00    -0.356 N 
ATOM     16  N   UNL     1       0.346  -1.625   1.967  1.00  0.00    -0.342 N 
ATOM     17  C   UNL     1      -0.857  -2.211   2.539  1.00  0.00     0.119 C 
ATOM     18  C   UNL     1       1.042  -0.633   2.644  1.00  0.00     0.230 C 
ATOM     19  C   UNL     1      -1.769  -1.180   3.183  1.00  0.00     0.023 C 
ATOM     20  C   UNL     1       0.162   0.424   3.328  1.00  0.00     0.069 C 
ATOM     21  O   UNL     1       2.268  -0.553   2.603  1.00  0.00    -0.274 OA
ATOM     22  C   UNL     1      -0.965  -0.264   4.109  1.00  0.00     0.021 C 
ATOM     23  C   UNL     1       1.023   1.376   4.174  1.00  0.00     0.040 C 
ATOM     24  C   UNL     1      -0.426   1.374   2.259  1.00  0.00     0.135 C 
ATOM     25  C   UNL     1       1.583   2.359   3.131  1.00  0.00     0.119 C 
BRANCH  16  26
ATOM     26  C   UNL     1       0.976  -2.287   0.824  1.00  0.00     0.119 C 
BRANCH  26  27
ATOM     27  C   UNL     1       0.614  -1.556  -0.475  1.00  0.00     0.018 C 
ATOM     28  C   UNL     1       1.438  -0.295  -0.713  1.00  0.00     0.006 C 
ENDBRANCH  26  27
ENDBRANCH  16  26
ENDBRANCH  10  15
ENDBRANCH   7   9
ENDBRANCH   6   7
ENDBRANCH   5   6
ENDBRANCH   4   5
ENDBRANCH   3   4
ENDBRANCH   2   3
ENDBRANCH   1   2
BRANCH   1  29
ATOM     29  O   UNL     1       0.304   8.334  -1.093  1.00  0.00    -0.377 OA
BRANCH  29  30
ATOM     30  C   UNL     1       0.379   9.686  -1.546  1.00  0.00     0.188 C 
BRANCH  30  31
ATOM     31  C   UNL     1       1.713  10.458  -1.712  1.00  0.00     0.188 C 
BRANCH  31  32
ATOM     32  O   UNL     1       2.799   9.950  -0.957  1.00  0.00    -0.376 OA
BRANCH  32  33
ATOM     33  C   UNL     1       3.244  10.691   0.163  1.00  0.00     0.202 C 
BRANCH  33  34
ATOM     34  C   UNL     1       2.269  10.783   1.343  1.00  0.00     0.261 C 
BRANCH  34  35
ATOM     35  O   UNL     1       0.963  11.292   1.032  1.00  0.00    -0.460 OA
BRANCH  35  36
ATOM     36  C   UNL     1       0.882  12.578   0.635  1.00  0.00     0.338 C 
ATOM     37  O   UNL     1       1.796  13.378   0.516  1.00  0.00    -0.246 OA
BRANCH  36  38
ATOM     38  C   UNL     1      -0.503  12.817   0.185  1.00  0.00     0.060 A 
ATOM     39  C   UNL     1      -0.734  13.202  -1.142  1.00  0.00     0.016 A 
ATOM     40  C   UNL     1      -1.569  12.647   1.072  1.00  0.00     0.016 A 
ATOM     41  C   UNL     1      -2.035  13.452  -1.577  1.00  0.00     0.010 A 
ATOM     42  C   UNL     1      -2.869  12.917   0.640  1.00  0.00     0.010 A 
ATOM     43  C   UNL     1      -3.104  13.353  -0.677  1.00  0.00    -0.014 A 
BRANCH  43  44
ATOM     44  C   UNL     1      -4.434  13.891  -1.048  1.00  0.00     0.031 A 
ATOM     45  C   UNL     1      -4.807  15.265  -0.567  1.00  0.00     0.074 A 
ATOM     46  C   UNL     1      -5.294  13.181  -1.796  1.00  0.00     0.049 A 
ATOM     47  N   UNL     1      -5.929  15.924  -0.708  1.00  0.00    -0.248 NA
ATOM     48  C   UNL     1      -3.772  15.989   0.186  1.00  0.00     0.031 C 
ATOM     49  C   UNL     1      -5.037  11.852  -2.343  1.00  0.00     0.029 A 
ATOM     50  N   UNL     1      -6.570  13.478  -2.207  1.00  0.00    -0.354 N 
ATOM     51  C   UNL     1      -5.737  17.133  -0.052  1.00  0.00     0.074 A 
ATOM     52  C   UNL     1      -4.408  17.101   0.517  1.00  0.00     0.031 C 
ATOM     53  C   UNL     1      -6.134  11.434  -2.999  1.00  0.00     0.029 A 
ATOM     54  C   UNL     1      -7.178  12.454  -2.887  1.00  0.00     0.049 A 
ATOM     55  H   UNL     1      -7.006  14.343  -2.030  1.00  0.00     0.167 HD
ATOM     56  C   UNL     1      -6.592  18.178   0.059  1.00  0.00     0.037 A 
ATOM     57  C   UNL     1      -8.443  12.340  -3.337  1.00  0.00     0.037 A 
ATOM     58  C   UNL     1      -7.918  18.197  -0.501  1.00  0.00     0.049 A 
ATOM     59  C   UNL     1      -9.402  13.489  -3.152  1.00  0.00     0.074 A 
ATOM     60  C   UNL     1      -8.851  19.218  -0.475  1.00  0.00     0.029 A 
ATOM     61  N   UNL     1      -8.506  17.135  -1.173  1.00  0.00    -0.354 N 
ATOM     62  N   UNL     1      -9.204  14.647  -2.570  1.00  0.00    -0.248 NA
ATOM     63  C   UNL     1     -10.757  13.316  -3.693  1.00  0.00     0.031 C 
ATOM     64  C   UNL     1     -10.028  18.748  -1.068  1.00  0.00     0.029 A 
ATOM     65  C   UNL     1      -9.805  17.461  -1.532  1.00  0.00     0.049 A 
ATOM     66  H   UNL     1      -8.066  16.276  -1.367  1.00  0.00     0.167 HD
ATOM     67  C   UNL     1     -10.398  15.349  -2.693  1.00  0.00     0.074 A 
ATOM     68  C   UNL     1     -11.310  14.490  -3.419  1.00  0.00     0.031 C 
ATOM     69  C   UNL     1     -10.708  16.593  -2.248  1.00  0.00     0.037 A 
BRANCH  56  70
ATOM     70  C   UNL     1      -6.128  19.361   0.861  1.00  0.00     0.064 A 
ATOM     71  C   UNL     1      -5.075  20.185   0.433  1.00  0.00     0.173 A 
ATOM     72  C   UNL     1      -6.740  19.668   2.086  1.00  0.00     0.173 A 
ATOM     73  F   UNL     1      -4.444  19.930  -0.723  1.00  0.00    -0.203 F 
ATOM     74  C   UNL     1      -4.622  21.239   1.223  1.00  0.00     0.198 A 
ATOM     75  C   UNL     1      -6.310  20.746   2.855  1.00  0.00     0.198 A 
ATOM     76  F   UNL     1      -7.755  18.918   2.542  1.00  0.00    -0.203 F 
ATOM     77  F   UNL     1      -3.567  21.965   0.828  1.00  0.00    -0.200 F 
ATOM     78  C   UNL     1      -5.243  21.522   2.430  1.00  0.00     0.200 A 
ATOM     79  F   UNL     1      -6.922  21.026   4.014  1.00  0.00    -0.200 F 
ATOM     80  F   UNL     1      -4.804  22.534   3.191  1.00  0.00    -0.200 F 
ENDBRANCH  56  70
BRANCH  57  81
ATOM     81  C   UNL     1      -8.875  11.076  -3.989  1.00  0.00     0.064 A 
ATOM     82  C   UNL     1      -9.165  11.022  -5.358  1.00  0.00     0.173 A 
ATOM     83  C   UNL     1      -8.989   9.887  -3.250  1.00  0.00     0.173 A 
ATOM     84  F   UNL     1      -9.097  12.136  -6.101  1.00  0.00    -0.203 F 
ATOM     85  C   UNL     1      -9.557   9.829  -5.964  1.00  0.00     0.198 A 
ATOM     86  C   UNL     1      -9.351   8.690  -3.862  1.00  0.00     0.198 A 
ATOM     87  F   UNL     1      -8.725   9.886  -1.935  1.00  0.00    -0.203 F 
ATOM     88  F   UNL     1      -9.863   9.812  -7.268  1.00  0.00    -0.200 F 
ATOM     89  C   UNL     1      -9.640   8.662  -5.218  1.00  0.00     0.200 A 
ATOM     90  F   UNL     1      -9.415   7.563  -3.140  1.00  0.00    -0.200 F 
ATOM     91  F   UNL     1     -10.001   7.513  -5.804  1.00  0.00    -0.200 F 
ENDBRANCH  57  81
BRANCH  69  92
ATOM     92  C   UNL     1     -12.082  17.119  -2.558  1.00  0.00     0.064 A 
ATOM     93  C   UNL     1     -13.231  16.599  -1.943  1.00  0.00     0.173 A 
ATOM     94  C   UNL     1     -12.247  18.192  -3.449  1.00  0.00     0.173 A 
ATOM     95  F   UNL     1     -13.134  15.566  -1.093  1.00  0.00    -0.203 F 
ATOM     96  C   UNL     1     -14.494  17.115  -2.230  1.00  0.00     0.198 A 
ATOM     97  C   UNL     1     -13.506  18.728  -3.705  1.00  0.00     0.198 A 
ATOM     98  F   UNL     1     -11.182  18.735  -4.059  1.00  0.00    -0.203 F 
ATOM     99  F   UNL     1     -15.582  16.568  -1.669  1.00  0.00    -0.200 F 
ATOM    100  C   UNL     1     -14.629  18.184  -3.103  1.00  0.00     0.200 A 
ATOM    101  F   UNL     1     -13.631  19.773  -4.535  1.00  0.00    -0.200 F 
ATOM    102  F   UNL     1     -15.843  18.685  -3.369  1.00  0.00    -0.200 F 
ENDBRANCH  69  92
ENDBRANCH  43  44
ENDBRANCH  36  38
ENDBRANCH  35  36
ENDBRANCH  34  35
ENDBRANCH  33  34
ENDBRANCH  32  33
ENDBRANCH  31  32
ENDBRANCH  30  31
ENDBRANCH  29  30
ENDBRANCH   1  29
TORSDOF 23
