REMARK SMILES Cc1cc(=O)n2cc(-c3ccccc3)nc2n1[C@H](C)C(=O)OCCOCCOCCOCCOC(=O)c1ccc(-c2c3nc(c(-c4c(F)c(F)c(F)c(F)c4F)c4ccc([nH]4)c(-c4c(F)c(F)c(F)c(F)c4F)c4nc(c(-c5c(F)c(F)c(F)c(F)c5F)c5ccc2[nH]5)C=C4)C=C3)cc1
REMARK SMILES IDX 28 1 27 2 26 3 25 4 24 5 23 6 22 7 20 8 21 9 18 10 19 11
REMARK SMILES IDX 17 12 1 13 2 14 3 15 4 16 16 17 5 18 6 19 15 20 7 21 8 22
REMARK SMILES IDX 9 23 10 24 14 25 11 26 13 27 12 28 29 29 30 30 31 31 32 32
REMARK SMILES IDX 33 33 34 34 35 35 36 36 37 37 38 38 99 39 39 40 98 41 40 42
REMARK SMILES IDX 41 43 42 44 92 45 43 46 97 47 91 48 93 49 44 50 96 51 90 52
REMARK SMILES IDX 89 53 45 55 77 56 57 57 76 58 58 59 61 60 75 61 94 62 59 63
REMARK SMILES IDX 60 64 74 66 95 67 62 68 46 69 47 70 55 71 48 72 49 73 53 74
REMARK SMILES IDX 56 75 50 76 51 77 54 78 52 79 78 80 79 81 87 82 80 83 81 84
REMARK SMILES IDX 85 85 88 86 82 87 83 88 86 89 84 90 63 91 64 92 72 93 65 94
REMARK SMILES IDX 66 95 70 96 73 97 67 98 68 99 71 100 69 101
REMARK H PARENT 93 54 61 65
REMARK Flexibility Score: inf
ROOT
ATOM      1  O   UNL     1       3.223  -2.361  -3.808  1.00  0.00    -0.377 OA
ENDROOT
BRANCH   1   2
ATOM      2  C   UNL     1       3.426  -1.806  -2.528  1.00  0.00     0.188 C 
BRANCH   2   3
ATOM      3  C   UNL     1       4.237  -2.655  -1.537  1.00  0.00     0.188 C 
BRANCH   3   4
ATOM      4  O   UNL     1       4.916  -3.833  -1.944  1.00  0.00    -0.376 OA
BRANCH   4   5
ATOM      5  C   UNL     1       4.381  -4.698  -2.934  1.00  0.00     0.202 C 
BRANCH   5   6
ATOM      6  C   UNL     1       2.949  -5.245  -2.829  1.00  0.00     0.261 C 
BRANCH   6   7
ATOM      7  O   UNL     1       1.917  -4.276  -2.579  1.00  0.00    -0.462 OA
BRANCH   7   8
ATOM      8  C   UNL     1       1.511  -4.195  -1.293  1.00  0.00     0.329 C 
ATOM      9  O   UNL     1       1.973  -4.901  -0.395  1.00  0.00    -0.250 OA
BRANCH   8  10
ATOM     10  C   UNL     1       0.393  -3.168  -1.008  1.00  0.00     0.197 C 
ATOM     11  C   UNL     1       0.126  -1.960  -1.925  1.00  0.00     0.044 C 
BRANCH  10  12
ATOM     12  N   UNL     1      -0.846  -3.938  -0.775  1.00  0.00    -0.301 N 
ATOM     13  C   UNL     1      -0.417  -4.063   1.705  1.00  0.00     0.065 C 
ATOM     14  C   UNL     1      -1.244  -4.407   0.486  1.00  0.00     0.024 A 
ATOM     15  C   UNL     1      -2.343  -5.173   0.621  1.00  0.00     0.093 A 
ATOM     16  C   UNL     1      -3.170  -5.508  -0.563  1.00  0.00     0.259 A 
ATOM     17  C   UNL     1      -1.517  -4.318  -1.903  1.00  0.00     0.218 A 
ATOM     18  O   UNL     1      -4.213  -6.145  -0.516  1.00  0.00    -0.269 OA
ATOM     19  N   UNL     1      -2.681  -5.036  -1.776  1.00  0.00    -0.251 N 
ATOM     20  N   UNL     1      -1.241  -4.064  -3.163  1.00  0.00    -0.212 NA
ATOM     21  C   UNL     1      -3.224  -5.132  -3.041  1.00  0.00     0.127 A 
ATOM     22  C   UNL     1      -2.323  -4.504  -3.873  1.00  0.00     0.091 A 
BRANCH  22  23
ATOM     23  C   UNL     1      -2.474  -4.282  -5.295  1.00  0.00     0.002 A 
ATOM     24  C   UNL     1      -3.650  -3.717  -5.806  1.00  0.00     0.010 A 
ATOM     25  C   UNL     1      -1.427  -4.590  -6.173  1.00  0.00     0.010 A 
ATOM     26  C   UNL     1      -3.791  -3.497  -7.178  1.00  0.00     0.001 A 
ATOM     27  C   UNL     1      -1.576  -4.384  -7.549  1.00  0.00     0.001 A 
ATOM     28  C   UNL     1      -2.760  -3.843  -8.050  1.00  0.00     0.000 A 
ENDBRANCH  22  23
ENDBRANCH  10  12
ENDBRANCH   8  10
ENDBRANCH   7   8
ENDBRANCH   6   7
ENDBRANCH   5   6
ENDBRANCH   4   5
ENDBRANCH   3   4
ENDBRANCH   2   3
ENDBRANCH   1   2
BRANCH   1  29
ATOM     29  C   UNL     1       4.110  -1.950  -4.837  1.00  0.00     0.188 C 
BRANCH  29  30
ATOM     30  C   UNL     1       5.584  -1.661  -4.467  1.00  0.00     0.188 C 
BRANCH  30  31
ATOM     31  O   UNL     1       5.782  -0.970  -3.236  1.00  0.00    -0.376 OA
BRANCH  31  32
ATOM     32  C   UNL     1       6.014   0.431  -3.203  1.00  0.00     0.202 C 
BRANCH  32  33
ATOM     33  C   UNL     1       4.854   1.363  -3.571  1.00  0.00     0.261 C 
BRANCH  33  34
ATOM     34  O   UNL     1       4.187   1.025  -4.773  1.00  0.00    -0.460 OA
BRANCH  34  35
ATOM     35  C   UNL     1       4.957   1.025  -5.868  1.00  0.00     0.338 C 
ATOM     36  O   UNL     1       6.174   1.202  -5.922  1.00  0.00    -0.246 OA
BRANCH  35  37
ATOM     37  C   UNL     1       4.114   0.883  -7.050  1.00  0.00     0.060 A 
ATOM     38  C   UNL     1       4.803   0.833  -8.256  1.00  0.00     0.016 A 
ATOM     39  C   UNL     1       2.755   1.231  -6.960  1.00  0.00     0.016 A 
ATOM     40  C   UNL     1       4.237   1.488  -9.313  1.00  0.00     0.010 A 
ATOM     41  C   UNL     1       2.186   1.881  -8.024  1.00  0.00     0.010 A 
ATOM     42  C   UNL     1       2.991   2.110  -9.130  1.00  0.00    -0.014 A 
BRANCH  42  43
ATOM     43  C   UNL     1       2.577   3.011 -10.173  1.00  0.00     0.031 A 
ATOM     44  C   UNL     1       2.267   2.308 -11.426  1.00  0.00     0.074 A 
ATOM     45  C   UNL     1       2.557   4.346 -10.023  1.00  0.00     0.049 A 
ATOM     46  N   UNL     1       2.982   2.284 -12.499  1.00  0.00    -0.248 NA
ATOM     47  C   UNL     1       1.144   1.364 -11.408  1.00  0.00     0.031 C 
ATOM     48  C   UNL     1       2.623   5.152  -8.803  1.00  0.00     0.029 A 
ATOM     49  N   UNL     1       2.415   5.277 -11.000  1.00  0.00    -0.354 N 
ATOM     50  C   UNL     1       2.308   1.443 -13.370  1.00  0.00     0.074 A 
ATOM     51  C   UNL     1       1.283   0.785 -12.600  1.00  0.00     0.031 C 
ATOM     52  C   UNL     1       2.300   6.433  -9.102  1.00  0.00     0.029 A 
ATOM     53  C   UNL     1       2.158   6.558 -10.543  1.00  0.00     0.049 A 
ATOM     54  H   UNL     1       2.489   5.058 -11.957  1.00  0.00     0.167 HD
ATOM     55  C   UNL     1       2.505   1.538 -14.709  1.00  0.00     0.037 A 
ATOM     56  C   UNL     1       1.785   7.603 -11.322  1.00  0.00     0.037 A 
ATOM     57  C   UNL     1       3.759   2.180 -15.011  1.00  0.00     0.049 A 
ATOM     58  C   UNL     1       2.224   7.294 -12.710  1.00  0.00     0.074 A 
ATOM     59  C   UNL     1       5.084   1.871 -14.772  1.00  0.00     0.029 A 
ATOM     60  N   UNL     1       3.742   3.514 -15.336  1.00  0.00    -0.354 N 
ATOM     61  N   UNL     1       3.472   7.247 -13.083  1.00  0.00    -0.248 NA
ATOM     62  C   UNL     1       1.286   6.596 -13.579  1.00  0.00     0.031 C 
ATOM     63  C   UNL     1       5.720   3.121 -14.511  1.00  0.00     0.029 A 
ATOM     64  C   UNL     1       4.760   4.124 -14.647  1.00  0.00     0.049 A 
ATOM     65  H   UNL     1       3.114   3.955 -15.953  1.00  0.00     0.167 HD
ATOM     66  C   UNL     1       3.537   6.185 -13.974  1.00  0.00     0.074 A 
ATOM     67  C   UNL     1       2.148   5.880 -14.306  1.00  0.00     0.031 C 
ATOM     68  C   UNL     1       4.691   5.475 -14.139  1.00  0.00     0.037 A 
BRANCH  55  69
ATOM     69  C   UNL     1       1.391   1.394 -15.710  1.00  0.00     0.064 A 
ATOM     70  C   UNL     1       1.700   1.405 -17.081  1.00  0.00     0.173 A 
ATOM     71  C   UNL     1       0.022   1.543 -15.390  1.00  0.00     0.173 A 
ATOM     72  F   UNL     1       2.971   1.295 -17.497  1.00  0.00    -0.203 F 
ATOM     73  C   UNL     1       0.722   1.628 -18.053  1.00  0.00     0.198 A 
ATOM     74  C   UNL     1      -0.958   1.707 -16.365  1.00  0.00     0.198 A 
ATOM     75  F   UNL     1      -0.416   1.653 -14.131  1.00  0.00    -0.203 F 
ATOM     76  F   UNL     1       1.081   1.760 -19.337  1.00  0.00    -0.200 F 
ATOM     77  C   UNL     1      -0.605   1.784 -17.694  1.00  0.00     0.200 A 
ATOM     78  F   UNL     1      -2.234   1.877 -15.991  1.00  0.00    -0.200 F 
ATOM     79  F   UNL     1      -1.534   2.058 -18.617  1.00  0.00    -0.200 F 
ENDBRANCH  55  69
BRANCH  56  80
ATOM     80  C   UNL     1       0.747   8.621 -11.033  1.00  0.00     0.064 A 
ATOM     81  C   UNL     1       0.613   9.755 -11.853  1.00  0.00     0.173 A 
ATOM     82  C   UNL     1      -0.320   8.357 -10.151  1.00  0.00     0.173 A 
ATOM     83  F   UNL     1       1.565  10.054 -12.749  1.00  0.00    -0.203 F 
ATOM     84  C   UNL     1      -0.537  10.550 -11.824  1.00  0.00     0.198 A 
ATOM     85  C   UNL     1      -1.464   9.155 -10.119  1.00  0.00     0.198 A 
ATOM     86  F   UNL     1      -0.320   7.263  -9.377  1.00  0.00    -0.203 F 
ATOM     87  F   UNL     1      -0.660  11.578 -12.675  1.00  0.00    -0.200 F 
ATOM     88  C   UNL     1      -1.580  10.241 -10.967  1.00  0.00     0.200 A 
ATOM     89  F   UNL     1      -2.481   8.825  -9.311  1.00  0.00    -0.200 F 
ATOM     90  F   UNL     1      -2.711  10.959 -10.989  1.00  0.00    -0.200 F 
ENDBRANCH  56  80
BRANCH  68  91
ATOM     91  C   UNL     1       5.948   6.034 -13.534  1.00  0.00     0.064 A 
ATOM     92  C   UNL     1       6.150   6.191 -12.151  1.00  0.00     0.173 A 
ATOM     93  C   UNL     1       7.042   6.274 -14.377  1.00  0.00     0.173 A 
ATOM     94  F   UNL     1       5.183   5.892 -11.274  1.00  0.00    -0.203 F 
ATOM     95  C   UNL     1       7.383   6.602 -11.643  1.00  0.00     0.198 A 
ATOM     96  C   UNL     1       8.281   6.647 -13.864  1.00  0.00     0.198 A 
ATOM     97  F   UNL     1       6.921   6.090 -15.701  1.00  0.00    -0.203 F 
ATOM     98  F   UNL     1       7.551   6.750 -10.321  1.00  0.00    -0.200 F 
ATOM     99  C   UNL     1       8.450   6.819 -12.500  1.00  0.00     0.200 A 
ATOM    100  F   UNL     1       9.322   6.809 -14.693  1.00  0.00    -0.200 F 
ATOM    101  F   UNL     1       9.648   7.166 -12.009  1.00  0.00    -0.200 F 
ENDBRANCH  68  91
ENDBRANCH  42  43
ENDBRANCH  35  37
ENDBRANCH  34  35
ENDBRANCH  33  34
ENDBRANCH  32  33
ENDBRANCH  31  32
ENDBRANCH  30  31
ENDBRANCH  29  30
ENDBRANCH   1  29
TORSDOF 22
