REMARK SMILES O=C(OCCOCCOCCOCCOC(=O)c1ccc([C@H]2CCCN(C(=O)c3ccc4[nH]ccc4c3)C2)cc1)c1ccc(-c2c3nc(c(-c4c(F)c(F)c(F)c(F)c4F)c4ccc([nH]4)c(-c4c(F)c(F)c(F)c(F)c4F)c4nc(c(-c5c(F)c(F)c(F)c(F)c5F)c5ccc2[nH]5)C=C4)C=C3)cc1
REMARK SMILES IDX 10 1 9 2 8 3 7 4 6 5 5 6 4 7 3 8 2 9 1 10 41 11 42 12 103 13
REMARK SMILES IDX 43 14 102 15 44 16 45 17 46 18 96 19 47 20 101 21 95 22
REMARK SMILES IDX 97 23 48 24 100 25 94 26 93 27 49 29 81 30 61 31 80 32 62 33
REMARK SMILES IDX 65 34 79 35 98 36 63 37 64 38 78 40 99 41 66 42 50 43 51 44
REMARK SMILES IDX 59 45 52 46 53 47 57 48 60 49 54 50 55 51 58 52 56 53 82 54
REMARK SMILES IDX 83 55 91 56 84 57 85 58 89 59 92 60 86 61 87 62 90 63 88 64
REMARK SMILES IDX 67 65 68 66 76 67 69 68 70 69 74 70 77 71 71 72 72 73 75 74
REMARK SMILES IDX 73 75 11 76 12 77 13 78 14 79 15 80 16 81 17 82 18 83 19 84
REMARK SMILES IDX 40 85 20 86 39 87 21 88 22 89 23 90 38 91 24 92 26 93 25 94
REMARK SMILES IDX 27 95 28 96 29 97 30 98 37 99 31 100 36 101 32 102 35 103
REMARK SMILES IDX 33 104 34 105
REMARK H PARENT 97 28 65 39 33 106
REMARK Flexibility Score: inf
ROOT
ATOM      1  C   UNL     1       3.939  -2.026  -3.384  1.00  0.00     0.188 C 
ENDROOT
BRANCH   1   2
ATOM      2  O   UNL     1       2.517  -2.031  -3.459  1.00  0.00    -0.377 OA
BRANCH   2   3
ATOM      3  C   UNL     1       1.821  -1.170  -2.559  1.00  0.00     0.188 C 
BRANCH   3   4
ATOM      4  C   UNL     1       2.266  -1.251  -1.099  1.00  0.00     0.188 C 
BRANCH   4   5
ATOM      5  O   UNL     1       3.576  -0.699  -0.940  1.00  0.00    -0.376 OA
BRANCH   5   6
ATOM      6  C   UNL     1       4.394  -1.359   0.025  1.00  0.00     0.202 C 
BRANCH   6   7
ATOM      7  C   UNL     1       4.163  -0.892   1.465  1.00  0.00     0.261 C 
BRANCH   7   8
ATOM      8  O   UNL     1       2.795  -0.535   1.714  1.00  0.00    -0.460 OA
BRANCH   8   9
ATOM      9  C   UNL     1       2.224   0.692   1.621  1.00  0.00     0.338 C 
ATOM     10  O   UNL     1       1.042   0.811   1.943  1.00  0.00    -0.246 OA
BRANCH   9  11
ATOM     11  C   UNL     1       2.947   1.927   1.181  1.00  0.00     0.060 A 
ATOM     12  C   UNL     1       4.069   1.961   0.352  1.00  0.00     0.016 A 
ATOM     13  C   UNL     1       2.405   3.158   1.594  1.00  0.00     0.016 A 
ATOM     14  C   UNL     1       4.692   3.153   0.012  1.00  0.00     0.010 A 
ATOM     15  C   UNL     1       3.004   4.369   1.231  1.00  0.00     0.010 A 
ATOM     16  C   UNL     1       4.175   4.361   0.467  1.00  0.00    -0.014 A 
BRANCH  16  17
ATOM     17  C   UNL     1       4.997   5.569   0.282  1.00  0.00     0.031 A 
ATOM     18  C   UNL     1       5.778   6.063   1.461  1.00  0.00     0.074 A 
ATOM     19  C   UNL     1       5.155   6.098  -0.943  1.00  0.00     0.049 A 
ATOM     20  N   UNL     1       6.537   7.119   1.575  1.00  0.00    -0.248 NA
ATOM     21  C   UNL     1       5.707   5.238   2.680  1.00  0.00     0.031 C 
ATOM     22  C   UNL     1       4.548   5.579  -2.169  1.00  0.00     0.029 A 
ATOM     23  N   UNL     1       5.901   7.166  -1.364  1.00  0.00    -0.354 N 
ATOM     24  C   UNL     1       7.003   7.102   2.883  1.00  0.00     0.074 A 
ATOM     25  C   UNL     1       6.445   5.935   3.527  1.00  0.00     0.031 C 
ATOM     26  C   UNL     1       4.961   6.321  -3.210  1.00  0.00     0.029 A 
ATOM     27  C   UNL     1       5.801   7.406  -2.712  1.00  0.00     0.049 A 
ATOM     28  H   UNL     1       6.456   7.709  -0.759  1.00  0.00     0.167 HD
ATOM     29  C   UNL     1       7.819   7.995   3.487  1.00  0.00     0.037 A 
ATOM     30  C   UNL     1       6.305   8.418  -3.442  1.00  0.00     0.037 A 
ATOM     31  C   UNL     1       8.358   9.143   2.811  1.00  0.00     0.049 A 
ATOM     32  C   UNL     1       7.124   9.460  -2.724  1.00  0.00     0.074 A 
ATOM     33  C   UNL     1       9.133  10.166   3.319  1.00  0.00     0.029 A 
ATOM     34  N   UNL     1       8.167   9.409   1.460  1.00  0.00    -0.354 N 
ATOM     35  N   UNL     1       7.494   9.497  -1.464  1.00  0.00    -0.248 NA
ATOM     36  C   UNL     1       7.577  10.608  -3.517  1.00  0.00     0.031 C 
ATOM     37  C   UNL     1       9.375  11.077   2.283  1.00  0.00     0.029 A 
ATOM     38  C   UNL     1       8.795  10.593   1.118  1.00  0.00     0.049 A 
ATOM     39  H   UNL     1       7.660   8.839   0.838  1.00  0.00     0.167 HD
ATOM     40  C   UNL     1       8.233  10.661  -1.314  1.00  0.00     0.074 A 
ATOM     41  C   UNL     1       8.277  11.290  -2.620  1.00  0.00     0.031 C 
ATOM     42  C   UNL     1       8.816  11.174  -0.202  1.00  0.00     0.037 A 
BRANCH  29  43
ATOM     43  C   UNL     1       8.086   7.793   4.949  1.00  0.00     0.064 A 
ATOM     44  C   UNL     1       8.888   6.745   5.425  1.00  0.00     0.173 A 
ATOM     45  C   UNL     1       7.477   8.633   5.894  1.00  0.00     0.173 A 
ATOM     46  F   UNL     1       9.466   5.893   4.564  1.00  0.00    -0.203 F 
ATOM     47  C   UNL     1       9.041   6.523   6.792  1.00  0.00     0.198 A 
ATOM     48  C   UNL     1       7.654   8.425   7.260  1.00  0.00     0.198 A 
ATOM     49  F   UNL     1       6.692   9.644   5.494  1.00  0.00    -0.203 F 
ATOM     50  F   UNL     1       9.755   5.474   7.224  1.00  0.00    -0.200 F 
ATOM     51  C   UNL     1       8.426   7.364   7.708  1.00  0.00     0.200 A 
ATOM     52  F   UNL     1       7.060   9.240   8.142  1.00  0.00    -0.200 F 
ATOM     53  F   UNL     1       8.562   7.141   9.022  1.00  0.00    -0.200 F 
ENDBRANCH  29  43
BRANCH  30  54
ATOM     54  C   UNL     1       6.003   8.524  -4.895  1.00  0.00     0.064 A 
ATOM     55  C   UNL     1       7.015   8.439  -5.862  1.00  0.00     0.173 A 
ATOM     56  C   UNL     1       4.691   8.728  -5.351  1.00  0.00     0.173 A 
ATOM     57  F   UNL     1       8.291   8.270  -5.483  1.00  0.00    -0.203 F 
ATOM     58  C   UNL     1       6.729   8.565  -7.221  1.00  0.00     0.198 A 
ATOM     59  C   UNL     1       4.401   8.822  -6.711  1.00  0.00     0.198 A 
ATOM     60  F   UNL     1       3.682   8.826  -4.473  1.00  0.00    -0.203 F 
ATOM     61  F   UNL     1       7.722   8.526  -8.120  1.00  0.00    -0.200 F 
ATOM     62  C   UNL     1       5.421   8.749  -7.645  1.00  0.00     0.200 A 
ATOM     63  F   UNL     1       3.133   8.987  -7.114  1.00  0.00    -0.200 F 
ATOM     64  F   UNL     1       5.146   8.867  -8.951  1.00  0.00    -0.200 F 
ENDBRANCH  30  54
BRANCH  42  65
ATOM     65  C   UNL     1       9.570  12.458  -0.366  1.00  0.00     0.064 A 
ATOM     66  C   UNL     1       8.906  13.680  -0.543  1.00  0.00     0.173 A 
ATOM     67  C   UNL     1      10.970  12.468  -0.288  1.00  0.00     0.173 A 
ATOM     68  F   UNL     1       7.569  13.715  -0.637  1.00  0.00    -0.203 F 
ATOM     69  C   UNL     1       9.622  14.867  -0.657  1.00  0.00     0.198 A 
ATOM     70  C   UNL     1      11.680  13.661  -0.372  1.00  0.00     0.198 A 
ATOM     71  F   UNL     1      11.647  11.323  -0.112  1.00  0.00    -0.203 F 
ATOM     72  F   UNL     1       8.972  16.020  -0.869  1.00  0.00    -0.200 F 
ATOM     73  C   UNL     1      11.006  14.858  -0.563  1.00  0.00     0.200 A 
ATOM     74  F   UNL     1      13.016  13.652  -0.266  1.00  0.00    -0.200 F 
ATOM     75  F   UNL     1      11.692  16.004  -0.661  1.00  0.00    -0.200 F 
ENDBRANCH  42  65
ENDBRANCH  16  17
ENDBRANCH   9  11
ENDBRANCH   8   9
ENDBRANCH   7   8
ENDBRANCH   6   7
ENDBRANCH   5   6
ENDBRANCH   4   5
ENDBRANCH   3   4
ENDBRANCH   2   3
ENDBRANCH   1   2
BRANCH   1  76
ATOM     76  C   UNL     1       4.681  -0.701  -3.661  1.00  0.00     0.188 C 
BRANCH  76  77
ATOM     77  O   UNL     1       3.837   0.418  -3.896  1.00  0.00    -0.376 OA
BRANCH  77  78
ATOM     78  C   UNL     1       3.761   0.857  -5.249  1.00  0.00     0.202 C 
BRANCH  78  79
ATOM     79  C   UNL     1       3.032  -0.082  -6.221  1.00  0.00     0.261 C 
BRANCH  79  80
ATOM     80  O   UNL     1       3.577  -1.407  -6.339  1.00  0.00    -0.460 OA
BRANCH  80  81
ATOM     81  C   UNL     1       4.819  -1.574  -6.849  1.00  0.00     0.338 C 
ATOM     82  O   UNL     1       5.562  -0.708  -7.274  1.00  0.00    -0.246 OA
BRANCH  81  83
ATOM     83  C   UNL     1       5.200  -2.984  -6.577  1.00  0.00     0.060 A 
ATOM     84  C   UNL     1       6.380  -3.260  -5.871  1.00  0.00     0.016 A 
ATOM     85  C   UNL     1       4.300  -4.014  -6.854  1.00  0.00     0.016 A 
ATOM     86  C   UNL     1       6.621  -4.551  -5.372  1.00  0.00     0.005 A 
ATOM     87  C   UNL     1       4.557  -5.299  -6.379  1.00  0.00     0.005 A 
ATOM     88  C   UNL     1       5.696  -5.579  -5.597  1.00  0.00    -0.043 A 
BRANCH  88  89
ATOM     89  C   UNL     1       5.810  -6.971  -5.008  1.00  0.00     0.039 C 
ATOM     90  C   UNL     1       6.595  -7.947  -5.901  1.00  0.00     0.012 C 
ATOM     91  C   UNL     1       6.365  -7.087  -3.577  1.00  0.00     0.128 C 
ATOM     92  C   UNL     1       6.429  -9.383  -5.377  1.00  0.00     0.022 C 
ATOM     93  N   UNL     1       6.077  -8.448  -3.108  1.00  0.00    -0.338 N 
ATOM     94  C   UNL     1       6.726  -9.514  -3.876  1.00  0.00     0.120 C 
BRANCH  93  95
ATOM     95  C   UNL     1       5.037  -8.604  -2.195  1.00  0.00     0.253 C 
ATOM     96  O   UNL     1       4.478  -7.663  -1.635  1.00  0.00    -0.269 OA
BRANCH  95  97
ATOM     97  C   UNL     1       4.498  -9.947  -1.922  1.00  0.00     0.040 A 
ATOM     98  C   UNL     1       3.253 -10.273  -2.470  1.00  0.00     0.016 A 
ATOM     99  C   UNL     1       5.152 -10.804  -1.028  1.00  0.00     0.024 A 
ATOM    100  C   UNL     1       2.633 -11.486  -2.159  1.00  0.00     0.027 A 
ATOM    101  C   UNL     1       4.528 -12.021  -0.688  1.00  0.00     0.000 A 
ATOM    102  C   UNL     1       3.293 -12.334  -1.262  1.00  0.00     0.045 A 
ATOM    103  C   UNL     1       4.858 -13.089   0.192  1.00  0.00     0.028 A 
ATOM    104  N   UNL     1       2.907 -13.555  -0.755  1.00  0.00    -0.361 N 
ATOM    105  C   UNL     1       3.841 -14.013   0.136  1.00  0.00     0.083 A 
ATOM    106  H   UNL     1       2.079 -14.030  -0.998  1.00  0.00     0.166 HD
ENDBRANCH  95  97
ENDBRANCH  93  95
ENDBRANCH  88  89
ENDBRANCH  81  83
ENDBRANCH  80  81
ENDBRANCH  79  80
ENDBRANCH  78  79
ENDBRANCH  77  78
ENDBRANCH  76  77
ENDBRANCH   1  76
TORSDOF 23
