REMARK SMILES CC[C@@H]1CCCN1c1cc(C)c(N)c(C(=O)OCCOCCOCCOCCOC(=O)c2ccc(-c3c4nc(c(-c5c(F)c(F)c(F)c(F)c5F)c5ccc([nH]5)c(-c5c(F)c(F)c(F)c(F)c5F)c5nc(c(-c6c(F)c(F)c(F)c(F)c6F)c6ccc3[nH]6)C=C5)C=C4)cc2)c1
REMARK SMILES IDX 23 1 22 2 21 3 20 4 19 5 18 6 17 7 15 8 16 9 14 10 8 11 9 12
REMARK SMILES IDX 95 13 10 14 11 15 12 16 7 17 3 18 4 19 5 20 6 21 2 22 1 23
REMARK SMILES IDX 13 24 24 27 25 28 26 29 27 30 28 31 29 32 30 33 31 34 32 35
REMARK SMILES IDX 33 36 94 37 34 38 93 39 35 40 36 41 37 42 87 43 38 44 92 45
REMARK SMILES IDX 86 46 88 47 39 48 91 49 85 50 84 51 40 53 72 54 52 55 71 56
REMARK SMILES IDX 53 57 56 58 70 59 89 60 54 61 55 62 69 64 90 65 57 66 41 67
REMARK SMILES IDX 42 68 50 69 43 70 44 71 48 72 51 73 45 74 46 75 49 76 47 77
REMARK SMILES IDX 73 78 74 79 82 80 75 81 76 82 80 83 83 84 77 85 78 86 81 87
REMARK SMILES IDX 79 88 58 89 59 90 67 91 60 92 61 93 65 94 68 95 62 96 63 97
REMARK SMILES IDX 66 98 64 99
REMARK H PARENT 13 25 13 26 88 52 56 63
REMARK Flexibility Score: inf
ROOT
ATOM      1  O   UNL     1       1.881   1.259   5.367  1.00  0.00    -0.377 OA
ENDROOT
BRANCH   1   2
ATOM      2  C   UNL     1       0.536   1.625   5.065  1.00  0.00     0.188 C 
BRANCH   2   3
ATOM      3  C   UNL     1      -0.509   1.914   6.170  1.00  0.00     0.188 C 
BRANCH   3   4
ATOM      4  O   UNL     1      -0.076   1.642   7.493  1.00  0.00    -0.376 OA
BRANCH   4   5
ATOM      5  C   UNL     1      -0.674   0.566   8.188  1.00  0.00     0.202 C 
BRANCH   5   6
ATOM      6  C   UNL     1      -0.382  -0.841   7.651  1.00  0.00     0.261 C 
BRANCH   6   7
ATOM      7  O   UNL     1      -0.590  -1.017   6.243  1.00  0.00    -0.460 OA
BRANCH   7   8
ATOM      8  C   UNL     1      -1.873  -0.991   5.808  1.00  0.00     0.340 C 
ATOM      9  O   UNL     1      -2.863  -0.869   6.510  1.00  0.00    -0.246 OA
BRANCH   8  10
ATOM     10  C   UNL     1      -1.874  -0.942   4.321  1.00  0.00     0.085 A 
ATOM     11  C   UNL     1      -0.903  -1.748   2.211  1.00  0.00     0.038 A 
ATOM     12  C   UNL     1      -1.795  -0.891   1.563  1.00  0.00     0.031 A 
ATOM     13  C   UNL     1      -0.977  -1.763   3.609  1.00  0.00     0.043 A 
ATOM     14  C   UNL     1      -2.681  -0.030   2.246  1.00  0.00    -0.025 A 
ATOM     15  C   UNL     1      -3.551   0.889   1.431  1.00  0.00     0.047 C 
ATOM     16  C   UNL     1      -2.728  -0.046   3.648  1.00  0.00     0.049 A 
BRANCH  11  17
ATOM     17  N   UNL     1      -0.055  -2.590   1.538  1.00  0.00    -0.369 N 
ATOM     18  C   UNL     1       0.806  -2.394   0.356  1.00  0.00     0.082 C 
ATOM     19  C   UNL     1       0.678  -3.763  -0.327  1.00  0.00     0.027 C 
ATOM     20  C   UNL     1       0.744  -4.726   0.847  1.00  0.00     0.024 C 
ATOM     21  C   UNL     1       0.018  -3.993   1.975  1.00  0.00     0.117 C 
BRANCH  18  22
ATOM     22  C   UNL     1       0.529  -1.268  -0.634  1.00  0.00     0.021 C 
ATOM     23  C   UNL     1       0.990   0.098  -0.140  1.00  0.00     0.006 C 
ENDBRANCH  18  22
ENDBRANCH  11  17
BRANCH  16  24
ATOM     24  N   UNL     1      -3.468   0.917   4.335  1.00  0.00    -0.398 N 
ATOM     25  H   UNL     1      -4.058   1.531   3.840  1.00  0.00     0.156 HD
ATOM     26  H   UNL     1      -3.401   0.984   5.315  1.00  0.00     0.156 HD
ENDBRANCH  16  24
ENDBRANCH   8  10
ENDBRANCH   7   8
ENDBRANCH   6   7
ENDBRANCH   5   6
ENDBRANCH   4   5
ENDBRANCH   3   4
ENDBRANCH   2   3
ENDBRANCH   1   2
BRANCH   1  27
ATOM     27  C   UNL     1       2.436   1.578   6.634  1.00  0.00     0.188 C 
BRANCH  27  28
ATOM     28  C   UNL     1       2.279   3.020   7.163  1.00  0.00     0.188 C 
BRANCH  28  29
ATOM     29  O   UNL     1       1.486   3.848   6.331  1.00  0.00    -0.376 OA
BRANCH  29  30
ATOM     30  C   UNL     1       2.139   4.779   5.489  1.00  0.00     0.202 C 
BRANCH  30  31
ATOM     31  C   UNL     1       3.217   4.284   4.511  1.00  0.00     0.261 C 
BRANCH  31  32
ATOM     32  O   UNL     1       4.222   3.404   5.036  1.00  0.00    -0.460 OA
BRANCH  32  33
ATOM     33  C   UNL     1       5.107   3.909   5.918  1.00  0.00     0.338 C 
ATOM     34  O   UNL     1       5.166   5.055   6.336  1.00  0.00    -0.246 OA
BRANCH  33  35
ATOM     35  C   UNL     1       5.890   2.775   6.452  1.00  0.00     0.060 A 
ATOM     36  C   UNL     1       5.816   2.474   7.819  1.00  0.00     0.016 A 
ATOM     37  C   UNL     1       6.670   1.993   5.597  1.00  0.00     0.016 A 
ATOM     38  C   UNL     1       6.545   1.404   8.339  1.00  0.00     0.010 A 
ATOM     39  C   UNL     1       7.421   0.938   6.123  1.00  0.00     0.010 A 
ATOM     40  C   UNL     1       7.385   0.658   7.501  1.00  0.00    -0.014 A 
BRANCH  40  41
ATOM     41  C   UNL     1       8.363  -0.284   8.096  1.00  0.00     0.031 A 
ATOM     42  C   UNL     1       9.777   0.187   8.292  1.00  0.00     0.074 A 
ATOM     43  C   UNL     1       8.001  -1.520   8.479  1.00  0.00     0.049 A 
ATOM     44  N   UNL     1      10.815  -0.460   8.757  1.00  0.00    -0.248 NA
ATOM     45  C   UNL     1      10.058   1.580   7.908  1.00  0.00     0.031 C 
ATOM     46  C   UNL     1       6.654  -2.075   8.379  1.00  0.00     0.029 A 
ATOM     47  N   UNL     1       8.746  -2.535   9.028  1.00  0.00    -0.354 N 
ATOM     48  C   UNL     1      11.869   0.444   8.717  1.00  0.00     0.074 A 
ATOM     49  C   UNL     1      11.356   1.672   8.150  1.00  0.00     0.031 C 
ATOM     50  C   UNL     1       6.669  -3.338   8.842  1.00  0.00     0.029 A 
ATOM     51  C   UNL     1       8.033  -3.688   9.238  1.00  0.00     0.049 A 
ATOM     52  H   UNL     1       9.701  -2.443   9.249  1.00  0.00     0.167 HD
ATOM     53  C   UNL     1      13.148   0.268   9.127  1.00  0.00     0.037 A 
ATOM     54  C   UNL     1       8.444  -4.895   9.676  1.00  0.00     0.037 A 
ATOM     55  C   UNL     1      13.655  -0.958   9.685  1.00  0.00     0.049 A 
ATOM     56  C   UNL     1       9.893  -5.090  10.048  1.00  0.00     0.074 A 
ATOM     57  C   UNL     1      14.931  -1.233  10.145  1.00  0.00     0.029 A 
ATOM     58  N   UNL     1      12.913  -2.119   9.845  1.00  0.00    -0.354 N 
ATOM     59  N   UNL     1      10.878  -4.225  10.037  1.00  0.00    -0.248 NA
ATOM     60  C   UNL     1      10.285  -6.434  10.498  1.00  0.00     0.031 C 
ATOM     61  C   UNL     1      14.977  -2.579  10.523  1.00  0.00     0.029 A 
ATOM     62  C   UNL     1      13.713  -3.124  10.366  1.00  0.00     0.049 A 
ATOM     63  H   UNL     1      11.959  -2.215   9.622  1.00  0.00     0.167 HD
ATOM     64  C   UNL     1      11.995  -4.907  10.505  1.00  0.00     0.074 A 
ATOM     65  C   UNL     1      11.560  -6.254  10.810  1.00  0.00     0.031 C 
ATOM     66  C   UNL     1      13.266  -4.461  10.667  1.00  0.00     0.037 A 
BRANCH  53  67
ATOM     67  C   UNL     1      14.095   1.421   8.955  1.00  0.00     0.064 A 
ATOM     68  C   UNL     1      13.983   2.594   9.717  1.00  0.00     0.173 A 
ATOM     69  C   UNL     1      15.149   1.339   8.032  1.00  0.00     0.173 A 
ATOM     70  F   UNL     1      12.984   2.731  10.603  1.00  0.00    -0.203 F 
ATOM     71  C   UNL     1      14.872   3.651   9.542  1.00  0.00     0.198 A 
ATOM     72  C   UNL     1      16.057   2.384   7.884  1.00  0.00     0.198 A 
ATOM     73  F   UNL     1      15.305   0.240   7.279  1.00  0.00    -0.203 F 
ATOM     74  F   UNL     1      14.713   4.782  10.243  1.00  0.00    -0.200 F 
ATOM     75  C   UNL     1      15.913   3.542   8.632  1.00  0.00     0.200 A 
ATOM     76  F   UNL     1      17.071   2.270   7.015  1.00  0.00    -0.200 F 
ATOM     77  F   UNL     1      16.773   4.556   8.471  1.00  0.00    -0.200 F 
ENDBRANCH  53  67
BRANCH  54  78
ATOM     78  C   UNL     1       7.478  -6.022   9.777  1.00  0.00     0.064 A 
ATOM     79  C   UNL     1       7.133  -6.574  11.019  1.00  0.00     0.173 A 
ATOM     80  C   UNL     1       6.904  -6.592   8.630  1.00  0.00     0.173 A 
ATOM     81  F   UNL     1       7.675  -6.083  12.143  1.00  0.00    -0.203 F 
ATOM     82  C   UNL     1       6.270  -7.665  11.108  1.00  0.00     0.198 A 
ATOM     83  C   UNL     1       6.015  -7.661   8.724  1.00  0.00     0.198 A 
ATOM     84  F   UNL     1       7.203  -6.107   7.416  1.00  0.00    -0.203 F 
ATOM     85  F   UNL     1       6.003  -8.208  12.304  1.00  0.00    -0.200 F 
ATOM     86  C   UNL     1       5.707  -8.204   9.962  1.00  0.00     0.200 A 
ATOM     87  F   UNL     1       5.464  -8.170   7.614  1.00  0.00    -0.200 F 
ATOM     88  F   UNL     1       4.877  -9.252  10.049  1.00  0.00    -0.200 F 
ENDBRANCH  54  78
BRANCH  66  89
ATOM     89  C   UNL     1      14.271  -5.426  11.236  1.00  0.00     0.064 A 
ATOM     90  C   UNL     1      14.720  -6.540  10.512  1.00  0.00     0.173 A 
ATOM     91  C   UNL     1      14.813  -5.214  12.514  1.00  0.00     0.173 A 
ATOM     92  F   UNL     1      14.226  -6.797   9.291  1.00  0.00    -0.203 F 
ATOM     93  C   UNL     1      15.644  -7.426  11.060  1.00  0.00     0.198 A 
ATOM     94  C   UNL     1      15.766  -6.080  13.043  1.00  0.00     0.198 A 
ATOM     95  F   UNL     1      14.428  -4.158  13.246  1.00  0.00    -0.203 F 
ATOM     96  F   UNL     1      16.011  -8.518  10.375  1.00  0.00    -0.200 F 
ATOM     97  C   UNL     1      16.172  -7.192  12.321  1.00  0.00     0.200 A 
ATOM     98  F   UNL     1      16.288  -5.841  14.254  1.00  0.00    -0.200 F 
ATOM     99  F   UNL     1      17.065  -8.043  12.845  1.00  0.00    -0.200 F 
ENDBRANCH  66  89
ENDBRANCH  40  41
ENDBRANCH  33  35
ENDBRANCH  32  33
ENDBRANCH  31  32
ENDBRANCH  30  31
ENDBRANCH  29  30
ENDBRANCH  28  29
ENDBRANCH  27  28
ENDBRANCH   1  27
TORSDOF 23
