REMARK SMILES Cn1cc(C[C@H](C(=O)OCCOCCOCCOCCOC(=O)c2ccc(-c3c4nc(c(-c5c(F)c(F)c(F)c(F)c5F)c5ccc([nH]5)c(-c5c(F)c(F)c(F)c(F)c5F)c5nc(c(-c6c(F)c(F)c(F)c(F)c6F)c6ccc3[nH]6)C=C5)C=C4)cc2)c2ccc(F)cc2)cn1
REMARK SMILES IDX 15 1 14 2 13 3 12 4 11 5 10 6 9 7 7 8 8 9 6 10 5 11 4 12
REMARK SMILES IDX 1 13 2 14 3 15 95 16 94 17 87 18 88 19 93 20 89 21 92 22
REMARK SMILES IDX 90 23 91 24 16 25 17 26 18 27 19 28 20 29 21 30 22 31 23 32
REMARK SMILES IDX 24 33 25 34 86 35 26 36 85 37 27 38 28 39 29 40 79 41 30 42
REMARK SMILES IDX 84 43 78 44 80 45 31 46 83 47 77 48 76 49 32 51 64 52 44 53
REMARK SMILES IDX 63 54 45 55 48 56 62 57 81 58 46 59 47 60 61 62 82 63 49 64
REMARK SMILES IDX 33 65 34 66 42 67 35 68 36 69 40 70 43 71 37 72 38 73 41 74
REMARK SMILES IDX 39 75 65 76 66 77 74 78 67 79 68 80 72 81 75 82 69 83 70 84
REMARK SMILES IDX 73 85 71 86 50 87 51 88 59 89 52 90 53 91 57 92 60 93 54 94
REMARK SMILES IDX 55 95 58 96 56 97
REMARK H PARENT 80 50 48 61
REMARK Flexibility Score: inf
ROOT
ATOM      1  O   UNL     1       4.083  -2.535   1.856  1.00  0.00    -0.377 OA
ENDROOT
BRANCH   1   2
ATOM      2  C   UNL     1       4.223  -1.206   1.395  1.00  0.00     0.188 C 
BRANCH   2   3
ATOM      3  C   UNL     1       2.972  -0.327   1.584  1.00  0.00     0.188 C 
BRANCH   3   4
ATOM      4  O   UNL     1       1.876  -0.792   2.360  1.00  0.00    -0.376 OA
BRANCH   4   5
ATOM      5  C   UNL     1       1.405  -2.124   2.200  1.00  0.00     0.202 C 
BRANCH   5   6
ATOM      6  C   UNL     1       1.190  -2.723   0.796  1.00  0.00     0.261 C 
BRANCH   6   7
ATOM      7  O   UNL     1       2.269  -2.509  -0.134  1.00  0.00    -0.463 OA
BRANCH   7   8
ATOM      8  C   UNL     1       1.981  -1.876  -1.296  1.00  0.00     0.313 C 
ATOM      9  O   UNL     1       0.845  -1.543  -1.622  1.00  0.00    -0.252 OA
BRANCH   8  10
ATOM     10  C   UNL     1       3.205  -1.488  -2.142  1.00  0.00     0.134 C 
BRANCH  10  11
ATOM     11  C   UNL     1       3.327   0.054  -2.005  1.00  0.00     0.059 C 
BRANCH  11  12
ATOM     12  C   UNL     1       3.765   0.797  -3.224  1.00  0.00    -0.009 A 
ATOM     13  C   UNL     1       4.334   3.695  -5.287  1.00  0.00     0.173 C 
ATOM     14  N   UNL     1       4.225   2.410  -4.642  1.00  0.00    -0.276 N 
ATOM     15  C   UNL     1       3.866   2.169  -3.350  1.00  0.00     0.112 A 
ATOM     16  N   UNL     1       4.437   1.291  -5.353  1.00  0.00    -0.182 NA
ATOM     17  C   UNL     1       4.149   0.312  -4.495  1.00  0.00     0.138 A 
ENDBRANCH  11  12
ENDBRANCH  10  11
BRANCH  10  18
ATOM     18  C   UNL     1       4.517  -2.272  -1.926  1.00  0.00    -0.033 A 
ATOM     19  C   UNL     1       4.495  -3.668  -1.751  1.00  0.00     0.007 A 
ATOM     20  C   UNL     1       5.783  -1.642  -1.927  1.00  0.00     0.007 A 
ATOM     21  C   UNL     1       5.673  -4.388  -1.518  1.00  0.00     0.039 A 
ATOM     22  C   UNL     1       6.959  -2.361  -1.692  1.00  0.00     0.039 A 
ATOM     23  C   UNL     1       6.893  -3.728  -1.481  1.00  0.00     0.123 A 
ATOM     24  F   UNL     1       8.017  -4.417  -1.244  1.00  0.00    -0.207 F 
ENDBRANCH  10  18
ENDBRANCH   8  10
ENDBRANCH   7   8
ENDBRANCH   6   7
ENDBRANCH   5   6
ENDBRANCH   4   5
ENDBRANCH   3   4
ENDBRANCH   2   3
ENDBRANCH   1   2
BRANCH   1  25
ATOM     25  C   UNL     1       4.636  -2.814   3.131  1.00  0.00     0.188 C 
BRANCH  25  26
ATOM     26  C   UNL     1       4.479  -1.741   4.226  1.00  0.00     0.188 C 
BRANCH  26  27
ATOM     27  O   UNL     1       4.918  -0.445   3.836  1.00  0.00    -0.376 OA
BRANCH  27  28
ATOM     28  C   UNL     1       6.223  -0.021   4.204  1.00  0.00     0.202 C 
BRANCH  28  29
ATOM     29  C   UNL     1       7.423  -0.725   3.547  1.00  0.00     0.261 C 
BRANCH  29  30
ATOM     30  O   UNL     1       7.511  -2.147   3.722  1.00  0.00    -0.460 OA
BRANCH  30  31
ATOM     31  C   UNL     1       7.561  -2.630   4.979  1.00  0.00     0.338 C 
ATOM     32  O   UNL     1       7.608  -1.988   6.015  1.00  0.00    -0.246 OA
BRANCH  31  33
ATOM     33  C   UNL     1       7.338  -4.090   4.911  1.00  0.00     0.060 A 
ATOM     34  C   UNL     1       6.254  -4.641   5.609  1.00  0.00     0.016 A 
ATOM     35  C   UNL     1       8.178  -4.910   4.153  1.00  0.00     0.016 A 
ATOM     36  C   UNL     1       6.032  -6.017   5.585  1.00  0.00     0.010 A 
ATOM     37  C   UNL     1       7.971  -6.292   4.151  1.00  0.00     0.010 A 
ATOM     38  C   UNL     1       6.919  -6.854   4.897  1.00  0.00    -0.014 A 
BRANCH  38  39
ATOM     39  C   UNL     1       6.879  -8.317   5.137  1.00  0.00     0.031 A 
ATOM     40  C   UNL     1       7.832  -8.896   6.145  1.00  0.00     0.074 A 
ATOM     41  C   UNL     1       6.007  -9.113   4.496  1.00  0.00     0.049 A 
ATOM     42  N   UNL     1       8.024 -10.142   6.495  1.00  0.00    -0.248 NA
ATOM     43  C   UNL     1       8.689  -7.933   6.854  1.00  0.00     0.031 C 
ATOM     44  C   UNL     1       5.005  -8.667   3.533  1.00  0.00     0.029 A 
ATOM     45  N   UNL     1       5.837 -10.475   4.558  1.00  0.00    -0.354 N 
ATOM     46  C   UNL     1       9.028 -10.112   7.454  1.00  0.00     0.074 A 
ATOM     47  C   UNL     1       9.429  -8.731   7.607  1.00  0.00     0.031 C 
ATOM     48  C   UNL     1       4.332  -9.739   3.079  1.00  0.00     0.029 A 
ATOM     49  C   UNL     1       4.881 -10.948   3.694  1.00  0.00     0.049 A 
ATOM     50  H   UNL     1       6.351 -11.056   5.164  1.00  0.00     0.167 HD
ATOM     51  C   UNL     1       9.563 -11.143   8.151  1.00  0.00     0.037 A 
ATOM     52  C   UNL     1       4.514 -12.214   3.415  1.00  0.00     0.037 A 
ATOM     53  C   UNL     1       9.168 -12.517   7.988  1.00  0.00     0.049 A 
ATOM     54  C   UNL     1       5.181 -13.355   4.142  1.00  0.00     0.074 A 
ATOM     55  C   UNL     1       9.634 -13.634   8.656  1.00  0.00     0.029 A 
ATOM     56  N   UNL     1       8.220 -12.962   7.076  1.00  0.00    -0.354 N 
ATOM     57  N   UNL     1       6.109 -13.321   5.068  1.00  0.00    -0.248 NA
ATOM     58  C   UNL     1       4.744 -14.713   3.786  1.00  0.00     0.031 C 
ATOM     59  C   UNL     1       9.018 -14.762   8.103  1.00  0.00     0.029 A 
ATOM     60  C   UNL     1       8.113 -14.342   7.141  1.00  0.00     0.049 A 
ATOM     61  H   UNL     1       7.700 -12.383   6.473  1.00  0.00     0.167 HD
ATOM     62  C   UNL     1       6.344 -14.643   5.427  1.00  0.00     0.074 A 
ATOM     63  C   UNL     1       5.452 -15.455   4.626  1.00  0.00     0.031 C 
ATOM     64  C   UNL     1       7.217 -15.139   6.340  1.00  0.00     0.037 A 
BRANCH  51  65
ATOM     65  C   UNL     1      10.664 -10.821   9.122  1.00  0.00     0.064 A 
ATOM     66  C   UNL     1      10.430 -10.086  10.295  1.00  0.00     0.173 A 
ATOM     67  C   UNL     1      11.974 -11.258   8.875  1.00  0.00     0.173 A 
ATOM     68  F   UNL     1       9.199  -9.630  10.572  1.00  0.00    -0.203 F 
ATOM     69  C   UNL     1      11.472  -9.768  11.162  1.00  0.00     0.198 A 
ATOM     70  C   UNL     1      13.007 -10.969   9.762  1.00  0.00     0.198 A 
ATOM     71  F   UNL     1      12.255 -11.966   7.771  1.00  0.00    -0.203 F 
ATOM     72  F   UNL     1      11.236  -9.009  12.241  1.00  0.00    -0.200 F 
ATOM     73  C   UNL     1      12.758 -10.215  10.898  1.00  0.00     0.200 A 
ATOM     74  F   UNL     1      14.246 -11.415   9.513  1.00  0.00    -0.200 F 
ATOM     75  F   UNL     1      13.760  -9.909  11.734  1.00  0.00    -0.200 F 
ENDBRANCH  51  65
BRANCH  52  76
ATOM     76  C   UNL     1       3.469 -12.472   2.389  1.00  0.00     0.064 A 
ATOM     77  C   UNL     1       2.219 -12.997   2.742  1.00  0.00     0.173 A 
ATOM     78  C   UNL     1       3.702 -12.204   1.031  1.00  0.00     0.173 A 
ATOM     79  F   UNL     1       1.956 -13.296   4.023  1.00  0.00    -0.203 F 
ATOM     80  C   UNL     1       1.247 -13.257   1.777  1.00  0.00     0.198 A 
ATOM     81  C   UNL     1       2.720 -12.434   0.071  1.00  0.00     0.198 A 
ATOM     82  F   UNL     1       4.883 -11.704   0.638  1.00  0.00    -0.203 F 
ATOM     83  F   UNL     1       0.076 -13.800   2.137  1.00  0.00    -0.200 F 
ATOM     84  C   UNL     1       1.495 -12.967   0.443  1.00  0.00     0.200 A 
ATOM     85  F   UNL     1       2.959 -12.140  -1.214  1.00  0.00    -0.200 F 
ATOM     86  F   UNL     1       0.557 -13.208  -0.483  1.00  0.00    -0.200 F 
ENDBRANCH  52  76
BRANCH  64  87
ATOM     87  C   UNL     1       7.224 -16.627   6.559  1.00  0.00     0.064 A 
ATOM     88  C   UNL     1       7.713 -17.518   5.592  1.00  0.00     0.173 A 
ATOM     89  C   UNL     1       6.778 -17.165   7.777  1.00  0.00     0.173 A 
ATOM     90  F   UNL     1       8.140 -17.059   4.406  1.00  0.00    -0.203 F 
ATOM     91  C   UNL     1       7.728 -18.892   5.825  1.00  0.00     0.198 A 
ATOM     92  C   UNL     1       6.828 -18.535   8.021  1.00  0.00     0.198 A 
ATOM     93  F   UNL     1       6.309 -16.359   8.742  1.00  0.00    -0.203 F 
ATOM     94  F   UNL     1       8.150 -19.727   4.866  1.00  0.00    -0.200 F 
ATOM     95  C   UNL     1       7.294 -19.398   7.041  1.00  0.00     0.200 A 
ATOM     96  F   UNL     1       6.427 -19.019   9.204  1.00  0.00    -0.200 F 
ATOM     97  F   UNL     1       7.319 -20.718   7.267  1.00  0.00    -0.200 F 
ENDBRANCH  64  87
ENDBRANCH  38  39
ENDBRANCH  31  33
ENDBRANCH  30  31
ENDBRANCH  29  30
ENDBRANCH  28  29
ENDBRANCH  27  28
ENDBRANCH  26  27
ENDBRANCH  25  26
ENDBRANCH   1  25
TORSDOF 23
