REMARK SMILES [NH3+]C[C@H]1CC[C@@H](C(=O)N[C@H](C(=O)OCCOCCOCCOCCOC(=O)c2ccc(-c3c4nc(c(-c5c(F)c(F)c(F)c(F)c5F)c5ccc([nH]5)c(-c5c(F)c(F)c(F)c(F)c5F)c5nc(c(-c6c(F)c(F)c(F)c(F)c6F)c6ccc3[nH]6)C=C5)C=C4)cc2)C2CCCCC2)O1
REMARK SMILES IDX 18 1 17 2 16 3 15 4 14 5 13 6 11 7 12 8 10 9 9 10 7 11 8 12
REMARK SMILES IDX 6 14 3 15 4 16 97 17 5 18 2 19 1 20 91 24 92 25 96 26 93 27
REMARK SMILES IDX 95 28 94 29 19 30 20 31 21 32 22 33 23 34 24 35 25 36 26 37
REMARK SMILES IDX 27 38 28 39 29 40 90 41 30 42 89 43 31 44 32 45 33 46 83 47
REMARK SMILES IDX 34 48 88 49 82 50 84 51 35 52 87 53 81 54 80 55 36 57 68 58
REMARK SMILES IDX 48 59 67 60 49 61 52 62 66 63 85 64 50 65 51 66 65 68 86 69
REMARK SMILES IDX 53 70 37 71 38 72 46 73 39 74 40 75 44 76 47 77 41 78 42 79
REMARK SMILES IDX 45 80 43 81 69 82 70 83 78 84 71 85 72 86 76 87 79 88 73 89
REMARK SMILES IDX 74 90 77 91 75 92 54 93 55 94 63 95 56 96 57 97 61 98 64 99
REMARK SMILES IDX 58 100 59 101 62 102 60 103
REMARK H PARENT 9 13 1 21 1 22 1 23 84 56 52 67
REMARK Flexibility Score: inf
ROOT
ATOM      1  C   UNL     1      -4.823   3.204  -2.649  1.00  0.00     0.188 C 
ENDROOT
BRANCH   1   2
ATOM      2  C   UNL     1      -4.612   2.665  -1.206  1.00  0.00     0.188 C 
BRANCH   2   3
ATOM      3  O   UNL     1      -3.273   2.389  -0.860  1.00  0.00    -0.376 OA
BRANCH   3   4
ATOM      4  C   UNL     1      -2.833   1.060  -0.761  1.00  0.00     0.202 C 
BRANCH   4   5
ATOM      5  C   UNL     1      -3.099   0.112  -1.919  1.00  0.00     0.261 C 
BRANCH   5   6
ATOM      6  O   UNL     1      -4.214   0.415  -2.763  1.00  0.00    -0.462 OA
BRANCH   6   7
ATOM      7  C   UNL     1      -5.348  -0.329  -2.599  1.00  0.00     0.329 C 
ATOM      8  O   UNL     1      -5.577  -1.040  -1.630  1.00  0.00    -0.250 OA
BRANCH   7   9
ATOM      9  C   UNL     1      -6.252  -0.173  -3.852  1.00  0.00     0.195 C 
BRANCH   9  10
ATOM     10  N   UNL     1      -6.165  -1.335  -4.769  1.00  0.00    -0.340 N 
ATOM     11  C   UNL     1      -5.055  -1.884  -5.381  1.00  0.00     0.249 C 
ATOM     12  O   UNL     1      -5.209  -2.454  -6.463  1.00  0.00    -0.272 OA
ATOM     13  H   UNL     1      -7.020  -1.778  -4.971  1.00  0.00     0.164 HD
BRANCH  11  14
ATOM     14  C   UNL     1      -3.681  -1.789  -4.701  1.00  0.00     0.207 C 
ATOM     15  C   UNL     1      -2.585  -3.077  -3.052  1.00  0.00     0.174 C 
ATOM     16  C   UNL     1      -1.608  -2.786  -4.172  1.00  0.00     0.041 C 
ATOM     17  O   UNL     1      -3.783  -2.364  -3.389  1.00  0.00    -0.359 OA
ATOM     18  C   UNL     1      -2.514  -2.507  -5.355  1.00  0.00     0.045 C 
BRANCH  15  19
ATOM     19  C   UNL     1      -2.931  -4.560  -2.854  1.00  0.00     0.291 C 
BRANCH  19  20
ATOM     20  N   UNL     1      -3.926  -4.738  -1.787  1.00  0.00    -0.355 N 
ATOM     21  H   UNL     1      -4.135  -5.730  -1.679  1.00  0.00     0.344 HD
ATOM     22  H   UNL     1      -4.780  -4.235  -2.031  1.00  0.00     0.344 HD
ATOM     23  H   UNL     1      -3.554  -4.372  -0.911  1.00  0.00     0.344 HD
ENDBRANCH  19  20
ENDBRANCH  15  19
ENDBRANCH  11  14
ENDBRANCH   9  10
BRANCH   9  24
ATOM     24  C   UNL     1      -7.708   0.069  -3.304  1.00  0.00     0.023 C 
ATOM     25  C   UNL     1      -7.809   1.397  -2.518  1.00  0.00     0.006 C 
ATOM     26  C   UNL     1      -8.841   0.072  -4.346  1.00  0.00     0.006 C 
ATOM     27  C   UNL     1      -9.154   1.583  -1.824  1.00  0.00     0.000 C 
ATOM     28  C   UNL     1     -10.206   0.204  -3.651  1.00  0.00     0.000 C 
ATOM     29  C   UNL     1     -10.312   1.466  -2.801  1.00  0.00     0.000 C 
ENDBRANCH   9  24
ENDBRANCH   7   9
ENDBRANCH   6   7
ENDBRANCH   5   6
ENDBRANCH   4   5
ENDBRANCH   3   4
ENDBRANCH   2   3
ENDBRANCH   1   2
BRANCH   1  30
ATOM     30  O   UNL     1      -3.783   3.705  -3.484  1.00  0.00    -0.377 OA
BRANCH  30  31
ATOM     31  C   UNL     1      -2.444   3.706  -3.017  1.00  0.00     0.188 C 
BRANCH  31  32
ATOM     32  C   UNL     1      -2.167   4.608  -1.798  1.00  0.00     0.188 C 
BRANCH  32  33
ATOM     33  O   UNL     1      -3.325   5.146  -1.195  1.00  0.00    -0.376 OA
BRANCH  33  34
ATOM     34  C   UNL     1      -3.917   6.335  -1.679  1.00  0.00     0.202 C 
BRANCH  34  35
ATOM     35  C   UNL     1      -3.812   6.842  -3.129  1.00  0.00     0.261 C 
BRANCH  35  36
ATOM     36  O   UNL     1      -2.647   6.514  -3.890  1.00  0.00    -0.460 OA
BRANCH  36  37
ATOM     37  C   UNL     1      -1.491   7.126  -3.571  1.00  0.00     0.338 C 
ATOM     38  O   UNL     1      -1.295   7.934  -2.679  1.00  0.00    -0.246 OA
BRANCH  37  39
ATOM     39  C   UNL     1      -0.440   6.483  -4.386  1.00  0.00     0.060 A 
ATOM     40  C   UNL     1       0.571   5.740  -3.758  1.00  0.00     0.016 A 
ATOM     41  C   UNL     1      -0.478   6.597  -5.777  1.00  0.00     0.016 A 
ATOM     42  C   UNL     1       1.564   5.130  -4.521  1.00  0.00     0.010 A 
ATOM     43  C   UNL     1       0.537   6.017  -6.537  1.00  0.00     0.010 A 
ATOM     44  C   UNL     1       1.579   5.313  -5.908  1.00  0.00    -0.014 A 
BRANCH  44  45
ATOM     45  C   UNL     1       2.801   4.989  -6.674  1.00  0.00     0.031 A 
ATOM     46  C   UNL     1       3.777   6.102  -6.932  1.00  0.00     0.074 A 
ATOM     47  C   UNL     1       3.043   3.747  -7.122  1.00  0.00     0.049 A 
ATOM     48  N   UNL     1       4.866   6.106  -7.654  1.00  0.00    -0.248 NA
ATOM     49  C   UNL     1       3.475   7.393  -6.288  1.00  0.00     0.031 C 
ATOM     50  C   UNL     1       2.197   2.581  -6.883  1.00  0.00     0.029 A 
ATOM     51  N   UNL     1       4.073   3.268  -7.891  1.00  0.00    -0.354 N 
ATOM     52  C   UNL     1       5.370   7.397  -7.562  1.00  0.00     0.074 A 
ATOM     53  C   UNL     1       4.455   8.157  -6.740  1.00  0.00     0.031 C 
ATOM     54  C   UNL     1       2.732   1.521  -7.514  1.00  0.00     0.029 A 
ATOM     55  C   UNL     1       3.934   1.946  -8.232  1.00  0.00     0.049 A 
ATOM     56  H   UNL     1       4.839   3.820  -8.172  1.00  0.00     0.167 HD
ATOM     57  C   UNL     1       6.498   7.900  -8.113  1.00  0.00     0.037 A 
ATOM     58  C   UNL     1       4.678   1.184  -9.057  1.00  0.00     0.037 A 
ATOM     59  C   UNL     1       7.397   7.137  -8.935  1.00  0.00     0.049 A 
ATOM     60  C   UNL     1       5.882   1.792  -9.733  1.00  0.00     0.074 A 
ATOM     61  C   UNL     1       8.575   7.544  -9.534  1.00  0.00     0.029 A 
ATOM     62  N   UNL     1       7.208   5.807  -9.285  1.00  0.00    -0.354 N 
ATOM     63  N   UNL     1       6.368   3.006  -9.630  1.00  0.00    -0.248 NA
ATOM     64  C   UNL     1       6.641   0.922 -10.643  1.00  0.00     0.031 C 
ATOM     65  C   UNL     1       9.066   6.481 -10.297  1.00  0.00     0.029 A 
ATOM     66  C   UNL     1       8.232   5.388 -10.117  1.00  0.00     0.049 A 
ATOM     67  H   UNL     1       6.457   5.246  -8.985  1.00  0.00     0.167 HD
ATOM     68  C   UNL     1       7.504   3.035 -10.430  1.00  0.00     0.074 A 
ATOM     69  C   UNL     1       7.642   1.713 -11.003  1.00  0.00     0.031 C 
ATOM     70  C   UNL     1       8.358   4.062 -10.668  1.00  0.00     0.037 A 
BRANCH  57  71
ATOM     71  C   UNL     1       6.800   9.351  -7.873  1.00  0.00     0.064 A 
ATOM     72  C   UNL     1       7.171   9.832  -6.609  1.00  0.00     0.173 A 
ATOM     73  C   UNL     1       6.736  10.270  -8.932  1.00  0.00     0.173 A 
ATOM     74  F   UNL     1       7.229   8.999  -5.559  1.00  0.00    -0.203 F 
ATOM     75  C   UNL     1       7.441  11.184  -6.408  1.00  0.00     0.198 A 
ATOM     76  C   UNL     1       7.040  11.613  -8.735  1.00  0.00     0.198 A 
ATOM     77  F   UNL     1       6.385   9.863 -10.161  1.00  0.00    -0.203 F 
ATOM     78  F   UNL     1       7.742  11.630  -5.181  1.00  0.00    -0.200 F 
ATOM     79  C   UNL     1       7.384  12.071  -7.472  1.00  0.00     0.200 A 
ATOM     80  F   UNL     1       6.996  12.466  -9.767  1.00  0.00    -0.200 F 
ATOM     81  F   UNL     1       7.653  13.370  -7.279  1.00  0.00    -0.200 F 
ENDBRANCH  57  71
BRANCH  58  82
ATOM     82  C   UNL     1       4.299  -0.232  -9.311  1.00  0.00     0.064 A 
ATOM     83  C   UNL     1       5.117  -1.287  -8.885  1.00  0.00     0.173 A 
ATOM     84  C   UNL     1       3.125  -0.559 -10.007  1.00  0.00     0.173 A 
ATOM     85  F   UNL     1       6.262  -1.026  -8.237  1.00  0.00    -0.203 F 
ATOM     86  C   UNL     1       4.789  -2.612  -9.165  1.00  0.00     0.198 A 
ATOM     87  C   UNL     1       2.781  -1.886 -10.258  1.00  0.00     0.198 A 
ATOM     88  F   UNL     1       2.306   0.411 -10.438  1.00  0.00    -0.203 F 
ATOM     89  F   UNL     1       5.617  -3.598  -8.792  1.00  0.00    -0.200 F 
ATOM     90  C   UNL     1       3.619  -2.911  -9.845  1.00  0.00     0.200 A 
ATOM     91  F   UNL     1       1.642  -2.170 -10.902  1.00  0.00    -0.200 F 
ATOM     92  F   UNL     1       3.302  -4.186 -10.111  1.00  0.00    -0.200 F 
ENDBRANCH  58  82
BRANCH  70  93
ATOM     93  C   UNL     1       9.546   3.788 -11.547  1.00  0.00     0.064 A 
ATOM     94  C   UNL     1       9.414   3.577 -12.927  1.00  0.00     0.173 A 
ATOM     95  C   UNL     1      10.842   3.793 -11.006  1.00  0.00     0.173 A 
ATOM     96  F   UNL     1       8.198   3.550 -13.493  1.00  0.00    -0.203 F 
ATOM     97  C   UNL     1      10.532   3.354 -13.727  1.00  0.00     0.198 A 
ATOM     98  C   UNL     1      11.959   3.606 -11.814  1.00  0.00     0.198 A 
ATOM     99  F   UNL     1      11.026   4.001  -9.693  1.00  0.00    -0.203 F 
ATOM    100  F   UNL     1      10.378   3.104 -15.035  1.00  0.00    -0.200 F 
ATOM    101  C   UNL     1      11.803   3.378 -13.173  1.00  0.00     0.200 A 
ATOM    102  F   UNL     1      13.186   3.650 -11.279  1.00  0.00    -0.200 F 
ATOM    103  F   UNL     1      12.878   3.177 -13.947  1.00  0.00    -0.200 F 
ENDBRANCH  70  93
ENDBRANCH  44  45
ENDBRANCH  37  39
ENDBRANCH  36  37
ENDBRANCH  35  36
ENDBRANCH  34  35
ENDBRANCH  33  34
ENDBRANCH  32  33
ENDBRANCH  31  32
ENDBRANCH  30  31
ENDBRANCH   1  30
TORSDOF 25
