REMARK SMILES Cc1ccc(Cl)c(Nc2ccccc2C(=O)N[C@@H](C)C(=O)OCCOCCOCCOCCOC(=O)c2ccc(-c3c4nc(c(-c5c(F)c(F)c(F)c(F)c5F)c5ccc([nH]5)c(-c5c(F)c(F)c(F)c(F)c5F)c5nc(c(-c6c(F)c(F)c(F)c(F)c6F)c6ccc3[nH]6)C=C5)C=C4)cc2)c1Cl
REMARK SMILES IDX 27 1 26 2 25 3 24 4 23 5 22 6 20 7 21 8 18 9 19 10 17 11
REMARK SMILES IDX 15 12 16 13 14 15 9 16 10 17 11 18 13 19 12 20 8 21 7 23
REMARK SMILES IDX 1 24 2 25 3 26 100 27 4 28 101 29 5 30 6 31 28 32 29 33
REMARK SMILES IDX 30 34 31 35 32 36 33 37 34 38 35 39 36 40 37 41 38 42 99 43
REMARK SMILES IDX 39 44 98 45 40 46 41 47 42 48 92 49 43 50 97 51 91 52 93 53
REMARK SMILES IDX 44 54 96 55 90 56 89 57 45 59 77 60 57 61 76 62 58 63 61 64
REMARK SMILES IDX 75 65 94 66 59 67 60 68 74 70 95 71 62 72 46 73 47 74 55 75
REMARK SMILES IDX 48 76 49 77 53 78 56 79 50 80 51 81 54 82 52 83 78 84 79 85
REMARK SMILES IDX 87 86 80 87 81 88 85 89 88 90 82 91 83 92 86 93 84 94 63 95
REMARK SMILES IDX 64 96 72 97 65 98 66 99 70 100 73 101 67 102 68 103 71 104
REMARK SMILES IDX 69 105
REMARK H PARENT 17 14 8 22 93 58 61 69
REMARK Flexibility Score: inf
ROOT
ATOM      1  C   UNL     1       3.037   1.079  -1.327  1.00  0.00     0.188 C 
ENDROOT
BRANCH   1   2
ATOM      2  C   UNL     1       2.060   2.004  -2.161  1.00  0.00     0.188 C 
BRANCH   2   3
ATOM      3  O   UNL     1       0.682   2.236  -1.766  1.00  0.00    -0.376 OA
BRANCH   3   4
ATOM      4  C   UNL     1       0.235   3.353  -0.975  1.00  0.00     0.202 C 
BRANCH   4   5
ATOM      5  C   UNL     1      -0.929   3.120   0.176  1.00  0.00     0.261 C 
BRANCH   5   6
ATOM      6  O   UNL     1      -0.805   2.004   1.175  1.00  0.00    -0.462 OA
BRANCH   6   7
ATOM      7  C   UNL     1      -1.904   1.195   1.450  1.00  0.00     0.328 C 
ATOM      8  O   UNL     1      -3.051   1.573   1.208  1.00  0.00    -0.250 OA
BRANCH   7   9
ATOM      9  C   UNL     1      -1.595  -0.365   1.847  1.00  0.00     0.189 C 
ATOM     10  C   UNL     1      -2.752  -1.014   2.608  1.00  0.00     0.043 C 
BRANCH   9  11
ATOM     11  N   UNL     1      -0.339  -0.830   2.466  1.00  0.00    -0.339 N 
ATOM     12  C   UNL     1       0.495  -1.939   2.357  1.00  0.00     0.254 C 
ATOM     13  O   UNL     1       1.360  -1.919   3.252  1.00  0.00    -0.269 OA
ATOM     14  H   UNL     1      -0.002  -0.187   3.131  1.00  0.00     0.164 HD
BRANCH  12  15
ATOM     15  C   UNL     1       0.598  -3.108   1.340  1.00  0.00     0.063 A 
ATOM     16  C   UNL     1      -0.253  -3.665   0.344  1.00  0.00     0.051 A 
ATOM     17  C   UNL     1       0.199  -4.780  -0.442  1.00  0.00     0.027 A 
ATOM     18  C   UNL     1       1.467  -5.334  -0.320  1.00  0.00     0.002 A 
ATOM     19  C   UNL     1       1.874  -3.760   1.452  1.00  0.00     0.016 A 
ATOM     20  C   UNL     1       2.307  -4.827   0.645  1.00  0.00     0.001 A 
BRANCH  16  21
ATOM     21  N   UNL     1      -1.496  -3.164  -0.119  1.00  0.00    -0.352 N 
ATOM     22  H   UNL     1      -2.309  -3.425   0.372  1.00  0.00     0.167 HD
BRANCH  21  23
ATOM     23  C   UNL     1      -1.648  -2.299  -1.263  1.00  0.00     0.077 A 
ATOM     24  C   UNL     1       0.386   0.137  -0.446  1.00  0.00     0.046 C 
ATOM     25  C   UNL     1      -0.649  -0.256  -1.437  1.00  0.00    -0.030 A 
ATOM     26  C   UNL     1      -1.844   0.403  -1.703  1.00  0.00     0.006 A 
ATOM     27  C   UNL     1      -0.569  -1.591  -1.728  1.00  0.00     0.069 A 
ATOM     28  C   UNL     1      -2.984  -0.369  -1.880  1.00  0.00     0.023 A 
ATOM     29  Cl  UNL     1       0.954  -2.269  -2.187  1.00  0.00    -0.082 Cl
ATOM     30  C   UNL     1      -2.900  -1.719  -1.531  1.00  0.00     0.066 A 
ATOM     31  Cl  UNL     1      -4.345  -2.617  -1.288  1.00  0.00    -0.082 Cl
ENDBRANCH  21  23
ENDBRANCH  16  21
ENDBRANCH  12  15
ENDBRANCH   9  11
ENDBRANCH   7   9
ENDBRANCH   6   7
ENDBRANCH   5   6
ENDBRANCH   4   5
ENDBRANCH   3   4
ENDBRANCH   2   3
ENDBRANCH   1   2
BRANCH   1  32
ATOM     32  O   UNL     1       3.047   1.224   0.093  1.00  0.00    -0.377 OA
BRANCH  32  33
ATOM     33  C   UNL     1       3.153   2.550   0.571  1.00  0.00     0.188 C 
BRANCH  33  34
ATOM     34  C   UNL     1       4.122   3.412  -0.232  1.00  0.00     0.188 C 
BRANCH  34  35
ATOM     35  O   UNL     1       5.182   2.740  -0.879  1.00  0.00    -0.376 OA
BRANCH  35  36
ATOM     36  C   UNL     1       6.145   1.973  -0.167  1.00  0.00     0.202 C 
BRANCH  36  37
ATOM     37  C   UNL     1       6.028   1.599   1.323  1.00  0.00     0.261 C 
BRANCH  37  38
ATOM     38  O   UNL     1       5.571   2.602   2.245  1.00  0.00    -0.460 OA
BRANCH  38  39
ATOM     39  C   UNL     1       6.091   3.845   2.160  1.00  0.00     0.338 C 
ATOM     40  O   UNL     1       7.018   4.213   1.481  1.00  0.00    -0.246 OA
BRANCH  39  41
ATOM     41  C   UNL     1       5.152   4.758   2.861  1.00  0.00     0.060 A 
ATOM     42  C   UNL     1       4.647   5.857   2.150  1.00  0.00     0.016 A 
ATOM     43  C   UNL     1       4.797   4.557   4.195  1.00  0.00     0.016 A 
ATOM     44  C   UNL     1       3.827   6.784   2.775  1.00  0.00     0.010 A 
ATOM     45  C   UNL     1       4.034   5.530   4.849  1.00  0.00     0.010 A 
ATOM     46  C   UNL     1       3.605   6.673   4.149  1.00  0.00    -0.014 A 
BRANCH  46  47
ATOM     47  C   UNL     1       3.270   7.923   4.865  1.00  0.00     0.031 A 
ATOM     48  C   UNL     1       4.421   8.748   5.379  1.00  0.00     0.074 A 
ATOM     49  C   UNL     1       2.011   8.383   4.930  1.00  0.00     0.049 A 
ATOM     50  N   UNL     1       4.414   9.897   6.004  1.00  0.00    -0.248 NA
ATOM     51  C   UNL     1       5.771   8.205   5.143  1.00  0.00     0.031 C 
ATOM     52  C   UNL     1       0.836   7.714   4.377  1.00  0.00     0.029 A 
ATOM     53  N   UNL     1       1.518   9.536   5.483  1.00  0.00    -0.354 N 
ATOM     54  C   UNL     1       5.749  10.203   6.240  1.00  0.00     0.074 A 
ATOM     55  C   UNL     1       6.539   9.112   5.720  1.00  0.00     0.031 C 
ATOM     56  C   UNL     1      -0.249   8.466   4.631  1.00  0.00     0.029 A 
ATOM     57  C   UNL     1       0.155   9.649   5.391  1.00  0.00     0.049 A 
ATOM     58  H   UNL     1       2.089  10.218   5.906  1.00  0.00     0.167 HD
ATOM     59  C   UNL     1       6.269  11.301   6.833  1.00  0.00     0.037 A 
ATOM     60  C   UNL     1      -0.667  10.593   5.889  1.00  0.00     0.037 A 
ATOM     61  C   UNL     1       5.473  12.380   7.351  1.00  0.00     0.049 A 
ATOM     62  C   UNL     1      -0.068  11.762   6.632  1.00  0.00     0.074 A 
ATOM     63  C   UNL     1       5.891  13.533   7.988  1.00  0.00     0.029 A 
ATOM     64  N   UNL     1       4.087  12.429   7.297  1.00  0.00    -0.354 N 
ATOM     65  N   UNL     1       1.192  12.043   6.866  1.00  0.00    -0.248 NA
ATOM     66  C   UNL     1      -1.010  12.752   7.173  1.00  0.00     0.031 C 
ATOM     67  C   UNL     1       4.755  14.250   8.376  1.00  0.00     0.029 A 
ATOM     68  C   UNL     1       3.632  13.583   7.912  1.00  0.00     0.049 A 
ATOM     69  H   UNL     1       3.513  11.745   6.883  1.00  0.00     0.167 HD
ATOM     70  C   UNL     1       1.197  13.257   7.544  1.00  0.00     0.074 A 
ATOM     71  C   UNL     1      -0.188  13.663   7.671  1.00  0.00     0.031 C 
ATOM     72  C   UNL     1       2.248  13.974   8.015  1.00  0.00     0.037 A 
BRANCH  59  73
ATOM     73  C   UNL     1       7.761  11.359   6.998  1.00  0.00     0.064 A 
ATOM     74  C   UNL     1       8.629  11.509   5.905  1.00  0.00     0.173 A 
ATOM     75  C   UNL     1       8.331  11.269   8.277  1.00  0.00     0.173 A 
ATOM     76  F   UNL     1       8.139  11.576   4.658  1.00  0.00    -0.203 F 
ATOM     77  C   UNL     1      10.010  11.540   6.085  1.00  0.00     0.198 A 
ATOM     78  C   UNL     1       9.710  11.335   8.456  1.00  0.00     0.198 A 
ATOM     79  F   UNL     1       7.549  11.120   9.357  1.00  0.00    -0.203 F 
ATOM     80  F   UNL     1      10.821  11.626   5.021  1.00  0.00    -0.200 F 
ATOM     81  C   UNL     1      10.549  11.461   7.360  1.00  0.00     0.200 A 
ATOM     82  F   UNL     1      10.227  11.272   9.691  1.00  0.00    -0.200 F 
ATOM     83  F   UNL     1      11.877  11.499   7.532  1.00  0.00    -0.200 F 
ENDBRANCH  59  73
BRANCH  60  84
ATOM     84  C   UNL     1      -2.139  10.466   5.723  1.00  0.00     0.064 A 
ATOM     85  C   UNL     1      -2.871  11.386   4.959  1.00  0.00     0.173 A 
ATOM     86  C   UNL     1      -2.851   9.432   6.351  1.00  0.00     0.173 A 
ATOM     87  F   UNL     1      -2.242  12.406   4.358  1.00  0.00    -0.203 F 
ATOM     88  C   UNL     1      -4.257  11.292   4.851  1.00  0.00     0.198 A 
ATOM     89  C   UNL     1      -4.233   9.319   6.214  1.00  0.00     0.198 A 
ATOM     90  F   UNL     1      -2.202   8.525   7.096  1.00  0.00    -0.203 F 
ATOM     91  F   UNL     1      -4.937  12.218   4.161  1.00  0.00    -0.200 F 
ATOM     92  C   UNL     1      -4.936  10.255   5.473  1.00  0.00     0.200 A 
ATOM     93  F   UNL     1      -4.881   8.307   6.806  1.00  0.00    -0.200 F 
ATOM     94  F   UNL     1      -6.269  10.164   5.366  1.00  0.00    -0.200 F 
ENDBRANCH  60  84
BRANCH  72  95
ATOM     95  C   UNL     1       1.947  15.301   8.654  1.00  0.00     0.064 A 
ATOM     96  C   UNL     1       1.283  15.403   9.886  1.00  0.00     0.173 A 
ATOM     97  C   UNL     1       2.356  16.491   8.030  1.00  0.00     0.173 A 
ATOM     98  F   UNL     1       0.863  14.298  10.520  1.00  0.00    -0.203 F 
ATOM     99  C   UNL     1       1.000  16.647  10.445  1.00  0.00     0.198 A 
ATOM    100  C   UNL     1       2.108  17.730   8.613  1.00  0.00     0.198 A 
ATOM    101  F   UNL     1       3.007  16.452   6.858  1.00  0.00    -0.203 F 
ATOM    102  F   UNL     1       0.304  16.721  11.588  1.00  0.00    -0.200 F 
ATOM    103  C   UNL     1       1.418  17.808   9.812  1.00  0.00     0.200 A 
ATOM    104  F   UNL     1       2.532  18.849   8.009  1.00  0.00    -0.200 F 
ATOM    105  F   UNL     1       1.147  19.003  10.354  1.00  0.00    -0.200 F 
ENDBRANCH  72  95
ENDBRANCH  46  47
ENDBRANCH  39  41
ENDBRANCH  38  39
ENDBRANCH  37  38
ENDBRANCH  36  37
ENDBRANCH  35  36
ENDBRANCH  34  35
ENDBRANCH  33  34
ENDBRANCH  32  33
ENDBRANCH   1  32
TORSDOF 24
