REMARK SMILES C/C(=N\NC(N)=O)c1nnn(-c2ccc(C(=O)OCCOCCOCCOCCOC(=O)c3ccc(-c4c5nc(c(-c6c(F)c(F)c(F)c(F)c6F)c6ccc([nH]6)c(-c6c(F)c(F)c(F)c(F)c6F)c6nc(c(-c7c(F)c(F)c(F)c(F)c7F)c7ccc4[nH]7)C=C6)C=C5)cc3)cc2)c1C
REMARK SMILES IDX 23 1 22 2 21 3 20 4 19 5 18 6 16 7 17 8 15 9 12 10 13 11
REMARK SMILES IDX 97 12 14 13 96 14 11 15 8 16 9 17 98 18 10 19 99 20 2 21
REMARK SMILES IDX 1 22 3 23 4 24 5 25 6 27 7 28 24 31 25 32 26 33 27 34 28 35
REMARK SMILES IDX 29 36 30 37 31 38 32 39 33 40 34 41 95 42 35 43 94 44 36 45
REMARK SMILES IDX 37 46 38 47 88 48 39 49 93 50 87 51 89 52 40 53 92 54 86 55
REMARK SMILES IDX 85 56 41 58 73 59 53 60 72 61 54 62 57 63 71 64 90 65 55 66
REMARK SMILES IDX 56 67 70 69 91 70 58 71 42 72 43 73 51 74 44 75 45 76 49 77
REMARK SMILES IDX 52 78 46 79 47 80 50 81 48 82 74 83 75 84 83 85 76 86 77 87
REMARK SMILES IDX 81 88 84 89 78 90 79 91 82 92 80 93 59 94 60 95 68 96 61 97
REMARK SMILES IDX 62 98 66 99 69 100 63 101 64 102 67 103 65 104
REMARK H PARENT 4 26 6 29 6 30 89 57 57 68
REMARK Flexibility Score: inf
ROOT
ATOM      1  C   UNL     1       6.917  -4.941  -7.041  1.00  0.00     0.188 C 
ENDROOT
BRANCH   1   2
ATOM      2  C   UNL     1       7.343  -3.761  -7.945  1.00  0.00     0.188 C 
BRANCH   2   3
ATOM      3  O   UNL     1       8.732  -3.718  -8.210  1.00  0.00    -0.376 OA
BRANCH   3   4
ATOM      4  C   UNL     1       9.565  -2.758  -7.603  1.00  0.00     0.202 C 
BRANCH   4   5
ATOM      5  C   UNL     1       9.527  -2.538  -6.087  1.00  0.00     0.261 C 
BRANCH   5   6
ATOM      6  O   UNL     1       8.253  -2.678  -5.459  1.00  0.00    -0.460 OA
BRANCH   6   7
ATOM      7  C   UNL     1       7.373  -1.667  -5.628  1.00  0.00     0.338 C 
ATOM      8  O   UNL     1       7.552  -0.633  -6.244  1.00  0.00    -0.246 OA
BRANCH   7   9
ATOM      9  C   UNL     1       6.071  -2.111  -5.079  1.00  0.00     0.060 A 
ATOM     10  C   UNL     1       3.626  -2.695  -3.936  1.00  0.00     0.067 A 
ATOM     11  C   UNL     1       3.647  -2.074  -5.188  1.00  0.00     0.029 A 
ATOM     12  C   UNL     1       4.798  -3.173  -3.337  1.00  0.00     0.029 A 
ATOM     13  C   UNL     1       4.886  -1.759  -5.748  1.00  0.00     0.018 A 
ATOM     14  C   UNL     1       6.026  -2.882  -3.912  1.00  0.00     0.018 A 
BRANCH  10  15
ATOM     15  N   UNL     1       2.489  -2.538  -3.122  1.00  0.00    -0.217 N 
ATOM     16  C   UNL     1       1.125  -1.806  -1.595  1.00  0.00     0.132 A 
ATOM     17  N   UNL     1       0.403  -2.473  -2.553  1.00  0.00    -0.128 NA
ATOM     18  C   UNL     1       2.457  -1.799  -1.951  1.00  0.00     0.071 A 
ATOM     19  N   UNL     1       1.236  -2.827  -3.527  1.00  0.00    -0.061 NA
ATOM     20  C   UNL     1       3.623  -1.076  -1.382  1.00  0.00     0.069 C 
BRANCH  16  21
ATOM     21  C   UNL     1       0.524  -1.087  -0.485  1.00  0.00     0.087 C 
ATOM     22  C   UNL     1       0.595   0.419  -0.543  1.00  0.00     0.071 C 
ATOM     23  N   UNL     1      -0.015  -1.831   0.435  1.00  0.00    -0.174 NA
BRANCH  23  24
ATOM     24  N   UNL     1      -0.527  -1.299   1.585  1.00  0.00    -0.229 N 
ATOM     25  C   UNL     1       0.089  -0.369   2.396  1.00  0.00     0.332 C 
ATOM     26  H   UNL     1      -1.420  -1.609   1.861  1.00  0.00     0.195 HD
ATOM     27  N   UNL     1      -0.655  -0.064   3.496  1.00  0.00    -0.350 N 
ATOM     28  O   UNL     1       1.169   0.176   2.214  1.00  0.00    -0.247 OA
ATOM     29  H   UNL     1      -1.524  -0.504   3.640  1.00  0.00     0.161 HD
ATOM     30  H   UNL     1      -0.324   0.597   4.146  1.00  0.00     0.161 HD
ENDBRANCH  23  24
ENDBRANCH  16  21
ENDBRANCH  10  15
ENDBRANCH   7   9
ENDBRANCH   6   7
ENDBRANCH   5   6
ENDBRANCH   4   5
ENDBRANCH   3   4
ENDBRANCH   2   3
ENDBRANCH   1   2
BRANCH   1  31
ATOM     31  O   UNL     1       7.906  -5.718  -6.379  1.00  0.00    -0.377 OA
BRANCH  31  32
ATOM     32  C   UNL     1       9.050  -6.177  -7.093  1.00  0.00     0.188 C 
BRANCH  32  33
ATOM     33  C   UNL     1       9.061  -6.373  -8.639  1.00  0.00     0.188 C 
BRANCH  33  34
ATOM     34  O   UNL     1       7.893  -5.957  -9.325  1.00  0.00    -0.376 OA
BRANCH  34  35
ATOM     35  C   UNL     1       6.985  -6.836  -9.956  1.00  0.00     0.202 C 
BRANCH  35  36
ATOM     36  C   UNL     1       6.260  -7.870  -9.102  1.00  0.00     0.261 C 
BRANCH  36  37
ATOM     37  O   UNL     1       7.076  -8.396  -8.082  1.00  0.00    -0.460 OA
BRANCH  37  38
ATOM     38  C   UNL     1       8.088  -9.164  -8.531  1.00  0.00     0.338 C 
ATOM     39  O   UNL     1       8.364  -9.431  -9.680  1.00  0.00    -0.246 OA
BRANCH  38  40
ATOM     40  C   UNL     1       8.789  -9.691  -7.352  1.00  0.00     0.060 A 
ATOM     41  C   UNL     1       9.873 -10.515  -7.652  1.00  0.00     0.016 A 
ATOM     42  C   UNL     1       8.020  -9.821  -6.190  1.00  0.00     0.016 A 
ATOM     43  C   UNL     1       9.908 -11.730  -7.025  1.00  0.00     0.010 A 
ATOM     44  C   UNL     1       8.008 -11.053  -5.614  1.00  0.00     0.010 A 
ATOM     45  C   UNL     1       8.877 -12.014  -6.130  1.00  0.00    -0.014 A 
BRANCH  45  46
ATOM     46  C   UNL     1       8.688 -13.378  -5.718  1.00  0.00     0.031 A 
ATOM     47  C   UNL     1       9.560 -13.734  -4.584  1.00  0.00     0.074 A 
ATOM     48  C   UNL     1       7.696 -14.104  -6.267  1.00  0.00     0.049 A 
ATOM     49  N   UNL     1      10.487 -14.630  -4.542  1.00  0.00    -0.248 NA
ATOM     50  C   UNL     1       9.536 -12.835  -3.415  1.00  0.00     0.031 C 
ATOM     51  C   UNL     1       6.655 -13.662  -7.205  1.00  0.00     0.029 A 
ATOM     52  N   UNL     1       7.336 -15.383  -5.994  1.00  0.00    -0.354 N 
ATOM     53  C   UNL     1      11.014 -14.536  -3.259  1.00  0.00     0.074 A 
ATOM     54  C   UNL     1      10.578 -13.280  -2.720  1.00  0.00     0.031 C 
ATOM     55  C   UNL     1       5.663 -14.582  -7.236  1.00  0.00     0.029 A 
ATOM     56  C   UNL     1       6.053 -15.712  -6.416  1.00  0.00     0.049 A 
ATOM     57  H   UNL     1       7.930 -16.021  -5.538  1.00  0.00     0.167 HD
ATOM     58  C   UNL     1      11.483 -15.638  -2.620  1.00  0.00     0.037 A 
ATOM     59  C   UNL     1       5.353 -16.788  -5.976  1.00  0.00     0.037 A 
ATOM     60  C   UNL     1      11.839 -16.666  -3.564  1.00  0.00     0.049 A 
ATOM     61  C   UNL     1       6.341 -17.724  -5.366  1.00  0.00     0.074 A 
ATOM     62  C   UNL     1      12.750 -16.744  -4.600  1.00  0.00     0.029 A 
ATOM     63  N   UNL     1      10.948 -17.691  -3.770  1.00  0.00    -0.354 N 
ATOM     64  N   UNL     1       7.265 -18.346  -6.050  1.00  0.00    -0.248 NA
ATOM     65  C   UNL     1       6.615 -17.575  -3.942  1.00  0.00     0.031 C 
ATOM     66  C   UNL     1      12.100 -17.509  -5.612  1.00  0.00     0.029 A 
ATOM     67  C   UNL     1      10.854 -17.901  -5.122  1.00  0.00     0.049 A 
ATOM     68  H   UNL     1      10.464 -18.187  -3.071  1.00  0.00     0.167 HD
ATOM     69  C   UNL     1       8.396 -18.309  -5.242  1.00  0.00     0.074 A 
ATOM     70  C   UNL     1       7.917 -17.875  -3.933  1.00  0.00     0.031 C 
ATOM     71  C   UNL     1       9.649 -18.347  -5.783  1.00  0.00     0.037 A 
BRANCH  58  72
ATOM     72  C   UNL     1      11.216 -15.913  -1.159  1.00  0.00     0.064 A 
ATOM     73  C   UNL     1      11.819 -17.040  -0.572  1.00  0.00     0.173 A 
ATOM     74  C   UNL     1      10.187 -15.311  -0.396  1.00  0.00     0.173 A 
ATOM     75  F   UNL     1      12.802 -17.696  -1.206  1.00  0.00    -0.203 F 
ATOM     76  C   UNL     1      11.361 -17.575   0.634  1.00  0.00     0.198 A 
ATOM     77  C   UNL     1       9.773 -15.814   0.833  1.00  0.00     0.198 A 
ATOM     78  F   UNL     1       9.459 -14.281  -0.839  1.00  0.00    -0.203 F 
ATOM     79  F   UNL     1      11.877 -18.726   1.085  1.00  0.00    -0.200 F 
ATOM     80  C   UNL     1      10.333 -16.968   1.330  1.00  0.00     0.200 A 
ATOM     81  F   UNL     1       8.765 -15.214   1.483  1.00  0.00    -0.200 F 
ATOM     82  F   UNL     1       9.848 -17.517   2.451  1.00  0.00    -0.200 F 
ENDBRANCH  58  72
BRANCH  59  83
ATOM     83  C   UNL     1       3.898 -16.853  -5.694  1.00  0.00     0.064 A 
ATOM     84  C   UNL     1       3.242 -18.085  -5.542  1.00  0.00     0.173 A 
ATOM     85  C   UNL     1       3.167 -15.707  -5.318  1.00  0.00     0.173 A 
ATOM     86  F   UNL     1       3.884 -19.228  -5.823  1.00  0.00    -0.203 F 
ATOM     87  C   UNL     1       1.937 -18.164  -5.038  1.00  0.00     0.198 A 
ATOM     88  C   UNL     1       1.864 -15.787  -4.825  1.00  0.00     0.198 A 
ATOM     89  F   UNL     1       3.733 -14.492  -5.331  1.00  0.00    -0.203 F 
ATOM     90  F   UNL     1       1.362 -19.361  -4.857  1.00  0.00    -0.200 F 
ATOM     91  C   UNL     1       1.252 -17.016  -4.676  1.00  0.00     0.200 A 
ATOM     92  F   UNL     1       1.230 -14.669  -4.442  1.00  0.00    -0.200 F 
ATOM     93  F   UNL     1       0.024 -17.095  -4.145  1.00  0.00    -0.200 F 
ENDBRANCH  59  83
BRANCH  71  94
ATOM     94  C   UNL     1       9.766 -18.642  -7.254  1.00  0.00     0.064 A 
ATOM     95  C   UNL     1       9.305 -17.772  -8.258  1.00  0.00     0.173 A 
ATOM     96  C   UNL     1      10.525 -19.746  -7.658  1.00  0.00     0.173 A 
ATOM     97  F   UNL     1       8.659 -16.643  -7.944  1.00  0.00    -0.203 F 
ATOM     98  C   UNL     1       9.566 -18.017  -9.605  1.00  0.00     0.198 A 
ATOM     99  C   UNL     1      10.816 -19.969  -9.001  1.00  0.00     0.198 A 
ATOM    100  F   UNL     1      11.042 -20.576  -6.739  1.00  0.00    -0.203 F 
ATOM    101  F   UNL     1       9.115 -17.170 -10.543  1.00  0.00    -0.200 F 
ATOM    102  C   UNL     1      10.330 -19.110  -9.975  1.00  0.00     0.200 A 
ATOM    103  F   UNL     1      11.600 -20.998  -9.350  1.00  0.00    -0.200 F 
ATOM    104  F   UNL     1      10.628 -19.318 -11.265  1.00  0.00    -0.200 F 
ENDBRANCH  71  94
ENDBRANCH  45  46
ENDBRANCH  38  40
ENDBRANCH  37  38
ENDBRANCH  36  37
ENDBRANCH  35  36
ENDBRANCH  34  35
ENDBRANCH  33  34
ENDBRANCH  32  33
ENDBRANCH  31  32
ENDBRANCH   1  31
TORSDOF 23
