REMARK SMILES O=C(Cc1ccn[nH]1)NC[C@H]1CCCC[C@H]1C(=O)OCCOCCOCCOCCOC(=O)c1ccc(-c2c3nc(c(-c4c(F)c(F)c(F)c(F)c4F)c4ccc([nH]4)c(-c4c(F)c(F)c(F)c(F)c4F)c4nc(c(-c5c(F)c(F)c(F)c(F)c5F)c5ccc2[nH]5)C=C4)C=C3)cc1
REMARK SMILES IDX 24 1 23 2 22 3 21 4 20 5 19 6 17 7 18 8 16 9 11 10 12 11
REMARK SMILES IDX 13 12 15 13 14 14 10 15 9 16 1 17 2 18 3 20 4 21 5 22 8 23
REMARK SMILES IDX 6 24 7 25 25 27 26 28 27 29 28 30 29 31 30 32 31 33 32 34
REMARK SMILES IDX 33 35 34 36 35 37 96 38 36 39 95 40 37 41 38 42 39 43 89 44
REMARK SMILES IDX 40 45 94 46 88 47 90 48 41 49 93 50 87 51 86 52 42 54 74 55
REMARK SMILES IDX 54 56 73 57 55 58 58 59 72 60 91 61 56 62 57 63 71 65 92 66
REMARK SMILES IDX 59 67 43 68 44 69 52 70 45 71 46 72 50 73 53 74 47 75 48 76
REMARK SMILES IDX 51 77 49 78 75 79 76 80 84 81 77 82 78 83 82 84 85 85 79 86
REMARK SMILES IDX 80 87 83 88 81 89 60 90 61 91 69 92 62 93 63 94 67 95 70 96
REMARK SMILES IDX 64 97 65 98 68 99 66 100
REMARK H PARENT 9 19 8 26 90 53 58 64
REMARK Flexibility Score: inf
ROOT
ATOM      1  C   UNL     1       3.083   4.264   2.022  1.00  0.00     0.188 C 
ENDROOT
BRANCH   1   2
ATOM      2  C   UNL     1       2.109   5.347   2.493  1.00  0.00     0.188 C 
BRANCH   2   3
ATOM      3  O   UNL     1       2.613   6.352   3.376  1.00  0.00    -0.376 OA
BRANCH   3   4
ATOM      4  C   UNL     1       3.709   6.040   4.233  1.00  0.00     0.202 C 
BRANCH   4   5
ATOM      5  C   UNL     1       3.321   5.342   5.535  1.00  0.00     0.261 C 
BRANCH   5   6
ATOM      6  O   UNL     1       3.154   3.923   5.358  1.00  0.00    -0.463 OA
BRANCH   6   7
ATOM      7  C   UNL     1       1.885   3.467   5.267  1.00  0.00     0.309 C 
ATOM      8  O   UNL     1       0.883   4.170   5.312  1.00  0.00    -0.252 OA
BRANCH   7   9
ATOM      9  C   UNL     1       1.806   1.954   5.176  1.00  0.00     0.104 C 
ATOM     10  C   UNL     1       2.595   1.232   4.056  1.00  0.00     0.022 C 
ATOM     11  C   UNL     1       2.178  -0.261   4.065  1.00  0.00     0.006 C 
ATOM     12  C   UNL     1       2.337  -0.916   5.440  1.00  0.00     0.000 C 
ATOM     13  C   UNL     1       2.028   1.330   6.551  1.00  0.00     0.016 C 
ATOM     14  C   UNL     1       1.612  -0.137   6.533  1.00  0.00     0.001 C 
BRANCH  10  15
ATOM     15  C   UNL     1       4.133   1.348   4.107  1.00  0.00     0.120 C 
BRANCH  15  16
ATOM     16  N   UNL     1       4.712   0.958   2.829  1.00  0.00    -0.355 N 
ATOM     17  O   UNL     1       6.561   2.309   2.971  1.00  0.00    -0.275 OA
ATOM     18  C   UNL     1       5.878   1.505   2.343  1.00  0.00     0.226 C 
ATOM     19  H   UNL     1       4.250   0.276   2.290  1.00  0.00     0.163 HD
BRANCH  18  20
ATOM     20  C   UNL     1       6.309   0.939   0.998  1.00  0.00     0.155 C 
BRANCH  20  21
ATOM     21  C   UNL     1       7.479   0.021   1.128  1.00  0.00     0.044 A 
ATOM     22  C   UNL     1       8.129  -0.761   0.195  1.00  0.00     0.045 A 
ATOM     23  N   UNL     1       8.157  -0.179   2.305  1.00  0.00    -0.282 N 
ATOM     24  C   UNL     1       9.132  -1.430   0.919  1.00  0.00     0.135 A 
ATOM     25  N   UNL     1       9.134  -1.094   2.209  1.00  0.00    -0.184 NA
ATOM     26  H   UNL     1       7.947   0.302   3.139  1.00  0.00     0.190 HD
ENDBRANCH  20  21
ENDBRANCH  18  20
ENDBRANCH  15  16
ENDBRANCH  10  15
ENDBRANCH   7   9
ENDBRANCH   6   7
ENDBRANCH   5   6
ENDBRANCH   4   5
ENDBRANCH   3   4
ENDBRANCH   2   3
ENDBRANCH   1   2
BRANCH   1  27
ATOM     27  O   UNL     1       4.175   4.599   1.170  1.00  0.00    -0.377 OA
BRANCH  27  28
ATOM     28  C   UNL     1       4.398   5.960   0.846  1.00  0.00     0.188 C 
BRANCH  28  29
ATOM     29  C   UNL     1       4.139   6.311  -0.624  1.00  0.00     0.188 C 
BRANCH  29  30
ATOM     30  O   UNL     1       2.981   5.776  -1.246  1.00  0.00    -0.376 OA
BRANCH  30  31
ATOM     31  C   UNL     1       2.883   4.364  -1.409  1.00  0.00     0.202 C 
BRANCH  31  32
ATOM     32  C   UNL     1       4.071   3.552  -1.957  1.00  0.00     0.261 C 
BRANCH  32  33
ATOM     33  O   UNL     1       5.299   3.681  -1.218  1.00  0.00    -0.460 OA
BRANCH  33  34
ATOM     34  C   UNL     1       6.371   4.105  -1.925  1.00  0.00     0.338 C 
ATOM     35  O   UNL     1       6.416   4.394  -3.113  1.00  0.00    -0.246 OA
BRANCH  34  36
ATOM     36  C   UNL     1       7.551   4.192  -1.052  1.00  0.00     0.060 A 
ATOM     37  C   UNL     1       7.883   5.397  -0.425  1.00  0.00     0.016 A 
ATOM     38  C   UNL     1       8.404   3.091  -0.968  1.00  0.00     0.016 A 
ATOM     39  C   UNL     1       9.082   5.505   0.284  1.00  0.00     0.010 A 
ATOM     40  C   UNL     1       9.587   3.189  -0.235  1.00  0.00     0.010 A 
ATOM     41  C   UNL     1       9.955   4.410   0.357  1.00  0.00    -0.014 A 
BRANCH  41  42
ATOM     42  C   UNL     1      11.342   4.583   0.855  1.00  0.00     0.031 A 
ATOM     43  C   UNL     1      12.456   4.663  -0.154  1.00  0.00     0.074 A 
ATOM     44  C   UNL     1      11.616   4.659   2.169  1.00  0.00     0.049 A 
ATOM     45  N   UNL     1      13.751   4.711   0.030  1.00  0.00    -0.248 NA
ATOM     46  C   UNL     1      12.050   4.677  -1.569  1.00  0.00     0.031 C 
ATOM     47  C   UNL     1      10.628   4.620   3.244  1.00  0.00     0.029 A 
ATOM     48  N   UNL     1      12.821   4.770   2.819  1.00  0.00    -0.354 N 
ATOM     49  C   UNL     1      14.310   4.735  -1.240  1.00  0.00     0.074 A 
ATOM     50  C   UNL     1      13.220   4.664  -2.188  1.00  0.00     0.031 C 
ATOM     51  C   UNL     1      11.268   4.699   4.425  1.00  0.00     0.029 A 
ATOM     52  C   UNL     1      12.711   4.755   4.188  1.00  0.00     0.049 A 
ATOM     53  H   UNL     1      13.682   4.853   2.349  1.00  0.00     0.167 HD
ATOM     54  C   UNL     1      15.616   4.821  -1.589  1.00  0.00     0.037 A 
ATOM     55  C   UNL     1      13.670   4.762   5.135  1.00  0.00     0.037 A 
ATOM     56  C   UNL     1      16.699   4.909  -0.647  1.00  0.00     0.049 A 
ATOM     57  C   UNL     1      15.121   4.807   4.722  1.00  0.00     0.074 A 
ATOM     58  C   UNL     1      18.054   5.028  -0.899  1.00  0.00     0.029 A 
ATOM     59  N   UNL     1      16.547   4.884   0.731  1.00  0.00    -0.354 N 
ATOM     60  N   UNL     1      15.643   4.859   3.520  1.00  0.00    -0.248 NA
ATOM     61  C   UNL     1      16.118   4.796   5.803  1.00  0.00     0.031 C 
ATOM     62  C   UNL     1      18.727   5.028   0.327  1.00  0.00     0.029 A 
ATOM     63  C   UNL     1      17.787   4.965   1.343  1.00  0.00     0.049 A 
ATOM     64  H   UNL     1      15.686   4.819   1.204  1.00  0.00     0.167 HD
ATOM     65  C   UNL     1      17.020   4.918   3.701  1.00  0.00     0.074 A 
ATOM     66  C   UNL     1      17.253   4.909   5.129  1.00  0.00     0.031 C 
ATOM     67  C   UNL     1      18.002   4.974   2.768  1.00  0.00     0.037 A 
BRANCH  54  68
ATOM     68  C   UNL     1      15.942   4.803  -3.054  1.00  0.00     0.064 A 
ATOM     69  C   UNL     1      15.628   5.882  -3.894  1.00  0.00     0.173 A 
ATOM     70  C   UNL     1      16.591   3.696  -3.621  1.00  0.00     0.173 A 
ATOM     71  F   UNL     1      14.993   6.957  -3.403  1.00  0.00    -0.203 F 
ATOM     72  C   UNL     1      15.924   5.840  -5.254  1.00  0.00     0.198 A 
ATOM     73  C   UNL     1      16.914   3.671  -4.975  1.00  0.00     0.198 A 
ATOM     74  F   UNL     1      16.916   2.639  -2.862  1.00  0.00    -0.203 F 
ATOM     75  F   UNL     1      15.565   6.859  -6.047  1.00  0.00    -0.200 F 
ATOM     76  C   UNL     1      16.572   4.739  -5.792  1.00  0.00     0.200 A 
ATOM     77  F   UNL     1      17.551   2.611  -5.491  1.00  0.00    -0.200 F 
ATOM     78  F   UNL     1      16.860   4.702  -7.100  1.00  0.00    -0.200 F 
ENDBRANCH  54  68
BRANCH  55  79
ATOM     79  C   UNL     1      13.298   4.718   6.574  1.00  0.00     0.064 A 
ATOM     80  C   UNL     1      13.532   5.818   7.413  1.00  0.00     0.173 A 
ATOM     81  C   UNL     1      12.735   3.570   7.149  1.00  0.00     0.173 A 
ATOM     82  F   UNL     1      14.096   6.929   6.917  1.00  0.00    -0.203 F 
ATOM     83  C   UNL     1      13.238   5.762   8.774  1.00  0.00     0.198 A 
ATOM     84  C   UNL     1      12.413   3.526   8.504  1.00  0.00     0.198 A 
ATOM     85  F   UNL     1      12.496   2.488   6.394  1.00  0.00    -0.203 F 
ATOM     86  F   UNL     1      13.522   6.808   9.562  1.00  0.00    -0.200 F 
ATOM     87  C   UNL     1      12.673   4.618   9.317  1.00  0.00     0.200 A 
ATOM     88  F   UNL     1      11.859   2.422   9.025  1.00  0.00    -0.200 F 
ATOM     89  F   UNL     1      12.391   4.565  10.626  1.00  0.00    -0.200 F 
ENDBRANCH  55  79
BRANCH  67  90
ATOM     90  C   UNL     1      19.419   5.082   3.255  1.00  0.00     0.064 A 
ATOM     91  C   UNL     1      20.079   4.000   3.856  1.00  0.00     0.173 A 
ATOM     92  C   UNL     1      20.143   6.270   3.067  1.00  0.00     0.173 A 
ATOM     93  F   UNL     1      19.428   2.846   4.070  1.00  0.00    -0.203 F 
ATOM     94  C   UNL     1      21.404   4.111   4.271  1.00  0.00     0.198 A 
ATOM     95  C   UNL     1      21.477   6.367   3.455  1.00  0.00     0.198 A 
ATOM     96  F   UNL     1      19.563   7.332   2.489  1.00  0.00    -0.203 F 
ATOM     97  F   UNL     1      22.001   3.078   4.883  1.00  0.00    -0.200 F 
ATOM     98  C   UNL     1      22.104   5.290   4.063  1.00  0.00     0.200 A 
ATOM     99  F   UNL     1      22.156   7.502   3.238  1.00  0.00    -0.200 F 
ATOM    100  F   UNL     1      23.382   5.391   4.454  1.00  0.00    -0.200 F 
ENDBRANCH  67  90
ENDBRANCH  41  42
ENDBRANCH  34  36
ENDBRANCH  33  34
ENDBRANCH  32  33
ENDBRANCH  31  32
ENDBRANCH  30  31
ENDBRANCH  29  30
ENDBRANCH  28  29
ENDBRANCH  27  28
ENDBRANCH   1  27
TORSDOF 24
