REMARK SMILES Cc1ccccc1CNc1ccc(C(=O)OCCOCCOCCOCCOC(=O)c2ccc(-c3c4nc(c(-c5c(F)c(F)c(F)c(F)c5F)c5ccc([nH]5)c(-c5c(F)c(F)c(F)c(F)c5F)c5nc(c(-c6c(F)c(F)c(F)c(F)c6F)c6ccc3[nH]6)C=C5)C=C4)cc2)c(F)c1F
REMARK SMILES IDX 21 1 20 2 19 3 18 4 17 5 16 6 14 7 15 8 13 9 10 10 11 11
REMARK SMILES IDX 96 12 12 13 94 14 97 15 95 16 9 17 8 19 7 20 1 21 2 22 3 23
REMARK SMILES IDX 4 24 6 25 5 26 22 27 23 28 24 29 25 30 26 31 27 32 28 33
REMARK SMILES IDX 29 34 30 35 31 36 32 37 93 38 33 39 92 40 34 41 35 42 36 43
REMARK SMILES IDX 86 44 37 45 91 46 85 47 87 48 38 49 90 50 84 51 83 52 39 54
REMARK SMILES IDX 71 55 51 56 70 57 52 58 55 59 69 60 88 61 53 62 54 63 68 65
REMARK SMILES IDX 89 66 56 67 40 68 41 69 49 70 42 71 43 72 47 73 50 74 44 75
REMARK SMILES IDX 45 76 48 77 46 78 72 79 73 80 81 81 74 82 75 83 79 84 82 85
REMARK SMILES IDX 76 86 77 87 80 88 78 89 57 90 58 91 66 92 59 93 60 94 64 95
REMARK SMILES IDX 67 96 61 97 62 98 65 99 63 100
REMARK H PARENT 9 18 87 53 55 64
REMARK Flexibility Score: inf
ROOT
ATOM      1  C   UNL     1       0.189   7.920  -3.175  1.00  0.00     0.188 C 
ENDROOT
BRANCH   1   2
ATOM      2  C   UNL     1      -1.173   8.044  -3.880  1.00  0.00     0.188 C 
BRANCH   2   3
ATOM      3  O   UNL     1      -2.284   7.617  -3.108  1.00  0.00    -0.376 OA
BRANCH   3   4
ATOM      4  C   UNL     1      -2.762   8.625  -2.230  1.00  0.00     0.202 C 
BRANCH   4   5
ATOM      5  C   UNL     1      -3.728   7.981  -1.270  1.00  0.00     0.261 C 
BRANCH   5   6
ATOM      6  O   UNL     1      -3.035   6.981  -0.541  1.00  0.00    -0.460 OA
BRANCH   6   7
ATOM      7  C   UNL     1      -3.213   5.775  -1.097  1.00  0.00     0.341 C 
ATOM      8  O   UNL     1      -4.274   5.306  -1.480  1.00  0.00    -0.246 OA
BRANCH   7   9
ATOM      9  C   UNL     1      -1.883   5.197  -1.282  1.00  0.00     0.099 A 
ATOM     10  C   UNL     1       0.498   3.813  -1.489  1.00  0.00     0.074 A 
ATOM     11  C   UNL     1       0.405   4.890  -0.601  1.00  0.00     0.030 A 
ATOM     12  C   UNL     1      -0.530   3.595  -2.418  1.00  0.00     0.182 A 
ATOM     13  C   UNL     1      -0.799   5.561  -0.468  1.00  0.00     0.021 A 
ATOM     14  C   UNL     1      -1.717   4.290  -2.318  1.00  0.00     0.175 A 
ATOM     15  F   UNL     1      -0.410   2.618  -3.330  1.00  0.00    -0.201 F 
ATOM     16  F   UNL     1      -2.702   4.040  -3.193  1.00  0.00    -0.203 F 
BRANCH  10  17
ATOM     17  N   UNL     1       1.455   2.814  -1.251  1.00  0.00    -0.379 N 
ATOM     18  H   UNL     1       2.130   2.540  -1.914  1.00  0.00     0.161 HD
BRANCH  17  19
ATOM     19  C   UNL     1       1.348   2.221   0.085  1.00  0.00     0.149 C 
BRANCH  19  20
ATOM     20  C   UNL     1       0.536   0.945   0.044  1.00  0.00    -0.026 A 
ATOM     21  C   UNL     1       2.621  -0.539  -0.080  1.00  0.00     0.044 C 
ATOM     22  C   UNL     1       1.134  -0.326  -0.029  1.00  0.00    -0.046 A 
ATOM     23  C   UNL     1       0.311  -1.466  -0.032  1.00  0.00     0.004 A 
ATOM     24  C   UNL     1      -1.079  -1.358   0.001  1.00  0.00     0.000 A 
ATOM     25  C   UNL     1      -0.873   1.036   0.069  1.00  0.00     0.006 A 
ATOM     26  C   UNL     1      -1.674  -0.105   0.041  1.00  0.00     0.000 A 
ENDBRANCH  19  20
ENDBRANCH  17  19
ENDBRANCH  10  17
ENDBRANCH   7   9
ENDBRANCH   6   7
ENDBRANCH   5   6
ENDBRANCH   4   5
ENDBRANCH   3   4
ENDBRANCH   2   3
ENDBRANCH   1   2
BRANCH   1  27
ATOM     27  O   UNL     1       0.487   8.758  -2.067  1.00  0.00    -0.377 OA
BRANCH  27  28
ATOM     28  C   UNL     1       0.649  10.152  -2.275  1.00  0.00     0.188 C 
BRANCH  28  29
ATOM     29  C   UNL     1       1.185  10.662  -3.603  1.00  0.00     0.188 C 
BRANCH  29  30
ATOM     30  O   UNL     1       0.115  10.654  -4.539  1.00  0.00    -0.376 OA
BRANCH  30  31
ATOM     31  C   UNL     1       0.486  10.893  -5.892  1.00  0.00     0.202 C 
BRANCH  31  32
ATOM     32  C   UNL     1       1.126  12.270  -6.113  1.00  0.00     0.261 C 
BRANCH  32  33
ATOM     33  O   UNL     1       0.159  13.286  -5.775  1.00  0.00    -0.460 OA
BRANCH  33  34
ATOM     34  C   UNL     1       0.464  14.057  -4.695  1.00  0.00     0.338 C 
ATOM     35  O   UNL     1       1.525  14.629  -4.516  1.00  0.00    -0.246 OA
BRANCH  34  36
ATOM     36  C   UNL     1      -0.573  13.869  -3.635  1.00  0.00     0.060 A 
ATOM     37  C   UNL     1      -0.353  14.335  -2.328  1.00  0.00     0.016 A 
ATOM     38  C   UNL     1      -1.615  12.979  -3.869  1.00  0.00     0.016 A 
ATOM     39  C   UNL     1      -1.070  13.789  -1.244  1.00  0.00     0.010 A 
ATOM     40  C   UNL     1      -2.238  12.377  -2.792  1.00  0.00     0.010 A 
ATOM     41  C   UNL     1      -1.960  12.738  -1.462  1.00  0.00    -0.014 A 
BRANCH  41  42
ATOM     42  C   UNL     1      -2.531  11.838  -0.423  1.00  0.00     0.031 A 
ATOM     43  C   UNL     1      -4.009  11.529  -0.472  1.00  0.00     0.074 A 
ATOM     44  C   UNL     1      -1.665  11.055   0.279  1.00  0.00     0.049 A 
ATOM     45  N   UNL     1      -4.648  10.729   0.317  1.00  0.00    -0.248 NA
ATOM     46  C   UNL     1      -4.920  12.130  -1.452  1.00  0.00     0.031 C 
ATOM     47  C   UNL     1      -1.885   9.702   0.796  1.00  0.00     0.029 A 
ATOM     48  N   UNL     1      -0.329  11.282   0.617  1.00  0.00    -0.354 N 
ATOM     49  C   UNL     1      -5.873  10.416  -0.270  1.00  0.00     0.074 A 
ATOM     50  C   UNL     1      -6.038  11.413  -1.292  1.00  0.00     0.031 C 
ATOM     51  C   UNL     1      -0.779   9.215   1.378  1.00  0.00     0.029 A 
ATOM     52  C   UNL     1       0.077  10.347   1.592  1.00  0.00     0.049 A 
ATOM     53  H   UNL     1       0.242  11.986   0.233  1.00  0.00     0.167 HD
ATOM     54  C   UNL     1      -6.513   9.246   0.066  1.00  0.00     0.037 A 
ATOM     55  C   UNL     1       0.365  10.777   2.860  1.00  0.00     0.037 A 
ATOM     56  C   UNL     1      -5.843   8.581   1.208  1.00  0.00     0.049 A 
ATOM     57  C   UNL     1      -0.772  10.435   3.827  1.00  0.00     0.074 A 
ATOM     58  C   UNL     1      -5.369   7.300   1.439  1.00  0.00     0.029 A 
ATOM     59  N   UNL     1      -5.378   9.348   2.280  1.00  0.00    -0.354 N 
ATOM     60  N   UNL     1      -2.011  10.223   3.434  1.00  0.00    -0.248 NA
ATOM     61  C   UNL     1      -0.598  10.114   5.242  1.00  0.00     0.031 C 
ATOM     62  C   UNL     1      -4.453   7.362   2.531  1.00  0.00     0.029 A 
ATOM     63  C   UNL     1      -4.480   8.647   3.057  1.00  0.00     0.049 A 
ATOM     64  H   UNL     1      -5.656  10.275   2.458  1.00  0.00     0.167 HD
ATOM     65  C   UNL     1      -2.740   9.663   4.444  1.00  0.00     0.074 A 
ATOM     66  C   UNL     1      -1.823   9.657   5.571  1.00  0.00     0.031 C 
ATOM     67  C   UNL     1      -4.020   9.193   4.324  1.00  0.00     0.037 A 
BRANCH  54  68
ATOM     68  C   UNL     1      -7.599   8.523  -0.766  1.00  0.00     0.064 A 
ATOM     69  C   UNL     1      -8.249   7.370  -0.252  1.00  0.00     0.173 A 
ATOM     70  C   UNL     1      -7.962   8.820  -2.101  1.00  0.00     0.173 A 
ATOM     71  F   UNL     1      -8.057   6.977   1.014  1.00  0.00    -0.203 F 
ATOM     72  C   UNL     1      -9.130   6.576  -1.008  1.00  0.00     0.198 A 
ATOM     73  C   UNL     1      -8.897   8.065  -2.833  1.00  0.00     0.198 A 
ATOM     74  F   UNL     1      -7.403   9.824  -2.782  1.00  0.00    -0.203 F 
ATOM     75  F   UNL     1      -9.656   5.465  -0.472  1.00  0.00    -0.200 F 
ATOM     76  C   UNL     1      -9.465   6.931  -2.296  1.00  0.00     0.200 A 
ATOM     77  F   UNL     1      -9.230   8.444  -4.077  1.00  0.00    -0.200 F 
ATOM     78  F   UNL     1     -10.328   6.194  -3.010  1.00  0.00    -0.200 F 
ENDBRANCH  54  68
BRANCH  55  79
ATOM     79  C   UNL     1       1.359  11.903   2.779  1.00  0.00     0.064 A 
ATOM     80  C   UNL     1       2.577  11.498   2.171  1.00  0.00     0.173 A 
ATOM     81  C   UNL     1       0.916  13.205   2.494  1.00  0.00     0.173 A 
ATOM     82  F   UNL     1       3.078  10.281   2.439  1.00  0.00    -0.203 F 
ATOM     83  C   UNL     1       3.104  12.197   1.083  1.00  0.00     0.198 A 
ATOM     84  C   UNL     1       1.491  13.931   1.439  1.00  0.00     0.198 A 
ATOM     85  F   UNL     1      -0.198  13.679   3.067  1.00  0.00    -0.203 F 
ATOM     86  F   UNL     1       4.061  11.635   0.328  1.00  0.00    -0.200 F 
ATOM     87  C   UNL     1       2.524  13.386   0.685  1.00  0.00     0.200 A 
ATOM     88  F   UNL     1       0.943  15.091   1.048  1.00  0.00    -0.200 F 
ATOM     89  F   UNL     1       2.893  13.958  -0.471  1.00  0.00    -0.200 F 
ENDBRANCH  55  79
BRANCH  67  90
ATOM     90  C   UNL     1      -5.013   9.185   5.463  1.00  0.00     0.064 A 
ATOM     91  C   UNL     1      -4.910  10.072   6.545  1.00  0.00     0.173 A 
ATOM     92  C   UNL     1      -6.236   8.471   5.372  1.00  0.00     0.173 A 
ATOM     93  F   UNL     1      -3.864  10.900   6.672  1.00  0.00    -0.203 F 
ATOM     94  C   UNL     1      -5.919  10.191   7.498  1.00  0.00     0.198 A 
ATOM     95  C   UNL     1      -7.269   8.643   6.289  1.00  0.00     0.198 A 
ATOM     96  F   UNL     1      -6.495   7.619   4.371  1.00  0.00    -0.203 F 
ATOM     97  F   UNL     1      -5.751  11.025   8.532  1.00  0.00    -0.200 F 
ATOM     98  C   UNL     1      -7.102   9.489   7.362  1.00  0.00     0.200 A 
ATOM     99  F   UNL     1      -8.435   8.008   6.104  1.00  0.00    -0.200 F 
ATOM    100  F   UNL     1      -8.089   9.649   8.253  1.00  0.00    -0.200 F 
ENDBRANCH  67  90
ENDBRANCH  41  42
ENDBRANCH  34  36
ENDBRANCH  33  34
ENDBRANCH  32  33
ENDBRANCH  31  32
ENDBRANCH  30  31
ENDBRANCH  29  30
ENDBRANCH  28  29
ENDBRANCH  27  28
ENDBRANCH   1  27
TORSDOF 23
