REMARK SMILES O=C(OCCOCCOCCOCCOC(=O)[C@H]1C[C@](O)(c2ccccc2Cl)[C@@H](c2ccccc2Cl)O1)c1ccc(-c2c3nc(c(-c4c(F)c(F)c(F)c(F)c4F)c4ccc([nH]4)c(-c4c(F)c(F)c(F)c(F)c4F)c4nc(c(-c5c(F)c(F)c(F)c(F)c5F)c5ccc2[nH]5)C=C4)C=C3)cc1
REMARK SMILES IDX 8 1 7 2 6 3 5 4 4 5 3 6 2 7 1 8 38 9 39 10 100 11 40 12
REMARK SMILES IDX 99 13 41 14 42 15 43 16 93 17 44 18 98 19 92 20 94 21 45 22
REMARK SMILES IDX 97 23 91 24 90 25 46 27 78 28 58 29 77 30 59 31 62 32 76 33
REMARK SMILES IDX 95 34 60 35 61 36 75 38 96 39 63 40 47 41 48 42 56 43 49 44
REMARK SMILES IDX 50 45 54 46 57 47 51 48 52 49 55 50 53 51 79 52 80 53 88 54
REMARK SMILES IDX 81 55 82 56 86 57 89 58 83 59 84 60 87 61 85 62 64 63 65 64
REMARK SMILES IDX 73 65 66 66 67 67 71 68 74 69 68 70 69 71 72 72 70 73 9 74
REMARK SMILES IDX 10 75 11 76 12 77 13 78 14 79 15 80 16 81 17 82 18 83 19 84
REMARK SMILES IDX 37 85 20 86 29 87 22 88 23 89 27 90 24 91 26 92 28 93 25 94
REMARK SMILES IDX 21 95 30 97 31 98 35 99 32 100 34 101 36 102 33 103
REMARK H PARENT 94 26 62 37 21 96
REMARK Flexibility Score: inf
ROOT
ATOM      1  C   UNL     1       7.176  -0.389  -1.250  1.00  0.00     0.188 C 
ENDROOT
BRANCH   1   2
ATOM      2  C   UNL     1       6.944  -0.982   0.136  1.00  0.00     0.188 C 
BRANCH   2   3
ATOM      3  O   UNL     1       7.220  -2.386   0.152  1.00  0.00    -0.376 OA
BRANCH   3   4
ATOM      4  C   UNL     1       6.240  -3.190   0.810  1.00  0.00     0.202 C 
BRANCH   4   5
ATOM      5  C   UNL     1       6.497  -3.353   2.308  1.00  0.00     0.261 C 
BRANCH   5   6
ATOM      6  O   UNL     1       7.044  -2.169   2.903  1.00  0.00    -0.460 OA
BRANCH   6   7
ATOM      7  C   UNL     1       8.327  -1.730   2.883  1.00  0.00     0.338 C 
ATOM      8  O   UNL     1       8.554  -0.621   3.369  1.00  0.00    -0.246 OA
BRANCH   7   9
ATOM      9  C   UNL     1       9.501  -2.495   2.334  1.00  0.00     0.060 A 
ATOM     10  C   UNL     1       9.456  -3.636   1.525  1.00  0.00     0.016 A 
ATOM     11  C   UNL     1      10.774  -1.991   2.667  1.00  0.00     0.016 A 
ATOM     12  C   UNL     1      10.610  -4.302   1.132  1.00  0.00     0.010 A 
ATOM     13  C   UNL     1      11.943  -2.649   2.279  1.00  0.00     0.010 A 
ATOM     14  C   UNL     1      11.852  -3.839   1.553  1.00  0.00    -0.014 A 
BRANCH  14  15
ATOM     15  C   UNL     1      12.995  -4.761   1.456  1.00  0.00     0.031 A 
ATOM     16  C   UNL     1      13.332  -5.558   2.681  1.00  0.00     0.074 A 
ATOM     17  C   UNL     1      13.605  -4.972   0.280  1.00  0.00     0.049 A 
ATOM     18  N   UNL     1      14.310  -6.395   2.890  1.00  0.00    -0.248 NA
ATOM     19  C   UNL     1      12.421  -5.400   3.830  1.00  0.00     0.031 C 
ATOM     20  C   UNL     1      13.237  -4.340  -0.987  1.00  0.00     0.029 A 
ATOM     21  N   UNL     1      14.653  -5.791  -0.042  1.00  0.00    -0.354 N 
ATOM     22  C   UNL     1      14.149  -6.837   4.197  1.00  0.00     0.074 A 
ATOM     23  C   UNL     1      12.984  -6.179   4.738  1.00  0.00     0.031 C 
ATOM     24  C   UNL     1      14.053  -4.795  -1.953  1.00  0.00     0.029 A 
ATOM     25  C   UNL     1      15.033  -5.699  -1.357  1.00  0.00     0.049 A 
ATOM     26  H   UNL     1      15.091  -6.388   0.607  1.00  0.00     0.167 HD
ATOM     27  C   UNL     1      14.920  -7.712   4.881  1.00  0.00     0.037 A 
ATOM     28  C   UNL     1      16.086  -6.258  -1.982  1.00  0.00     0.037 A 
ATOM     29  C   UNL     1      16.079  -8.340   4.310  1.00  0.00     0.049 A 
ATOM     30  C   UNL     1      16.997  -7.143  -1.169  1.00  0.00     0.074 A 
ATOM     31  C   UNL     1      16.989  -9.191   4.906  1.00  0.00     0.029 A 
ATOM     32  N   UNL     1      16.482  -8.171   2.991  1.00  0.00    -0.354 N 
ATOM     33  N   UNL     1      16.891  -7.509   0.088  1.00  0.00    -0.248 NA
ATOM     34  C   UNL     1      18.179  -7.682  -1.852  1.00  0.00     0.031 C 
ATOM     35  C   UNL     1      17.972  -9.498   3.958  1.00  0.00     0.029 A 
ATOM     36  C   UNL     1      17.641  -8.888   2.756  1.00  0.00     0.049 A 
ATOM     37  H   UNL     1      16.012  -7.623   2.322  1.00  0.00     0.167 HD
ATOM     38  C   UNL     1      17.976  -8.335   0.343  1.00  0.00     0.074 A 
ATOM     39  C   UNL     1      18.719  -8.430  -0.899  1.00  0.00     0.031 C 
ATOM     40  C   UNL     1      18.335  -8.958   1.493  1.00  0.00     0.037 A 
BRANCH  27  41
ATOM     41  C   UNL     1      14.571  -7.951   6.320  1.00  0.00     0.064 A 
ATOM     42  C   UNL     1      13.416  -8.652   6.702  1.00  0.00     0.173 A 
ATOM     43  C   UNL     1      15.379  -7.419   7.337  1.00  0.00     0.173 A 
ATOM     44  F   UNL     1      12.591  -9.153   5.770  1.00  0.00    -0.203 F 
ATOM     45  C   UNL     1      13.067  -8.781   8.045  1.00  0.00     0.198 A 
ATOM     46  C   UNL     1      15.042  -7.575   8.679  1.00  0.00     0.198 A 
ATOM     47  F   UNL     1      16.488  -6.731   7.028  1.00  0.00    -0.203 F 
ATOM     48  F   UNL     1      11.924  -9.395   8.383  1.00  0.00    -0.200 F 
ATOM     49  C   UNL     1      13.881  -8.245   9.032  1.00  0.00     0.200 A 
ATOM     50  F   UNL     1      15.832  -7.058   9.630  1.00  0.00    -0.200 F 
ATOM     51  F   UNL     1      13.537  -8.360  10.322  1.00  0.00    -0.200 F 
ENDBRANCH  27  41
BRANCH  28  52
ATOM     52  C   UNL     1      16.358  -5.960  -3.414  1.00  0.00     0.064 A 
ATOM     53  C   UNL     1      16.302  -6.962  -4.392  1.00  0.00     0.173 A 
ATOM     54  C   UNL     1      16.693  -4.662  -3.835  1.00  0.00     0.173 A 
ATOM     55  F   UNL     1      16.008  -8.223  -4.044  1.00  0.00    -0.203 F 
ATOM     56  C   UNL     1      16.585  -6.682  -5.730  1.00  0.00     0.198 A 
ATOM     57  C   UNL     1      16.944  -4.377  -5.176  1.00  0.00     0.198 A 
ATOM     58  F   UNL     1      16.766  -3.664  -2.942  1.00  0.00    -0.203 F 
ATOM     59  F   UNL     1      16.567  -7.668  -6.636  1.00  0.00    -0.200 F 
ATOM     60  C   UNL     1      16.898  -5.389  -6.121  1.00  0.00     0.200 A 
ATOM     61  F   UNL     1      17.231  -3.123  -5.549  1.00  0.00    -0.200 F 
ATOM     62  F   UNL     1      17.163  -5.120  -7.407  1.00  0.00    -0.200 F 
ENDBRANCH  28  52
BRANCH  40  63
ATOM     63  C   UNL     1      19.558  -9.825   1.443  1.00  0.00     0.064 A 
ATOM     64  C   UNL     1      20.845  -9.277   1.369  1.00  0.00     0.173 A 
ATOM     65  C   UNL     1      19.435 -11.219   1.533  1.00  0.00     0.173 A 
ATOM     66  F   UNL     1      21.010  -7.949   1.267  1.00  0.00    -0.203 F 
ATOM     67  C   UNL     1      21.968 -10.098   1.363  1.00  0.00     0.198 A 
ATOM     68  C   UNL     1      20.561 -12.034   1.561  1.00  0.00     0.198 A 
ATOM     69  F   UNL     1      18.222 -11.788   1.615  1.00  0.00    -0.203 F 
ATOM     70  F   UNL     1      23.189  -9.558   1.246  1.00  0.00    -0.200 F 
ATOM     71  C   UNL     1      21.826 -11.474   1.469  1.00  0.00     0.200 A 
ATOM     72  F   UNL     1      20.422 -13.362   1.681  1.00  0.00    -0.200 F 
ATOM     73  F   UNL     1      22.910 -12.261   1.478  1.00  0.00    -0.200 F 
ENDBRANCH  40  63
ENDBRANCH  14  15
ENDBRANCH   7   9
ENDBRANCH   6   7
ENDBRANCH   5   6
ENDBRANCH   4   5
ENDBRANCH   3   4
ENDBRANCH   2   3
ENDBRANCH   1   2
BRANCH   1  74
ATOM     74  O   UNL     1       6.239  -0.804  -2.233  1.00  0.00    -0.377 OA
BRANCH  74  75
ATOM     75  C   UNL     1       6.114  -2.207  -2.439  1.00  0.00     0.188 C 
BRANCH  75  76
ATOM     76  C   UNL     1       7.405  -3.030  -2.660  1.00  0.00     0.188 C 
BRANCH  76  77
ATOM     77  O   UNL     1       8.539  -2.282  -3.084  1.00  0.00    -0.376 OA
BRANCH  77  78
ATOM     78  C   UNL     1       8.839  -2.393  -4.472  1.00  0.00     0.202 C 
BRANCH  78  79
ATOM     79  C   UNL     1       7.818  -1.694  -5.375  1.00  0.00     0.261 C 
BRANCH  79  80
ATOM     80  O   UNL     1       6.508  -2.296  -5.315  1.00  0.00    -0.461 OA
BRANCH  80  81
ATOM     81  C   UNL     1       6.308  -3.519  -5.872  1.00  0.00     0.335 C 
ATOM     82  O   UNL     1       7.082  -4.063  -6.652  1.00  0.00    -0.249 OA
BRANCH  81  83
ATOM     83  C   UNL     1       5.024  -4.156  -5.285  1.00  0.00     0.232 C 
ATOM     84  C   UNL     1       4.472  -5.300  -6.105  1.00  0.00     0.087 C 
ATOM     85  O   UNL     1       5.206  -4.634  -3.954  1.00  0.00    -0.355 OA
ATOM     86  C   UNL     1       4.510  -6.559  -5.210  1.00  0.00     0.124 C 
ATOM     87  C   UNL     1       5.198  -6.075  -3.904  1.00  0.00     0.187 C 
BRANCH  86  88
ATOM     88  C   UNL     1       3.085  -7.168  -5.194  1.00  0.00     0.005 A 
ATOM     89  C   UNL     1       2.636  -7.659  -6.456  1.00  0.00     0.008 A 
ATOM     90  C   UNL     1       2.158  -7.280  -4.137  1.00  0.00     0.047 A 
ATOM     91  C   UNL     1       1.383  -8.243  -6.649  1.00  0.00     0.001 A 
ATOM     92  C   UNL     1       0.915  -7.918  -4.329  1.00  0.00     0.021 A 
ATOM     93  Cl  UNL     1       2.315  -6.613  -2.552  1.00  0.00    -0.084 Cl
ATOM     94  C   UNL     1       0.527  -8.396  -5.574  1.00  0.00     0.002 A 
ENDBRANCH  86  88
BRANCH  86  95
ATOM     95  O   UNL     1       5.321  -7.558  -5.859  1.00  0.00    -0.382 OA
ATOM     96  H   UNL     1       6.239  -7.247  -5.908  1.00  0.00     0.212 HD
ENDBRANCH  86  95
BRANCH  87  97
ATOM     97  C   UNL     1       6.595  -6.546  -3.478  1.00  0.00     0.003 A 
ATOM     98  C   UNL     1       7.726  -6.285  -4.275  1.00  0.00     0.008 A 
ATOM     99  C   UNL     1       6.839  -7.133  -2.215  1.00  0.00     0.046 A 
ATOM    100  C   UNL     1       9.029  -6.513  -3.813  1.00  0.00     0.000 A 
ATOM    101  C   UNL     1       8.146  -7.376  -1.761  1.00  0.00     0.021 A 
ATOM    102  Cl  UNL     1       5.578  -7.574  -1.114  1.00  0.00    -0.084 Cl
ATOM    103  C   UNL     1       9.241  -7.045  -2.550  1.00  0.00     0.002 A 
ENDBRANCH  87  97
ENDBRANCH  81  83
ENDBRANCH  80  81
ENDBRANCH  79  80
ENDBRANCH  78  79
ENDBRANCH  77  78
ENDBRANCH  76  77
ENDBRANCH  75  76
ENDBRANCH  74  75
ENDBRANCH   1  74
TORSDOF 23
