REMARK SMILES O=C(OCCOCCOCCOCCOC(=O)[C@@H]1CC=CC[C@@H]1C(=O)N1CCN(C(=O)c2sc3cc([N+](=O)[O-])ccc3c2Cl)CC1)c1ccc(-c2c3nc(c(-c4c(F)c(F)c(F)c(F)c4F)c4ccc([nH]4)c(-c4c(F)c(F)c(F)c(F)c4F)c4nc(c(-c5c(F)c(F)c(F)c(F)c5F)c5ccc2[nH]5)C=C4)C=C3)cc1
REMARK SMILES IDX 10 1 9 2 8 3 7 4 6 5 5 6 4 7 3 8 2 9 1 10 47 11 48 12 109 13
REMARK SMILES IDX 49 14 108 15 50 16 51 17 52 18 102 19 53 20 107 21 101 22
REMARK SMILES IDX 103 23 54 24 106 25 100 26 99 27 55 29 87 30 67 31 86 32
REMARK SMILES IDX 68 33 71 34 85 35 104 36 69 37 70 38 84 40 105 41 72 42
REMARK SMILES IDX 56 43 57 44 65 45 58 46 59 47 63 48 66 49 60 50 61 51 64 52
REMARK SMILES IDX 62 53 88 54 89 55 97 56 90 57 91 58 95 59 98 60 92 61 93 62
REMARK SMILES IDX 96 63 94 64 73 65 74 66 82 67 75 68 76 69 80 70 83 71 77 72
REMARK SMILES IDX 78 73 81 74 79 75 11 76 12 77 13 78 14 79 15 80 16 81 17 82
REMARK SMILES IDX 18 83 19 84 23 85 20 86 22 87 21 88 24 89 25 90 26 91 27 92
REMARK SMILES IDX 46 93 28 94 45 95 29 96 30 97 31 98 32 99 33 100 43 101
REMARK SMILES IDX 34 102 42 103 44 104 35 105 41 106 36 107 40 108 37 109
REMARK SMILES IDX 38 110 39 111
REMARK H PARENT 103 28 71 39
REMARK Flexibility Score: inf
ROOT
ATOM      1  C   UNL     1       3.782   9.104   0.074  1.00  0.00     0.188 C 
ENDROOT
BRANCH   1   2
ATOM      2  O   UNL     1       4.229  10.443   0.239  1.00  0.00    -0.377 OA
BRANCH   2   3
ATOM      3  C   UNL     1       4.045  11.313  -0.887  1.00  0.00     0.188 C 
BRANCH   3   4
ATOM      4  C   UNL     1       4.661  10.848  -2.222  1.00  0.00     0.188 C 
BRANCH   4   5
ATOM      5  O   UNL     1       4.025   9.647  -2.636  1.00  0.00    -0.376 OA
BRANCH   5   6
ATOM      6  C   UNL     1       4.598   8.976  -3.737  1.00  0.00     0.202 C 
BRANCH   6   7
ATOM      7  C   UNL     1       3.906   9.261  -5.072  1.00  0.00     0.261 C 
BRANCH   7   8
ATOM      8  O   UNL     1       2.909  10.301  -5.102  1.00  0.00    -0.460 OA
BRANCH   8   9
ATOM      9  C   UNL     1       1.733  10.368  -4.435  1.00  0.00     0.338 C 
ATOM     10  O   UNL     1       1.000  11.344  -4.564  1.00  0.00    -0.246 OA
BRANCH   9  11
ATOM     11  C   UNL     1       1.358   9.334  -3.445  1.00  0.00     0.060 A 
ATOM     12  C   UNL     1       0.919   9.813  -2.209  1.00  0.00     0.016 A 
ATOM     13  C   UNL     1       1.427   7.953  -3.673  1.00  0.00     0.016 A 
ATOM     14  C   UNL     1       0.640   8.917  -1.191  1.00  0.00     0.010 A 
ATOM     15  C   UNL     1       1.163   7.045  -2.635  1.00  0.00     0.010 A 
ATOM     16  C   UNL     1       0.784   7.526  -1.383  1.00  0.00    -0.014 A 
BRANCH  16  17
ATOM     17  C   UNL     1       0.260   6.680  -0.292  1.00  0.00     0.031 A 
ATOM     18  C   UNL     1      -1.136   7.037   0.037  1.00  0.00     0.074 A 
ATOM     19  C   UNL     1       0.872   5.708   0.419  1.00  0.00     0.049 A 
ATOM     20  N   UNL     1      -1.585   7.477   1.167  1.00  0.00    -0.248 NA
ATOM     21  C   UNL     1      -2.107   7.045  -1.072  1.00  0.00     0.031 C 
ATOM     22  C   UNL     1       2.197   5.162   0.164  1.00  0.00     0.029 A 
ATOM     23  N   UNL     1       0.438   4.993   1.526  1.00  0.00    -0.354 N 
ATOM     24  C   UNL     1      -2.945   7.623   0.964  1.00  0.00     0.074 A 
ATOM     25  C   UNL     1      -3.197   7.487  -0.452  1.00  0.00     0.031 C 
ATOM     26  C   UNL     1       2.415   4.136   1.009  1.00  0.00     0.029 A 
ATOM     27  C   UNL     1       1.273   3.941   1.883  1.00  0.00     0.049 A 
ATOM     28  H   UNL     1      -0.388   5.212   2.015  1.00  0.00     0.167 HD
ATOM     29  C   UNL     1      -3.809   7.396   1.980  1.00  0.00     0.037 A 
ATOM     30  C   UNL     1       1.113   2.952   2.805  1.00  0.00     0.037 A 
ATOM     31  C   UNL     1      -3.278   7.633   3.284  1.00  0.00     0.049 A 
ATOM     32  C   UNL     1       0.153   3.406   3.842  1.00  0.00     0.074 A 
ATOM     33  C   UNL     1      -3.079   8.732   4.087  1.00  0.00     0.029 A 
ATOM     34  N   UNL     1      -2.571   6.601   3.830  1.00  0.00    -0.354 N 
ATOM     35  N   UNL     1       0.448   4.235   4.807  1.00  0.00    -0.248 NA
ATOM     36  C   UNL     1      -1.264   3.073   3.716  1.00  0.00     0.031 C 
ATOM     37  C   UNL     1      -2.204   8.327   5.136  1.00  0.00     0.029 A 
ATOM     38  C   UNL     1      -1.873   6.990   4.946  1.00  0.00     0.049 A 
ATOM     39  H   UNL     1      -2.563   5.686   3.467  1.00  0.00     0.167 HD
ATOM     40  C   UNL     1      -0.758   4.818   5.135  1.00  0.00     0.074 A 
ATOM     41  C   UNL     1      -1.784   3.959   4.566  1.00  0.00     0.031 C 
ATOM     42  C   UNL     1      -0.839   6.131   5.483  1.00  0.00     0.037 A 
BRANCH  29  43
ATOM     43  C   UNL     1      -4.887   6.396   1.723  1.00  0.00     0.064 A 
ATOM     44  C   UNL     1      -6.152   6.518   2.295  1.00  0.00     0.173 A 
ATOM     45  C   UNL     1      -4.604   5.192   1.033  1.00  0.00     0.173 A 
ATOM     46  F   UNL     1      -6.456   7.590   3.040  1.00  0.00    -0.203 F 
ATOM     47  C   UNL     1      -7.106   5.512   2.130  1.00  0.00     0.198 A 
ATOM     48  C   UNL     1      -5.569   4.222   0.820  1.00  0.00     0.198 A 
ATOM     49  F   UNL     1      -3.360   4.914   0.608  1.00  0.00    -0.203 F 
ATOM     50  F   UNL     1      -8.300   5.625   2.725  1.00  0.00    -0.200 F 
ATOM     51  C   UNL     1      -6.822   4.380   1.374  1.00  0.00     0.200 A 
ATOM     52  F   UNL     1      -5.264   3.125   0.114  1.00  0.00    -0.200 F 
ATOM     53  F   UNL     1      -7.744   3.422   1.214  1.00  0.00    -0.200 F 
ENDBRANCH  29  43
BRANCH  30  54
ATOM     54  C   UNL     1       1.804   1.625   2.910  1.00  0.00     0.064 A 
ATOM     55  C   UNL     1       1.698   0.821   4.064  1.00  0.00     0.173 A 
ATOM     56  C   UNL     1       2.457   1.014   1.818  1.00  0.00     0.173 A 
ATOM     57  F   UNL     1       1.011   1.246   5.134  1.00  0.00    -0.203 F 
ATOM     58  C   UNL     1       2.241  -0.471   4.128  1.00  0.00     0.198 A 
ATOM     59  C   UNL     1       3.039  -0.254   1.898  1.00  0.00     0.198 A 
ATOM     60  F   UNL     1       2.482   1.590   0.610  1.00  0.00    -0.203 F 
ATOM     61  F   UNL     1       2.063  -1.216   5.228  1.00  0.00    -0.200 F 
ATOM     62  C   UNL     1       2.926  -1.001   3.051  1.00  0.00     0.200 A 
ATOM     63  F   UNL     1       3.670  -0.761   0.828  1.00  0.00    -0.200 F 
ATOM     64  F   UNL     1       3.436  -2.239   3.106  1.00  0.00    -0.200 F 
ENDBRANCH  30  54
BRANCH  42  65
ATOM     65  C   UNL     1       0.254   6.734   6.304  1.00  0.00     0.064 A 
ATOM     66  C   UNL     1       1.591   6.864   5.905  1.00  0.00     0.173 A 
ATOM     67  C   UNL     1      -0.104   7.271   7.554  1.00  0.00     0.173 A 
ATOM     68  F   UNL     1       2.007   6.429   4.705  1.00  0.00    -0.203 F 
ATOM     69  C   UNL     1       2.524   7.487   6.738  1.00  0.00     0.198 A 
ATOM     70  C   UNL     1       0.818   7.933   8.357  1.00  0.00     0.198 A 
ATOM     71  F   UNL     1      -1.372   7.179   7.989  1.00  0.00    -0.203 F 
ATOM     72  F   UNL     1       3.809   7.569   6.370  1.00  0.00    -0.200 F 
ATOM     73  C   UNL     1       2.135   8.036   7.950  1.00  0.00     0.200 A 
ATOM     74  F   UNL     1       0.427   8.480   9.516  1.00  0.00    -0.200 F 
ATOM     75  F   UNL     1       3.029   8.672   8.719  1.00  0.00    -0.200 F 
ENDBRANCH  42  65
ENDBRANCH  16  17
ENDBRANCH   9  11
ENDBRANCH   8   9
ENDBRANCH   7   8
ENDBRANCH   6   7
ENDBRANCH   5   6
ENDBRANCH   4   5
ENDBRANCH   3   4
ENDBRANCH   2   3
ENDBRANCH   1   2
BRANCH   1  76
ATOM     76  C   UNL     1       3.104   8.462   1.294  1.00  0.00     0.188 C 
BRANCH  76  77
ATOM     77  O   UNL     1       2.896   9.249   2.451  1.00  0.00    -0.376 OA
BRANCH  77  78
ATOM     78  C   UNL     1       4.068   9.733   3.090  1.00  0.00     0.202 C 
BRANCH  78  79
ATOM     79  C   UNL     1       5.037   8.655   3.573  1.00  0.00     0.261 C 
BRANCH  79  80
ATOM     80  O   UNL     1       5.509   7.779   2.523  1.00  0.00    -0.463 OA
BRANCH  80  81
ATOM     81  C   UNL     1       6.240   6.743   3.003  1.00  0.00     0.310 C 
ATOM     82  O   UNL     1       6.741   6.740   4.124  1.00  0.00    -0.252 OA
BRANCH  81  83
ATOM     83  C   UNL     1       6.280   5.525   2.094  1.00  0.00     0.115 C 
ATOM     84  C   UNL     1       7.430   4.604   2.551  1.00  0.00     0.043 C 
ATOM     85  C   UNL     1       6.109   5.637   0.567  1.00  0.00     0.097 C 
ATOM     86  C   UNL     1       7.739   3.474   1.625  1.00  0.00    -0.030 C 
ATOM     87  C   UNL     1       6.058   4.211  -0.054  1.00  0.00     0.041 C 
ATOM     88  C   UNL     1       7.112   3.285   0.461  1.00  0.00    -0.030 C 
BRANCH  85  89
ATOM     89  C   UNL     1       6.829   6.545  -0.449  1.00  0.00     0.227 C 
ATOM     90  O   UNL     1       6.452   6.461  -1.631  1.00  0.00    -0.275 OA
ATOM     91  N   UNL     1       7.713   7.533  -0.131  1.00  0.00    -0.339 N 
ATOM     92  C   UNL     1       7.827   8.684  -1.025  1.00  0.00     0.141 C 
ATOM     93  C   UNL     1       8.698   7.578   0.927  1.00  0.00     0.141 C 
ATOM     94  C   UNL     1       7.519   9.950  -0.237  1.00  0.00     0.141 C 
ATOM     95  C   UNL     1       8.577   8.850   1.773  1.00  0.00     0.141 C 
ATOM     96  N   UNL     1       8.210  10.077   1.038  1.00  0.00    -0.334 N 
ATOM     97  C   UNL     1       7.998  11.294   1.714  1.00  0.00     0.265 C 
ATOM     98  O   UNL     1       7.207  12.136   1.304  1.00  0.00    -0.268 OA
BRANCH  97  99
ATOM     99  C   UNL     1       8.811  11.499   2.886  1.00  0.00     0.112 A 
ATOM    100  S   UNL     1       8.097  11.858   4.386  1.00  0.00    -0.128 S 
ATOM    101  C   UNL     1      10.182  11.462   2.958  1.00  0.00     0.072 A 
ATOM    102  C   UNL     1       9.620  11.810   5.197  1.00  0.00     0.043 A 
ATOM    103  C   UNL     1      10.662  11.539   4.302  1.00  0.00     0.012 A 
ATOM    104  Cl  UNL     1      11.237  11.276   1.610  1.00  0.00    -0.082 Cl
ATOM    105  C   UNL     1       9.858  12.007   6.572  1.00  0.00     0.105 A 
ATOM    106  C   UNL     1      11.973  11.399   4.814  1.00  0.00     0.018 A 
ATOM    107  C   UNL     1      11.178  11.888   7.035  1.00  0.00     0.270 A 
ATOM    108  C   UNL     1      12.226  11.563   6.174  1.00  0.00     0.086 A 
BRANCH 107 109
ATOM    109  N   UNL     1      11.470  12.121   8.454  1.00  0.00     0.062 N 
ATOM    110  O   UNL     1      10.560  12.571   9.162  1.00  0.00    -0.258 OA
ATOM    111  O   UNL     1      12.614  11.862   8.855  1.00  0.00    -0.258 OA
ENDBRANCH 107 109
ENDBRANCH  97  99
ENDBRANCH  85  89
ENDBRANCH  81  83
ENDBRANCH  80  81
ENDBRANCH  79  80
ENDBRANCH  78  79
ENDBRANCH  77  78
ENDBRANCH  76  77
ENDBRANCH   1  76
TORSDOF 23
