REMARK SMILES Cc1cc(C)n(C)c(=O)c1C(=O)[NH+]1CCC2(CC1)C[NH2+][C@@H](C(=O)OCCOCCOCCOCCOC(=O)c1ccc(-c3c4nc(c(-c5c(F)c(F)c(F)c(F)c5F)c5ccc([nH]5)c(-c5c(F)c(F)c(F)c(F)c5F)c5nc(c(-c6c(F)c(F)c(F)c(F)c6F)c6ccc3[nH]6)C=C5)C=C4)cc1)C2
REMARK SMILES IDX 30 1 29 2 28 3 27 4 26 5 25 6 24 7 22 8 23 9 21 10 13 11
REMARK SMILES IDX 14 12 18 13 15 15 17 16 16 17 19 18 102 19 20 20 11 23 12 24
REMARK SMILES IDX 10 25 1 26 2 27 3 28 4 29 8 30 5 31 6 32 9 33 7 34 31 35
REMARK SMILES IDX 32 36 33 37 34 38 35 39 36 40 37 41 38 42 39 43 40 44 101 45
REMARK SMILES IDX 41 46 100 47 42 48 43 49 44 50 94 51 45 52 99 53 93 54 95 55
REMARK SMILES IDX 46 56 98 57 92 58 91 59 47 61 79 62 59 63 78 64 60 65 63 66
REMARK SMILES IDX 77 67 96 68 61 69 62 70 76 72 97 73 64 74 48 75 49 76 57 77
REMARK SMILES IDX 50 78 51 79 55 80 58 81 52 82 53 83 56 84 54 85 80 86 81 87
REMARK SMILES IDX 89 88 82 89 83 90 87 91 90 92 84 93 85 94 88 95 86 96 65 97
REMARK SMILES IDX 66 98 74 99 67 100 68 101 72 102 75 103 69 104 70 105 73 106
REMARK SMILES IDX 71 107
REMARK H PARENT 13 14 20 21 20 22 95 60 63 71
REMARK Flexibility Score: inf
ROOT
ATOM      1  O   UNL     1       6.212  -3.686  -4.027  1.00  0.00    -0.377 OA
ENDROOT
BRANCH   1   2
ATOM      2  C   UNL     1       6.929  -2.977  -3.042  1.00  0.00     0.188 C 
BRANCH   2   3
ATOM      3  C   UNL     1       7.898  -3.839  -2.219  1.00  0.00     0.188 C 
BRANCH   3   4
ATOM      4  O   UNL     1       8.343  -5.102  -2.704  1.00  0.00    -0.376 OA
BRANCH   4   5
ATOM      5  C   UNL     1       7.434  -6.015  -3.305  1.00  0.00     0.202 C 
BRANCH   5   6
ATOM      6  C   UNL     1       6.104  -6.383  -2.627  1.00  0.00     0.261 C 
BRANCH   6   7
ATOM      7  O   UNL     1       5.481  -5.324  -1.890  1.00  0.00    -0.459 OA
BRANCH   7   8
ATOM      8  C   UNL     1       5.476  -5.452  -0.540  1.00  0.00     0.364 C 
ATOM      9  O   UNL     1       5.906  -6.425   0.073  1.00  0.00    -0.245 OA
BRANCH   8  10
ATOM     10  C   UNL     1       4.875  -4.239   0.179  1.00  0.00     0.294 C 
ATOM     11  N   UNL     1       3.023   0.644  -0.498  1.00  0.00    -0.267 N 
ATOM     12  C   UNL     1       4.314   0.274   0.057  1.00  0.00     0.271 C 
ATOM     13  C   UNL     1       2.511  -0.308  -1.476  1.00  0.00     0.271 C 
ATOM     14  H   UNL     1       3.964   0.743  -0.769  1.00  0.00     0.357 HD
ATOM     15  C   UNL     1       4.119  -0.975   0.904  1.00  0.00     0.075 C 
ATOM     16  C   UNL     1       2.468  -1.760  -0.947  1.00  0.00     0.075 C 
ATOM     17  C   UNL     1       3.550  -2.172   0.104  1.00  0.00     0.036 C 
ATOM     18  C   UNL     1       3.009  -3.231   1.099  1.00  0.00     0.268 C 
ATOM     19  C   UNL     1       4.695  -2.937  -0.588  1.00  0.00     0.090 C 
ATOM     20  N   UNL     1       3.498  -4.518   0.616  1.00  0.00    -0.334 N 
ATOM     21  H   UNL     1       2.932  -4.850  -0.165  1.00  0.00     0.347 HD
ATOM     22  H   UNL     1       3.454  -5.246   1.329  1.00  0.00     0.347 HD
BRANCH  11  23
ATOM     23  C   UNL     1       2.566   1.935  -0.249  1.00  0.00     0.350 C 
ATOM     24  O   UNL     1       3.394   2.824  -0.029  1.00  0.00    -0.225 OA
BRANCH  23  25
ATOM     25  C   UNL     1       1.092   2.247  -0.063  1.00  0.00     0.147 A 
ATOM     26  C   UNL     1       0.326  -0.046   0.802  1.00  0.00     0.045 C 
ATOM     27  C   UNL     1       0.158   1.384   0.405  1.00  0.00    -0.027 A 
ATOM     28  C   UNL     1      -1.189   1.824   0.702  1.00  0.00     0.026 A 
ATOM     29  C   UNL     1      -1.511   3.118   0.790  1.00  0.00     0.018 A 
ATOM     30  C   UNL     1       0.672   3.715  -0.139  1.00  0.00     0.267 A 
ATOM     31  C   UNL     1      -2.892   3.481   1.263  1.00  0.00     0.064 C 
ATOM     32  N   UNL     1      -0.569   4.070   0.431  1.00  0.00    -0.315 N 
ATOM     33  O   UNL     1       1.397   4.557  -0.669  1.00  0.00    -0.268 OA
ATOM     34  C   UNL     1      -0.867   5.489   0.586  1.00  0.00     0.153 C 
ENDBRANCH  23  25
ENDBRANCH  11  23
ENDBRANCH   8  10
ENDBRANCH   7   8
ENDBRANCH   6   7
ENDBRANCH   5   6
ENDBRANCH   4   5
ENDBRANCH   3   4
ENDBRANCH   2   3
ENDBRANCH   1   2
BRANCH   1  35
ATOM     35  C   UNL     1       6.600  -3.407  -5.365  1.00  0.00     0.188 C 
BRANCH  35  36
ATOM     36  C   UNL     1       8.115  -3.305  -5.658  1.00  0.00     0.188 C 
BRANCH  36  37
ATOM     37  O   UNL     1       8.834  -2.419  -4.808  1.00  0.00    -0.376 OA
BRANCH  37  38
ATOM     38  C   UNL     1       9.065  -1.081  -5.232  1.00  0.00     0.202 C 
BRANCH  38  39
ATOM     39  C   UNL     1       7.858  -0.139  -5.408  1.00  0.00     0.261 C 
BRANCH  39  40
ATOM     40  O   UNL     1       6.827  -0.574  -6.308  1.00  0.00    -0.460 OA
BRANCH  40  41
ATOM     41  C   UNL     1       7.168  -0.820  -7.588  1.00  0.00     0.338 C 
ATOM     42  O   UNL     1       8.257  -0.642  -8.109  1.00  0.00    -0.246 OA
BRANCH  41  43
ATOM     43  C   UNL     1       6.053  -1.562  -8.214  1.00  0.00     0.060 A 
ATOM     44  C   UNL     1       6.301  -2.848  -8.717  1.00  0.00     0.016 A 
ATOM     45  C   UNL     1       4.772  -1.010  -8.287  1.00  0.00     0.016 A 
ATOM     46  C   UNL     1       5.278  -3.572  -9.325  1.00  0.00     0.010 A 
ATOM     47  C   UNL     1       3.756  -1.720  -8.934  1.00  0.00     0.010 A 
ATOM     48  C   UNL     1       4.018  -2.985  -9.489  1.00  0.00    -0.014 A 
BRANCH  48  49
ATOM     49  C   UNL     1       3.076  -3.570 -10.472  1.00  0.00     0.031 A 
ATOM     50  C   UNL     1       3.121  -3.041 -11.879  1.00  0.00     0.074 A 
ATOM     51  C   UNL     1       2.245  -4.574 -10.153  1.00  0.00     0.049 A 
ATOM     52  N   UNL     1       2.384  -3.352 -12.914  1.00  0.00    -0.248 NA
ATOM     53  C   UNL     1       4.146  -2.020 -12.153  1.00  0.00     0.031 C 
ATOM     54  C   UNL     1       2.170  -5.229  -8.852  1.00  0.00     0.029 A 
ATOM     55  N   UNL     1       1.305  -5.221 -10.916  1.00  0.00    -0.354 N 
ATOM     56  C   UNL     1       2.862  -2.573 -13.959  1.00  0.00     0.074 A 
ATOM     57  C   UNL     1       3.916  -1.739 -13.424  1.00  0.00     0.031 C 
ATOM     58  C   UNL     1       1.232  -6.192  -8.906  1.00  0.00     0.029 A 
ATOM     59  C   UNL     1       0.618  -6.193 -10.234  1.00  0.00     0.049 A 
ATOM     60  H   UNL     1       1.140  -5.009 -11.863  1.00  0.00     0.167 HD
ATOM     61  C   UNL     1       2.470  -2.564 -15.254  1.00  0.00     0.037 A 
ATOM     62  C   UNL     1      -0.399  -6.980 -10.638  1.00  0.00     0.037 A 
ATOM     63  C   UNL     1       1.403  -3.374 -15.776  1.00  0.00     0.049 A 
ATOM     64  C   UNL     1      -0.919  -6.854 -12.047  1.00  0.00     0.074 A 
ATOM     65  C   UNL     1       0.902  -3.416 -17.064  1.00  0.00     0.029 A 
ATOM     66  N   UNL     1       0.665  -4.282 -15.029  1.00  0.00    -0.354 N 
ATOM     67  N   UNL     1      -0.481  -6.104 -13.029  1.00  0.00    -0.248 NA
ATOM     68  C   UNL     1      -2.080  -7.684 -12.401  1.00  0.00     0.031 C 
ATOM     69  C   UNL     1      -0.177  -4.306 -17.083  1.00  0.00     0.029 A 
ATOM     70  C   UNL     1      -0.308  -4.868 -15.822  1.00  0.00     0.049 A 
ATOM     71  H   UNL     1       0.811  -4.479 -14.075  1.00  0.00     0.167 HD
ATOM     72  C   UNL     1      -1.292  -6.386 -14.122  1.00  0.00     0.074 A 
ATOM     73  C   UNL     1      -2.242  -7.389 -13.684  1.00  0.00     0.031 C 
ATOM     74  C   UNL     1      -1.252  -5.863 -15.373  1.00  0.00     0.037 A 
BRANCH  61  75
ATOM     75  C   UNL     1       3.188  -1.623 -16.178  1.00  0.00     0.064 A 
ATOM     76  C   UNL     1       4.535  -1.819 -16.528  1.00  0.00     0.173 A 
ATOM     77  C   UNL     1       2.529  -0.508 -16.716  1.00  0.00     0.173 A 
ATOM     78  F   UNL     1       5.218  -2.858 -16.024  1.00  0.00    -0.203 F 
ATOM     79  C   UNL     1       5.202  -0.914 -17.349  1.00  0.00     0.198 A 
ATOM     80  C   UNL     1       3.189   0.375 -17.566  1.00  0.00     0.198 A 
ATOM     81  F   UNL     1       1.243  -0.272 -16.415  1.00  0.00    -0.203 F 
ATOM     82  F   UNL     1       6.504  -1.087 -17.614  1.00  0.00    -0.200 F 
ATOM     83  C   UNL     1       4.527   0.178 -17.873  1.00  0.00     0.200 A 
ATOM     84  F   UNL     1       2.533   1.423 -18.082  1.00  0.00    -0.200 F 
ATOM     85  F   UNL     1       5.170   1.047 -18.665  1.00  0.00    -0.200 F 
ENDBRANCH  61  75
BRANCH  62  86
ATOM     86  C   UNL     1      -0.972  -7.974  -9.694  1.00  0.00     0.064 A 
ATOM     87  C   UNL     1      -0.766  -9.347  -9.890  1.00  0.00     0.173 A 
ATOM     88  C   UNL     1      -1.699  -7.578  -8.561  1.00  0.00     0.173 A 
ATOM     89  F   UNL     1      -0.102  -9.775 -10.973  1.00  0.00    -0.203 F 
ATOM     90  C   UNL     1      -1.256 -10.285  -8.984  1.00  0.00     0.198 A 
ATOM     91  C   UNL     1      -2.167  -8.516  -7.643  1.00  0.00     0.198 A 
ATOM     92  F   UNL     1      -1.931  -6.277  -8.333  1.00  0.00    -0.203 F 
ATOM     93  F   UNL     1      -1.062 -11.592  -9.205  1.00  0.00    -0.200 F 
ATOM     94  C   UNL     1      -1.946  -9.868  -7.855  1.00  0.00     0.200 A 
ATOM     95  F   UNL     1      -2.823  -8.108  -6.548  1.00  0.00    -0.200 F 
ATOM     96  F   UNL     1      -2.397 -10.769  -6.972  1.00  0.00    -0.200 F 
ENDBRANCH  62  86
BRANCH  74  97
ATOM     97  C   UNL     1      -2.252  -6.369 -16.375  1.00  0.00     0.064 A 
ATOM     98  C   UNL     1      -3.615  -6.048 -16.281  1.00  0.00     0.173 A 
ATOM     99  C   UNL     1      -1.833  -7.122 -17.483  1.00  0.00     0.173 A 
ATOM    100  F   UNL     1      -4.071  -5.339 -15.238  1.00  0.00    -0.203 F 
ATOM    101  C   UNL     1      -4.521  -6.480 -17.246  1.00  0.00     0.198 A 
ATOM    102  C   UNL     1      -2.736  -7.523 -18.464  1.00  0.00     0.198 A 
ATOM    103  F   UNL     1      -0.539  -7.449 -17.629  1.00  0.00    -0.203 F 
ATOM    104  F   UNL     1      -5.824  -6.197 -17.113  1.00  0.00    -0.200 F 
ATOM    105  C   UNL     1      -4.080  -7.207 -18.342  1.00  0.00     0.200 A 
ATOM    106  F   UNL     1      -2.304  -8.208 -19.532  1.00  0.00    -0.200 F 
ATOM    107  F   UNL     1      -4.952  -7.606 -19.278  1.00  0.00    -0.200 F 
ENDBRANCH  74  97
ENDBRANCH  48  49
ENDBRANCH  41  43
ENDBRANCH  40  41
ENDBRANCH  39  40
ENDBRANCH  38  39
ENDBRANCH  37  38
ENDBRANCH  36  37
ENDBRANCH  35  36
ENDBRANCH   1  35
TORSDOF 22
