REMARK SMILES Cc1ccc(C(=O)N2CCCC[C@@H]2C(=O)OCCOCCOCCOCCOC(=O)c2ccc(-c3c4nc(c(-c5c(F)c(F)c(F)c(F)c5F)c5ccc([nH]5)c(-c5c(F)c(F)c(F)c(F)c5F)c5nc(c(-c6c(F)c(F)c(F)c(F)c6F)c6ccc3[nH]6)C=C5)C=C4)cc2)cc1S(=O)(=O)N1CCCCC1
REMARK SMILES IDX 21 1 20 2 19 3 18 4 17 5 16 6 14 7 15 8 13 9 8 10 9 11 10 12
REMARK SMILES IDX 12 13 11 14 6 15 7 16 5 17 1 18 2 19 3 20 95 21 4 22 94 23
REMARK SMILES IDX 96 24 97 25 98 26 99 27 100 28 104 29 101 30 103 31 102 32
REMARK SMILES IDX 22 33 23 34 24 35 25 36 26 37 27 38 28 39 29 40 30 41 31 42
REMARK SMILES IDX 32 43 93 44 33 45 92 46 34 47 35 48 36 49 86 50 37 51 91 52
REMARK SMILES IDX 85 53 87 54 38 55 90 56 84 57 83 58 39 60 71 61 51 62 70 63
REMARK SMILES IDX 52 64 55 65 69 66 88 67 53 68 54 69 68 71 89 72 56 73 40 74
REMARK SMILES IDX 41 75 49 76 42 77 43 78 47 79 50 80 44 81 45 82 48 83 46 84
REMARK SMILES IDX 72 85 73 86 81 87 74 88 75 89 79 90 82 91 76 92 77 93 80 94
REMARK SMILES IDX 78 95 57 96 58 97 66 98 59 99 60 100 64 101 67 102 61 103
REMARK SMILES IDX 62 104 65 105 63 106
REMARK H PARENT 87 59 55 70
REMARK Flexibility Score: inf
ROOT
ATOM      1  C   UNL     1      -3.490   3.359  -4.415  1.00  0.00     0.188 C 
ENDROOT
BRANCH   1   2
ATOM      2  C   UNL     1      -1.903   2.994  -5.100  1.00  0.00     0.188 C 
BRANCH   2   3
ATOM      3  O   UNL     1      -1.044   1.451  -5.656  1.00  0.00    -0.376 OA
BRANCH   3   4
ATOM      4  C   UNL     1      -0.937  -0.221  -4.952  1.00  0.00     0.202 C 
BRANCH   4   5
ATOM      5  C   UNL     1      -1.432  -0.527  -3.219  1.00  0.00     0.261 C 
BRANCH   5   6
ATOM      6  O   UNL     1      -2.171   0.736  -2.113  1.00  0.00    -0.462 OA
BRANCH   6   7
ATOM      7  C   UNL     1      -2.310   2.216  -1.653  1.00  0.00     0.328 C 
ATOM      8  O   UNL     1      -1.734   3.204  -2.139  1.00  0.00    -0.250 OA
BRANCH   7   9
ATOM      9  C   UNL     1      -3.419   2.680  -0.516  1.00  0.00     0.195 C 
ATOM     10  N   UNL     1      -3.958   1.733   0.441  1.00  0.00    -0.325 N 
ATOM     11  C   UNL     1      -4.821   2.304   1.479  1.00  0.00     0.121 C 
ATOM     12  C   UNL     1      -6.093   2.844   0.874  1.00  0.00     0.022 C 
ATOM     13  C   UNL     1      -4.588   3.663  -1.043  1.00  0.00     0.037 C 
ATOM     14  C   UNL     1      -5.779   3.947  -0.119  1.00  0.00     0.005 C 
BRANCH  10  15
ATOM     15  C   UNL     1      -3.403   0.473   0.673  1.00  0.00     0.254 C 
ATOM     16  O   UNL     1      -3.859  -0.171   1.620  1.00  0.00    -0.269 OA
BRANCH  15  17
ATOM     17  C   UNL     1      -2.045   0.156  -0.019  1.00  0.00     0.041 A 
ATOM     18  C   UNL     1       2.891  -1.396   0.665  1.00  0.00     0.046 C 
ATOM     19  C   UNL     1       1.536  -0.786   0.577  1.00  0.00    -0.031 A 
ATOM     20  C   UNL     1       0.470  -1.728  -0.338  1.00  0.00     0.005 A 
ATOM     21  C   UNL     1       0.914   0.753   1.195  1.00  0.00     0.086 A 
ATOM     22  C   UNL     1      -1.182  -1.285  -0.652  1.00  0.00     0.014 A 
ATOM     23  C   UNL     1      -1.052   1.251   0.745  1.00  0.00     0.035 A 
BRANCH  21  24
ATOM     24  S   UNL     1       2.395   1.905   1.954  1.00  0.00     0.243 S 
ATOM     25  O   UNL     1       2.305   3.319   1.650  1.00  0.00    -0.207 OA
ATOM     26  O   UNL     1       2.477   1.516   3.346  1.00  0.00    -0.207 OA
BRANCH  24  27
ATOM     27  N   UNL     1       3.807   1.485   1.147  1.00  0.00    -0.198 NA
ATOM     28  C   UNL     1       4.813   1.140   2.128  1.00  0.00     0.102 C 
ATOM     29  C   UNL     1       3.978   1.305  -0.303  1.00  0.00     0.102 C 
ATOM     30  C   UNL     1       6.193   1.039   1.579  1.00  0.00     0.017 C 
ATOM     31  C   UNL     1       5.404   1.044  -0.766  1.00  0.00     0.017 C 
ATOM     32  C   UNL     1       6.232   0.304   0.258  1.00  0.00     0.003 C 
ENDBRANCH  24  27
ENDBRANCH  21  24
ENDBRANCH  15  17
ENDBRANCH  10  15
ENDBRANCH   7   9
ENDBRANCH   6   7
ENDBRANCH   5   6
ENDBRANCH   4   5
ENDBRANCH   3   4
ENDBRANCH   2   3
ENDBRANCH   1   2
BRANCH   1  33
ATOM     33  O   UNL     1      -4.822   2.789  -4.423  1.00  0.00    -0.377 OA
BRANCH  33  34
ATOM     34  C   UNL     1      -5.435   2.152  -5.510  1.00  0.00     0.188 C 
BRANCH  34  35
ATOM     35  C   UNL     1      -5.189   2.822  -6.794  1.00  0.00     0.188 C 
BRANCH  35  36
ATOM     36  O   UNL     1      -3.967   3.519  -6.758  1.00  0.00    -0.376 OA
BRANCH  36  37
ATOM     37  C   UNL     1      -3.932   4.848  -7.201  1.00  0.00     0.202 C 
BRANCH  37  38
ATOM     38  C   UNL     1      -4.651   4.899  -8.533  1.00  0.00     0.261 C 
BRANCH  38  39
ATOM     39  O   UNL     1      -3.983   3.921  -9.428  1.00  0.00    -0.460 OA
BRANCH  39  40
ATOM     40  C   UNL     1      -4.465   2.631  -9.626  1.00  0.00     0.338 C 
ATOM     41  O   UNL     1      -5.635   2.370  -9.858  1.00  0.00    -0.246 OA
BRANCH  40  42
ATOM     42  C   UNL     1      -3.438   1.532  -9.250  1.00  0.00     0.060 A 
ATOM     43  C   UNL     1      -3.804   0.288  -8.626  1.00  0.00     0.016 A 
ATOM     44  C   UNL     1      -2.293   2.043  -8.778  1.00  0.00     0.016 A 
ATOM     45  C   UNL     1      -3.470  -0.074  -7.235  1.00  0.00     0.010 A 
ATOM     46  C   UNL     1      -2.128   1.771  -7.430  1.00  0.00     0.010 A 
ATOM     47  C   UNL     1      -2.864   0.859  -6.418  1.00  0.00    -0.014 A 
BRANCH  47  48
ATOM     48  C   UNL     1      -2.680   0.950  -4.522  1.00  0.00     0.031 A 
ATOM     49  C   UNL     1      -0.872   1.564  -3.747  1.00  0.00     0.074 A 
ATOM     50  C   UNL     1      -3.816   0.445  -3.782  1.00  0.00     0.049 A 
ATOM     51  N   UNL     1      -0.230   1.472  -2.569  1.00  0.00    -0.248 NA
ATOM     52  C   UNL     1       0.640   1.833  -4.609  1.00  0.00     0.031 C 
ATOM     53  C   UNL     1      -4.386   0.914  -2.508  1.00  0.00     0.029 A 
ATOM     54  N   UNL     1      -4.825  -0.519  -3.905  1.00  0.00    -0.354 N 
ATOM     55  C   UNL     1       0.949   2.179  -2.481  1.00  0.00     0.074 A 
ATOM     56  C   UNL     1       1.579   2.039  -3.719  1.00  0.00     0.031 C 
ATOM     57  C   UNL     1      -5.054   0.073  -1.734  1.00  0.00     0.029 A 
ATOM     58  C   UNL     1      -5.082  -1.048  -2.560  1.00  0.00     0.049 A 
ATOM     59  H   UNL     1      -5.277  -0.790  -4.737  1.00  0.00     0.167 HD
ATOM     60  C   UNL     1       1.270   2.889  -1.369  1.00  0.00     0.037 A 
ATOM     61  C   UNL     1      -5.484  -2.239  -2.083  1.00  0.00     0.037 A 
ATOM     62  C   UNL     1       0.498   2.252  -0.122  1.00  0.00     0.049 A 
ATOM     63  C   UNL     1      -4.589  -2.606  -0.730  1.00  0.00     0.074 A 
ATOM     64  C   UNL     1       0.048   2.623   1.583  1.00  0.00     0.029 A 
ATOM     65  N   UNL     1       0.074   0.438  -0.332  1.00  0.00    -0.354 N 
ATOM     66  N   UNL     1      -3.537  -1.905  -0.308  1.00  0.00    -0.248 NA
ATOM     67  C   UNL     1      -4.808  -3.657   0.270  1.00  0.00     0.031 C 
ATOM     68  C   UNL     1      -0.505   0.993   2.569  1.00  0.00     0.029 A 
ATOM     69  C   UNL     1      -0.579  -0.421   1.374  1.00  0.00     0.049 A 
ATOM     70  H   UNL     1       0.161  -0.045  -1.185  1.00  0.00     0.167 HD
ATOM     71  C   UNL     1      -2.860  -2.384   0.914  1.00  0.00     0.074 A 
ATOM     72  C   UNL     1      -3.816  -3.485   1.195  1.00  0.00     0.031 C 
ATOM     73  C   UNL     1      -1.567  -1.919   1.593  1.00  0.00     0.037 A 
BRANCH  60  74
ATOM     74  C   UNL     1       2.528   3.958  -1.492  1.00  0.00     0.064 A 
ATOM     75  C   UNL     1       2.898   4.778  -0.423  1.00  0.00     0.173 A 
ATOM     76  C   UNL     1       3.552   3.998  -2.511  1.00  0.00     0.173 A 
ATOM     77  F   UNL     1       1.944   5.356   0.318  1.00  0.00    -0.203 F 
ATOM     78  C   UNL     1       4.252   5.112  -0.141  1.00  0.00     0.198 A 
ATOM     79  C   UNL     1       4.886   4.409  -2.287  1.00  0.00     0.198 A 
ATOM     80  F   UNL     1       3.326   3.705  -3.795  1.00  0.00    -0.203 F 
ATOM     81  F   UNL     1       4.582   5.655   1.039  1.00  0.00    -0.200 F 
ATOM     82  C   UNL     1       5.260   4.864  -1.052  1.00  0.00     0.200 A 
ATOM     83  F   UNL     1       5.803   4.302  -3.265  1.00  0.00    -0.200 F 
ATOM     84  F   UNL     1       6.548   5.116  -0.774  1.00  0.00    -0.200 F 
ENDBRANCH  60  74
BRANCH  61  85
ATOM     85  C   UNL     1      -6.187  -2.798  -3.342  1.00  0.00     0.064 A 
ATOM     86  C   UNL     1      -7.344  -2.017  -3.789  1.00  0.00     0.173 A 
ATOM     87  C   UNL     1      -5.342  -3.205  -4.399  1.00  0.00     0.173 A 
ATOM     88  F   UNL     1      -8.169  -1.475  -2.874  1.00  0.00    -0.203 F 
ATOM     89  C   UNL     1      -7.445  -1.468  -5.097  1.00  0.00     0.198 A 
ATOM     90  C   UNL     1      -5.497  -2.701  -5.719  1.00  0.00     0.198 A 
ATOM     91  F   UNL     1      -4.160  -3.761  -4.095  1.00  0.00    -0.203 F 
ATOM     92  F   UNL     1      -8.296  -0.453  -5.345  1.00  0.00    -0.200 F 
ATOM     93  C   UNL     1      -6.493  -1.781  -6.047  1.00  0.00     0.200 A 
ATOM     94  F   UNL     1      -4.537  -2.959  -6.620  1.00  0.00    -0.200 F 
ATOM     95  F   UNL     1      -6.427  -1.076  -7.191  1.00  0.00    -0.200 F 
ENDBRANCH  61  85
BRANCH  73  96
ATOM     96  C   UNL     1      -0.705  -3.030   2.281  1.00  0.00     0.064 A 
ATOM     97  C   UNL     1      -0.832  -4.405   1.986  1.00  0.00     0.173 A 
ATOM     98  C   UNL     1       0.500  -2.699   2.951  1.00  0.00     0.173 A 
ATOM     99  F   UNL     1      -1.799  -4.882   1.195  1.00  0.00    -0.203 F 
ATOM    100  C   UNL     1       0.115  -5.359   2.370  1.00  0.00     0.198 A 
ATOM    101  C   UNL     1       1.512  -3.638   3.197  1.00  0.00     0.198 A 
ATOM    102  F   UNL     1       0.792  -1.440   3.300  1.00  0.00    -0.203 F 
ATOM    103  F   UNL     1      -0.108  -6.654   2.103  1.00  0.00    -0.200 F 
ATOM    104  C   UNL     1       1.309  -4.972   2.930  1.00  0.00     0.200 A 
ATOM    105  F   UNL     1       2.721  -3.225   3.607  1.00  0.00    -0.200 F 
ATOM    106  F   UNL     1       2.276  -5.870   3.159  1.00  0.00    -0.200 F 
ENDBRANCH  73  96
ENDBRANCH  47  48
ENDBRANCH  40  42
ENDBRANCH  39  40
ENDBRANCH  38  39
ENDBRANCH  37  38
ENDBRANCH  36  37
ENDBRANCH  35  36
ENDBRANCH  34  35
ENDBRANCH  33  34
ENDBRANCH   1  33
TORSDOF 24
