REMARK SMILES O=C(OCCOCCOCCOCCOC(=O)[C@@H]1CCCC[C@H]1C(=O)Nc1ccc(NC(=O)c2ccco2)cc1)c1ccc(-c2c3nc(c(-c4c(F)c(F)c(F)c(F)c4F)c4ccc([nH]4)c(-c4c(F)c(F)c(F)c(F)c4F)c4nc(c(-c5c(F)c(F)c(F)c(F)c5F)c5ccc2[nH]5)C=C4)C=C3)cc1
REMARK SMILES IDX 10 1 9 2 8 3 7 4 6 5 5 6 4 7 3 8 2 9 1 10 41 11 42 12 103 13
REMARK SMILES IDX 43 14 102 15 44 16 45 17 46 18 96 19 47 20 101 21 95 22
REMARK SMILES IDX 97 23 48 24 100 25 94 26 93 27 49 29 81 30 61 31 80 32 62 33
REMARK SMILES IDX 65 34 79 35 98 36 63 37 64 38 78 40 99 41 66 42 50 43 51 44
REMARK SMILES IDX 59 45 52 46 53 47 57 48 60 49 54 50 55 51 58 52 56 53 82 54
REMARK SMILES IDX 83 55 91 56 84 57 85 58 89 59 92 60 86 61 87 62 90 63 88 64
REMARK SMILES IDX 67 65 68 66 76 67 69 68 70 69 74 70 77 71 71 72 72 73 75 74
REMARK SMILES IDX 73 75 11 76 12 77 13 78 14 79 15 80 16 81 17 82 18 83 19 84
REMARK SMILES IDX 23 85 20 86 22 87 21 88 24 89 25 90 26 91 27 93 28 94 40 95
REMARK SMILES IDX 29 96 39 97 30 98 31 99 32 100 33 102 34 103 35 104 38 105
REMARK SMILES IDX 36 106 37 107
REMARK H PARENT 97 28 65 39 26 92 31 101
REMARK Flexibility Score: inf
ROOT
ATOM      1  C   UNL     1       3.673   1.935  -2.460  1.00  0.00     0.188 C 
ENDROOT
BRANCH   1   2
ATOM      2  O   UNL     1       2.247   2.010  -2.453  1.00  0.00    -0.377 OA
BRANCH   2   3
ATOM      3  C   UNL     1       1.605   1.386  -1.339  1.00  0.00     0.188 C 
BRANCH   3   4
ATOM      4  C   UNL     1       2.023  -0.073  -1.173  1.00  0.00     0.188 C 
BRANCH   4   5
ATOM      5  O   UNL     1       3.339  -0.084  -0.603  1.00  0.00    -0.376 OA
BRANCH   5   6
ATOM      6  C   UNL     1       4.067  -1.294  -0.788  1.00  0.00     0.202 C 
BRANCH   6   7
ATOM      7  C   UNL     1       3.990  -2.206   0.436  1.00  0.00     0.261 C 
BRANCH   7   8
ATOM      8  O   UNL     1       2.657  -2.244   0.974  1.00  0.00    -0.460 OA
BRANCH   8   9
ATOM      9  C   UNL     1       2.095  -1.406   1.882  1.00  0.00     0.338 C 
ATOM     10  O   UNL     1       0.895  -1.529   2.123  1.00  0.00    -0.246 OA
BRANCH   9  11
ATOM     11  C   UNL     1       2.855  -0.385   2.673  1.00  0.00     0.060 A 
ATOM     12  C   UNL     1       4.013   0.277   2.260  1.00  0.00     0.016 A 
ATOM     13  C   UNL     1       2.326  -0.052   3.934  1.00  0.00     0.016 A 
ATOM     14  C   UNL     1       4.696   1.143   3.107  1.00  0.00     0.010 A 
ATOM     15  C   UNL     1       2.992   0.834   4.788  1.00  0.00     0.010 A 
ATOM     16  C   UNL     1       4.215   1.383   4.392  1.00  0.00    -0.014 A 
BRANCH  16  17
ATOM     17  C   UNL     1       5.150   1.975   5.368  1.00  0.00     0.031 A 
ATOM     18  C   UNL     1       5.875   1.032   6.284  1.00  0.00     0.074 A 
ATOM     19  C   UNL     1       5.476   3.276   5.304  1.00  0.00     0.049 A 
ATOM     20  N   UNL     1       6.731   1.286   7.236  1.00  0.00    -0.248 NA
ATOM     21  C   UNL     1       5.612  -0.404   6.080  1.00  0.00     0.031 C 
ATOM     22  C   UNL     1       4.942   4.232   4.335  1.00  0.00     0.029 A 
ATOM     23  N   UNL     1       6.374   4.005   6.038  1.00  0.00    -0.354 N 
ATOM     24  C   UNL     1       7.072   0.049   7.768  1.00  0.00     0.074 A 
ATOM     25  C   UNL     1       6.348  -0.957   7.028  1.00  0.00     0.031 C 
ATOM     26  C   UNL     1       5.556   5.415   4.506  1.00  0.00     0.029 A 
ATOM     27  C   UNL     1       6.474   5.314   5.637  1.00  0.00     0.049 A 
ATOM     28  H   UNL     1       6.897   3.627   6.781  1.00  0.00     0.167 HD
ATOM     29  C   UNL     1       7.908  -0.216   8.798  1.00  0.00     0.037 A 
ATOM     30  C   UNL     1       7.216   6.314   6.152  1.00  0.00     0.037 A 
ATOM     31  C   UNL     1       8.627   0.801   9.509  1.00  0.00     0.049 A 
ATOM     32  C   UNL     1       8.079   6.010   7.349  1.00  0.00     0.074 A 
ATOM     33  C   UNL     1       9.421   0.685  10.633  1.00  0.00     0.029 A 
ATOM     34  N   UNL     1       8.639   2.140   9.139  1.00  0.00    -0.354 N 
ATOM     35  N   UNL     1       8.306   4.857   7.936  1.00  0.00    -0.248 NA
ATOM     36  C   UNL     1       8.765   7.147   7.976  1.00  0.00     0.031 C 
ATOM     37  C   UNL     1       9.893   1.963  10.959  1.00  0.00     0.029 A 
ATOM     38  C   UNL     1       9.421   2.866  10.017  1.00  0.00     0.049 A 
ATOM     39  H   UNL     1       8.161   2.517   8.365  1.00  0.00     0.167 HD
ATOM     40  C   UNL     1       9.162   5.126   8.994  1.00  0.00     0.074 A 
ATOM     41  C   UNL     1       9.434   6.551   8.953  1.00  0.00     0.031 C 
ATOM     42  C   UNL     1       9.669   4.282   9.926  1.00  0.00     0.037 A 
BRANCH  29  43
ATOM     43  C   UNL     1       7.989  -1.644   9.245  1.00  0.00     0.064 A 
ATOM     44  C   UNL     1       8.675  -2.619   8.506  1.00  0.00     0.173 A 
ATOM     45  C   UNL     1       7.292  -2.057  10.391  1.00  0.00     0.173 A 
ATOM     46  F   UNL     1       9.321  -2.281   7.380  1.00  0.00    -0.203 F 
ATOM     47  C   UNL     1       8.629  -3.961   8.878  1.00  0.00     0.198 A 
ATOM     48  C   UNL     1       7.267  -3.395  10.772  1.00  0.00     0.198 A 
ATOM     49  F   UNL     1       6.608  -1.165  11.123  1.00  0.00    -0.203 F 
ATOM     50  F   UNL     1       9.232  -4.886   8.118  1.00  0.00    -0.200 F 
ATOM     51  C   UNL     1       7.926  -4.348  10.010  1.00  0.00     0.200 A 
ATOM     52  F   UNL     1       6.582  -3.767  11.862  1.00  0.00    -0.200 F 
ATOM     53  F   UNL     1       7.864  -5.642  10.353  1.00  0.00    -0.200 F 
ENDBRANCH  29  43
BRANCH  30  54
ATOM     54  C   UNL     1       7.144   7.682   5.573  1.00  0.00     0.064 A 
ATOM     55  C   UNL     1       8.258   8.273   4.961  1.00  0.00     0.173 A 
ATOM     56  C   UNL     1       5.960   8.435   5.626  1.00  0.00     0.173 A 
ATOM     57  F   UNL     1       9.423   7.610   4.909  1.00  0.00    -0.203 F 
ATOM     58  C   UNL     1       8.194   9.563   4.434  1.00  0.00     0.198 A 
ATOM     59  C   UNL     1       5.888   9.712   5.073  1.00  0.00     0.198 A 
ATOM     60  F   UNL     1       4.865   7.925   6.209  1.00  0.00    -0.203 F 
ATOM     61  F   UNL     1       9.287  10.120   3.894  1.00  0.00    -0.200 F 
ATOM     62  C   UNL     1       7.007  10.278   4.483  1.00  0.00     0.200 A 
ATOM     63  F   UNL     1       4.735  10.394   5.116  1.00  0.00    -0.200 F 
ATOM     64  F   UNL     1       6.944  11.515   3.973  1.00  0.00    -0.200 F 
ENDBRANCH  30  54
BRANCH  42  65
ATOM     65  C   UNL     1      10.576   4.880  10.956  1.00  0.00     0.064 A 
ATOM     66  C   UNL     1      10.067   5.627  12.027  1.00  0.00     0.173 A 
ATOM     67  C   UNL     1      11.958   4.657  10.897  1.00  0.00     0.173 A 
ATOM     68  F   UNL     1       8.751   5.874  12.113  1.00  0.00    -0.203 F 
ATOM     69  C   UNL     1      10.916   6.145  12.998  1.00  0.00     0.198 A 
ATOM     70  C   UNL     1      12.802   5.159  11.882  1.00  0.00     0.198 A 
ATOM     71  F   UNL     1      12.486   3.942   9.892  1.00  0.00    -0.203 F 
ATOM     72  F   UNL     1      10.415   6.884  13.998  1.00  0.00    -0.200 F 
ATOM     73  C   UNL     1      12.281   5.906  12.929  1.00  0.00     0.200 A 
ATOM     74  F   UNL     1      14.119   4.919  11.820  1.00  0.00    -0.200 F 
ATOM     75  F   UNL     1      13.097   6.400  13.870  1.00  0.00    -0.200 F 
ENDBRANCH  42  65
ENDBRANCH  16  17
ENDBRANCH   9  11
ENDBRANCH   8   9
ENDBRANCH   7   8
ENDBRANCH   6   7
ENDBRANCH   5   6
ENDBRANCH   4   5
ENDBRANCH   3   4
ENDBRANCH   2   3
ENDBRANCH   1   2
BRANCH   1  76
ATOM     76  C   UNL     1       4.409   2.670  -1.333  1.00  0.00     0.188 C 
BRANCH  76  77
ATOM     77  O   UNL     1       4.546   4.083  -1.488  1.00  0.00    -0.376 OA
BRANCH  77  78
ATOM     78  C   UNL     1       3.380   4.798  -1.869  1.00  0.00     0.202 C 
BRANCH  78  79
ATOM     79  C   UNL     1       3.501   5.369  -3.289  1.00  0.00     0.261 C 
BRANCH  79  80
ATOM     80  O   UNL     1       3.852   4.403  -4.300  1.00  0.00    -0.463 OA
BRANCH  80  81
ATOM     81  C   UNL     1       5.187   4.168  -4.468  1.00  0.00     0.309 C 
ATOM     82  O   UNL     1       6.077   4.652  -3.782  1.00  0.00    -0.252 OA
BRANCH  81  83
ATOM     83  C   UNL     1       5.449   3.264  -5.672  1.00  0.00     0.111 C 
ATOM     84  C   UNL     1       5.493   1.764  -5.354  1.00  0.00     0.016 C 
ATOM     85  C   UNL     1       6.737   3.762  -6.345  1.00  0.00     0.093 C 
ATOM     86  C   UNL     1       5.918   0.931  -6.561  1.00  0.00     0.001 C 
ATOM     87  C   UNL     1       7.179   2.884  -7.518  1.00  0.00     0.014 C 
ATOM     88  C   UNL     1       7.249   1.409  -7.119  1.00  0.00     0.001 C 
BRANCH  85  89
ATOM     89  C   UNL     1       6.749   5.266  -6.687  1.00  0.00     0.228 C 
ATOM     90  O   UNL     1       7.803   5.905  -6.603  1.00  0.00    -0.274 OA
ATOM     91  N   UNL     1       5.631   5.949  -7.111  1.00  0.00    -0.326 N 
ATOM     92  H   UNL     1       5.512   6.874  -6.794  1.00  0.00     0.169 HD
BRANCH  91  93
ATOM     93  C   UNL     1       4.653   5.420  -7.960  1.00  0.00     0.041 A 
ATOM     94  C   UNL     1       4.946   5.273  -9.304  1.00  0.00     0.028 A 
ATOM     95  C   UNL     1       3.405   5.030  -7.484  1.00  0.00     0.028 A 
ATOM     96  C   UNL     1       4.081   4.545 -10.118  1.00  0.00     0.028 A 
ATOM     97  C   UNL     1       2.578   4.235  -8.284  1.00  0.00     0.028 A 
ATOM     98  C   UNL     1       2.951   3.918  -9.594  1.00  0.00     0.041 A 
BRANCH  98  99
ATOM     99  N   UNL     1       2.198   2.922 -10.243  1.00  0.00    -0.319 N 
ATOM    100  C   UNL     1       2.363   2.238 -11.438  1.00  0.00     0.291 C 
ATOM    101  H   UNL     1       1.389   2.657  -9.748  1.00  0.00     0.170 HD
ATOM    102  O   UNL     1       1.647   1.264 -11.633  1.00  0.00    -0.265 OA
BRANCH 100 103
ATOM    103  C   UNL     1       3.359   2.673 -12.384  1.00  0.00     0.191 A 
ATOM    104  C   UNL     1       4.673   2.293 -12.591  1.00  0.00     0.056 A 
ATOM    105  O   UNL     1       3.027   3.678 -13.251  1.00  0.00    -0.459 OA
ATOM    106  C   UNL     1       5.181   3.148 -13.603  1.00  0.00     0.043 A 
ATOM    107  C   UNL     1       4.134   3.954 -13.986  1.00  0.00     0.196 A 
ENDBRANCH 100 103
ENDBRANCH  98  99
ENDBRANCH  91  93
ENDBRANCH  85  89
ENDBRANCH  81  83
ENDBRANCH  80  81
ENDBRANCH  79  80
ENDBRANCH  78  79
ENDBRANCH  77  78
ENDBRANCH  76  77
ENDBRANCH   1  76
TORSDOF 24
