REMARK SMILES CCOc1ccc(-n2nnc(-c3nc(C)c(C(=O)OCCOCCOCCOCCOC(=O)c4ccc(-c5c6nc(c(-c7c(F)c(F)c(F)c(F)c7F)c7ccc([nH]7)c(-c7c(F)c(F)c(F)c(F)c7F)c7nc(c(-c8c(F)c(F)c(F)c(F)c8F)c8ccc5[nH]8)C=C7)C=C6)cc4)s3)c2C)cc1
REMARK SMILES IDX 24 1 23 2 22 3 21 4 20 5 19 6 17 7 18 8 16 9 12 10 13 11
REMARK SMILES IDX 97 12 14 13 15 14 11 15 8 16 9 17 98 18 10 19 99 20 7 21
REMARK SMILES IDX 4 22 5 23 101 24 6 25 100 26 3 27 2 28 1 29 25 30 26 31
REMARK SMILES IDX 27 32 28 33 29 34 30 35 31 36 32 37 33 38 34 39 35 40 96 41
REMARK SMILES IDX 36 42 95 43 37 44 38 45 39 46 89 47 40 48 94 49 88 50 90 51
REMARK SMILES IDX 41 52 93 53 87 54 86 55 42 57 74 58 54 59 73 60 55 61 58 62
REMARK SMILES IDX 72 63 91 64 56 65 57 66 71 68 92 69 59 70 43 71 44 72 52 73
REMARK SMILES IDX 45 74 46 75 50 76 53 77 47 78 48 79 51 80 49 81 75 82 76 83
REMARK SMILES IDX 84 84 77 85 78 86 82 87 85 88 79 89 80 90 83 91 81 92 60 93
REMARK SMILES IDX 61 94 69 95 62 96 63 97 67 98 70 99 64 100 65 101 68 102
REMARK SMILES IDX 66 103
REMARK H PARENT 90 56 58 67
REMARK Flexibility Score: inf
ROOT
ATOM      1  C   UNL     1      12.019  -4.011   7.130  1.00  0.00     0.188 C 
ENDROOT
BRANCH   1   2
ATOM      2  C   UNL     1      12.516  -2.745   7.864  1.00  0.00     0.188 C 
BRANCH   2   3
ATOM      3  O   UNL     1      12.335  -2.543   9.258  1.00  0.00    -0.376 OA
BRANCH   3   4
ATOM      4  C   UNL     1      11.094  -2.697   9.927  1.00  0.00     0.202 C 
BRANCH   4   5
ATOM      5  C   UNL     1       9.755  -2.204   9.364  1.00  0.00     0.261 C 
BRANCH   5   6
ATOM      6  O   UNL     1       9.611  -2.307   7.957  1.00  0.00    -0.459 OA
BRANCH   6   7
ATOM      7  C   UNL     1       9.917  -1.205   7.225  1.00  0.00     0.350 C 
ATOM      8  O   UNL     1      10.201  -0.105   7.689  1.00  0.00    -0.245 OA
BRANCH   7   9
ATOM      9  C   UNL     1       9.988  -1.571   5.835  1.00  0.00     0.135 A 
ATOM     10  C   UNL     1       9.460  -2.401   3.646  1.00  0.00     0.146 A 
ATOM     11  N   UNL     1      10.543  -1.661   3.560  1.00  0.00    -0.239 NA
ATOM     12  S   UNL     1       8.969  -2.801   5.237  1.00  0.00    -0.105 S 
ATOM     13  C   UNL     1      10.854  -1.162   4.829  1.00  0.00     0.064 A 
ATOM     14  C   UNL     1      12.056  -0.292   4.966  1.00  0.00     0.068 C 
BRANCH  10  15
ATOM     15  C   UNL     1       8.525  -2.692   2.529  1.00  0.00     0.145 A 
ATOM     16  N   UNL     1       6.657  -2.874   1.455  1.00  0.00    -0.217 N 
ATOM     17  N   UNL     1       7.549  -3.715   0.882  1.00  0.00    -0.061 NA
ATOM     18  C   UNL     1       7.212  -2.261   2.558  1.00  0.00     0.072 A 
ATOM     19  N   UNL     1       8.729  -3.527   1.474  1.00  0.00    -0.127 NA
ATOM     20  C   UNL     1       6.495  -1.440   3.576  1.00  0.00     0.069 C 
BRANCH  16  21
ATOM     21  C   UNL     1       5.330  -2.735   1.013  1.00  0.00     0.067 A 
ATOM     22  C   UNL     1       2.598  -2.408   0.679  1.00  0.00     0.119 A 
ATOM     23  C   UNL     1       3.158  -3.688   0.623  1.00  0.00     0.048 A 
ATOM     24  C   UNL     1       3.407  -1.296   0.882  1.00  0.00     0.048 A 
ATOM     25  C   UNL     1       4.540  -3.861   0.772  1.00  0.00     0.032 A 
ATOM     26  C   UNL     1       4.776  -1.452   1.006  1.00  0.00     0.032 A 
BRANCH  22  27
ATOM     27  O   UNL     1       1.237  -2.286   0.670  1.00  0.00    -0.494 OA
BRANCH  27  28
ATOM     28  C   UNL     1       0.736  -1.544  -0.451  1.00  0.00     0.226 C 
ATOM     29  C   UNL     1       0.713  -0.039  -0.216  1.00  0.00     0.049 C 
ENDBRANCH  27  28
ENDBRANCH  22  27
ENDBRANCH  16  21
ENDBRANCH  10  15
ENDBRANCH   7   9
ENDBRANCH   6   7
ENDBRANCH   5   6
ENDBRANCH   4   5
ENDBRANCH   3   4
ENDBRANCH   2   3
ENDBRANCH   1   2
BRANCH   1  30
ATOM     30  O   UNL     1      11.048  -4.750   7.841  1.00  0.00    -0.377 OA
BRANCH  30  31
ATOM     31  C   UNL     1      11.533  -5.795   8.682  1.00  0.00     0.188 C 
BRANCH  31  32
ATOM     32  C   UNL     1      12.898  -5.653   9.412  1.00  0.00     0.188 C 
BRANCH  32  33
ATOM     33  O   UNL     1      13.875  -4.880   8.732  1.00  0.00    -0.376 OA
BRANCH  33  34
ATOM     34  C   UNL     1      15.022  -5.436   8.121  1.00  0.00     0.202 C 
BRANCH  34  35
ATOM     35  C   UNL     1      14.832  -6.385   6.944  1.00  0.00     0.261 C 
BRANCH  35  36
ATOM     36  O   UNL     1      13.698  -7.219   7.059  1.00  0.00    -0.460 OA
BRANCH  36  37
ATOM     37  C   UNL     1      13.839  -8.212   7.955  1.00  0.00     0.338 C 
ATOM     38  O   UNL     1      14.695  -8.318   8.815  1.00  0.00    -0.246 OA
BRANCH  37  39
ATOM     39  C   UNL     1      12.874  -9.257   7.614  1.00  0.00     0.060 A 
ATOM     40  C   UNL     1      12.868 -10.363   8.459  1.00  0.00     0.016 A 
ATOM     41  C   UNL     1      12.327  -9.286   6.319  1.00  0.00     0.016 A 
ATOM     42  C   UNL     1      12.579 -11.578   7.896  1.00  0.00     0.010 A 
ATOM     43  C   UNL     1      12.044 -10.504   5.757  1.00  0.00     0.010 A 
ATOM     44  C   UNL     1      12.280 -11.635   6.525  1.00  0.00    -0.014 A 
BRANCH  44  45
ATOM     45  C   UNL     1      12.136 -12.948   5.948  1.00  0.00     0.031 A 
ATOM     46  C   UNL     1      10.939 -13.639   6.457  1.00  0.00     0.074 A 
ATOM     47  C   UNL     1      13.000 -13.461   5.056  1.00  0.00     0.049 A 
ATOM     48  N   UNL     1      10.909 -14.648   7.259  1.00  0.00    -0.248 NA
ATOM     49  C   UNL     1       9.632 -13.011   6.212  1.00  0.00     0.031 C 
ATOM     50  C   UNL     1      14.068 -12.789   4.314  1.00  0.00     0.029 A 
ATOM     51  N   UNL     1      13.044 -14.731   4.576  1.00  0.00    -0.354 N 
ATOM     52  C   UNL     1       9.563 -14.906   7.472  1.00  0.00     0.074 A 
ATOM     53  C   UNL     1       8.836 -13.776   6.956  1.00  0.00     0.031 C 
ATOM     54  C   UNL     1      14.500 -13.604   3.322  1.00  0.00     0.029 A 
ATOM     55  C   UNL     1      13.843 -14.895   3.455  1.00  0.00     0.049 A 
ATOM     56  H   UNL     1      12.550 -15.474   4.991  1.00  0.00     0.167 HD
ATOM     57  C   UNL     1       9.154 -16.156   7.808  1.00  0.00     0.037 A 
ATOM     58  C   UNL     1      13.887 -16.001   2.671  1.00  0.00     0.037 A 
ATOM     59  C   UNL     1      10.231 -16.921   8.385  1.00  0.00     0.049 A 
ATOM     60  C   UNL     1      13.361 -17.134   3.476  1.00  0.00     0.074 A 
ATOM     61  C   UNL     1      11.026 -16.776   9.507  1.00  0.00     0.029 A 
ATOM     62  N   UNL     1      10.887 -17.819   7.580  1.00  0.00    -0.354 N 
ATOM     63  N   UNL     1      13.980 -17.642   4.505  1.00  0.00    -0.248 NA
ATOM     64  C   UNL     1      11.931 -17.404   3.413  1.00  0.00     0.031 C 
ATOM     65  C   UNL     1      12.320 -17.224   9.110  1.00  0.00     0.029 A 
ATOM     66  C   UNL     1      12.234 -17.671   7.791  1.00  0.00     0.049 A 
ATOM     67  H   UNL     1      10.465 -18.456   6.959  1.00  0.00     0.167 HD
ATOM     68  C   UNL     1      12.976 -17.904   5.426  1.00  0.00     0.074 A 
ATOM     69  C   UNL     1      11.732 -17.826   4.665  1.00  0.00     0.031 C 
ATOM     70  C   UNL     1      13.232 -17.874   6.766  1.00  0.00     0.037 A 
BRANCH  57  71
ATOM     71  C   UNL     1       7.917 -16.785   7.224  1.00  0.00     0.064 A 
ATOM     72  C   UNL     1       7.495 -18.036   7.708  1.00  0.00     0.173 A 
ATOM     73  C   UNL     1       7.314 -16.361   6.017  1.00  0.00     0.173 A 
ATOM     74  F   UNL     1       8.025 -18.547   8.830  1.00  0.00    -0.203 F 
ATOM     75  C   UNL     1       6.593 -18.831   6.998  1.00  0.00     0.198 A 
ATOM     76  C   UNL     1       6.373 -17.132   5.342  1.00  0.00     0.198 A 
ATOM     77  F   UNL     1       7.688 -15.247   5.378  1.00  0.00    -0.203 F 
ATOM     78  F   UNL     1       6.319 -20.070   7.429  1.00  0.00    -0.200 F 
ATOM     79  C   UNL     1       6.037 -18.381   5.814  1.00  0.00     0.200 A 
ATOM     80  F   UNL     1       5.866 -16.685   4.184  1.00  0.00    -0.200 F 
ATOM     81  F   UNL     1       5.222 -19.168   5.100  1.00  0.00    -0.200 F 
ENDBRANCH  57  71
BRANCH  58  82
ATOM     82  C   UNL     1      14.011 -16.076   1.196  1.00  0.00     0.064 A 
ATOM     83  C   UNL     1      14.297 -17.295   0.558  1.00  0.00     0.173 A 
ATOM     84  C   UNL     1      13.558 -15.029   0.371  1.00  0.00     0.173 A 
ATOM     85  F   UNL     1      14.688 -18.357   1.278  1.00  0.00    -0.203 F 
ATOM     86  C   UNL     1      14.109 -17.465  -0.818  1.00  0.00     0.198 A 
ATOM     87  C   UNL     1      13.377 -15.198  -1.003  1.00  0.00     0.198 A 
ATOM     88  F   UNL     1      13.186 -13.852   0.893  1.00  0.00    -0.203 F 
ATOM     89  F   UNL     1      14.325 -18.663  -1.379  1.00  0.00    -0.200 F 
ATOM     90  C   UNL     1      13.638 -16.420  -1.595  1.00  0.00     0.200 A 
ATOM     91  F   UNL     1      12.883 -14.190  -1.736  1.00  0.00    -0.200 F 
ATOM     92  F   UNL     1      13.393 -16.601  -2.900  1.00  0.00    -0.200 F 
ENDBRANCH  58  82
BRANCH  70  93
ATOM     93  C   UNL     1      14.674 -17.832   7.195  1.00  0.00     0.064 A 
ATOM     94  C   UNL     1      15.560 -16.782   6.894  1.00  0.00     0.173 A 
ATOM     95  C   UNL     1      15.142 -18.843   8.046  1.00  0.00     0.173 A 
ATOM     96  F   UNL     1      15.161 -15.727   6.171  1.00  0.00    -0.203 F 
ATOM     97  C   UNL     1      16.867 -16.775   7.381  1.00  0.00     0.198 A 
ATOM     98  C   UNL     1      16.434 -18.813   8.563  1.00  0.00     0.198 A 
ATOM     99  F   UNL     1      14.325 -19.843   8.412  1.00  0.00    -0.203 F 
ATOM    100  F   UNL     1      17.699 -15.772   7.064  1.00  0.00    -0.200 F 
ATOM    101  C   UNL     1      17.300 -17.788   8.221  1.00  0.00     0.200 A 
ATOM    102  F   UNL     1      16.831 -19.769   9.414  1.00  0.00    -0.200 F 
ATOM    103  F   UNL     1      18.543 -17.763   8.721  1.00  0.00    -0.200 F 
ENDBRANCH  70  93
ENDBRANCH  44  45
ENDBRANCH  37  39
ENDBRANCH  36  37
ENDBRANCH  35  36
ENDBRANCH  34  35
ENDBRANCH  33  34
ENDBRANCH  32  33
ENDBRANCH  31  32
ENDBRANCH  30  31
ENDBRANCH   1  30
TORSDOF 24
