REMARK SMILES CC[N@@H+](C)CCNC(=O)N1CCC(CC(=O)OCCOCCOCCOCCOC(=O)c2ccc(-c3c4nc(c(-c5c(F)c(F)c(F)c(F)c5F)c5ccc([nH]5)c(-c5c(F)c(F)c(F)c(F)c5F)c5nc(c(-c6c(F)c(F)c(F)c(F)c6F)c6ccc3[nH]6)C=C5)C=C4)cc2)CC1
REMARK SMILES IDX 21 1 20 2 19 3 18 4 17 5 15 6 16 7 14 8 13 9 7 10 8 11 9 13
REMARK SMILES IDX 10 14 11 15 96 16 12 17 95 18 6 19 5 20 3 21 4 22 2 24 1 25
REMARK SMILES IDX 22 26 23 27 24 28 25 29 26 30 27 31 28 32 29 33 30 34 31 35
REMARK SMILES IDX 32 36 33 37 94 38 34 39 93 40 35 41 36 42 37 43 87 44 38 45
REMARK SMILES IDX 92 46 86 47 88 48 39 49 91 50 85 51 84 52 40 54 72 55 52 56
REMARK SMILES IDX 71 57 53 58 56 59 70 60 89 61 54 62 55 63 69 65 90 66 57 67
REMARK SMILES IDX 41 68 42 69 50 70 43 71 44 72 48 73 51 74 45 75 46 76 49 77
REMARK SMILES IDX 47 78 73 79 74 80 82 81 75 82 76 83 80 84 83 85 77 86 78 87
REMARK SMILES IDX 81 88 79 89 58 90 59 91 67 92 60 93 61 94 65 95 68 96 62 97
REMARK SMILES IDX 63 98 66 99 64 100
REMARK H PARENT 7 12 3 23 88 53 56 64
REMARK Flexibility Score: inf
ROOT
ATOM      1  C   UNL     1      11.483   2.609   2.817  1.00  0.00     0.188 C 
ENDROOT
BRANCH   1   2
ATOM      2  O   UNL     1      12.092   1.702   3.707  1.00  0.00    -0.376 OA
BRANCH   2   3
ATOM      3  C   UNL     1      11.446   1.308   4.908  1.00  0.00     0.202 C 
BRANCH   3   4
ATOM      4  C   UNL     1      10.196   1.977   5.509  1.00  0.00     0.261 C 
BRANCH   4   5
ATOM      5  O   UNL     1       9.211   2.487   4.598  1.00  0.00    -0.463 OA
BRANCH   5   6
ATOM      6  C   UNL     1       8.923   3.803   4.727  1.00  0.00     0.306 C 
ATOM      7  O   UNL     1       9.491   4.561   5.508  1.00  0.00    -0.252 OA
BRANCH   6   8
ATOM      8  C   UNL     1       7.852   4.327   3.795  1.00  0.00     0.126 C 
BRANCH   8   9
ATOM      9  C   UNL     1       7.160   3.432   2.763  1.00  0.00     0.003 C 
ATOM     10  N   UNL     1       2.755   2.834   0.480  1.00  0.00    -0.332 N 
ATOM     11  C   UNL     1       3.514   2.308   1.474  1.00  0.00     0.317 C 
ATOM     12  H   UNL     1       1.919   3.268   0.764  1.00  0.00     0.165 HD
ATOM     13  O   UNL     1       2.941   1.821   2.447  1.00  0.00    -0.249 OA
ATOM     14  N   UNL     1       4.878   2.349   1.351  1.00  0.00    -0.325 N 
ATOM     15  C   UNL     1       5.691   1.479   2.197  1.00  0.00     0.121 C 
ATOM     16  C   UNL     1       5.585   3.488   0.775  1.00  0.00     0.121 C 
ATOM     17  C   UNL     1       6.342   2.268   3.339  1.00  0.00     0.026 C 
ATOM     18  C   UNL     1       6.255   4.309   1.874  1.00  0.00     0.026 C 
BRANCH  10  19
ATOM     19  C   UNL     1       3.019   2.838  -0.950  1.00  0.00     0.179 C 
BRANCH  19  20
ATOM     20  C   UNL     1       2.331   1.687  -1.717  1.00  0.00     0.283 C 
BRANCH  20  21
ATOM     21  N   UNL     1       0.861   1.609  -1.747  1.00  0.00    -0.336 N 
ATOM     22  C   UNL     1       0.248   2.838  -2.245  1.00  0.00     0.332 C 
ATOM     23  H   UNL     1       0.698   0.855  -2.414  1.00  0.00     0.347 HD
BRANCH  21  24
ATOM     24  C   UNL     1       0.197   1.150  -0.522  1.00  0.00     0.258 C 
ATOM     25  C   UNL     1       0.757  -0.134   0.079  1.00  0.00     0.071 C 
ENDBRANCH  21  24
ENDBRANCH  20  21
ENDBRANCH  19  20
ENDBRANCH  10  19
ENDBRANCH   8   9
ENDBRANCH   6   8
ENDBRANCH   5   6
ENDBRANCH   4   5
ENDBRANCH   3   4
ENDBRANCH   2   3
ENDBRANCH   1   2
BRANCH   1  26
ATOM     26  C   UNL     1      10.403   2.074   1.870  1.00  0.00     0.188 C 
BRANCH  26  27
ATOM     27  O   UNL     1       9.558   1.048   2.357  1.00  0.00    -0.377 OA
BRANCH  27  28
ATOM     28  C   UNL     1      10.030  -0.296   2.409  1.00  0.00     0.188 C 
BRANCH  28  29
ATOM     29  C   UNL     1      11.432  -0.682   1.894  1.00  0.00     0.188 C 
BRANCH  29  30
ATOM     30  O   UNL     1      11.902   0.074   0.792  1.00  0.00    -0.376 OA
BRANCH  30  31
ATOM     31  C   UNL     1      11.691  -0.431  -0.518  1.00  0.00     0.202 C 
BRANCH  31  32
ATOM     32  C   UNL     1      10.233  -0.612  -0.969  1.00  0.00     0.261 C 
BRANCH  32  33
ATOM     33  O   UNL     1       9.474  -1.597  -0.246  1.00  0.00    -0.460 OA
BRANCH  33  34
ATOM     34  C   UNL     1       9.965  -2.848  -0.196  1.00  0.00     0.338 C 
ATOM     35  O   UNL     1      10.958  -3.283  -0.767  1.00  0.00    -0.246 OA
BRANCH  34  36
ATOM     36  C   UNL     1       9.207  -3.608   0.810  1.00  0.00     0.060 A 
ATOM     37  C   UNL     1       9.897  -4.165   1.893  1.00  0.00     0.016 A 
ATOM     38  C   UNL     1       7.837  -3.827   0.648  1.00  0.00     0.016 A 
ATOM     39  C   UNL     1       9.234  -5.012   2.778  1.00  0.00     0.010 A 
ATOM     40  C   UNL     1       7.176  -4.690   1.526  1.00  0.00     0.010 A 
ATOM     41  C   UNL     1       7.887  -5.330   2.557  1.00  0.00    -0.014 A 
BRANCH  41  42
ATOM     42  C   UNL     1       7.314  -6.525   3.224  1.00  0.00     0.031 A 
ATOM     43  C   UNL     1       7.300  -7.821   2.454  1.00  0.00     0.074 A 
ATOM     44  C   UNL     1       6.876  -6.486   4.494  1.00  0.00     0.049 A 
ATOM     45  N   UNL     1       6.829  -8.992   2.797  1.00  0.00    -0.248 NA
ATOM     46  C   UNL     1       7.904  -7.789   1.110  1.00  0.00     0.031 C 
ATOM     47  C   UNL     1       6.888  -5.309   5.359  1.00  0.00     0.029 A 
ATOM     48  N   UNL     1       6.330  -7.475   5.275  1.00  0.00    -0.354 N 
ATOM     49  C   UNL     1       7.080  -9.829   1.717  1.00  0.00     0.074 A 
ATOM     50  C   UNL     1       7.707  -9.028   0.691  1.00  0.00     0.031 C 
ATOM     51  C   UNL     1       6.358  -5.640   6.551  1.00  0.00     0.029 A 
ATOM     52  C   UNL     1       5.942  -7.042   6.519  1.00  0.00     0.049 A 
ATOM     53  H   UNL     1       6.226  -8.405   4.972  1.00  0.00     0.167 HD
ATOM     54  C   UNL     1       6.828 -11.154   1.598  1.00  0.00     0.037 A 
ATOM     55  C   UNL     1       5.304  -7.702   7.505  1.00  0.00     0.037 A 
ATOM     56  C   UNL     1       6.202 -11.951   2.617  1.00  0.00     0.049 A 
ATOM     57  C   UNL     1       4.959  -9.161   7.312  1.00  0.00     0.074 A 
ATOM     58  C   UNL     1       5.877 -13.295   2.585  1.00  0.00     0.029 A 
ATOM     59  N   UNL     1       5.805 -11.471   3.856  1.00  0.00    -0.354 N 
ATOM     60  N   UNL     1       5.204  -9.947   6.291  1.00  0.00    -0.248 NA
ATOM     61  C   UNL     1       4.258  -9.828   8.419  1.00  0.00     0.031 C 
ATOM     62  C   UNL     1       5.245 -13.620   3.789  1.00  0.00     0.029 A 
ATOM     63  C   UNL     1       5.234 -12.493   4.595  1.00  0.00     0.049 A 
ATOM     64  H   UNL     1       5.914 -10.543   4.165  1.00  0.00     0.167 HD
ATOM     65  C   UNL     1       4.732 -11.204   6.652  1.00  0.00     0.074 A 
ATOM     66  C   UNL     1       4.198 -11.079   7.990  1.00  0.00     0.031 C 
ATOM     67  C   UNL     1       4.740 -12.359   5.941  1.00  0.00     0.037 A 
BRANCH  54  68
ATOM     68  C   UNL     1       7.221 -11.824   0.314  1.00  0.00     0.064 A 
ATOM     69  C   UNL     1       8.566 -12.053  -0.014  1.00  0.00     0.173 A 
ATOM     70  C   UNL     1       6.240 -12.288  -0.576  1.00  0.00     0.173 A 
ATOM     71  F   UNL     1       9.542 -11.612   0.794  1.00  0.00    -0.203 F 
ATOM     72  C   UNL     1       8.915 -12.709  -1.192  1.00  0.00     0.198 A 
ATOM     73  C   UNL     1       6.592 -12.970  -1.738  1.00  0.00     0.198 A 
ATOM     74  F   UNL     1       4.940 -12.095  -0.311  1.00  0.00    -0.203 F 
ATOM     75  F   UNL     1      10.207 -12.881  -1.503  1.00  0.00    -0.200 F 
ATOM     76  C   UNL     1       7.928 -13.176  -2.047  1.00  0.00     0.200 A 
ATOM     77  F   UNL     1       5.637 -13.432  -2.557  1.00  0.00    -0.200 F 
ATOM     78  F   UNL     1       8.265 -13.821  -3.172  1.00  0.00    -0.200 F 
ENDBRANCH  54  68
BRANCH  55  79
ATOM     79  C   UNL     1       4.919  -7.002   8.761  1.00  0.00     0.064 A 
ATOM     80  C   UNL     1       5.463  -7.374   9.999  1.00  0.00     0.173 A 
ATOM     81  C   UNL     1       3.943  -5.994   8.759  1.00  0.00     0.173 A 
ATOM     82  F   UNL     1       6.382  -8.350  10.061  1.00  0.00    -0.203 F 
ATOM     83  C   UNL     1       5.014  -6.799  11.187  1.00  0.00     0.198 A 
ATOM     84  C   UNL     1       3.522  -5.394   9.943  1.00  0.00     0.198 A 
ATOM     85  F   UNL     1       3.388  -5.599   7.604  1.00  0.00    -0.203 F 
ATOM     86  F   UNL     1       5.495  -7.231  12.361  1.00  0.00    -0.200 F 
ATOM     87  C   UNL     1       4.046  -5.808  11.158  1.00  0.00     0.200 A 
ATOM     88  F   UNL     1       2.594  -4.428   9.909  1.00  0.00    -0.200 F 
ATOM     89  F   UNL     1       3.605  -5.264  12.301  1.00  0.00    -0.200 F 
ENDBRANCH  55  79
BRANCH  67  90
ATOM     90  C   UNL     1       4.233 -13.598   6.624  1.00  0.00     0.064 A 
ATOM     91  C   UNL     1       2.877 -13.780   6.929  1.00  0.00     0.173 A 
ATOM     92  C   UNL     1       5.122 -14.635   6.948  1.00  0.00     0.173 A 
ATOM     93  F   UNL     1       1.986 -12.816   6.649  1.00  0.00    -0.203 F 
ATOM     94  C   UNL     1       2.436 -14.935   7.570  1.00  0.00     0.198 A 
ATOM     95  C   UNL     1       4.673 -15.805   7.554  1.00  0.00     0.198 A 
ATOM     96  F   UNL     1       6.429 -14.520   6.666  1.00  0.00    -0.203 F 
ATOM     97  F   UNL     1       1.145 -15.060   7.909  1.00  0.00    -0.200 F 
ATOM     98  C   UNL     1       3.332 -15.949   7.876  1.00  0.00     0.200 A 
ATOM     99  F   UNL     1       5.538 -16.790   7.831  1.00  0.00    -0.200 F 
ATOM    100  F   UNL     1       2.905 -17.061   8.489  1.00  0.00    -0.200 F 
ENDBRANCH  67  90
ENDBRANCH  41  42
ENDBRANCH  34  36
ENDBRANCH  33  34
ENDBRANCH  32  33
ENDBRANCH  31  32
ENDBRANCH  30  31
ENDBRANCH  29  30
ENDBRANCH  28  29
ENDBRANCH  27  28
ENDBRANCH  26  27
ENDBRANCH   1  26
TORSDOF 25
