REMARK SMILES COc1ccc(CC(=O)OCCOCCOCCOCCOC(=O)c2ccc(-c3c4nc(c(-c5c(F)c(F)c(F)c(F)c5F)c5ccc([nH]5)c(-c5c(F)c(F)c(F)c(F)c5F)c5nc(c(-c6c(F)c(F)c(F)c(F)c6F)c6ccc3[nH]6)C=C5)C=C4)cc2)cc1S(=O)(=O)Nc1ccccc1Br
REMARK SMILES IDX 15 1 14 2 13 3 12 4 11 5 10 6 8 7 9 8 7 9 6 10 3 11 4 12
REMARK SMILES IDX 89 13 5 14 88 15 2 16 1 17 90 18 91 19 92 20 93 21 94 23
REMARK SMILES IDX 95 24 99 25 96 26 98 27 100 28 97 29 16 30 17 31 18 32 19 33
REMARK SMILES IDX 20 34 21 35 22 36 23 37 24 38 25 39 26 40 87 41 27 42 86 43
REMARK SMILES IDX 28 44 29 45 30 46 80 47 31 48 85 49 79 50 81 51 32 52 84 53
REMARK SMILES IDX 78 54 77 55 33 57 65 58 45 59 64 60 46 61 49 62 63 63 82 64
REMARK SMILES IDX 47 65 48 66 62 68 83 69 50 70 34 71 35 72 43 73 36 74 37 75
REMARK SMILES IDX 41 76 44 77 38 78 39 79 42 80 40 81 66 82 67 83 75 84 68 85
REMARK SMILES IDX 69 86 73 87 76 88 70 89 71 90 74 91 72 92 51 93 52 94 60 95
REMARK SMILES IDX 53 96 54 97 58 98 61 99 55 100 56 101 59 102 57 103
REMARK H PARENT 93 22 81 56 49 67
REMARK Flexibility Score: inf
ROOT
ATOM      1  C   UNL     1       0.500   4.864  -4.807  1.00  0.00     0.188 C 
ENDROOT
BRANCH   1   2
ATOM      2  C   UNL     1       0.171   6.372  -4.721  1.00  0.00     0.188 C 
BRANCH   2   3
ATOM      3  O   UNL     1       0.737   7.318  -5.626  1.00  0.00    -0.376 OA
BRANCH   3   4
ATOM      4  C   UNL     1       1.838   6.953  -6.437  1.00  0.00     0.202 C 
BRANCH   4   5
ATOM      5  C   UNL     1       3.165   6.612  -5.732  1.00  0.00     0.261 C 
BRANCH   5   6
ATOM      6  O   UNL     1       3.074   5.945  -4.452  1.00  0.00    -0.463 OA
BRANCH   6   7
ATOM      7  C   UNL     1       3.043   6.755  -3.367  1.00  0.00     0.310 C 
ATOM      8  O   UNL     1       3.155   7.978  -3.431  1.00  0.00    -0.252 OA
BRANCH   7   9
ATOM      9  C   UNL     1       2.964   6.058  -2.025  1.00  0.00     0.158 C 
BRANCH   9  10
ATOM     10  C   UNL     1       2.215   4.756  -1.774  1.00  0.00    -0.035 A 
ATOM     11  C   UNL     1       1.001   2.465  -0.637  1.00  0.00     0.139 A 
ATOM     12  C   UNL     1       0.259   3.630  -0.858  1.00  0.00     0.048 A 
ATOM     13  C   UNL     1       2.292   2.370  -1.139  1.00  0.00     0.129 A 
ATOM     14  C   UNL     1       0.862   4.770  -1.402  1.00  0.00     0.008 A 
ATOM     15  C   UNL     1       2.895   3.525  -1.703  1.00  0.00     0.030 A 
BRANCH  11  16
ATOM     16  O   UNL     1       0.375   1.502   0.096  1.00  0.00    -0.495 OA
ATOM     17  C   UNL     1       0.843   1.469   1.448  1.00  0.00     0.278 C 
ENDBRANCH  11  16
BRANCH  13  18
ATOM     18  S   UNL     1       3.329   0.934  -1.008  1.00  0.00     0.265 S 
ATOM     19  O   UNL     1       4.206   0.932  -2.161  1.00  0.00    -0.201 OA
ATOM     20  O   UNL     1       3.909   1.008   0.322  1.00  0.00    -0.201 OA
BRANCH  18  21
ATOM     21  N   UNL     1       2.531  -0.552  -1.013  1.00  0.00    -0.278 N 
ATOM     22  H   UNL     1       3.054  -1.342  -0.743  1.00  0.00     0.180 HD
BRANCH  21  23
ATOM     23  C   UNL     1       1.164  -0.768  -1.373  1.00  0.00     0.063 A 
ATOM     24  C   UNL     1       0.394  -1.463  -0.419  1.00  0.00     0.028 A 
ATOM     25  C   UNL     1       0.555  -0.382  -2.572  1.00  0.00     0.042 A 
ATOM     26  C   UNL     1      -0.977  -1.653  -0.594  1.00  0.00     0.002 A 
ATOM     27  C   UNL     1      -0.824  -0.577  -2.744  1.00  0.00     0.018 A 
ATOM     28  Br  UNL     1       1.504   0.353  -4.038  1.00  0.00    -0.049 Br
ATOM     29  C   UNL     1      -1.591  -1.188  -1.749  1.00  0.00     0.001 A 
ENDBRANCH  21  23
ENDBRANCH  18  21
ENDBRANCH  13  18
ENDBRANCH   9  10
ENDBRANCH   7   9
ENDBRANCH   6   7
ENDBRANCH   5   6
ENDBRANCH   4   5
ENDBRANCH   3   4
ENDBRANCH   2   3
ENDBRANCH   1   2
BRANCH   1  30
ATOM     30  O   UNL     1       0.993   4.446  -6.066  1.00  0.00    -0.377 OA
BRANCH  30  31
ATOM     31  C   UNL     1       0.084   3.715  -6.863  1.00  0.00     0.188 C 
BRANCH  31  32
ATOM     32  C   UNL     1      -1.259   4.410  -7.130  1.00  0.00     0.188 C 
BRANCH  32  33
ATOM     33  O   UNL     1      -1.932   4.754  -5.925  1.00  0.00    -0.376 OA
BRANCH  33  34
ATOM     34  C   UNL     1      -3.022   3.962  -5.491  1.00  0.00     0.202 C 
BRANCH  34  35
ATOM     35  C   UNL     1      -2.742   2.538  -4.982  1.00  0.00     0.261 C 
BRANCH  35  36
ATOM     36  O   UNL     1      -1.891   1.703  -5.779  1.00  0.00    -0.460 OA
BRANCH  36  37
ATOM     37  C   UNL     1      -2.338   1.298  -6.992  1.00  0.00     0.338 C 
ATOM     38  O   UNL     1      -3.409   1.542  -7.491  1.00  0.00    -0.246 OA
BRANCH  37  39
ATOM     39  C   UNL     1      -1.187   0.663  -7.689  1.00  0.00     0.060 A 
ATOM     40  C   UNL     1      -0.720   1.234  -8.880  1.00  0.00     0.016 A 
ATOM     41  C   UNL     1      -0.528  -0.437  -7.136  1.00  0.00     0.016 A 
ATOM     42  C   UNL     1       0.415   0.717  -9.511  1.00  0.00     0.010 A 
ATOM     43  C   UNL     1       0.590  -0.974  -7.784  1.00  0.00     0.010 A 
ATOM     44  C   UNL     1       1.060  -0.408  -8.982  1.00  0.00    -0.014 A 
BRANCH  44  45
ATOM     45  C   UNL     1       2.116  -1.100  -9.763  1.00  0.00     0.031 A 
ATOM     46  C   UNL     1       1.717  -2.273 -10.614  1.00  0.00     0.074 A 
ATOM     47  C   UNL     1       3.401  -0.706  -9.717  1.00  0.00     0.049 A 
ATOM     48  N   UNL     1       2.462  -3.085 -11.320  1.00  0.00    -0.248 NA
ATOM     49  C   UNL     1       0.277  -2.572 -10.673  1.00  0.00     0.031 C 
ATOM     50  C   UNL     1       3.909   0.435  -8.960  1.00  0.00     0.029 A 
ATOM     51  N   UNL     1       4.519  -1.244 -10.309  1.00  0.00    -0.354 N 
ATOM     52  C   UNL     1       1.585  -3.994 -11.896  1.00  0.00     0.074 A 
ATOM     53  C   UNL     1       0.255  -3.649 -11.443  1.00  0.00     0.031 C 
ATOM     54  C   UNL     1       5.244   0.500  -9.114  1.00  0.00     0.029 A 
ATOM     55  C   UNL     1       5.687  -0.618  -9.948  1.00  0.00     0.049 A 
ATOM     56  H   UNL     1       4.486  -2.004 -10.934  1.00  0.00     0.167 HD
ATOM     57  C   UNL     1       1.865  -5.023 -12.729  1.00  0.00     0.037 A 
ATOM     58  C   UNL     1       6.968  -0.935 -10.229  1.00  0.00     0.037 A 
ATOM     59  C   UNL     1       3.190  -5.368 -13.172  1.00  0.00     0.049 A 
ATOM     60  C   UNL     1       7.259  -2.139 -11.093  1.00  0.00     0.074 A 
ATOM     61  C   UNL     1       3.573  -6.372 -14.043  1.00  0.00     0.029 A 
ATOM     62  N   UNL     1       4.351  -4.729 -12.762  1.00  0.00    -0.354 N 
ATOM     63  N   UNL     1       6.424  -2.968 -11.673  1.00  0.00    -0.248 NA
ATOM     64  C   UNL     1       8.675  -2.452 -11.341  1.00  0.00     0.031 C 
ATOM     65  C   UNL     1       4.969  -6.385 -14.107  1.00  0.00     0.029 A 
ATOM     66  C   UNL     1       5.454  -5.345 -13.330  1.00  0.00     0.049 A 
ATOM     67  H   UNL     1       4.385  -3.953 -12.157  1.00  0.00     0.167 HD
ATOM     68  C   UNL     1       7.208  -3.880 -12.369  1.00  0.00     0.074 A 
ATOM     69  C   UNL     1       8.586  -3.492 -12.158  1.00  0.00     0.031 C 
ATOM     70  C   UNL     1       6.822  -4.946 -13.114  1.00  0.00     0.037 A 
BRANCH  57  71
ATOM     71  C   UNL     1       0.720  -5.878 -13.189  1.00  0.00     0.064 A 
ATOM     72  C   UNL     1      -0.243  -5.405 -14.093  1.00  0.00     0.173 A 
ATOM     73  C   UNL     1       0.611  -7.207 -12.749  1.00  0.00     0.173 A 
ATOM     74  F   UNL     1      -0.194  -4.138 -14.531  1.00  0.00    -0.203 F 
ATOM     75  C   UNL     1      -1.284  -6.224 -14.522  1.00  0.00     0.198 A 
ATOM     76  C   UNL     1      -0.413  -8.032 -13.205  1.00  0.00     0.198 A 
ATOM     77  F   UNL     1       1.506  -7.709 -11.886  1.00  0.00    -0.203 F 
ATOM     78  F   UNL     1      -2.219  -5.738 -15.350  1.00  0.00    -0.200 F 
ATOM     79  C   UNL     1      -1.363  -7.538 -14.086  1.00  0.00     0.200 A 
ATOM     80  F   UNL     1      -0.479  -9.305 -12.792  1.00  0.00    -0.200 F 
ATOM     81  F   UNL     1      -2.359  -8.328 -14.509  1.00  0.00    -0.200 F 
ENDBRANCH  57  71
BRANCH  58  82
ATOM     82  C   UNL     1       8.082  -0.129  -9.659  1.00  0.00     0.064 A 
ATOM     83  C   UNL     1       8.933   0.621 -10.484  1.00  0.00     0.173 A 
ATOM     84  C   UNL     1       8.346  -0.125  -8.281  1.00  0.00     0.173 A 
ATOM     85  F   UNL     1       8.746   0.624 -11.812  1.00  0.00    -0.203 F 
ATOM     86  C   UNL     1      10.015   1.324  -9.956  1.00  0.00     0.198 A 
ATOM     87  C   UNL     1       9.408   0.605  -7.750  1.00  0.00     0.198 A 
ATOM     88  F   UNL     1       7.572  -0.836  -7.448  1.00  0.00    -0.203 F 
ATOM     89  F   UNL     1      10.847   1.982 -10.775  1.00  0.00    -0.200 F 
ATOM     90  C   UNL     1      10.247   1.321  -8.589  1.00  0.00     0.200 A 
ATOM     91  F   UNL     1       9.625   0.605  -6.428  1.00  0.00    -0.200 F 
ATOM     92  F   UNL     1      11.289   1.996  -8.083  1.00  0.00    -0.200 F 
ENDBRANCH  58  82
BRANCH  70  93
ATOM     93  C   UNL     1       7.898  -5.755 -13.783  1.00  0.00     0.064 A 
ATOM     94  C   UNL     1       8.767  -6.577 -13.050  1.00  0.00     0.173 A 
ATOM     95  C   UNL     1       8.025  -5.750 -15.181  1.00  0.00     0.173 A 
ATOM     96  F   UNL     1       8.696  -6.610 -11.710  1.00  0.00    -0.203 F 
ATOM     97  C   UNL     1       9.739  -7.343 -13.689  1.00  0.00     0.198 A 
ATOM     98  C   UNL     1       8.974  -6.545 -15.819  1.00  0.00     0.198 A 
ATOM     99  F   UNL     1       7.213  -4.991 -15.932  1.00  0.00    -0.203 F 
ATOM    100  F   UNL     1      10.589  -8.084 -12.964  1.00  0.00    -0.200 F 
ATOM    101  C   UNL     1       9.835  -7.334 -15.072  1.00  0.00     0.200 A 
ATOM    102  F   UNL     1       9.053  -6.549 -17.157  1.00  0.00    -0.200 F 
ATOM    103  F   UNL     1      10.762  -8.082 -15.686  1.00  0.00    -0.200 F 
ENDBRANCH  70  93
ENDBRANCH  44  45
ENDBRANCH  37  39
ENDBRANCH  36  37
ENDBRANCH  35  36
ENDBRANCH  34  35
ENDBRANCH  33  34
ENDBRANCH  32  33
ENDBRANCH  31  32
ENDBRANCH  30  31
ENDBRANCH   1  30
TORSDOF 25
