REMARK SMILES C[C@@H](C(=O)OCCOCCOCCOCCOC(=O)c1ccc(-c2c3nc(c(-c4c(F)c(F)c(F)c(F)c4F)c4ccc([nH]4)c(-c4c(F)c(F)c(F)c(F)c4F)c4nc(c(-c5c(F)c(F)c(F)c(F)c5F)c5ccc2[nH]5)C=C4)C=C3)cc1)c1ccc(Cc2ccoc2)cc1F
REMARK SMILES IDX 10 1 9 2 8 3 7 4 6 5 5 6 3 7 4 8 2 9 1 10 83 11 84 12 94 13
REMARK SMILES IDX 85 14 93 15 95 16 86 17 87 18 88 19 89 20 92 21 90 22 91 23
REMARK SMILES IDX 11 24 12 25 13 26 14 27 15 28 16 29 17 30 18 31 19 32 20 33
REMARK SMILES IDX 21 34 82 35 22 36 81 37 23 38 24 39 25 40 75 41 26 42 80 43
REMARK SMILES IDX 74 44 76 45 27 46 79 47 73 48 72 49 28 51 60 52 40 53 59 54
REMARK SMILES IDX 41 55 44 56 58 57 77 58 42 59 43 60 57 62 78 63 45 64 29 65
REMARK SMILES IDX 30 66 38 67 31 68 32 69 36 70 39 71 33 72 34 73 37 74 35 75
REMARK SMILES IDX 61 76 62 77 70 78 63 79 64 80 68 81 71 82 65 83 66 84 69 85
REMARK SMILES IDX 67 86 46 87 47 88 55 89 48 90 49 91 53 92 56 93 50 94 51 95
REMARK SMILES IDX 54 96 52 97
REMARK H PARENT 76 50 44 61
REMARK Flexibility Score: inf
ROOT
ATOM      1  C   UNL     1       0.851  -1.843   1.890  1.00  0.00     0.188 C 
ENDROOT
BRANCH   1   2
ATOM      2  C   UNL     1       0.248  -3.223   1.579  1.00  0.00     0.188 C 
BRANCH   2   3
ATOM      3  O   UNL     1       1.119  -4.303   1.856  1.00  0.00    -0.376 OA
BRANCH   3   4
ATOM      4  C   UNL     1       1.950  -4.822   0.829  1.00  0.00     0.202 C 
BRANCH   4   5
ATOM      5  C   UNL     1       2.511  -3.978  -0.335  1.00  0.00     0.261 C 
BRANCH   5   6
ATOM      6  O   UNL     1       1.836  -2.741  -0.583  1.00  0.00    -0.463 OA
BRANCH   6   7
ATOM      7  C   UNL     1       1.248  -2.528  -1.783  1.00  0.00     0.313 C 
ATOM      8  O   UNL     1       1.264  -3.323  -2.715  1.00  0.00    -0.252 OA
BRANCH   7   9
ATOM      9  C   UNL     1       0.543  -1.166  -1.835  1.00  0.00     0.129 C 
ATOM     10  C   UNL     1       1.421  -0.053  -1.218  1.00  0.00     0.025 C 
BRANCH   9  11
ATOM     11  C   UNL     1      -0.923  -1.142  -1.386  1.00  0.00     0.002 A 
ATOM     12  C   UNL     1      -1.587   0.082  -1.187  1.00  0.00     0.008 A 
ATOM     13  C   UNL     1      -1.707  -2.297  -1.264  1.00  0.00     0.127 A 
ATOM     14  C   UNL     1      -2.963   0.138  -0.908  1.00  0.00     0.004 A 
ATOM     15  C   UNL     1      -3.070  -2.250  -0.946  1.00  0.00     0.043 A 
ATOM     16  F   UNL     1      -1.175  -3.509  -1.467  1.00  0.00    -0.207 F 
ATOM     17  C   UNL     1      -3.733  -1.027  -0.793  1.00  0.00    -0.041 A 
BRANCH  17  18
ATOM     18  C   UNL     1      -5.243  -0.993  -0.715  1.00  0.00     0.074 C 
BRANCH  18  19
ATOM     19  C   UNL     1      -5.700  -0.446   0.594  1.00  0.00    -0.005 A 
ATOM     20  C   UNL     1      -5.611   0.890   1.091  1.00  0.00     0.046 A 
ATOM     21  C   UNL     1      -6.460  -1.118   1.536  1.00  0.00     0.198 A 
ATOM     22  C   UNL     1      -6.299   0.922   2.280  1.00  0.00     0.195 A 
ATOM     23  O   UNL     1      -6.818  -0.298   2.557  1.00  0.00    -0.472 OA
ENDBRANCH  18  19
ENDBRANCH  17  18
ENDBRANCH   9  11
ENDBRANCH   7   9
ENDBRANCH   6   7
ENDBRANCH   5   6
ENDBRANCH   4   5
ENDBRANCH   3   4
ENDBRANCH   2   3
ENDBRANCH   1   2
BRANCH   1  24
ATOM     24  O   UNL     1       2.268  -1.796   1.939  1.00  0.00    -0.377 OA
BRANCH  24  25
ATOM     25  C   UNL     1       2.933  -2.367   3.064  1.00  0.00     0.188 C 
BRANCH  25  26
ATOM     26  C   UNL     1       2.175  -3.133   4.175  1.00  0.00     0.188 C 
BRANCH  26  27
ATOM     27  O   UNL     1       0.850  -2.690   4.419  1.00  0.00    -0.376 OA
BRANCH  27  28
ATOM     28  C   UNL     1       0.615  -1.830   5.521  1.00  0.00     0.202 C 
BRANCH  28  29
ATOM     29  C   UNL     1       1.277  -0.444   5.477  1.00  0.00     0.261 C 
BRANCH  29  30
ATOM     30  O   UNL     1       2.711  -0.431   5.385  1.00  0.00    -0.460 OA
BRANCH  30  31
ATOM     31  C   UNL     1       3.409  -1.038   6.366  1.00  0.00     0.338 C 
ATOM     32  O   UNL     1       2.967  -1.558   7.378  1.00  0.00    -0.246 OA
BRANCH  31  33
ATOM     33  C   UNL     1       4.812  -1.146   5.919  1.00  0.00     0.060 A 
ATOM     34  C   UNL     1       5.389  -2.417   5.789  1.00  0.00     0.016 A 
ATOM     35  C   UNL     1       5.551   0.001   5.624  1.00  0.00     0.016 A 
ATOM     36  C   UNL     1       6.723  -2.541   5.402  1.00  0.00     0.010 A 
ATOM     37  C   UNL     1       6.894  -0.124   5.259  1.00  0.00     0.010 A 
ATOM     38  C   UNL     1       7.495  -1.393   5.183  1.00  0.00    -0.014 A 
BRANCH  38  39
ATOM     39  C   UNL     1       8.970  -1.509   5.090  1.00  0.00     0.031 A 
ATOM     40  C   UNL     1       9.782  -1.241   6.328  1.00  0.00     0.074 A 
ATOM     41  C   UNL     1       9.580  -1.864   3.946  1.00  0.00     0.049 A 
ATOM     42  N   UNL     1      11.080  -1.218   6.488  1.00  0.00    -0.248 NA
ATOM     43  C   UNL     1       9.019  -0.956   7.555  1.00  0.00     0.031 C 
ATOM     44  C   UNL     1       8.903  -2.195   2.696  1.00  0.00     0.029 A 
ATOM     45  N   UNL     1      10.915  -1.994   3.655  1.00  0.00    -0.354 N 
ATOM     46  C   UNL     1      11.288  -0.910   7.826  1.00  0.00     0.074 A 
ATOM     47  C   UNL     1       9.986  -0.719   8.427  1.00  0.00     0.031 C 
ATOM     48  C   UNL     1       9.830  -2.475   1.762  1.00  0.00     0.029 A 
ATOM     49  C   UNL     1      11.163  -2.307   2.341  1.00  0.00     0.049 A 
ATOM     50  H   UNL     1      11.628  -1.874   4.324  1.00  0.00     0.167 HD
ATOM     51  C   UNL     1      12.460  -0.806   8.497  1.00  0.00     0.037 A 
ATOM     52  C   UNL     1      12.332  -2.415   1.680  1.00  0.00     0.037 A 
ATOM     53  C   UNL     1      13.753  -0.990   7.894  1.00  0.00     0.049 A 
ATOM     54  C   UNL     1      13.627  -2.210   2.429  1.00  0.00     0.074 A 
ATOM     55  C   UNL     1      15.001  -0.915   8.487  1.00  0.00     0.029 A 
ATOM     56  N   UNL     1      13.965  -1.273   6.552  1.00  0.00    -0.354 N 
ATOM     57  N   UNL     1      13.819  -1.939   3.697  1.00  0.00    -0.248 NA
ATOM     58  C   UNL     1      14.869  -2.329   1.650  1.00  0.00     0.031 C 
ATOM     59  C   UNL     1      15.968  -1.090   7.493  1.00  0.00     0.029 A 
ATOM     60  C   UNL     1      15.324  -1.346   6.293  1.00  0.00     0.049 A 
ATOM     61  H   UNL     1      13.255  -1.404   5.883  1.00  0.00     0.167 HD
ATOM     62  C   UNL     1      15.197  -1.889   3.876  1.00  0.00     0.074 A 
ATOM     63  C   UNL     1      15.793  -2.170   2.587  1.00  0.00     0.031 C 
ATOM     64  C   UNL     1      15.905  -1.635   5.005  1.00  0.00     0.037 A 
BRANCH  51  65
ATOM     65  C   UNL     1      12.393  -0.444   9.953  1.00  0.00     0.064 A 
ATOM     66  C   UNL     1      11.881  -1.328  10.915  1.00  0.00     0.173 A 
ATOM     67  C   UNL     1      12.867   0.801  10.395  1.00  0.00     0.173 A 
ATOM     68  F   UNL     1      11.400  -2.525  10.544  1.00  0.00    -0.203 F 
ATOM     69  C   UNL     1      11.816  -0.967  12.258  1.00  0.00     0.198 A 
ATOM     70  C   UNL     1      12.833   1.144  11.744  1.00  0.00     0.198 A 
ATOM     71  F   UNL     1      13.370   1.684   9.519  1.00  0.00    -0.203 F 
ATOM     72  F   UNL     1      11.269  -1.806  13.150  1.00  0.00    -0.200 F 
ATOM     73  C   UNL     1      12.299   0.265  12.673  1.00  0.00     0.200 A 
ATOM     74  F   UNL     1      13.314   2.329  12.144  1.00  0.00    -0.200 F 
ATOM     75  F   UNL     1      12.242   0.608  13.967  1.00  0.00    -0.200 F 
ENDBRANCH  51  65
BRANCH  52  76
ATOM     76  C   UNL     1      12.338  -2.715   0.223  1.00  0.00     0.064 A 
ATOM     77  C   UNL     1      12.851  -3.924  -0.268  1.00  0.00     0.173 A 
ATOM     78  C   UNL     1      11.852  -1.788  -0.711  1.00  0.00     0.173 A 
ATOM     79  F   UNL     1      13.355  -4.832   0.581  1.00  0.00    -0.203 F 
ATOM     80  C   UNL     1      12.896  -4.184  -1.637  1.00  0.00     0.198 A 
ATOM     81  C   UNL     1      11.867  -2.063  -2.077  1.00  0.00     0.198 A 
ATOM     82  F   UNL     1      11.354  -0.614  -0.296  1.00  0.00    -0.203 F 
ATOM     83  F   UNL     1      13.441  -5.325  -2.082  1.00  0.00    -0.200 F 
ATOM     84  C   UNL     1      12.398  -3.257  -2.539  1.00  0.00     0.200 A 
ATOM     85  F   UNL     1      11.373  -1.169  -2.944  1.00  0.00    -0.200 F 
ATOM     86  F   UNL     1      12.438  -3.510  -3.855  1.00  0.00    -0.200 F 
ENDBRANCH  52  76
BRANCH  64  87
ATOM     87  C   UNL     1      17.404  -1.695   4.915  1.00  0.00     0.064 A 
ATOM     88  C   UNL     1      18.145  -0.728   4.219  1.00  0.00     0.173 A 
ATOM     89  C   UNL     1      18.113  -2.712   5.574  1.00  0.00     0.173 A 
ATOM     90  F   UNL     1      17.519   0.259   3.561  1.00  0.00    -0.203 F 
ATOM     91  C   UNL     1      19.536  -0.794   4.163  1.00  0.00     0.198 A 
ATOM     92  C   UNL     1      19.504  -2.754   5.547  1.00  0.00     0.198 A 
ATOM     93  F   UNL     1      17.456  -3.657   6.263  1.00  0.00    -0.203 F 
ATOM     94  F   UNL     1      20.219   0.111   3.448  1.00  0.00    -0.200 F 
ATOM     95  C   UNL     1      20.214  -1.801   4.833  1.00  0.00     0.200 A 
ATOM     96  F   UNL     1      20.158  -3.717   6.212  1.00  0.00    -0.200 F 
ATOM     97  F   UNL     1      21.552  -1.856   4.787  1.00  0.00    -0.200 F 
ENDBRANCH  64  87
ENDBRANCH  38  39
ENDBRANCH  31  33
ENDBRANCH  30  31
ENDBRANCH  29  30
ENDBRANCH  28  29
ENDBRANCH  27  28
ENDBRANCH  26  27
ENDBRANCH  25  26
ENDBRANCH  24  25
ENDBRANCH   1  24
TORSDOF 23
