REMARK SMILES Cc1ccnc(C(=O)c2[nH]c3cc(Cl)c(F)cc3c2CC(=O)OCCOCCOCCOCCOC(=O)c2ccc(-c3c4nc(c(-c5c(F)c(F)c(F)c(F)c5F)c5ccc([nH]5)c(-c5c(F)c(F)c(F)c(F)c5F)c5nc(c(-c6c(F)c(F)c(F)c(F)c6F)c6ccc3[nH]6)C=C5)C=C4)cc2)c1
REMARK SMILES IDX 28 1 27 2 26 3 25 4 24 5 23 6 21 7 22 8 20 9 19 10 9 11
REMARK SMILES IDX 10 12 11 13 18 15 12 16 17 17 13 18 15 19 14 20 16 21 7 22
REMARK SMILES IDX 8 23 6 24 1 25 2 26 3 27 101 28 4 29 5 30 29 31 30 32 31 33
REMARK SMILES IDX 32 34 33 35 34 36 35 37 36 38 37 39 38 40 39 41 100 42 40 43
REMARK SMILES IDX 99 44 41 45 42 46 43 47 93 48 44 49 98 50 92 51 94 52 45 53
REMARK SMILES IDX 97 54 91 55 90 56 46 58 78 59 58 60 77 61 59 62 62 63 76 64
REMARK SMILES IDX 95 65 60 66 61 67 75 69 96 70 63 71 47 72 48 73 56 74 49 75
REMARK SMILES IDX 50 76 54 77 57 78 51 79 52 80 55 81 53 82 79 83 80 84 88 85
REMARK SMILES IDX 81 86 82 87 86 88 89 89 83 90 84 91 87 92 85 93 64 94 65 95
REMARK SMILES IDX 73 96 66 97 67 98 71 99 74 100 68 101 69 102 72 103 70 104
REMARK H PARENT 10 14 94 57 62 68
REMARK Flexibility Score: inf
ROOT
ATOM      1  C   UNL     1      -1.520  -1.963  -0.101  1.00  0.00     0.188 C 
ENDROOT
BRANCH   1   2
ATOM      2  C   UNL     1      -1.294  -1.013  -1.275  1.00  0.00     0.188 C 
BRANCH   2   3
ATOM      3  O   UNL     1      -2.497  -0.438  -1.724  1.00  0.00    -0.376 OA
BRANCH   3   4
ATOM      4  C   UNL     1      -2.853  -0.928  -3.008  1.00  0.00     0.202 C 
BRANCH   4   5
ATOM      5  C   UNL     1      -3.226  -2.416  -2.940  1.00  0.00     0.261 C 
BRANCH   5   6
ATOM      6  O   UNL     1      -2.044  -3.237  -2.686  1.00  0.00    -0.463 OA
BRANCH   6   7
ATOM      7  C   UNL     1      -1.167  -3.348  -3.718  1.00  0.00     0.310 C 
ATOM      8  O   UNL     1      -1.497  -3.137  -4.883  1.00  0.00    -0.252 OA
BRANCH   7   9
ATOM      9  C   UNL     1       0.291  -3.629  -3.336  1.00  0.00     0.161 C 
BRANCH   9  10
ATOM     10  C   UNL     1       0.693  -3.891  -1.890  1.00  0.00     0.000 A 
ATOM     11  C   UNL     1       1.696  -3.276  -1.093  1.00  0.00     0.093 A 
ATOM     12  N   UNL     1       1.843  -4.101   0.014  1.00  0.00    -0.351 N 
ATOM     13  C   UNL     1       0.948  -5.144   0.015  1.00  0.00     0.048 A 
ATOM     14  H   UNL     1       2.513  -3.956   0.720  1.00  0.00     0.167 HD
ATOM     15  C   UNL     1       0.194  -5.034  -1.149  1.00  0.00     0.007 A 
ATOM     16  C   UNL     1       0.787  -6.196   0.934  1.00  0.00     0.050 A 
ATOM     17  C   UNL     1      -0.788  -6.021  -1.400  1.00  0.00     0.051 A 
ATOM     18  C   UNL     1      -0.199  -7.152   0.665  1.00  0.00     0.078 A 
ATOM     19  C   UNL     1      -0.977  -7.059  -0.482  1.00  0.00     0.142 A 
ATOM     20  Cl  UNL     1      -0.427  -8.454   1.772  1.00  0.00    -0.081 Cl
ATOM     21  F   UNL     1      -1.923  -7.976  -0.741  1.00  0.00    -0.205 F 
BRANCH  11  22
ATOM     22  C   UNL     1       2.740  -2.243  -1.325  1.00  0.00     0.227 C 
ATOM     23  O   UNL     1       3.852  -2.624  -1.693  1.00  0.00    -0.285 OA
BRANCH  22  24
ATOM     24  C   UNL     1       2.588  -0.752  -0.989  1.00  0.00     0.113 A 
ATOM     25  C   UNL     1       0.014   1.817   0.223  1.00  0.00     0.044 C 
ATOM     26  C   UNL     1       1.312   1.178  -0.209  1.00  0.00    -0.047 A 
ATOM     27  C   UNL     1       2.329   2.006  -0.648  1.00  0.00     0.023 A 
ATOM     28  C   UNL     1       1.514  -0.221  -0.299  1.00  0.00     0.036 A 
ATOM     29  C   UNL     1       3.442   1.409  -1.208  1.00  0.00     0.112 A 
ATOM     30  N   UNL     1       3.578   0.072  -1.423  1.00  0.00    -0.253 NA
ENDBRANCH  22  24
ENDBRANCH  11  22
ENDBRANCH   9  10
ENDBRANCH   7   9
ENDBRANCH   6   7
ENDBRANCH   5   6
ENDBRANCH   4   5
ENDBRANCH   3   4
ENDBRANCH   2   3
ENDBRANCH   1   2
BRANCH   1  31
ATOM     31  O   UNL     1      -1.525  -1.237   1.125  1.00  0.00    -0.377 OA
BRANCH  31  32
ATOM     32  C   UNL     1      -0.676  -1.810   2.122  1.00  0.00     0.188 C 
BRANCH  32  33
ATOM     33  C   UNL     1       0.247  -0.721   2.669  1.00  0.00     0.188 C 
BRANCH  33  34
ATOM     34  O   UNL     1       1.628  -1.061   2.701  1.00  0.00    -0.376 OA
BRANCH  34  35
ATOM     35  C   UNL     1       1.973  -2.171   3.530  1.00  0.00     0.202 C 
BRANCH  35  36
ATOM     36  C   UNL     1       1.623  -2.039   5.025  1.00  0.00     0.261 C 
BRANCH  36  37
ATOM     37  O   UNL     1       0.193  -1.991   5.226  1.00  0.00    -0.460 OA
BRANCH  37  38
ATOM     38  C   UNL     1      -0.246  -1.002   6.078  1.00  0.00     0.338 C 
ATOM     39  O   UNL     1       0.384  -0.472   6.946  1.00  0.00    -0.246 OA
BRANCH  38  40
ATOM     40  C   UNL     1      -1.501  -0.441   5.480  1.00  0.00     0.060 A 
ATOM     41  C   UNL     1      -2.477  -1.273   4.937  1.00  0.00     0.016 A 
ATOM     42  C   UNL     1      -1.508   0.937   5.180  1.00  0.00     0.016 A 
ATOM     43  C   UNL     1      -3.385  -0.743   4.018  1.00  0.00     0.010 A 
ATOM     44  C   UNL     1      -2.428   1.464   4.259  1.00  0.00     0.010 A 
ATOM     45  C   UNL     1      -3.359   0.622   3.651  1.00  0.00    -0.014 A 
BRANCH  45  46
ATOM     46  C   UNL     1      -4.514   1.118   2.871  1.00  0.00     0.031 A 
ATOM     47  C   UNL     1      -5.808   0.799   3.536  1.00  0.00     0.074 A 
ATOM     48  C   UNL     1      -4.581   1.907   1.776  1.00  0.00     0.049 A 
ATOM     49  N   UNL     1      -6.800   0.116   3.067  1.00  0.00    -0.248 NA
ATOM     50  C   UNL     1      -5.953   1.209   4.942  1.00  0.00     0.031 C 
ATOM     51  C   UNL     1      -3.496   2.595   1.089  1.00  0.00     0.029 A 
ATOM     52  N   UNL     1      -5.698   2.332   1.086  1.00  0.00    -0.354 N 
ATOM     53  C   UNL     1      -7.758   0.120   4.070  1.00  0.00     0.074 A 
ATOM     54  C   UNL     1      -7.144   0.698   5.240  1.00  0.00     0.031 C 
ATOM     55  C   UNL     1      -4.010   3.489   0.212  1.00  0.00     0.029 A 
ATOM     56  C   UNL     1      -5.462   3.383   0.208  1.00  0.00     0.049 A 
ATOM     57  H   UNL     1      -6.587   1.926   1.207  1.00  0.00     0.167 HD
ATOM     58  C   UNL     1      -9.060  -0.179   3.833  1.00  0.00     0.037 A 
ATOM     59  C   UNL     1      -6.377   4.160  -0.432  1.00  0.00     0.037 A 
ATOM     60  C   UNL     1      -9.254  -0.917   2.619  1.00  0.00     0.049 A 
ATOM     61  C   UNL     1      -7.675   3.444  -0.462  1.00  0.00     0.074 A 
ATOM     62  C   UNL     1      -8.771  -2.118   2.133  1.00  0.00     0.029 A 
ATOM     63  N   UNL     1      -9.822  -0.292   1.539  1.00  0.00    -0.354 N 
ATOM     64  N   UNL     1      -7.958   2.444  -1.245  1.00  0.00    -0.248 NA
ATOM     65  C   UNL     1      -8.595   3.644   0.646  1.00  0.00     0.031 C 
ATOM     66  C   UNL     1      -8.636  -1.928   0.727  1.00  0.00     0.029 A 
ATOM     67  C   UNL     1      -9.072  -0.635   0.442  1.00  0.00     0.049 A 
ATOM     68  H   UNL     1     -10.616   0.290   1.548  1.00  0.00     0.167 HD
ATOM     69  C   UNL     1      -8.774   1.629  -0.482  1.00  0.00     0.074 A 
ATOM     70  C   UNL     1      -9.239   2.477   0.609  1.00  0.00     0.031 C 
ATOM     71  C   UNL     1      -8.774   0.272  -0.643  1.00  0.00     0.037 A 
BRANCH  58  72
ATOM     72  C   UNL     1     -10.168   0.470   4.603  1.00  0.00     0.064 A 
ATOM     73  C   UNL     1     -11.444  -0.111   4.643  1.00  0.00     0.173 A 
ATOM     74  C   UNL     1     -10.065   1.783   5.115  1.00  0.00     0.173 A 
ATOM     75  F   UNL     1     -11.654  -1.328   4.119  1.00  0.00    -0.203 F 
ATOM     76  C   UNL     1     -12.542   0.579   5.161  1.00  0.00     0.198 A 
ATOM     77  C   UNL     1     -11.147   2.444   5.686  1.00  0.00     0.198 A 
ATOM     78  F   UNL     1      -8.937   2.498   4.992  1.00  0.00    -0.203 F 
ATOM     79  F   UNL     1     -13.762   0.028   5.101  1.00  0.00    -0.200 F 
ATOM     80  C   UNL     1     -12.391   1.850   5.691  1.00  0.00     0.200 A 
ATOM     81  F   UNL     1     -10.983   3.684   6.168  1.00  0.00    -0.200 F 
ATOM     82  F   UNL     1     -13.450   2.522   6.161  1.00  0.00    -0.200 F 
ENDBRANCH  58  72
BRANCH  59  83
ATOM     83  C   UNL     1      -6.275   5.580  -0.858  1.00  0.00     0.064 A 
ATOM     84  C   UNL     1      -7.165   6.137  -1.795  1.00  0.00     0.173 A 
ATOM     85  C   UNL     1      -5.470   6.495  -0.151  1.00  0.00     0.173 A 
ATOM     86  F   UNL     1      -8.007   5.351  -2.482  1.00  0.00    -0.203 F 
ATOM     87  C   UNL     1      -7.257   7.521  -1.994  1.00  0.00     0.198 A 
ATOM     88  C   UNL     1      -5.554   7.873  -0.359  1.00  0.00     0.198 A 
ATOM     89  F   UNL     1      -4.652   6.078   0.826  1.00  0.00    -0.203 F 
ATOM     90  F   UNL     1      -8.162   8.016  -2.851  1.00  0.00    -0.200 F 
ATOM     91  C   UNL     1      -6.457   8.387  -1.270  1.00  0.00     0.200 A 
ATOM     92  F   UNL     1      -4.797   8.702   0.375  1.00  0.00    -0.200 F 
ATOM     93  F   UNL     1      -6.583   9.713  -1.417  1.00  0.00    -0.200 F 
ENDBRANCH  59  83
BRANCH  71  94
ATOM     94  C   UNL     1      -8.200  -0.317  -1.908  1.00  0.00     0.064 A 
ATOM     95  C   UNL     1      -6.944  -0.008  -2.456  1.00  0.00     0.173 A 
ATOM     96  C   UNL     1      -8.947  -1.313  -2.566  1.00  0.00     0.173 A 
ATOM     97  F   UNL     1      -6.086   0.815  -1.835  1.00  0.00    -0.203 F 
ATOM     98  C   UNL     1      -6.523  -0.594  -3.650  1.00  0.00     0.198 A 
ATOM     99  C   UNL     1      -8.462  -1.976  -3.691  1.00  0.00     0.198 A 
ATOM    100  F   UNL     1     -10.154  -1.671  -2.099  1.00  0.00    -0.203 F 
ATOM    101  F   UNL     1      -5.413  -0.172  -4.263  1.00  0.00    -0.200 F 
ATOM    102  C   UNL     1      -7.252  -1.606  -4.239  1.00  0.00     0.200 A 
ATOM    103  F   UNL     1      -9.171  -2.967  -4.247  1.00  0.00    -0.200 F 
ATOM    104  F   UNL     1      -6.776  -2.227  -5.327  1.00  0.00    -0.200 F 
ENDBRANCH  71  94
ENDBRANCH  45  46
ENDBRANCH  38  40
ENDBRANCH  37  38
ENDBRANCH  36  37
ENDBRANCH  35  36
ENDBRANCH  34  35
ENDBRANCH  33  34
ENDBRANCH  32  33
ENDBRANCH  31  32
ENDBRANCH   1  31
TORSDOF 23
