REMARK SMILES O=C(OCCOCCOCCOCCOC(=O)[C@]12COc3ccccc3[C@H]1C[N@H+](CCO)C2)c1ccc(-c2c3nc(c(-c4c(F)c(F)c(F)c(F)c4F)c4ccc([nH]4)c(-c4c(F)c(F)c(F)c(F)c4F)c4nc(c(-c5c(F)c(F)c(F)c(F)c5F)c5ccc2[nH]5)C=C4)C=C3)cc1
REMARK SMILES IDX 10 1 9 2 8 3 7 4 6 5 5 6 4 7 3 8 2 9 1 10 34 11 35 12 96 13
REMARK SMILES IDX 36 14 95 15 37 16 38 17 39 18 89 19 40 20 94 21 88 22 90 23
REMARK SMILES IDX 41 24 93 25 87 26 86 27 42 29 74 30 54 31 73 32 55 33 58 34
REMARK SMILES IDX 72 35 91 36 56 37 57 38 71 40 92 41 59 42 43 43 44 44 52 45
REMARK SMILES IDX 45 46 46 47 50 48 53 49 47 50 48 51 51 52 49 53 75 54 76 55
REMARK SMILES IDX 84 56 77 57 78 58 82 59 85 60 79 61 80 62 83 63 81 64 60 65
REMARK SMILES IDX 61 66 69 67 62 68 63 69 67 70 70 71 64 72 65 73 68 74 66 75
REMARK SMILES IDX 11 76 12 77 13 78 14 79 15 80 16 81 17 82 18 83 19 84 27 85
REMARK SMILES IDX 33 86 20 87 26 88 28 89 29 90 21 91 25 92 22 94 24 95 23 96
REMARK SMILES IDX 30 97 31 98 32 99
REMARK H PARENT 90 28 58 39 29 93 32 100
REMARK Flexibility Score: inf
ROOT
ATOM      1  C   UNL     1       4.926   1.883  -2.213  1.00  0.00     0.188 C 
ENDROOT
BRANCH   1   2
ATOM      2  O   UNL     1       3.909   1.092  -2.816  1.00  0.00    -0.377 OA
BRANCH   2   3
ATOM      3  C   UNL     1       2.604   1.013  -2.260  1.00  0.00     0.188 C 
BRANCH   3   4
ATOM      4  C   UNL     1       2.563   0.733  -0.773  1.00  0.00     0.188 C 
BRANCH   4   5
ATOM      5  O   UNL     1       3.751   0.111  -0.309  1.00  0.00    -0.376 OA
BRANCH   5   6
ATOM      6  C   UNL     1       4.001  -1.208  -0.746  1.00  0.00     0.202 C 
BRANCH   6   7
ATOM      7  C   UNL     1       4.327  -2.038   0.489  1.00  0.00     0.261 C 
BRANCH   7   8
ATOM      8  O   UNL     1       3.250  -2.066   1.456  1.00  0.00    -0.460 OA
BRANCH   8   9
ATOM      9  C   UNL     1       2.618  -1.058   2.106  1.00  0.00     0.338 C 
ATOM     10  O   UNL     1       1.469  -1.271   2.499  1.00  0.00    -0.246 OA
BRANCH   9  11
ATOM     11  C   UNL     1       3.204   0.298   2.411  1.00  0.00     0.060 A 
ATOM     12  C   UNL     1       2.314   1.258   2.935  1.00  0.00     0.016 A 
ATOM     13  C   UNL     1       4.530   0.698   2.202  1.00  0.00     0.016 A 
ATOM     14  C   UNL     1       2.728   2.563   3.223  1.00  0.00     0.010 A 
ATOM     15  C   UNL     1       4.941   2.018   2.438  1.00  0.00     0.010 A 
ATOM     16  C   UNL     1       4.051   2.948   2.982  1.00  0.00    -0.014 A 
BRANCH  16  17
ATOM     17  C   UNL     1       4.571   4.197   3.581  1.00  0.00     0.031 A 
ATOM     18  C   UNL     1       4.706   5.473   2.817  1.00  0.00     0.074 A 
ATOM     19  C   UNL     1       4.942   4.119   4.873  1.00  0.00     0.049 A 
ATOM     20  N   UNL     1       5.018   6.662   3.267  1.00  0.00    -0.248 NA
ATOM     21  C   UNL     1       4.484   5.413   1.367  1.00  0.00     0.031 C 
ATOM     22  C   UNL     1       4.901   2.890   5.670  1.00  0.00     0.029 A 
ATOM     23  N   UNL     1       5.413   5.066   5.741  1.00  0.00    -0.354 N 
ATOM     24  C   UNL     1       5.001   7.504   2.165  1.00  0.00     0.074 A 
ATOM     25  C   UNL     1       4.705   6.676   1.013  1.00  0.00     0.031 C 
ATOM     26  C   UNL     1       5.301   3.163   6.918  1.00  0.00     0.029 A 
ATOM     27  C   UNL     1       5.632   4.580   7.006  1.00  0.00     0.049 A 
ATOM     28  H   UNL     1       5.578   6.002   5.484  1.00  0.00     0.167 HD
ATOM     29  C   UNL     1       5.199   8.846   2.140  1.00  0.00     0.037 A 
ATOM     30  C   UNL     1       6.033   5.210   8.124  1.00  0.00     0.037 A 
ATOM     31  C   UNL     1       5.520   9.631   3.310  1.00  0.00     0.049 A 
ATOM     32  C   UNL     1       6.256   6.691   8.067  1.00  0.00     0.074 A 
ATOM     33  C   UNL     1       5.671  11.002   3.417  1.00  0.00     0.029 A 
ATOM     34  N   UNL     1       5.763   9.106   4.574  1.00  0.00    -0.354 N 
ATOM     35  N   UNL     1       6.106   7.503   7.049  1.00  0.00    -0.248 NA
ATOM     36  C   UNL     1       6.692   7.345   9.305  1.00  0.00     0.031 C 
ATOM     37  C   UNL     1       6.069  11.299   4.724  1.00  0.00     0.029 A 
ATOM     38  C   UNL     1       6.112  10.120   5.453  1.00  0.00     0.049 A 
ATOM     39  H   UNL     1       5.697   8.152   4.811  1.00  0.00     0.167 HD
ATOM     40  C   UNL     1       6.426   8.766   7.519  1.00  0.00     0.074 A 
ATOM     41  C   UNL     1       6.752   8.615   8.925  1.00  0.00     0.031 C 
ATOM     42  C   UNL     1       6.455   9.941   6.844  1.00  0.00     0.037 A 
BRANCH  29  43
ATOM     43  C   UNL     1       5.065   9.559   0.822  1.00  0.00     0.064 A 
ATOM     44  C   UNL     1       3.824   9.681   0.177  1.00  0.00     0.173 A 
ATOM     45  C   UNL     1       6.167  10.200   0.233  1.00  0.00     0.173 A 
ATOM     46  F   UNL     1       2.733   9.097   0.697  1.00  0.00    -0.203 F 
ATOM     47  C   UNL     1       3.697  10.388  -1.017  1.00  0.00     0.198 A 
ATOM     48  C   UNL     1       6.031  10.932  -0.946  1.00  0.00     0.198 A 
ATOM     49  F   UNL     1       7.377  10.134   0.809  1.00  0.00    -0.203 F 
ATOM     50  F   UNL     1       2.507  10.454  -1.631  1.00  0.00    -0.200 F 
ATOM     51  C   UNL     1       4.798  11.020  -1.573  1.00  0.00     0.200 A 
ATOM     52  F   UNL     1       7.093  11.558  -1.472  1.00  0.00    -0.200 F 
ATOM     53  F   UNL     1       4.671  11.710  -2.715  1.00  0.00    -0.200 F 
ENDBRANCH  29  43
BRANCH  30  54
ATOM     54  C   UNL     1       6.159   4.427   9.378  1.00  0.00     0.064 A 
ATOM     55  C   UNL     1       5.214   4.562  10.403  1.00  0.00     0.173 A 
ATOM     56  C   UNL     1       7.151   3.445   9.526  1.00  0.00     0.173 A 
ATOM     57  F   UNL     1       4.251   5.490  10.307  1.00  0.00    -0.203 F 
ATOM     58  C   UNL     1       5.251   3.738  11.526  1.00  0.00     0.198 A 
ATOM     59  C   UNL     1       7.170   2.604  10.637  1.00  0.00     0.198 A 
ATOM     60  F   UNL     1       8.066   3.263   8.562  1.00  0.00    -0.203 F 
ATOM     61  F   UNL     1       4.339   3.891  12.495  1.00  0.00    -0.200 F 
ATOM     62  C   UNL     1       6.220   2.752  11.636  1.00  0.00     0.200 A 
ATOM     63  F   UNL     1       8.091   1.635  10.725  1.00  0.00    -0.200 F 
ATOM     64  F   UNL     1       6.233   1.938  12.700  1.00  0.00    -0.200 F 
ENDBRANCH  30  54
BRANCH  42  65
ATOM     65  C   UNL     1       6.893  11.158   7.606  1.00  0.00     0.064 A 
ATOM     66  C   UNL     1       8.239  11.348   7.952  1.00  0.00     0.173 A 
ATOM     67  C   UNL     1       5.983  12.182   7.908  1.00  0.00     0.173 A 
ATOM     68  F   UNL     1       9.142  10.389   7.700  1.00  0.00    -0.203 F 
ATOM     69  C   UNL     1       8.658  12.520   8.573  1.00  0.00     0.198 A 
ATOM     70  C   UNL     1       6.412  13.365   8.503  1.00  0.00     0.198 A 
ATOM     71  F   UNL     1       4.686  12.049   7.594  1.00  0.00    -0.203 F 
ATOM     72  F   UNL     1       9.945  12.670   8.916  1.00  0.00    -0.200 F 
ATOM     73  C   UNL     1       7.748  13.533   8.835  1.00  0.00     0.200 A 
ATOM     74  F   UNL     1       5.534  14.350   8.741  1.00  0.00    -0.200 F 
ATOM     75  F   UNL     1       8.159  14.672   9.408  1.00  0.00    -0.200 F 
ENDBRANCH  42  65
ENDBRANCH  16  17
ENDBRANCH   9  11
ENDBRANCH   8   9
ENDBRANCH   7   8
ENDBRANCH   6   7
ENDBRANCH   5   6
ENDBRANCH   4   5
ENDBRANCH   3   4
ENDBRANCH   2   3
ENDBRANCH   1   2
BRANCH   1  76
ATOM     76  C   UNL     1       4.855   3.370  -2.536  1.00  0.00     0.188 C 
BRANCH  76  77
ATOM     77  O   UNL     1       3.547   3.822  -2.236  1.00  0.00    -0.376 OA
BRANCH  77  78
ATOM     78  C   UNL     1       2.802   4.364  -3.323  1.00  0.00     0.202 C 
BRANCH  78  79
ATOM     79  C   UNL     1       2.712   3.672  -4.726  1.00  0.00     0.261 C 
BRANCH  79  80
ATOM     80  O   UNL     1       3.640   2.600  -4.969  1.00  0.00    -0.463 OA
BRANCH  80  81
ATOM     81  C   UNL     1       3.913   2.181  -6.247  1.00  0.00     0.322 C 
ATOM     82  O   UNL     1       3.388   2.653  -7.250  1.00  0.00    -0.251 OA
BRANCH  81  83
ATOM     83  C   UNL     1       4.933   1.030  -6.224  1.00  0.00     0.162 C 
ATOM     84  C   UNL     1       6.220   1.562  -5.590  1.00  0.00     0.255 C 
ATOM     85  C   UNL     1       5.290   0.320  -7.541  1.00  0.00     0.105 C 
ATOM     86  C   UNL     1       4.263  -0.130  -5.464  1.00  0.00     0.285 C 
ATOM     87  O   UNL     1       7.003   2.392  -6.461  1.00  0.00    -0.492 OA
ATOM     88  C   UNL     1       6.496   0.856  -8.259  1.00  0.00     0.004 A 
ATOM     89  C   UNL     1       5.646  -1.120  -7.095  1.00  0.00     0.272 C 
ATOM     90  N   UNL     1       4.892  -1.366  -5.890  1.00  0.00    -0.331 N 
ATOM     91  C   UNL     1       7.297   1.829  -7.668  1.00  0.00     0.123 A 
ATOM     92  C   UNL     1       6.897   0.291  -9.482  1.00  0.00     0.008 A 
ATOM     93  H   UNL     1       5.568  -1.638  -5.176  1.00  0.00     0.348 HD
ATOM     94  C   UNL     1       8.455   2.271  -8.307  1.00  0.00     0.047 A 
ATOM     95  C   UNL     1       8.077   0.701 -10.100  1.00  0.00     0.001 A 
ATOM     96  C   UNL     1       8.852   1.700  -9.517  1.00  0.00     0.004 A 
BRANCH  90  97
ATOM     97  C   UNL     1       4.112  -2.593  -5.787  1.00  0.00     0.290 C 
BRANCH  97  98
ATOM     98  C   UNL     1       2.843  -2.721  -6.646  1.00  0.00     0.217 C 
BRANCH  98  99
ATOM     99  O   UNL     1       3.125  -2.703  -8.039  1.00  0.00    -0.391 OA
ATOM    100  H   UNL     1       3.538  -1.858  -8.274  1.00  0.00     0.210 HD
ENDBRANCH  98  99
ENDBRANCH  97  98
ENDBRANCH  90  97
ENDBRANCH  81  83
ENDBRANCH  80  81
ENDBRANCH  79  80
ENDBRANCH  78  79
ENDBRANCH  77  78
ENDBRANCH  76  77
ENDBRANCH   1  76
TORSDOF 23
