REMARK SMILES O=C(Cc1ccc(S(=O)(=O)CC[NH+]2CCCC2)cc1)OCCOCCOCCOCCOC(=O)c1ccc(-c2c3nc(c(-c4c(F)c(F)c(F)c(F)c4F)c4ccc([nH]4)c(-c4c(F)c(F)c(F)c(F)c4F)c4nc(c(-c5c(F)c(F)c(F)c(F)c5F)c5ccc2[nH]5)C=C4)C=C3)cc1
REMARK SMILES IDX 24 1 23 2 22 3 21 4 20 5 2 6 1 7 3 8 4 9 5 10 19 11 6 12
REMARK SMILES IDX 18 13 7 14 8 15 9 16 10 17 11 18 12 19 13 20 14 21 17 22
REMARK SMILES IDX 15 24 16 25 25 26 26 27 27 28 28 29 29 30 30 31 31 32 32 33
REMARK SMILES IDX 33 34 34 35 35 36 36 37 97 38 37 39 96 40 38 41 39 42 40 43
REMARK SMILES IDX 90 44 41 45 95 46 89 47 91 48 42 49 94 50 88 51 87 52 43 54
REMARK SMILES IDX 75 55 55 56 74 57 56 58 59 59 73 60 92 61 57 62 58 63 72 65
REMARK SMILES IDX 93 66 60 67 44 68 45 69 53 70 46 71 47 72 51 73 54 74 48 75
REMARK SMILES IDX 49 76 52 77 50 78 76 79 77 80 85 81 78 82 79 83 83 84 86 85
REMARK SMILES IDX 80 86 81 87 84 88 82 89 61 90 62 91 70 92 63 93 64 94 68 95
REMARK SMILES IDX 71 96 65 97 66 98 69 99 67 100
REMARK H PARENT 13 23 91 53 59 64
REMARK Flexibility Score: inf
ROOT
ATOM      1  C   UNL     1       2.603   1.878   0.077  1.00  0.00     0.188 C 
ENDROOT
BRANCH   1   2
ATOM      2  O   UNL     1       3.855   1.304   0.429  1.00  0.00    -0.376 OA
BRANCH   2   3
ATOM      3  C   UNL     1       4.501   0.227  -0.212  1.00  0.00     0.202 C 
BRANCH   3   4
ATOM      4  C   UNL     1       3.760  -1.048  -0.610  1.00  0.00     0.261 C 
BRANCH   4   5
ATOM      5  O   UNL     1       2.329  -1.006  -0.613  1.00  0.00    -0.463 OA
BRANCH   5   6
ATOM      6  C   UNL     1       1.470  -1.137   0.417  1.00  0.00     0.310 C 
ATOM      7  O   UNL     1       0.266  -1.195   0.165  1.00  0.00    -0.252 OA
BRANCH   6   8
ATOM      8  C   UNL     1       1.929  -1.050   1.854  1.00  0.00     0.158 C 
BRANCH   8   9
ATOM      9  C   UNL     1       3.047  -1.957   2.259  1.00  0.00    -0.037 A 
ATOM     10  C   UNL     1       2.884  -3.345   2.288  1.00  0.00     0.005 A 
ATOM     11  C   UNL     1       4.299  -1.406   2.529  1.00  0.00     0.005 A 
ATOM     12  C   UNL     1       3.970  -4.169   2.588  1.00  0.00     0.020 A 
ATOM     13  C   UNL     1       5.398  -2.237   2.664  1.00  0.00     0.020 A 
ATOM     14  C   UNL     1       5.235  -3.607   2.779  1.00  0.00     0.067 A 
BRANCH  14  15
ATOM     15  S   UNL     1       6.622  -4.652   3.141  1.00  0.00     0.183 S 
ATOM     16  O   UNL     1       6.059  -5.867   3.711  1.00  0.00    -0.223 OA
ATOM     17  O   UNL     1       7.414  -4.723   1.928  1.00  0.00    -0.223 OA
BRANCH  15  18
ATOM     18  C   UNL     1       7.602  -3.935   4.434  1.00  0.00     0.203 C 
BRANCH  18  19
ATOM     19  C   UNL     1       8.378  -2.660   4.099  1.00  0.00     0.279 C 
BRANCH  19  20
ATOM     20  N   UNL     1       7.686  -1.403   4.377  1.00  0.00    -0.334 N 
ATOM     21  C   UNL     1       8.432  -0.184   4.059  1.00  0.00     0.262 C 
ATOM     22  C   UNL     1       7.011  -1.250   5.659  1.00  0.00     0.262 C 
ATOM     23  H   UNL     1       6.935  -1.516   3.695  1.00  0.00     0.348 HD
ATOM     24  C   UNL     1       8.113   0.787   5.186  1.00  0.00     0.067 C 
ATOM     25  C   UNL     1       6.821   0.251   5.770  1.00  0.00     0.067 C 
ENDBRANCH  19  20
ENDBRANCH  18  19
ENDBRANCH  15  18
ENDBRANCH  14  15
ENDBRANCH   8   9
ENDBRANCH   6   8
ENDBRANCH   5   6
ENDBRANCH   4   5
ENDBRANCH   3   4
ENDBRANCH   2   3
ENDBRANCH   1   2
BRANCH   1  26
ATOM     26  C   UNL     1       2.018   1.905  -1.341  1.00  0.00     0.188 C 
BRANCH  26  27
ATOM     27  O   UNL     1       2.635   2.780  -2.268  1.00  0.00    -0.377 OA
BRANCH  27  28
ATOM     28  C   UNL     1       3.973   2.449  -2.567  1.00  0.00     0.188 C 
BRANCH  28  29
ATOM     29  C   UNL     1       5.002   3.323  -1.830  1.00  0.00     0.188 C 
BRANCH  29  30
ATOM     30  O   UNL     1       4.583   4.242  -0.840  1.00  0.00    -0.376 OA
BRANCH  30  31
ATOM     31  C   UNL     1       3.508   5.145  -1.055  1.00  0.00     0.202 C 
BRANCH  31  32
ATOM     32  C   UNL     1       3.126   5.773  -2.410  1.00  0.00     0.261 C 
BRANCH  32  33
ATOM     33  O   UNL     1       3.509   5.090  -3.603  1.00  0.00    -0.460 OA
BRANCH  33  34
ATOM     34  C   UNL     1       4.670   5.479  -4.173  1.00  0.00     0.338 C 
ATOM     35  O   UNL     1       5.431   6.351  -3.792  1.00  0.00    -0.246 OA
BRANCH  34  36
ATOM     36  C   UNL     1       4.984   4.503  -5.237  1.00  0.00     0.060 A 
ATOM     37  C   UNL     1       6.179   3.773  -5.146  1.00  0.00     0.016 A 
ATOM     38  C   UNL     1       4.077   4.253  -6.270  1.00  0.00     0.016 A 
ATOM     39  C   UNL     1       6.472   2.789  -6.087  1.00  0.00     0.010 A 
ATOM     40  C   UNL     1       4.393   3.300  -7.239  1.00  0.00     0.010 A 
ATOM     41  C   UNL     1       5.600   2.581  -7.162  1.00  0.00    -0.014 A 
BRANCH  41  42
ATOM     42  C   UNL     1       6.043   1.779  -8.323  1.00  0.00     0.031 A 
ATOM     43  C   UNL     1       6.677   2.510  -9.471  1.00  0.00     0.074 A 
ATOM     44  C   UNL     1       5.866   0.448  -8.370  1.00  0.00     0.049 A 
ATOM     45  N   UNL     1       7.022   2.068 -10.651  1.00  0.00    -0.248 NA
ATOM     46  C   UNL     1       6.953   3.942  -9.259  1.00  0.00     0.031 C 
ATOM     47  C   UNL     1       5.311  -0.371  -7.296  1.00  0.00     0.029 A 
ATOM     48  N   UNL     1       6.114  -0.445  -9.384  1.00  0.00    -0.354 N 
ATOM     49  C   UNL     1       7.529   3.168 -11.328  1.00  0.00     0.074 A 
ATOM     50  C   UNL     1       7.445   4.301 -10.434  1.00  0.00     0.031 C 
ATOM     51  C   UNL     1       5.224  -1.645  -7.722  1.00  0.00     0.029 A 
ATOM     52  C   UNL     1       5.675  -1.718  -9.111  1.00  0.00     0.049 A 
ATOM     53  H   UNL     1       6.562  -0.197 -10.225  1.00  0.00     0.167 HD
ATOM     54  C   UNL     1       8.015   3.224 -12.588  1.00  0.00     0.037 A 
ATOM     55  C   UNL     1       5.603  -2.799  -9.913  1.00  0.00     0.037 A 
ATOM     56  C   UNL     1       8.100   2.091 -13.467  1.00  0.00     0.049 A 
ATOM     57  C   UNL     1       6.080  -2.688 -11.343  1.00  0.00     0.074 A 
ATOM     58  C   UNL     1       8.624   2.031 -14.745  1.00  0.00     0.029 A 
ATOM     59  N   UNL     1       7.630   0.822 -13.164  1.00  0.00    -0.354 N 
ATOM     60  N   UNL     1       6.604  -1.659 -11.965  1.00  0.00    -0.248 NA
ATOM     61  C   UNL     1       5.946  -3.886 -12.185  1.00  0.00     0.031 C 
ATOM     62  C   UNL     1       8.407   0.744 -15.243  1.00  0.00     0.029 A 
ATOM     63  C   UNL     1       7.810  -0.017 -14.250  1.00  0.00     0.049 A 
ATOM     64  H   UNL     1       7.229   0.557 -12.304  1.00  0.00     0.167 HD
ATOM     65  C   UNL     1       6.885  -2.092 -13.256  1.00  0.00     0.074 A 
ATOM     66  C   UNL     1       6.490  -3.483 -13.324  1.00  0.00     0.031 C 
ATOM     67  C   UNL     1       7.419  -1.403 -14.294  1.00  0.00     0.037 A 
BRANCH  54  68
ATOM     68  C   UNL     1       8.450   4.559 -13.114  1.00  0.00     0.064 A 
ATOM     69  C   UNL     1       9.618   5.191 -12.664  1.00  0.00     0.173 A 
ATOM     70  C   UNL     1       7.712   5.186 -14.130  1.00  0.00     0.173 A 
ATOM     71  F   UNL     1      10.349   4.641 -11.682  1.00  0.00    -0.203 F 
ATOM     72  C   UNL     1      10.025   6.408 -13.205  1.00  0.00     0.198 A 
ATOM     73  C   UNL     1       8.137   6.387 -14.688  1.00  0.00     0.198 A 
ATOM     74  F   UNL     1       6.585   4.622 -14.593  1.00  0.00    -0.203 F 
ATOM     75  F   UNL     1      11.126   7.012 -12.737  1.00  0.00    -0.200 F 
ATOM     76  C   UNL     1       9.291   6.998 -14.223  1.00  0.00     0.200 A 
ATOM     77  F   UNL     1       7.433   6.948 -15.681  1.00  0.00    -0.200 F 
ATOM     78  F   UNL     1       9.694   8.160 -14.755  1.00  0.00    -0.200 F 
ENDBRANCH  54  68
BRANCH  55  79
ATOM     79  C   UNL     1       5.006  -4.068  -9.415  1.00  0.00     0.064 A 
ATOM     80  C   UNL     1       5.772  -5.237  -9.300  1.00  0.00     0.173 A 
ATOM     81  C   UNL     1       3.642  -4.153  -9.096  1.00  0.00     0.173 A 
ATOM     82  F   UNL     1       7.074  -5.218  -9.621  1.00  0.00    -0.203 F 
ATOM     83  C   UNL     1       5.192  -6.445  -8.915  1.00  0.00     0.198 A 
ATOM     84  C   UNL     1       3.070  -5.353  -8.678  1.00  0.00     0.198 A 
ATOM     85  F   UNL     1       2.859  -3.068  -9.194  1.00  0.00    -0.203 F 
ATOM     86  F   UNL     1       5.934  -7.560  -8.879  1.00  0.00    -0.200 F 
ATOM     87  C   UNL     1       3.842  -6.501  -8.600  1.00  0.00     0.200 A 
ATOM     88  F   UNL     1       1.768  -5.399  -8.364  1.00  0.00    -0.200 F 
ATOM     89  F   UNL     1       3.284  -7.664  -8.236  1.00  0.00    -0.200 F 
ENDBRANCH  55  79
BRANCH  67  90
ATOM     90  C   UNL     1       7.638  -2.140 -15.584  1.00  0.00     0.064 A 
ATOM     91  C   UNL     1       6.568  -2.514 -16.409  1.00  0.00     0.173 A 
ATOM     92  C   UNL     1       8.941  -2.407 -16.035  1.00  0.00     0.173 A 
ATOM     93  F   UNL     1       5.304  -2.293 -16.017  1.00  0.00    -0.203 F 
ATOM     94  C   UNL     1       6.793  -3.143 -17.631  1.00  0.00     0.198 A 
ATOM     95  C   UNL     1       9.163  -3.005 -17.272  1.00  0.00     0.198 A 
ATOM     96  F   UNL     1      10.000  -2.060 -15.288  1.00  0.00    -0.203 F 
ATOM     97  F   UNL     1       5.755  -3.526 -18.386  1.00  0.00    -0.200 F 
ATOM     98  C   UNL     1       8.089  -3.377 -18.066  1.00  0.00     0.200 A 
ATOM     99  F   UNL     1      10.416  -3.212 -17.699  1.00  0.00    -0.200 F 
ATOM    100  F   UNL     1       8.304  -3.965 -19.251  1.00  0.00    -0.200 F 
ENDBRANCH  67  90
ENDBRANCH  41  42
ENDBRANCH  34  36
ENDBRANCH  33  34
ENDBRANCH  32  33
ENDBRANCH  31  32
ENDBRANCH  30  31
ENDBRANCH  29  30
ENDBRANCH  28  29
ENDBRANCH  27  28
ENDBRANCH  26  27
ENDBRANCH   1  26
TORSDOF 25
