REMARK SMILES Cc1cc(C)cc(S(=O)(=O)N2CSC[C@H]2C(=O)OCCOCCOCCOCCOC(=O)c2ccc(-c3c4nc(c(-c5c(F)c(F)c(F)c(F)c5F)c5ccc([nH]5)c(-c5c(F)c(F)c(F)c(F)c5F)c5nc(c(-c6c(F)c(F)c(F)c(F)c6F)c6ccc3[nH]6)C=C5)C=C4)cc2)c1
REMARK SMILES IDX 24 1 23 2 22 3 21 4 20 5 19 6 18 7 16 8 17 9 15 10 11 11
REMARK SMILES IDX 12 12 13 13 14 14 8 15 9 16 10 17 7 18 1 19 2 20 3 21 96 22
REMARK SMILES IDX 4 23 5 24 6 25 25 26 26 27 27 28 28 29 29 30 30 31 31 32
REMARK SMILES IDX 32 33 33 34 34 35 95 36 35 37 94 38 36 39 37 40 38 41 88 42
REMARK SMILES IDX 39 43 93 44 87 45 89 46 40 47 92 48 86 49 85 50 41 52 73 53
REMARK SMILES IDX 53 54 72 55 54 56 57 57 71 58 90 59 55 60 56 61 70 63 91 64
REMARK SMILES IDX 58 65 42 66 43 67 51 68 44 69 45 70 49 71 52 72 46 73 47 74
REMARK SMILES IDX 50 75 48 76 74 77 75 78 83 79 76 80 77 81 81 82 84 83 78 84
REMARK SMILES IDX 79 85 82 86 80 87 59 88 60 89 68 90 61 91 62 92 66 93 69 94
REMARK SMILES IDX 63 95 64 96 67 97 65 98
REMARK H PARENT 89 51 57 62
REMARK Flexibility Score: inf
ROOT
ATOM      1  O   UNL     1       2.360  -7.715  -0.773  1.00  0.00    -0.377 OA
ENDROOT
BRANCH   1   2
ATOM      2  C   UNL     1       1.442  -6.699  -1.145  1.00  0.00     0.188 C 
BRANCH   2   3
ATOM      3  C   UNL     1       1.267  -6.486  -2.664  1.00  0.00     0.188 C 
BRANCH   3   4
ATOM      4  O   UNL     1       2.221  -6.944  -3.622  1.00  0.00    -0.376 OA
BRANCH   4   5
ATOM      5  C   UNL     1       3.511  -7.356  -3.217  1.00  0.00     0.202 C 
BRANCH   5   6
ATOM      6  C   UNL     1       4.460  -6.282  -2.676  1.00  0.00     0.261 C 
BRANCH   6   7
ATOM      7  O   UNL     1       3.861  -5.284  -1.837  1.00  0.00    -0.462 OA
BRANCH   7   8
ATOM      8  C   UNL     1       3.513  -4.120  -2.450  1.00  0.00     0.325 C 
ATOM      9  O   UNL     1       3.667  -3.890  -3.646  1.00  0.00    -0.250 OA
BRANCH   8  10
ATOM     10  C   UNL     1       3.079  -3.045  -1.472  1.00  0.00     0.194 C 
ATOM     11  N   UNL     1       2.241  -3.434  -0.315  1.00  0.00    -0.173 NA
ATOM     12  C   UNL     1       2.953  -3.625   0.940  1.00  0.00     0.172 C 
ATOM     13  S   UNL     1       4.638  -3.019   0.721  1.00  0.00    -0.143 SA
ATOM     14  C   UNL     1       4.355  -2.386  -0.951  1.00  0.00     0.103 C 
BRANCH  11  15
ATOM     15  S   UNL     1       0.588  -3.177  -0.283  1.00  0.00     0.244 S 
ATOM     16  O   UNL     1       0.066  -3.848   0.891  1.00  0.00    -0.207 OA
ATOM     17  O   UNL     1       0.086  -3.478  -1.603  1.00  0.00    -0.207 OA
BRANCH  15  18
ATOM     18  C   UNL     1       0.329  -1.436  -0.038  1.00  0.00     0.083 A 
ATOM     19  C   UNL     1       2.347   1.768   0.173  1.00  0.00     0.044 C 
ATOM     20  C   UNL     1       1.182   0.824   0.133  1.00  0.00    -0.050 A 
ATOM     21  C   UNL     1      -0.128   1.309   0.075  1.00  0.00     0.007 A 
ATOM     22  C   UNL     1       1.396  -0.555   0.119  1.00  0.00     0.025 A 
ATOM     23  C   UNL     1      -1.219   0.431  -0.011  1.00  0.00    -0.050 A 
ATOM     24  C   UNL     1      -2.613   0.987  -0.051  1.00  0.00     0.044 C 
ATOM     25  C   UNL     1      -0.983  -0.948  -0.092  1.00  0.00     0.025 A 
ENDBRANCH  15  18
ENDBRANCH  11  15
ENDBRANCH   8  10
ENDBRANCH   7   8
ENDBRANCH   6   7
ENDBRANCH   5   6
ENDBRANCH   4   5
ENDBRANCH   3   4
ENDBRANCH   2   3
ENDBRANCH   1   2
BRANCH   1  26
ATOM     26  C   UNL     1       1.768  -8.934  -0.355  1.00  0.00     0.188 C 
BRANCH  26  27
ATOM     27  C   UNL     1       0.809  -9.569  -1.369  1.00  0.00     0.188 C 
BRANCH  27  28
ATOM     28  O   UNL     1      -0.365  -8.785  -1.574  1.00  0.00    -0.376 OA
BRANCH  28  29
ATOM     29  C   UNL     1      -1.552  -9.219  -0.917  1.00  0.00     0.202 C 
BRANCH  29  30
ATOM     30  C   UNL     1      -1.652  -8.796   0.557  1.00  0.00     0.261 C 
BRANCH  30  31
ATOM     31  O   UNL     1      -0.675  -9.383   1.435  1.00  0.00    -0.460 OA
BRANCH  31  32
ATOM     32  C   UNL     1      -0.604 -10.730   1.483  1.00  0.00     0.338 C 
ATOM     33  O   UNL     1      -1.350 -11.529   0.947  1.00  0.00    -0.246 OA
BRANCH  32  34
ATOM     34  C   UNL     1       0.674 -11.098   2.128  1.00  0.00     0.060 A 
ATOM     35  C   UNL     1       1.527 -11.979   1.451  1.00  0.00     0.016 A 
ATOM     36  C   UNL     1       1.035 -10.583   3.376  1.00  0.00     0.016 A 
ATOM     37  C   UNL     1       2.725 -12.380   2.040  1.00  0.00     0.010 A 
ATOM     38  C   UNL     1       2.227 -11.003   3.976  1.00  0.00     0.010 A 
ATOM     39  C   UNL     1       3.057 -11.932   3.325  1.00  0.00    -0.014 A 
BRANCH  39  40
ATOM     40  C   UNL     1       4.160 -12.600   4.056  1.00  0.00     0.031 A 
ATOM     41  C   UNL     1       3.821 -13.759   4.952  1.00  0.00     0.074 A 
ATOM     42  C   UNL     1       5.440 -12.219   3.899  1.00  0.00     0.049 A 
ATOM     43  N   UNL     1       4.612 -14.528   5.657  1.00  0.00    -0.248 NA
ATOM     44  C   UNL     1       2.393 -14.096   5.068  1.00  0.00     0.031 C 
ATOM     45  C   UNL     1       5.898 -11.125   3.048  1.00  0.00     0.029 A 
ATOM     46  N   UNL     1       6.590 -12.719   4.459  1.00  0.00    -0.354 N 
ATOM     47  C   UNL     1       3.779 -15.440   6.292  1.00  0.00     0.074 A 
ATOM     48  C   UNL     1       2.421 -15.108   5.920  1.00  0.00     0.031 C 
ATOM     49  C   UNL     1       7.236 -11.028   3.149  1.00  0.00     0.029 A 
ATOM     50  C   UNL     1       7.723 -12.043   4.083  1.00  0.00     0.049 A 
ATOM     51  H   UNL     1       6.600 -13.489   5.072  1.00  0.00     0.167 HD
ATOM     52  C   UNL     1       4.117 -16.470   7.103  1.00  0.00     0.037 A 
ATOM     53  C   UNL     1       9.005 -12.221   4.460  1.00  0.00     0.037 A 
ATOM     54  C   UNL     1       5.466 -16.796   7.480  1.00  0.00     0.049 A 
ATOM     55  C   UNL     1       9.351 -13.341   5.408  1.00  0.00     0.074 A 
ATOM     56  C   UNL     1       5.913 -17.839   8.270  1.00  0.00     0.029 A 
ATOM     57  N   UNL     1       6.586 -16.069   7.104  1.00  0.00    -0.354 N 
ATOM     58  N   UNL     1       8.565 -14.235   5.959  1.00  0.00    -0.248 NA
ATOM     59  C   UNL     1      10.767 -13.483   5.778  1.00  0.00     0.031 C 
ATOM     60  C   UNL     1       7.299 -17.713   8.417  1.00  0.00     0.029 A 
ATOM     61  C   UNL     1       7.721 -16.622   7.674  1.00  0.00     0.049 A 
ATOM     62  H   UNL     1       6.576 -15.277   6.519  1.00  0.00     0.167 HD
ATOM     63  C   UNL     1       9.390 -15.054   6.721  1.00  0.00     0.074 A 
ATOM     64  C   UNL     1      10.741 -14.563   6.545  1.00  0.00     0.031 C 
ATOM     65  C   UNL     1       9.059 -16.117   7.495  1.00  0.00     0.037 A 
BRANCH  52  66
ATOM     66  C   UNL     1       2.999 -17.301   7.658  1.00  0.00     0.064 A 
ATOM     67  C   UNL     1       2.263 -18.181   6.850  1.00  0.00     0.173 A 
ATOM     68  C   UNL     1       2.671 -17.228   9.020  1.00  0.00     0.173 A 
ATOM     69  F   UNL     1       2.526 -18.274   5.538  1.00  0.00    -0.203 F 
ATOM     70  C   UNL     1       1.220 -18.937   7.381  1.00  0.00     0.198 A 
ATOM     71  C   UNL     1       1.646 -18.006   9.552  1.00  0.00     0.198 A 
ATOM     72  F   UNL     1       3.344 -16.402   9.834  1.00  0.00    -0.203 F 
ATOM     73  F   UNL     1       0.498 -19.734   6.581  1.00  0.00    -0.200 F 
ATOM     74  C   UNL     1       0.917 -18.853   8.732  1.00  0.00     0.200 A 
ATOM     75  F   UNL     1       1.360 -17.930  10.859  1.00  0.00    -0.200 F 
ATOM     76  F   UNL     1      -0.084 -19.583   9.241  1.00  0.00    -0.200 F 
ENDBRANCH  52  66
BRANCH  53  77
ATOM     77  C   UNL     1      10.061 -11.311   3.945  1.00  0.00     0.064 A 
ATOM     78  C   UNL     1      11.040 -11.766   3.051  1.00  0.00     0.173 A 
ATOM     79  C   UNL     1      10.123  -9.971   4.354  1.00  0.00     0.173 A 
ATOM     80  F   UNL     1      11.040 -13.047   2.654  1.00  0.00    -0.203 F 
ATOM     81  C   UNL     1      12.049 -10.918   2.598  1.00  0.00     0.198 A 
ATOM     82  C   UNL     1      11.117  -9.118   3.879  1.00  0.00     0.198 A 
ATOM     83  F   UNL     1       9.213  -9.488   5.214  1.00  0.00    -0.203 F 
ATOM     84  F   UNL     1      13.000 -11.390   1.779  1.00  0.00    -0.200 F 
ATOM     85  C   UNL     1      12.083  -9.594   3.007  1.00  0.00     0.200 A 
ATOM     86  F   UNL     1      11.140  -7.837   4.271  1.00  0.00    -0.200 F 
ATOM     87  F   UNL     1      13.053  -8.779   2.568  1.00  0.00    -0.200 F 
ENDBRANCH  53  77
BRANCH  65  88
ATOM     88  C   UNL     1      10.177 -16.833   8.199  1.00  0.00     0.064 A 
ATOM     89  C   UNL     1      10.853 -16.254   9.283  1.00  0.00     0.173 A 
ATOM     90  C   UNL     1      10.554 -18.126   7.806  1.00  0.00     0.173 A 
ATOM     91  F   UNL     1      10.540 -15.015   9.691  1.00  0.00    -0.203 F 
ATOM     92  C   UNL     1      11.885 -16.932   9.929  1.00  0.00     0.198 A 
ATOM     93  C   UNL     1      11.565 -18.813   8.473  1.00  0.00     0.198 A 
ATOM     94  F   UNL     1       9.934 -18.729   6.780  1.00  0.00    -0.203 F 
ATOM     95  F   UNL     1      12.550 -16.339  10.930  1.00  0.00    -0.200 F 
ATOM     96  C   UNL     1      12.235 -18.213   9.527  1.00  0.00     0.200 A 
ATOM     97  F   UNL     1      11.892 -20.056   8.093  1.00  0.00    -0.200 F 
ATOM     98  F   UNL     1      13.225 -18.865  10.152  1.00  0.00    -0.200 F 
ENDBRANCH  65  88
ENDBRANCH  39  40
ENDBRANCH  32  34
ENDBRANCH  31  32
ENDBRANCH  30  31
ENDBRANCH  29  30
ENDBRANCH  28  29
ENDBRANCH  27  28
ENDBRANCH  26  27
ENDBRANCH   1  26
TORSDOF 22
