REMARK SMILES C/C(=C\C(=O)c1c(O)n(C)c2ccccc2c1=O)Nc1ccc(C(=O)OCCOCCOCCOCCOC(=O)c2ccc(-c3c4nc(c(-c5c(F)c(F)c(F)c(F)c5F)c5ccc([nH]5)c(-c5c(F)c(F)c(F)c(F)c5F)c5nc(c(-c6c(F)c(F)c(F)c(F)c6F)c6ccc3[nH]6)C=C5)C=C4)cc2)cc1
REMARK SMILES IDX 30 1 29 2 28 3 27 4 26 5 24 6 25 7 23 8 20 9 21 10 105 11
REMARK SMILES IDX 22 12 104 13 19 14 2 16 1 17 3 18 4 19 5 20 6 21 7 22 17 23
REMARK SMILES IDX 9 24 16 25 18 26 10 27 11 28 15 29 12 30 14 31 13 32 8 33
REMARK SMILES IDX 31 35 32 36 33 37 34 38 35 39 36 40 37 41 38 42 39 43 40 44
REMARK SMILES IDX 41 45 42 46 103 47 43 48 102 49 44 50 45 51 46 52 96 53
REMARK SMILES IDX 47 54 101 55 95 56 97 57 48 58 100 59 94 60 93 61 49 63
REMARK SMILES IDX 81 64 61 65 80 66 62 67 65 68 79 69 98 70 63 71 64 72 78 74
REMARK SMILES IDX 99 75 66 76 50 77 51 78 59 79 52 80 53 81 57 82 60 83 54 84
REMARK SMILES IDX 55 85 58 86 56 87 82 88 83 89 91 90 84 91 85 92 89 93 92 94
REMARK SMILES IDX 86 95 87 96 90 97 88 98 67 99 68 100 76 101 69 102 70 103
REMARK SMILES IDX 74 104 77 105 71 106 72 107 75 108 73 109
REMARK H PARENT 19 15 8 34 97 62 65 73
REMARK Flexibility Score: inf
ROOT
ATOM      1  C   UNL     1       3.730  -5.173  -2.244  1.00  0.00     0.188 C 
ENDROOT
BRANCH   1   2
ATOM      2  O   UNL     1       4.176  -6.484  -2.577  1.00  0.00    -0.376 OA
BRANCH   2   3
ATOM      3  C   UNL     1       5.057  -7.100  -1.647  1.00  0.00     0.202 C 
BRANCH   3   4
ATOM      4  C   UNL     1       4.393  -7.594  -0.354  1.00  0.00     0.261 C 
BRANCH   4   5
ATOM      5  O   UNL     1       3.721  -6.571   0.397  1.00  0.00    -0.460 OA
BRANCH   5   6
ATOM      6  C   UNL     1       4.504  -5.652   1.006  1.00  0.00     0.338 C 
ATOM      7  O   UNL     1       5.722  -5.652   1.039  1.00  0.00    -0.246 OA
BRANCH   6   8
ATOM      8  C   UNL     1       3.652  -4.519   1.452  1.00  0.00     0.060 A 
ATOM      9  C   UNL     1       2.048  -2.262   2.034  1.00  0.00     0.038 A 
ATOM     10  C   UNL     1       3.399  -2.122   1.705  1.00  0.00     0.027 A 
ATOM     11  C   UNL     1       1.523  -3.562   2.112  1.00  0.00     0.027 A 
ATOM     12  C   UNL     1       4.196  -3.233   1.408  1.00  0.00     0.018 A 
ATOM     13  C   UNL     1       2.315  -4.684   1.827  1.00  0.00     0.018 A 
BRANCH   9  14
ATOM     14  N   UNL     1       1.182  -1.165   2.220  1.00  0.00    -0.359 N 
ATOM     15  H   UNL     1       0.655  -1.189   3.051  1.00  0.00     0.166 HD
BRANCH  14  16
ATOM     16  C   UNL     1       0.954  -0.046   1.408  1.00  0.00     0.016 C 
ATOM     17  C   UNL     1       1.808   0.115   0.170  1.00  0.00     0.064 C 
ATOM     18  C   UNL     1      -0.061   0.796   1.724  1.00  0.00     0.074 C 
BRANCH  18  19
ATOM     19  C   UNL     1      -0.713   1.948   1.005  1.00  0.00     0.196 C 
ATOM     20  O   UNL     1      -1.567   2.611   1.589  1.00  0.00    -0.289 OA
BRANCH  19  21
ATOM     21  C   UNL     1      -0.456   2.140  -0.434  1.00  0.00     0.130 A 
ATOM     22  C   UNL     1      -0.791   1.172  -1.310  1.00  0.00     0.206 A 
ATOM     23  C   UNL     1       0.327   3.301  -0.910  1.00  0.00     0.204 A 
ATOM     24  N   UNL     1      -0.288   1.108  -2.607  1.00  0.00    -0.315 N 
ATOM     25  C   UNL     1       0.776   3.291  -2.320  1.00  0.00     0.047 A 
ATOM     26  O   UNL     1       0.646   4.216  -0.158  1.00  0.00    -0.288 OA
ATOM     27  C   UNL     1      -0.326  -0.136  -3.383  1.00  0.00     0.153 C 
ATOM     28  C   UNL     1       0.494   2.170  -3.125  1.00  0.00     0.055 A 
ATOM     29  C   UNL     1       1.538   4.370  -2.796  1.00  0.00     0.014 A 
ATOM     30  C   UNL     1       1.027   2.173  -4.426  1.00  0.00     0.027 A 
ATOM     31  C   UNL     1       2.049   4.342  -4.089  1.00  0.00     0.001 A 
ATOM     32  C   UNL     1       1.799   3.241  -4.900  1.00  0.00     0.002 A 
BRANCH  22  33
ATOM     33  O   UNL     1      -1.604   0.113  -0.941  1.00  0.00    -0.494 OA
ATOM     34  H   UNL     1      -1.978   0.087  -0.082  1.00  0.00     0.295 HD
ENDBRANCH  22  33
ENDBRANCH  19  21
ENDBRANCH  18  19
ENDBRANCH  14  16
ENDBRANCH   9  14
ENDBRANCH   6   8
ENDBRANCH   5   6
ENDBRANCH   4   5
ENDBRANCH   3   4
ENDBRANCH   2   3
ENDBRANCH   1   2
BRANCH   1  35
ATOM     35  C   UNL     1       2.227  -5.090  -1.928  1.00  0.00     0.188 C 
BRANCH  35  36
ATOM     36  O   UNL     1       1.532  -6.312  -1.747  1.00  0.00    -0.377 OA
BRANCH  36  37
ATOM     37  C   UNL     1       1.504  -7.267  -2.805  1.00  0.00     0.188 C 
BRANCH  37  38
ATOM     38  C   UNL     1       1.923  -6.929  -4.254  1.00  0.00     0.188 C 
BRANCH  38  39
ATOM     39  O   UNL     1       1.873  -5.549  -4.589  1.00  0.00    -0.376 OA
BRANCH  39  40
ATOM     40  C   UNL     1       0.885  -5.167  -5.535  1.00  0.00     0.202 C 
BRANCH  40  41
ATOM     41  C   UNL     1      -0.521  -5.070  -4.939  1.00  0.00     0.261 C 
BRANCH  41  42
ATOM     42  O   UNL     1      -1.043  -6.301  -4.416  1.00  0.00    -0.460 OA
BRANCH  42  43
ATOM     43  C   UNL     1      -1.214  -7.328  -5.279  1.00  0.00     0.338 C 
ATOM     44  O   UNL     1      -0.987  -7.338  -6.475  1.00  0.00    -0.246 OA
BRANCH  43  45
ATOM     45  C   UNL     1      -1.567  -8.515  -4.474  1.00  0.00     0.060 A 
ATOM     46  C   UNL     1      -2.589  -8.434  -3.526  1.00  0.00     0.016 A 
ATOM     47  C   UNL     1      -0.838  -9.701  -4.634  1.00  0.00     0.016 A 
ATOM     48  C   UNL     1      -2.890  -9.545  -2.742  1.00  0.00     0.010 A 
ATOM     49  C   UNL     1      -1.143 -10.816  -3.847  1.00  0.00     0.010 A 
ATOM     50  C   UNL     1      -2.181 -10.748  -2.905  1.00  0.00    -0.014 A 
BRANCH  50  51
ATOM     51  C   UNL     1      -2.645 -11.954  -2.179  1.00  0.00     0.031 A 
ATOM     52  C   UNL     1      -1.958 -12.450  -0.945  1.00  0.00     0.074 A 
ATOM     53  C   UNL     1      -3.750 -12.575  -2.634  1.00  0.00     0.049 A 
ATOM     54  N   UNL     1      -2.345 -13.383  -0.111  1.00  0.00    -0.248 NA
ATOM     55  C   UNL     1      -0.671 -11.831  -0.602  1.00  0.00     0.031 C 
ATOM     56  C   UNL     1      -4.479 -12.197  -3.845  1.00  0.00     0.029 A 
ATOM     57  N   UNL     1      -4.464 -13.629  -2.126  1.00  0.00    -0.354 N 
ATOM     58  C   UNL     1      -1.368 -13.444   0.872  1.00  0.00     0.074 A 
ATOM     59  C   UNL     1      -0.340 -12.493   0.500  1.00  0.00     0.031 C 
ATOM     60  C   UNL     1      -5.561 -12.980  -3.965  1.00  0.00     0.029 A 
ATOM     61  C   UNL     1      -5.591 -13.925  -2.852  1.00  0.00     0.049 A 
ATOM     62  H   UNL     1      -4.194 -14.126  -1.320  1.00  0.00     0.167 HD
ATOM     63  C   UNL     1      -1.352 -14.207   1.991  1.00  0.00     0.037 A 
ATOM     64  C   UNL     1      -6.552 -14.842  -2.636  1.00  0.00     0.037 A 
ATOM     65  C   UNL     1      -2.377 -15.157   2.346  1.00  0.00     0.049 A 
ATOM     66  C   UNL     1      -6.480 -15.712  -1.413  1.00  0.00     0.074 A 
ATOM     67  C   UNL     1      -2.478 -15.927   3.492  1.00  0.00     0.029 A 
ATOM     68  N   UNL     1      -3.469 -15.479   1.553  1.00  0.00    -0.354 N 
ATOM     69  N   UNL     1      -5.610 -15.685  -0.434  1.00  0.00    -0.248 NA
ATOM     70  C   UNL     1      -7.522 -16.737  -1.263  1.00  0.00     0.031 C 
ATOM     71  C   UNL     1      -3.598 -16.755   3.368  1.00  0.00     0.029 A 
ATOM     72  C   UNL     1      -4.222 -16.469   2.164  1.00  0.00     0.049 A 
ATOM     73  H   UNL     1      -3.678 -15.066   0.684  1.00  0.00     0.167 HD
ATOM     74  C   UNL     1      -6.001 -16.680   0.451  1.00  0.00     0.074 A 
ATOM     75  C   UNL     1      -7.203 -17.276  -0.094  1.00  0.00     0.031 C 
ATOM     76  C   UNL     1      -5.410 -17.066   1.607  1.00  0.00     0.037 A 
BRANCH  63  77
ATOM     77  C   UNL     1      -0.202 -14.041   2.941  1.00  0.00     0.064 A 
ATOM     78  C   UNL     1      -0.083 -12.895   3.742  1.00  0.00     0.173 A 
ATOM     79  C   UNL     1       0.729 -15.074   3.130  1.00  0.00     0.173 A 
ATOM     80  F   UNL     1      -0.947 -11.880   3.600  1.00  0.00    -0.203 F 
ATOM     81  C   UNL     1       0.933 -12.785   4.688  1.00  0.00     0.198 A 
ATOM     82  C   UNL     1       1.728 -14.970   4.094  1.00  0.00     0.198 A 
ATOM     83  F   UNL     1       0.650 -16.197   2.400  1.00  0.00    -0.203 F 
ATOM     84  F   UNL     1       1.041 -11.671   5.425  1.00  0.00    -0.200 F 
ATOM     85  C   UNL     1       1.832 -13.825   4.870  1.00  0.00     0.200 A 
ATOM     86  F   UNL     1       2.586 -15.984   4.281  1.00  0.00    -0.200 F 
ATOM     87  F   UNL     1       2.797 -13.725   5.794  1.00  0.00    -0.200 F 
ENDBRANCH  63  77
BRANCH  64  88
ATOM     88  C   UNL     1      -7.686 -14.949  -3.589  1.00  0.00     0.064 A 
ATOM     89  C   UNL     1      -8.975 -14.543  -3.220  1.00  0.00     0.173 A 
ATOM     90  C   UNL     1      -7.498 -15.428  -4.894  1.00  0.00     0.173 A 
ATOM     91  F   UNL     1      -9.205 -14.093  -1.978  1.00  0.00    -0.203 F 
ATOM     92  C   UNL     1     -10.036 -14.617  -4.119  1.00  0.00     0.198 A 
ATOM     93  C   UNL     1      -8.555 -15.478  -5.800  1.00  0.00     0.198 A 
ATOM     94  F   UNL     1      -6.281 -15.824  -5.296  1.00  0.00    -0.203 F 
ATOM     95  F   UNL     1     -11.265 -14.250  -3.733  1.00  0.00    -0.200 F 
ATOM     96  C   UNL     1      -9.824 -15.077  -5.410  1.00  0.00     0.200 A 
ATOM     97  F   UNL     1      -8.342 -15.907  -7.051  1.00  0.00    -0.200 F 
ATOM     98  F   UNL     1     -10.842 -15.136  -6.279  1.00  0.00    -0.200 F 
ENDBRANCH  64  88
BRANCH  76  99
ATOM     99  C   UNL     1      -6.032 -18.205   2.361  1.00  0.00     0.064 A 
ATOM    100  C   UNL     1      -5.911 -19.526   1.904  1.00  0.00     0.173 A 
ATOM    101  C   UNL     1      -6.671 -17.990   3.591  1.00  0.00     0.173 A 
ATOM    102  F   UNL     1      -5.323 -19.781   0.726  1.00  0.00    -0.203 F 
ATOM    103  C   UNL     1      -6.410 -20.590   2.651  1.00  0.00     0.198 A 
ATOM    104  C   UNL     1      -7.145 -19.059   4.348  1.00  0.00     0.198 A 
ATOM    105  F   UNL     1      -6.808 -16.746   4.073  1.00  0.00    -0.203 F 
ATOM    106  F   UNL     1      -6.302 -21.842   2.185  1.00  0.00    -0.200 F 
ATOM    107  C   UNL     1      -7.014 -20.357   3.877  1.00  0.00     0.200 A 
ATOM    108  F   UNL     1      -7.716 -18.833   5.539  1.00  0.00    -0.200 F 
ATOM    109  F   UNL     1      -7.471 -21.384   4.606  1.00  0.00    -0.200 F 
ENDBRANCH  76  99
ENDBRANCH  50  51
ENDBRANCH  43  45
ENDBRANCH  42  43
ENDBRANCH  41  42
ENDBRANCH  40  41
ENDBRANCH  39  40
ENDBRANCH  38  39
ENDBRANCH  37  38
ENDBRANCH  36  37
ENDBRANCH  35  36
ENDBRANCH   1  35
TORSDOF 25
