REMARK SMILES N#C/C(=C\c1ccc(-c2cc(C(=O)OCCOCCOCCOCCOC(=O)c3ccc(-c4c5nc(c(-c6c(F)c(F)c(F)c(F)c6F)c6ccc([nH]6)c(-c6c(F)c(F)c(F)c(F)c6F)c6nc(c(-c7c(F)c(F)c(F)c(F)c7F)c7ccc4[nH]7)C=C6)C=C5)cc3)ccc2Cl)o1)C(=O)N1CCOCC1
REMARK SMILES IDX 19 1 18 2 17 3 16 4 15 5 14 6 12 7 13 8 11 9 9 10 10 11
REMARK SMILES IDX 94 12 93 13 95 14 92 15 8 16 5 17 6 18 96 19 7 20 4 21 3 22
REMARK SMILES IDX 2 23 1 24 97 25 98 26 99 27 100 28 104 29 101 30 103 31
REMARK SMILES IDX 102 32 20 33 21 34 22 35 23 36 24 37 25 38 26 39 27 40 28 41
REMARK SMILES IDX 29 42 30 43 91 44 31 45 90 46 32 47 33 48 34 49 84 50 35 51
REMARK SMILES IDX 89 52 83 53 85 54 36 55 88 56 82 57 81 58 37 60 69 61 49 62
REMARK SMILES IDX 68 63 50 64 53 65 67 66 86 67 51 68 52 69 66 71 87 72 54 73
REMARK SMILES IDX 38 74 39 75 47 76 40 77 41 78 45 79 48 80 42 81 43 82 46 83
REMARK SMILES IDX 44 84 70 85 71 86 79 87 72 88 73 89 77 90 80 91 74 92 75 93
REMARK SMILES IDX 78 94 76 95 55 96 56 97 64 98 57 99 58 100 62 101 65 102
REMARK SMILES IDX 59 103 60 104 63 105 61 106
REMARK H PARENT 85 59 53 70
REMARK Flexibility Score: inf
ROOT
ATOM      1  C   UNL     1       4.715   5.938  -6.569  1.00  0.00     0.188 C 
ENDROOT
BRANCH   1   2
ATOM      2  C   UNL     1       3.798   4.822  -7.112  1.00  0.00     0.188 C 
BRANCH   2   3
ATOM      3  O   UNL     1       3.411   5.024  -8.460  1.00  0.00    -0.376 OA
BRANCH   3   4
ATOM      4  C   UNL     1       2.090   5.436  -8.751  1.00  0.00     0.202 C 
BRANCH   4   5
ATOM      5  C   UNL     1       1.522   6.709  -8.105  1.00  0.00     0.261 C 
BRANCH   5   6
ATOM      6  O   UNL     1       1.849   6.928  -6.728  1.00  0.00    -0.460 OA
BRANCH   6   7
ATOM      7  C   UNL     1       1.206   6.188  -5.798  1.00  0.00     0.338 C 
ATOM      8  O   UNL     1       0.339   5.359  -6.000  1.00  0.00    -0.246 OA
BRANCH   7   9
ATOM      9  C   UNL     1       1.888   6.411  -4.493  1.00  0.00     0.060 A 
ATOM     10  C   UNL     1       2.802   5.484  -2.423  1.00  0.00     0.037 A 
ATOM     11  C   UNL     1       2.113   5.315  -3.638  1.00  0.00     0.029 A 
ATOM     12  C   UNL     1       3.266   6.773  -2.090  1.00  0.00     0.052 A 
ATOM     13  C   UNL     1       3.053   7.859  -2.948  1.00  0.00     0.022 A 
ATOM     14  Cl  UNL     1       4.094   7.098  -0.604  1.00  0.00    -0.084 Cl
ATOM     15  C   UNL     1       2.362   7.682  -4.146  1.00  0.00     0.017 A 
BRANCH  10  16
ATOM     16  C   UNL     1       2.857   4.388  -1.460  1.00  0.00     0.136 A 
ATOM     17  C   UNL     1       3.609   2.463  -0.589  1.00  0.00     0.129 A 
ATOM     18  C   UNL     1       2.657   3.008   0.273  1.00  0.00     0.051 A 
ATOM     19  O   UNL     1       3.743   3.360  -1.651  1.00  0.00    -0.457 OA
ATOM     20  C   UNL     1       2.154   4.192  -0.297  1.00  0.00     0.051 A 
BRANCH  17  21
ATOM     21  C   UNL     1       4.359   1.233  -0.457  1.00  0.00     0.072 C 
ATOM     22  C   UNL     1       3.838   0.073   0.038  1.00  0.00     0.121 C 
BRANCH  22  23
ATOM     23  C   UNL     1       2.318   0.073   0.038  1.00  0.00     0.105 C 
ATOM     24  N   UNL     1       1.057   0.073   0.038  1.00  0.00    -0.192 NA
ENDBRANCH  22  23
BRANCH  22  25
ATOM     25  C   UNL     1       4.599  -1.200   0.048  1.00  0.00     0.264 C 
ATOM     26  O   UNL     1       4.001  -2.245  -0.205  1.00  0.00    -0.268 OA
ATOM     27  N   UNL     1       5.968  -1.177   0.263  1.00  0.00    -0.333 N 
ATOM     28  C   UNL     1       6.778  -0.148   0.937  1.00  0.00     0.148 C 
ATOM     29  C   UNL     1       6.776  -2.297  -0.226  1.00  0.00     0.148 C 
ATOM     30  C   UNL     1       7.924   0.315   0.023  1.00  0.00     0.181 C 
ATOM     31  C   UNL     1       7.874  -1.751  -1.147  1.00  0.00     0.181 C 
ATOM     32  O   UNL     1       8.698  -0.799  -0.450  1.00  0.00    -0.378 OA
ENDBRANCH  22  25
ENDBRANCH  17  21
ENDBRANCH  10  16
ENDBRANCH   7   9
ENDBRANCH   6   7
ENDBRANCH   5   6
ENDBRANCH   4   5
ENDBRANCH   3   4
ENDBRANCH   2   3
ENDBRANCH   1   2
BRANCH   1  33
ATOM     33  O   UNL     1       4.828   7.128  -7.336  1.00  0.00    -0.377 OA
BRANCH  33  34
ATOM     34  C   UNL     1       5.244   7.055  -8.699  1.00  0.00     0.188 C 
BRANCH  34  35
ATOM     35  C   UNL     1       5.903   5.791  -9.308  1.00  0.00     0.188 C 
BRANCH  35  36
ATOM     36  O   UNL     1       6.335   4.828  -8.364  1.00  0.00    -0.376 OA
BRANCH  36  37
ATOM     37  C   UNL     1       7.725   4.681  -8.144  1.00  0.00     0.202 C 
BRANCH  37  38
ATOM     38  C   UNL     1       8.461   5.887  -7.546  1.00  0.00     0.261 C 
BRANCH  38  39
ATOM     39  O   UNL     1       8.290   7.134  -8.237  1.00  0.00    -0.460 OA
BRANCH  39  40
ATOM     40  C   UNL     1       8.811   7.229  -9.477  1.00  0.00     0.338 C 
ATOM     41  O   UNL     1       9.424   6.370 -10.091  1.00  0.00    -0.246 OA
BRANCH  40  42
ATOM     42  C   UNL     1       8.357   8.510 -10.054  1.00  0.00     0.060 A 
ATOM     43  C   UNL     1       7.567   8.499 -11.211  1.00  0.00     0.016 A 
ATOM     44  C   UNL     1       8.705   9.716  -9.443  1.00  0.00     0.016 A 
ATOM     45  C   UNL     1       7.149   9.702 -11.780  1.00  0.00     0.010 A 
ATOM     46  C   UNL     1       8.304  10.920 -10.026  1.00  0.00     0.010 A 
ATOM     47  C   UNL     1       7.554  10.919 -11.216  1.00  0.00    -0.014 A 
BRANCH  47  48
ATOM     48  C   UNL     1       7.370  12.182 -11.971  1.00  0.00     0.031 A 
ATOM     49  C   UNL     1       8.539  12.719 -12.750  1.00  0.00     0.074 A 
ATOM     50  C   UNL     1       6.195  12.833 -11.977  1.00  0.00     0.049 A 
ATOM     51  N   UNL     1       8.648  13.832 -13.430  1.00  0.00    -0.248 NA
ATOM     52  C   UNL     1       9.753  11.887 -12.758  1.00  0.00     0.031 C 
ATOM     53  C   UNL     1       4.980  12.392 -11.298  1.00  0.00     0.029 A 
ATOM     54  N   UNL     1       5.839  14.019 -12.571  1.00  0.00    -0.354 N 
ATOM     55  C   UNL     1       9.941  13.836 -13.937  1.00  0.00     0.074 A 
ATOM     56  C   UNL     1      10.590  12.634 -13.460  1.00  0.00     0.031 C 
ATOM     57  C   UNL     1       4.013  13.303 -11.502  1.00  0.00     0.029 A 
ATOM     58  C   UNL     1       4.553  14.409 -12.293  1.00  0.00     0.049 A 
ATOM     59  H   UNL     1       6.449  14.540 -13.142  1.00  0.00     0.167 HD
ATOM     60  C   UNL     1      10.531  14.755 -14.737  1.00  0.00     0.037 A 
ATOM     61  C   UNL     1       3.900  15.542 -12.618  1.00  0.00     0.037 A 
ATOM     62  C   UNL     1       9.883  15.951 -15.206  1.00  0.00     0.049 A 
ATOM     63  C   UNL     1       4.607  16.592 -13.440  1.00  0.00     0.074 A 
ATOM     64  C   UNL     1      10.388  16.939 -16.032  1.00  0.00     0.029 A 
ATOM     65  N   UNL     1       8.589  16.328 -14.877  1.00  0.00    -0.354 N 
ATOM     66  N   UNL     1       5.820  16.580 -13.939  1.00  0.00    -0.248 NA
ATOM     67  C   UNL     1       3.850  17.815 -13.747  1.00  0.00     0.031 C 
ATOM     68  C   UNL     1       9.424  17.944 -16.151  1.00  0.00     0.029 A 
ATOM     69  C   UNL     1       8.290  17.549 -15.459  1.00  0.00     0.049 A 
ATOM     70  H   UNL     1       7.974  15.805 -14.314  1.00  0.00     0.167 HD
ATOM     71  C   UNL     1       5.958  17.769 -14.645  1.00  0.00     0.074 A 
ATOM     72  C   UNL     1       4.700  18.474 -14.521  1.00  0.00     0.031 C 
ATOM     73  C   UNL     1       7.028  18.235 -15.336  1.00  0.00     0.037 A 
BRANCH  60  74
ATOM     74  C   UNL     1      11.963  14.520 -15.126  1.00  0.00     0.064 A 
ATOM     75  C   UNL     1      12.334  13.483 -15.996  1.00  0.00     0.173 A 
ATOM     76  C   UNL     1      12.976  15.361 -14.641  1.00  0.00     0.173 A 
ATOM     77  F   UNL     1      11.408  12.639 -16.476  1.00  0.00    -0.203 F 
ATOM     78  C   UNL     1      13.668  13.281 -16.343  1.00  0.00     0.198 A 
ATOM     79  C   UNL     1      14.303  15.178 -15.018  1.00  0.00     0.198 A 
ATOM     80  F   UNL     1      12.677  16.369 -13.808  1.00  0.00    -0.203 F 
ATOM     81  F   UNL     1      14.004  12.252 -17.132  1.00  0.00    -0.200 F 
ATOM     82  C   UNL     1      14.649  14.133 -15.861  1.00  0.00     0.200 A 
ATOM     83  F   UNL     1      15.248  16.012 -14.562  1.00  0.00    -0.200 F 
ATOM     84  F   UNL     1      15.931  13.943 -16.202  1.00  0.00    -0.200 F 
ENDBRANCH  60  74
BRANCH  61  85
ATOM     85  C   UNL     1       2.502  15.759 -12.155  1.00  0.00     0.064 A 
ATOM     86  C   UNL     1       1.438  15.825 -13.065  1.00  0.00     0.173 A 
ATOM     87  C   UNL     1       2.206  15.936 -10.795  1.00  0.00     0.173 A 
ATOM     88  F   UNL     1       1.672  15.690 -14.379  1.00  0.00    -0.203 F 
ATOM     89  C   UNL     1       0.137  16.082 -12.636  1.00  0.00     0.198 A 
ATOM     90  C   UNL     1       0.900  16.159 -10.364  1.00  0.00     0.198 A 
ATOM     91  F   UNL     1       3.187  15.886  -9.881  1.00  0.00    -0.203 F 
ATOM     92  F   UNL     1      -0.851  16.196 -13.534  1.00  0.00    -0.200 F 
ATOM     93  C   UNL     1      -0.132  16.242 -11.285  1.00  0.00     0.200 A 
ATOM     94  F   UNL     1       0.643  16.300  -9.056  1.00  0.00    -0.200 F 
ATOM     95  F   UNL     1      -1.383  16.488 -10.873  1.00  0.00    -0.200 F 
ENDBRANCH  61  85
BRANCH  73  96
ATOM     96  C   UNL     1       6.875  19.547 -16.056  1.00  0.00     0.064 A 
ATOM     97  C   UNL     1       6.774  20.765 -15.367  1.00  0.00     0.173 A 
ATOM     98  C   UNL     1       6.877  19.587 -17.459  1.00  0.00     0.173 A 
ATOM     99  F   UNL     1       6.756  20.783 -14.026  1.00  0.00    -0.203 F 
ATOM    100  C   UNL     1       6.649  21.969 -16.056  1.00  0.00     0.198 A 
ATOM    101  C   UNL     1       6.789  20.796 -18.144  1.00  0.00     0.198 A 
ATOM    102  F   UNL     1       6.982  18.453 -18.169  1.00  0.00    -0.203 F 
ATOM    103  F   UNL     1       6.498  23.114 -15.376  1.00  0.00    -0.200 F 
ATOM    104  C   UNL     1       6.666  21.985 -17.443  1.00  0.00     0.200 A 
ATOM    105  F   UNL     1       6.825  20.809 -19.484  1.00  0.00    -0.200 F 
ATOM    106  F   UNL     1       6.556  23.145 -18.103  1.00  0.00    -0.200 F 
ENDBRANCH  73  96
ENDBRANCH  47  48
ENDBRANCH  40  42
ENDBRANCH  39  40
ENDBRANCH  38  39
ENDBRANCH  37  38
ENDBRANCH  36  37
ENDBRANCH  35  36
ENDBRANCH  34  35
ENDBRANCH  33  34
ENDBRANCH   1  33
TORSDOF 24
