REMARK SMILES O=C(OCCOCCOCCOCCOC(=O)c1ccc(-c2c3nc(c(-c4c(F)c(F)c(F)c(F)c4F)c4ccc([nH]4)c(-c4c(F)c(F)c(F)c(F)c4F)c4nc(c(-c5c(F)c(F)c(F)c(F)c5F)c5ccc2[nH]5)C=C4)C=C3)cc1)C1=Cc2c(ccc(Cl)c2Sc2ccccc2)O[C@H]1C(F)(F)F
REMARK SMILES IDX 9 1 8 2 7 3 6 4 5 5 4 6 3 7 2 8 1 9 81 10 82 11 98 12 83 13
REMARK SMILES IDX 97 14 84 15 89 16 85 17 87 18 86 19 88 20 99 21 100 22
REMARK SMILES IDX 101 23 102 24 90 25 91 26 92 27 96 28 93 29 95 30 94 31
REMARK SMILES IDX 10 32 11 33 12 34 13 35 14 36 15 37 16 38 17 39 18 40 19 41
REMARK SMILES IDX 80 42 20 43 79 44 21 45 22 46 23 47 73 48 24 49 78 50 72 51
REMARK SMILES IDX 74 52 25 53 77 54 71 55 70 56 26 58 58 59 38 60 57 61 39 62
REMARK SMILES IDX 42 63 56 64 75 65 40 66 41 67 55 69 76 70 43 71 27 72 28 73
REMARK SMILES IDX 36 74 29 75 30 76 34 77 37 78 31 79 32 80 35 81 33 82 59 83
REMARK SMILES IDX 60 84 68 85 61 86 62 87 66 88 69 89 63 90 64 91 67 92 65 93
REMARK SMILES IDX 44 94 45 95 53 96 46 97 47 98 51 99 54 100 48 101 49 102
REMARK SMILES IDX 52 103 50 104
REMARK H PARENT 74 57 42 68
REMARK Flexibility Score: inf
ROOT
ATOM      1  O   UNL     1       3.328  -1.011   4.384  1.00  0.00    -0.377 OA
ENDROOT
BRANCH   1   2
ATOM      2  C   UNL     1       2.338  -1.292   3.408  1.00  0.00     0.188 C 
BRANCH   2   3
ATOM      3  C   UNL     1       2.468  -2.562   2.548  1.00  0.00     0.188 C 
BRANCH   3   4
ATOM      4  O   UNL     1       3.563  -2.575   1.628  1.00  0.00    -0.376 OA
BRANCH   4   5
ATOM      5  C   UNL     1       3.436  -1.718   0.498  1.00  0.00     0.202 C 
BRANCH   5   6
ATOM      6  C   UNL     1       2.444  -2.247  -0.549  1.00  0.00     0.261 C 
BRANCH   6   7
ATOM      7  O   UNL     1       3.081  -2.736  -1.753  1.00  0.00    -0.460 OA
BRANCH   7   8
ATOM      8  C   UNL     1       3.050  -1.937  -2.862  1.00  0.00     0.338 C 
ATOM      9  O   UNL     1       2.480  -2.193  -3.889  1.00  0.00    -0.246 OA
BRANCH   8  10
ATOM     10  C   UNL     1       3.999  -0.814  -2.724  1.00  0.00     0.087 C 
ATOM     11  C   UNL     1       3.542   0.228  -2.031  1.00  0.00     0.028 C 
ATOM     12  C   UNL     1       5.415  -0.978  -3.162  1.00  0.00     0.316 C 
ATOM     13  C   UNL     1       4.469   1.092  -1.331  1.00  0.00     0.033 A 
ATOM     14  O   UNL     1       6.321  -0.036  -2.530  1.00  0.00    -0.475 OA
ATOM     15  C   UNL     1       5.840   0.869  -1.617  1.00  0.00     0.129 A 
ATOM     16  C   UNL     1       4.062   1.984  -0.296  1.00  0.00     0.042 A 
ATOM     17  C   UNL     1       6.832   1.554  -0.929  1.00  0.00     0.049 A 
ATOM     18  C   UNL     1       5.118   2.611   0.427  1.00  0.00     0.055 A 
ATOM     19  C   UNL     1       6.473   2.407   0.104  1.00  0.00     0.025 A 
ATOM     20  Cl  UNL     1       4.848   3.648   1.797  1.00  0.00    -0.083 Cl
BRANCH  12  21
ATOM     21  C   UNL     1       5.961  -2.411  -3.027  1.00  0.00     0.430 C 
ATOM     22  F   UNL     1       5.766  -2.915  -1.790  1.00  0.00    -0.167 F 
ATOM     23  F   UNL     1       5.368  -3.243  -3.915  1.00  0.00    -0.167 F 
ATOM     24  F   UNL     1       7.290  -2.462  -3.276  1.00  0.00    -0.167 F 
ENDBRANCH  12  21
BRANCH  16  25
ATOM     25  S   UNL     1       2.350   2.524   0.109  1.00  0.00    -0.088 SA
BRANCH  25  26
ATOM     26  C   UNL     1       1.077   1.289  -0.107  1.00  0.00     0.012 A 
ATOM     27  C   UNL     1       0.408   1.147  -1.331  1.00  0.00     0.015 A 
ATOM     28  C   UNL     1       0.597   0.525   0.964  1.00  0.00     0.015 A 
ATOM     29  C   UNL     1      -0.548   0.136  -1.528  1.00  0.00     0.001 A 
ATOM     30  C   UNL     1      -0.351  -0.498   0.777  1.00  0.00     0.001 A 
ATOM     31  C   UNL     1      -0.900  -0.713  -0.482  1.00  0.00     0.000 A 
ENDBRANCH  25  26
ENDBRANCH  16  25
ENDBRANCH   8  10
ENDBRANCH   7   8
ENDBRANCH   6   7
ENDBRANCH   5   6
ENDBRANCH   4   5
ENDBRANCH   3   4
ENDBRANCH   2   3
ENDBRANCH   1   2
BRANCH   1  32
ATOM     32  C   UNL     1       4.651  -0.849   3.885  1.00  0.00     0.188 C 
BRANCH  32  33
ATOM     33  C   UNL     1       5.521  -2.057   4.240  1.00  0.00     0.188 C 
BRANCH  33  34
ATOM     34  O   UNL     1       4.770  -3.256   4.177  1.00  0.00    -0.376 OA
BRANCH  34  35
ATOM     35  C   UNL     1       4.338  -3.874   5.383  1.00  0.00     0.202 C 
BRANCH  35  36
ATOM     36  C   UNL     1       3.537  -3.148   6.491  1.00  0.00     0.261 C 
BRANCH  36  37
ATOM     37  O   UNL     1       3.829  -1.779   6.777  1.00  0.00    -0.460 OA
BRANCH  37  38
ATOM     38  C   UNL     1       4.998  -1.500   7.372  1.00  0.00     0.338 C 
ATOM     39  O   UNL     1       5.825  -2.297   7.777  1.00  0.00    -0.246 OA
BRANCH  38  40
ATOM     40  C   UNL     1       5.220  -0.037   7.287  1.00  0.00     0.060 A 
ATOM     41  C   UNL     1       6.498   0.400   6.921  1.00  0.00     0.016 A 
ATOM     42  C   UNL     1       4.219   0.890   7.609  1.00  0.00     0.016 A 
ATOM     43  C   UNL     1       6.815   1.752   6.985  1.00  0.00     0.010 A 
ATOM     44  C   UNL     1       4.542   2.248   7.704  1.00  0.00     0.010 A 
ATOM     45  C   UNL     1       5.866   2.660   7.473  1.00  0.00    -0.014 A 
BRANCH  45  46
ATOM     46  C   UNL     1       6.395   3.884   8.120  1.00  0.00     0.031 A 
ATOM     47  C   UNL     1       6.819   3.755   9.562  1.00  0.00     0.074 A 
ATOM     48  C   UNL     1       6.612   5.018   7.437  1.00  0.00     0.049 A 
ATOM     49  N   UNL     1       7.454   4.603  10.329  1.00  0.00    -0.248 NA
ATOM     50  C   UNL     1       6.499   2.477  10.224  1.00  0.00     0.031 C 
ATOM     51  C   UNL     1       6.289   5.237   6.030  1.00  0.00     0.029 A 
ATOM     52  N   UNL     1       7.182   6.197   7.845  1.00  0.00    -0.354 N 
ATOM     53  C   UNL     1       7.620   3.953  11.546  1.00  0.00     0.074 A 
ATOM     54  C   UNL     1       6.991   2.660  11.437  1.00  0.00     0.031 C 
ATOM     55  C   UNL     1       6.674   6.480   5.687  1.00  0.00     0.029 A 
ATOM     56  C   UNL     1       7.259   7.141   6.854  1.00  0.00     0.049 A 
ATOM     57  H   UNL     1       7.505   6.350   8.762  1.00  0.00     0.167 HD
ATOM     58  C   UNL     1       8.253   4.390  12.659  1.00  0.00     0.037 A 
ATOM     59  C   UNL     1       7.754   8.394   6.897  1.00  0.00     0.037 A 
ATOM     60  C   UNL     1       8.854   5.688  12.776  1.00  0.00     0.049 A 
ATOM     61  C   UNL     1       8.378   8.892   8.178  1.00  0.00     0.074 A 
ATOM     62  C   UNL     1       9.507   6.245  13.858  1.00  0.00     0.029 A 
ATOM     63  N   UNL     1       8.855   6.640  11.767  1.00  0.00    -0.354 N 
ATOM     64  N   UNL     1       8.568   8.260   9.313  1.00  0.00    -0.248 NA
ATOM     65  C   UNL     1       8.871  10.276   8.176  1.00  0.00     0.031 C 
ATOM     66  C   UNL     1       9.855   7.558  13.523  1.00  0.00     0.029 A 
ATOM     67  C   UNL     1       9.476   7.794  12.210  1.00  0.00     0.049 A 
ATOM     68  H   UNL     1       8.471   6.513  10.869  1.00  0.00     0.167 HD
ATOM     69  C   UNL     1       9.239   9.152  10.142  1.00  0.00     0.074 A 
ATOM     70  C   UNL     1       9.427  10.367   9.376  1.00  0.00     0.031 C 
ATOM     71  C   UNL     1       9.668   8.982  11.418  1.00  0.00     0.037 A 
BRANCH  58  72
ATOM     72  C   UNL     1       8.271   3.466  13.842  1.00  0.00     0.064 A 
ATOM     73  C   UNL     1       9.038   2.291  13.852  1.00  0.00     0.173 A 
ATOM     74  C   UNL     1       7.488   3.750  14.970  1.00  0.00     0.173 A 
ATOM     75  F   UNL     1       9.782   1.960  12.786  1.00  0.00    -0.203 F 
ATOM     76  C   UNL     1       8.995   1.418  14.937  1.00  0.00     0.198 A 
ATOM     77  C   UNL     1       7.471   2.890  16.065  1.00  0.00     0.198 A 
ATOM     78  F   UNL     1       6.731   4.856  15.007  1.00  0.00    -0.203 F 
ATOM     79  F   UNL     1       9.687   0.271  14.900  1.00  0.00    -0.200 F 
ATOM     80  C   UNL     1       8.216   1.721  16.044  1.00  0.00     0.200 A 
ATOM     81  F   UNL     1       6.722   3.187  17.135  1.00  0.00    -0.200 F 
ATOM     82  F   UNL     1       8.172   0.879  17.085  1.00  0.00    -0.200 F 
ENDBRANCH  58  72
BRANCH  59  83
ATOM     83  C   UNL     1       7.698   9.262   5.691  1.00  0.00     0.064 A 
ATOM     84  C   UNL     1       8.867   9.649   5.021  1.00  0.00     0.173 A 
ATOM     85  C   UNL     1       6.477   9.749   5.205  1.00  0.00     0.173 A 
ATOM     86  F   UNL     1      10.062   9.230   5.462  1.00  0.00    -0.203 F 
ATOM     87  C   UNL     1       8.818  10.507   3.924  1.00  0.00     0.198 A 
ATOM     88  C   UNL     1       6.426  10.586   4.091  1.00  0.00     0.198 A 
ATOM     89  F   UNL     1       5.329   9.414   5.813  1.00  0.00    -0.203 F 
ATOM     90  F   UNL     1       9.954  10.902   3.333  1.00  0.00    -0.200 F 
ATOM     91  C   UNL     1       7.597  10.971   3.457  1.00  0.00     0.200 A 
ATOM     92  F   UNL     1       5.244  11.026   3.639  1.00  0.00    -0.200 F 
ATOM     93  F   UNL     1       7.551  11.799   2.404  1.00  0.00    -0.200 F 
ENDBRANCH  59  83
BRANCH  71  94
ATOM     94  C   UNL     1      10.438  10.108  12.044  1.00  0.00     0.064 A 
ATOM     95  C   UNL     1       9.822  11.311  12.418  1.00  0.00     0.173 A 
ATOM     96  C   UNL     1      11.807   9.958  12.317  1.00  0.00     0.173 A 
ATOM     97  F   UNL     1       8.518  11.508  12.171  1.00  0.00    -0.203 F 
ATOM     98  C   UNL     1      10.556  12.336  13.009  1.00  0.00     0.198 A 
ATOM     99  C   UNL     1      12.529  10.970  12.940  1.00  0.00     0.198 A 
ATOM    100  F   UNL     1      12.441   8.821  11.992  1.00  0.00    -0.203 F 
ATOM    101  F   UNL     1       9.959  13.498  13.309  1.00  0.00    -0.200 F 
ATOM    102  C   UNL     1      11.906  12.162  13.277  1.00  0.00     0.200 A 
ATOM    103  F   UNL     1      13.829  10.793  13.214  1.00  0.00    -0.200 F 
ATOM    104  F   UNL     1      12.609  13.147  13.853  1.00  0.00    -0.200 F 
ENDBRANCH  71  94
ENDBRANCH  45  46
ENDBRANCH  38  40
ENDBRANCH  37  38
ENDBRANCH  36  37
ENDBRANCH  35  36
ENDBRANCH  34  35
ENDBRANCH  33  34
ENDBRANCH  32  33
ENDBRANCH   1  32
TORSDOF 23
