REMARK SMILES Cc1cc(Br)cnc1SCC1(CC(=O)OCCOCCOCCOCCOC(=O)c2ccc(-c3c4nc(c(-c5c(F)c(F)c(F)c(F)c5F)c5ccc([nH]5)c(-c5c(F)c(F)c(F)c(F)c5F)c5nc(c(-c6c(F)c(F)c(F)c(F)c6F)c6ccc3[nH]6)C=C5)C=C4)cc2)CC1
REMARK SMILES IDX 20 1 19 2 18 3 17 4 16 5 15 6 13 7 14 8 12 9 11 10 93 11
REMARK SMILES IDX 94 12 10 13 9 14 8 15 1 16 2 17 3 18 4 19 7 20 5 21 6 22
REMARK SMILES IDX 21 23 22 24 23 25 24 26 25 27 26 28 27 29 28 30 29 31 30 32
REMARK SMILES IDX 31 33 92 34 32 35 91 36 33 37 34 38 35 39 85 40 36 41 90 42
REMARK SMILES IDX 84 43 86 44 37 45 89 46 83 47 82 48 38 50 70 51 50 52 69 53
REMARK SMILES IDX 51 54 54 55 68 56 87 57 52 58 53 59 67 61 88 62 55 63 39 64
REMARK SMILES IDX 40 65 48 66 41 67 42 68 46 69 49 70 43 71 44 72 47 73 45 74
REMARK SMILES IDX 71 75 72 76 80 77 73 78 74 79 78 80 81 81 75 82 76 83 79 84
REMARK SMILES IDX 77 85 56 86 57 87 65 88 58 89 59 90 63 91 66 92 60 93 61 94
REMARK SMILES IDX 64 95 62 96
REMARK H PARENT 86 49 54 60
REMARK Flexibility Score: inf
ROOT
ATOM      1  C   UNL     1       7.939  -0.579  -0.202  1.00  0.00     0.188 C 
ENDROOT
BRANCH   1   2
ATOM      2  C   UNL     1       7.970   0.957   0.004  1.00  0.00     0.188 C 
BRANCH   2   3
ATOM      3  O   UNL     1       9.151   1.563   0.500  1.00  0.00    -0.376 OA
BRANCH   3   4
ATOM      4  C   UNL     1       9.903   0.867   1.475  1.00  0.00     0.202 C 
BRANCH   4   5
ATOM      5  C   UNL     1       9.223   0.227   2.707  1.00  0.00     0.261 C 
BRANCH   5   6
ATOM      6  O   UNL     1       7.870  -0.266   2.595  1.00  0.00    -0.463 OA
BRANCH   6   7
ATOM      7  C   UNL     1       6.877   0.528   3.078  1.00  0.00     0.306 C 
ATOM      8  O   UNL     1       7.069   1.643   3.550  1.00  0.00    -0.252 OA
BRANCH   7   9
ATOM      9  C   UNL     1       5.511  -0.146   3.114  1.00  0.00     0.130 C 
BRANCH   9  10
ATOM     10  C   UNL     1       5.015  -0.999   1.935  1.00  0.00    -0.010 C 
ATOM     11  C   UNL     1       4.162  -2.206   2.291  1.00  0.00     0.009 C 
ATOM     12  C   UNL     1       5.564  -2.417   1.819  1.00  0.00     0.009 C 
BRANCH  10  13
ATOM     13  C   UNL     1       4.704  -0.289   0.634  1.00  0.00     0.084 C 
BRANCH  13  14
ATOM     14  S   UNL     1       3.533   1.050   0.619  1.00  0.00    -0.106 SA
BRANCH  14  15
ATOM     15  C   UNL     1       1.903   0.509   0.203  1.00  0.00     0.099 A 
ATOM     16  C   UNL     1       2.101  -1.914  -0.747  1.00  0.00     0.047 C 
ATOM     17  C   UNL     1       1.374  -0.694  -0.274  1.00  0.00    -0.018 A 
ATOM     18  C   UNL     1      -0.036  -0.806  -0.349  1.00  0.00     0.023 A 
ATOM     19  C   UNL     1      -0.860   0.272  -0.073  1.00  0.00     0.036 A 
ATOM     20  N   UNL     1       1.077   1.575   0.423  1.00  0.00    -0.248 NA
ATOM     21  Br  UNL     1      -2.731   0.121  -0.174  1.00  0.00    -0.049 Br
ATOM     22  C   UNL     1      -0.257   1.454   0.269  1.00  0.00     0.128 A 
ENDBRANCH  14  15
ENDBRANCH  13  14
ENDBRANCH  10  13
ENDBRANCH   9  10
ENDBRANCH   7   9
ENDBRANCH   6   7
ENDBRANCH   5   6
ENDBRANCH   4   5
ENDBRANCH   3   4
ENDBRANCH   2   3
ENDBRANCH   1   2
BRANCH   1  23
ATOM     23  O   UNL     1       9.220  -1.181  -0.186  1.00  0.00    -0.377 OA
BRANCH  23  24
ATOM     24  C   UNL     1       9.726  -1.529  -1.460  1.00  0.00     0.188 C 
BRANCH  24  25
ATOM     25  C   UNL     1       9.716  -0.417  -2.522  1.00  0.00     0.188 C 
BRANCH  25  26
ATOM     26  O   UNL     1       8.421   0.145  -2.694  1.00  0.00    -0.376 OA
BRANCH  26  27
ATOM     27  C   UNL     1       7.679  -0.130  -3.865  1.00  0.00     0.202 C 
BRANCH  27  28
ATOM     28  C   UNL     1       7.060  -1.529  -4.016  1.00  0.00     0.261 C 
BRANCH  28  29
ATOM     29  O   UNL     1       7.882  -2.642  -3.647  1.00  0.00    -0.460 OA
BRANCH  29  30
ATOM     30  C   UNL     1       8.903  -2.957  -4.480  1.00  0.00     0.338 C 
ATOM     31  O   UNL     1       9.209  -2.400  -5.506  1.00  0.00    -0.246 OA
BRANCH  30  32
ATOM     32  C   UNL     1       9.714  -3.996  -3.798  1.00  0.00     0.060 A 
ATOM     33  C   UNL     1      11.049  -3.700  -3.493  1.00  0.00     0.016 A 
ATOM     34  C   UNL     1       9.151  -5.213  -3.404  1.00  0.00     0.016 A 
ATOM     35  C   UNL     1      11.825  -4.622  -2.791  1.00  0.00     0.010 A 
ATOM     36  C   UNL     1       9.943  -6.155  -2.740  1.00  0.00     0.010 A 
ATOM     37  C   UNL     1      11.289  -5.870  -2.450  1.00  0.00    -0.014 A 
BRANCH  37  38
ATOM     38  C   UNL     1      12.202  -6.946  -1.998  1.00  0.00     0.031 A 
ATOM     39  C   UNL     1      12.768  -7.867  -3.042  1.00  0.00     0.074 A 
ATOM     40  C   UNL     1      12.553  -7.078  -0.707  1.00  0.00     0.049 A 
ATOM     41  N   UNL     1      13.568  -8.892  -2.905  1.00  0.00    -0.248 NA
ATOM     42  C   UNL     1      12.378  -7.588  -4.435  1.00  0.00     0.031 C 
ATOM     43  C   UNL     1      12.107  -6.217   0.385  1.00  0.00     0.029 A 
ATOM     44  N   UNL     1      13.367  -8.001  -0.099  1.00  0.00    -0.354 N 
ATOM     45  C   UNL     1      13.781  -9.374  -4.189  1.00  0.00     0.074 A 
ATOM     46  C   UNL     1      12.999  -8.556  -5.090  1.00  0.00     0.031 C 
ATOM     47  C   UNL     1      12.640  -6.664   1.536  1.00  0.00     0.029 A 
ATOM     48  C   UNL     1      13.439  -7.858   1.265  1.00  0.00     0.049 A 
ATOM     49  H   UNL     1      13.854  -8.700  -0.594  1.00  0.00     0.167 HD
ATOM     50  C   UNL     1      14.568 -10.401  -4.584  1.00  0.00     0.037 A 
ATOM     51  C   UNL     1      14.060  -8.624   2.184  1.00  0.00     0.037 A 
ATOM     52  C   UNL     1      15.329 -11.224  -3.683  1.00  0.00     0.049 A 
ATOM     53  C   UNL     1      14.857  -9.822   1.726  1.00  0.00     0.074 A 
ATOM     54  C   UNL     1      16.155 -12.292  -3.979  1.00  0.00     0.029 A 
ATOM     55  N   UNL     1      15.347 -11.073  -2.304  1.00  0.00    -0.354 N 
ATOM     56  N   UNL     1      15.075 -10.259   0.508  1.00  0.00    -0.248 NA
ATOM     57  C   UNL     1      15.498 -10.632   2.772  1.00  0.00     0.031 C 
ATOM     58  C   UNL     1      16.626 -12.826  -2.776  1.00  0.00     0.029 A 
ATOM     59  C   UNL     1      16.148 -12.049  -1.733  1.00  0.00     0.049 A 
ATOM     60  H   UNL     1      14.862 -10.377  -1.804  1.00  0.00     0.167 HD
ATOM     61  C   UNL     1      15.902 -11.369   0.640  1.00  0.00     0.074 A 
ATOM     62  C   UNL     1      16.161 -11.528   2.055  1.00  0.00     0.031 C 
ATOM     63  C   UNL     1      16.402 -12.185  -0.321  1.00  0.00     0.037 A 
BRANCH  50  64
ATOM     64  C   UNL     1      14.622 -10.710  -6.051  1.00  0.00     0.064 A 
ATOM     65  C   UNL     1      15.261  -9.855  -6.962  1.00  0.00     0.173 A 
ATOM     66  C   UNL     1      14.056 -11.894  -6.548  1.00  0.00     0.173 A 
ATOM     67  F   UNL     1      15.800  -8.701  -6.541  1.00  0.00    -0.203 F 
ATOM     68  C   UNL     1      15.315 -10.165  -8.318  1.00  0.00     0.198 A 
ATOM     69  C   UNL     1      14.139 -12.216  -7.899  1.00  0.00     0.198 A 
ATOM     70  F   UNL     1      13.430 -12.744  -5.720  1.00  0.00    -0.203 F 
ATOM     71  F   UNL     1      15.890  -9.312  -9.177  1.00  0.00    -0.200 F 
ATOM     72  C   UNL     1      14.763 -11.349  -8.784  1.00  0.00     0.200 A 
ATOM     73  F   UNL     1      13.614 -13.365  -8.346  1.00  0.00    -0.200 F 
ATOM     74  F   UNL     1      14.826 -11.652 -10.088  1.00  0.00    -0.200 F 
ENDBRANCH  50  64
BRANCH  51  75
ATOM     75  C   UNL     1      13.938  -8.307   3.634  1.00  0.00     0.064 A 
ATOM     76  C   UNL     1      15.054  -7.928   4.394  1.00  0.00     0.173 A 
ATOM     77  C   UNL     1      12.709  -8.428   4.300  1.00  0.00     0.173 A 
ATOM     78  F   UNL     1      16.258  -7.825   3.812  1.00  0.00    -0.203 F 
ATOM     79  C   UNL     1      14.951  -7.713   5.768  1.00  0.00     0.198 A 
ATOM     80  C   UNL     1      12.601  -8.179   5.667  1.00  0.00     0.198 A 
ATOM     81  F   UNL     1      11.610  -8.793   3.624  1.00  0.00    -0.203 F 
ATOM     82  F   UNL     1      16.046  -7.416   6.481  1.00  0.00    -0.200 F 
ATOM     83  C   UNL     1      13.724  -7.834   6.402  1.00  0.00     0.200 A 
ATOM     84  F   UNL     1      11.411  -8.285   6.273  1.00  0.00    -0.200 F 
ATOM     85  F   UNL     1      13.627  -7.631   7.723  1.00  0.00    -0.200 F 
ENDBRANCH  51  75
BRANCH  63  86
ATOM     86  C   UNL     1      17.314 -13.296   0.118  1.00  0.00     0.064 A 
ATOM     87  C   UNL     1      16.840 -14.403   0.837  1.00  0.00     0.173 A 
ATOM     88  C   UNL     1      18.676 -13.271  -0.223  1.00  0.00     0.173 A 
ATOM     89  F   UNL     1      15.550 -14.472   1.198  1.00  0.00    -0.203 F 
ATOM     90  C   UNL     1      17.701 -15.426   1.228  1.00  0.00     0.198 A 
ATOM     91  C   UNL     1      19.526 -14.313   0.136  1.00  0.00     0.198 A 
ATOM     92  F   UNL     1      19.180 -12.242  -0.921  1.00  0.00    -0.203 F 
ATOM     93  F   UNL     1      17.236 -16.445   1.964  1.00  0.00    -0.200 F 
ATOM     94  C   UNL     1      19.041 -15.384   0.871  1.00  0.00     0.200 A 
ATOM     95  F   UNL     1      20.815 -14.280  -0.228  1.00  0.00    -0.200 F 
ATOM     96  F   UNL     1      19.865 -16.373   1.240  1.00  0.00    -0.200 F 
ENDBRANCH  63  86
ENDBRANCH  37  38
ENDBRANCH  30  32
ENDBRANCH  29  30
ENDBRANCH  28  29
ENDBRANCH  27  28
ENDBRANCH  26  27
ENDBRANCH  25  26
ENDBRANCH  24  25
ENDBRANCH  23  24
ENDBRANCH   1  23
TORSDOF 24
