REMARK SMILES Cc1cc(SCC(=O)OCCOCCOCCOCCOC(=O)c2ccc(-c3c4nc(c(-c5c(F)c(F)c(F)c(F)c5F)c5ccc([nH]5)c(-c5c(F)c(F)c(F)c(F)c5F)c5nc(c(-c6c(F)c(F)c(F)c(F)c6F)c6ccc3[nH]6)C=C5)C=C4)cc2)c2cc(C(F)(F)F)ccc2n1
REMARK SMILES IDX 14 1 13 2 12 3 11 4 10 5 9 6 7 7 8 8 6 9 5 10 4 11 1 12 2 13
REMARK SMILES IDX 3 14 97 15 96 16 87 17 95 18 88 19 94 20 89 21 90 22 91 23
REMARK SMILES IDX 92 24 93 25 15 26 16 27 17 28 18 29 19 30 20 31 21 32 22 33
REMARK SMILES IDX 23 34 24 35 25 36 86 37 26 38 85 39 27 40 28 41 29 42 79 43
REMARK SMILES IDX 30 44 84 45 78 46 80 47 31 48 83 49 77 50 76 51 32 53 64 54
REMARK SMILES IDX 44 55 63 56 45 57 48 58 62 59 81 60 46 61 47 62 61 64 82 65
REMARK SMILES IDX 49 66 33 67 34 68 42 69 35 70 36 71 40 72 43 73 37 74 38 75
REMARK SMILES IDX 41 76 39 77 65 78 66 79 74 80 67 81 68 82 72 83 75 84 69 85
REMARK SMILES IDX 70 86 73 87 71 88 50 89 51 90 59 91 52 92 53 93 57 94 60 95
REMARK SMILES IDX 54 96 55 97 58 98 56 99
REMARK H PARENT 80 52 48 63
REMARK Flexibility Score: inf
ROOT
ATOM      1  C   UNL     1      -1.785   1.942  -2.053  1.00  0.00     0.188 C 
ENDROOT
BRANCH   1   2
ATOM      2  C   UNL     1      -3.317   1.977  -1.905  1.00  0.00     0.188 C 
BRANCH   2   3
ATOM      3  O   UNL     1      -4.073   2.379  -3.023  1.00  0.00    -0.376 OA
BRANCH   3   4
ATOM      4  C   UNL     1      -3.972   3.673  -3.577  1.00  0.00     0.202 C 
BRANCH   4   5
ATOM      5  C   UNL     1      -3.238   4.878  -2.944  1.00  0.00     0.261 C 
BRANCH   5   6
ATOM      6  O   UNL     1      -2.395   4.670  -1.792  1.00  0.00    -0.463 OA
BRANCH   6   7
ATOM      7  C   UNL     1      -2.919   4.945  -0.575  1.00  0.00     0.316 C 
ATOM      8  O   UNL     1      -4.060   5.380  -0.432  1.00  0.00    -0.251 OA
BRANCH   7   9
ATOM      9  C   UNL     1      -2.022   4.705   0.639  1.00  0.00     0.197 C 
BRANCH   9  10
ATOM     10  S   UNL     1      -0.410   3.843   0.467  1.00  0.00    -0.114 SA
BRANCH  10  11
ATOM     11  C   UNL     1      -0.598   2.097   1.022  1.00  0.00     0.019 A 
ATOM     12  C   UNL     1      -3.370  -0.448   1.481  1.00  0.00     0.067 C 
ATOM     13  C   UNL     1      -2.013   0.187   1.399  1.00  0.00     0.039 A 
ATOM     14  C   UNL     1      -1.856   1.569   1.349  1.00  0.00     0.039 A 
ATOM     15  N   UNL     1      -0.985  -0.671   1.263  1.00  0.00    -0.253 NA
ATOM     16  C   UNL     1       0.234  -0.191   1.012  1.00  0.00     0.072 A 
ATOM     17  C   UNL     1       0.514   1.188   0.867  1.00  0.00     0.014 A 
ATOM     18  C   UNL     1       1.230  -1.139   0.823  1.00  0.00     0.029 A 
ATOM     19  C   UNL     1       1.861   1.530   0.534  1.00  0.00     0.024 A 
ATOM     20  C   UNL     1       2.532  -0.786   0.482  1.00  0.00     0.015 A 
ATOM     21  C   UNL     1       2.868   0.558   0.344  1.00  0.00     0.056 A 
BRANCH  21  22
ATOM     22  C   UNL     1       4.282   0.959  -0.005  1.00  0.00     0.416 C 
ATOM     23  F   UNL     1       4.359   1.639  -1.182  1.00  0.00    -0.166 F 
ATOM     24  F   UNL     1       4.841   1.767   0.937  1.00  0.00    -0.166 F 
ATOM     25  F   UNL     1       5.130  -0.101  -0.135  1.00  0.00    -0.166 F 
ENDBRANCH  21  22
ENDBRANCH  10  11
ENDBRANCH   9  10
ENDBRANCH   7   9
ENDBRANCH   6   7
ENDBRANCH   5   6
ENDBRANCH   4   5
ENDBRANCH   3   4
ENDBRANCH   2   3
ENDBRANCH   1   2
BRANCH   1  26
ATOM     26  O   UNL     1      -1.147   1.063  -2.944  1.00  0.00    -0.377 OA
BRANCH  26  27
ATOM     27  C   UNL     1      -1.630   1.112  -4.253  1.00  0.00     0.188 C 
BRANCH  27  28
ATOM     28  C   UNL     1      -2.560  -0.063  -4.547  1.00  0.00     0.188 C 
BRANCH  28  29
ATOM     29  O   UNL     1      -3.088  -0.878  -3.511  1.00  0.00    -0.376 OA
BRANCH  29  30
ATOM     30  C   UNL     1      -2.331  -1.345  -2.402  1.00  0.00     0.202 C 
BRANCH  30  31
ATOM     31  C   UNL     1      -0.877  -1.846  -2.447  1.00  0.00     0.261 C 
BRANCH  31  32
ATOM     32  O   UNL     1      -0.024  -1.306  -3.445  1.00  0.00    -0.460 OA
BRANCH  32  33
ATOM     33  C   UNL     1       0.058  -2.015  -4.584  1.00  0.00     0.338 C 
ATOM     34  O   UNL     1      -0.492  -3.068  -4.861  1.00  0.00    -0.246 OA
BRANCH  33  35
ATOM     35  C   UNL     1       0.791  -1.177  -5.541  1.00  0.00     0.060 A 
ATOM     36  C   UNL     1       0.136  -0.815  -6.723  1.00  0.00     0.016 A 
ATOM     37  C   UNL     1       2.076  -0.710  -5.250  1.00  0.00     0.016 A 
ATOM     38  C   UNL     1       0.764   0.027  -7.626  1.00  0.00     0.010 A 
ATOM     39  C   UNL     1       2.731   0.089  -6.183  1.00  0.00     0.010 A 
ATOM     40  C   UNL     1       2.082   0.429  -7.382  1.00  0.00    -0.014 A 
BRANCH  40  41
ATOM     41  C   UNL     1       2.859   0.946  -8.520  1.00  0.00     0.031 A 
ATOM     42  C   UNL     1       3.609  -0.059  -9.342  1.00  0.00     0.074 A 
ATOM     43  C   UNL     1       2.830   2.248  -8.841  1.00  0.00     0.049 A 
ATOM     44  N   UNL     1       4.379   0.122 -10.380  1.00  0.00    -0.248 NA
ATOM     45  C   UNL     1       3.463  -1.470  -8.939  1.00  0.00     0.031 C 
ATOM     46  C   UNL     1       2.067   3.276  -8.137  1.00  0.00     0.029 A 
ATOM     47  N   UNL     1       3.464   2.923  -9.849  1.00  0.00    -0.354 N 
ATOM     48  C   UNL     1       4.807  -1.145 -10.749  1.00  0.00     0.074 A 
ATOM     49  C   UNL     1       4.243  -2.086  -9.811  1.00  0.00     0.031 C 
ATOM     50  C   UNL     1       2.292   4.463  -8.729  1.00  0.00     0.029 A 
ATOM     51  C   UNL     1       3.241   4.276  -9.825  1.00  0.00     0.049 A 
ATOM     52  H   UNL     1       4.026   2.480 -10.526  1.00  0.00     0.167 HD
ATOM     53  C   UNL     1       5.599  -1.488 -11.790  1.00  0.00     0.037 A 
ATOM     54  C   UNL     1       3.776   5.244 -10.592  1.00  0.00     0.037 A 
ATOM     55  C   UNL     1       6.165  -0.530 -12.697  1.00  0.00     0.049 A 
ATOM     56  C   UNL     1       4.744   4.845 -11.679  1.00  0.00     0.074 A 
ATOM     57  C   UNL     1       6.997  -0.749 -13.778  1.00  0.00     0.029 A 
ATOM     58  N   UNL     1       5.960   0.842 -12.614  1.00  0.00    -0.354 N 
ATOM     59  N   UNL     1       5.145   3.647 -12.034  1.00  0.00    -0.248 NA
ATOM     60  C   UNL     1       5.332   5.932 -12.473  1.00  0.00     0.031 C 
ATOM     61  C   UNL     1       7.344   0.495 -14.313  1.00  0.00     0.029 A 
ATOM     62  C   UNL     1       6.672   1.485 -13.611  1.00  0.00     0.049 A 
ATOM     63  H   UNL     1       5.392   1.289 -11.946  1.00  0.00     0.167 HD
ATOM     64  C   UNL     1       6.001   3.831 -13.112  1.00  0.00     0.074 A 
ATOM     65  C   UNL     1       6.053   5.258 -13.358  1.00  0.00     0.031 C 
ATOM     66  C   UNL     1       6.684   2.909 -13.836  1.00  0.00     0.037 A 
BRANCH  53  67
ATOM     67  C   UNL     1       5.927  -2.942 -11.960  1.00  0.00     0.064 A 
ATOM     68  C   UNL     1       4.957  -3.881 -12.345  1.00  0.00     0.173 A 
ATOM     69  C   UNL     1       7.233  -3.404 -11.737  1.00  0.00     0.173 A 
ATOM     70  F   UNL     1       3.688  -3.497 -12.547  1.00  0.00    -0.203 F 
ATOM     71  C   UNL     1       5.277  -5.231 -12.473  1.00  0.00     0.198 A 
ATOM     72  C   UNL     1       7.557  -4.747 -11.899  1.00  0.00     0.198 A 
ATOM     73  F   UNL     1       8.197  -2.550 -11.361  1.00  0.00    -0.203 F 
ATOM     74  F   UNL     1       4.322  -6.117 -12.787  1.00  0.00    -0.200 F 
ATOM     75  C   UNL     1       6.578  -5.661 -12.259  1.00  0.00     0.200 A 
ATOM     76  F   UNL     1       8.817  -5.159 -11.702  1.00  0.00    -0.200 F 
ATOM     77  F   UNL     1       6.886  -6.958 -12.390  1.00  0.00    -0.200 F 
ENDBRANCH  53  67
BRANCH  54  78
ATOM     78  C   UNL     1       3.434   6.670 -10.348  1.00  0.00     0.064 A 
ATOM     79  C   UNL     1       2.739   7.425 -11.303  1.00  0.00     0.173 A 
ATOM     80  C   UNL     1       3.816   7.317  -9.162  1.00  0.00     0.173 A 
ATOM     81  F   UNL     1       2.368   6.860 -12.461  1.00  0.00    -0.203 F 
ATOM     82  C   UNL     1       2.462   8.775 -11.093  1.00  0.00     0.198 A 
ATOM     83  C   UNL     1       3.510   8.658  -8.939  1.00  0.00     0.198 A 
ATOM     84  F   UNL     1       4.483   6.644  -8.213  1.00  0.00    -0.203 F 
ATOM     85  F   UNL     1       1.843   9.485 -12.046  1.00  0.00    -0.200 F 
ATOM     86  C   UNL     1       2.843   9.389  -9.909  1.00  0.00     0.200 A 
ATOM     87  F   UNL     1       3.866   9.242  -7.787  1.00  0.00    -0.200 F 
ATOM     88  F   UNL     1       2.575  10.686  -9.708  1.00  0.00    -0.200 F 
ENDBRANCH  54  78
BRANCH  66  89
ATOM     89  C   UNL     1       7.498   3.407 -14.995  1.00  0.00     0.064 A 
ATOM     90  C   UNL     1       8.685   4.129 -14.809  1.00  0.00     0.173 A 
ATOM     91  C   UNL     1       7.114   3.097 -16.309  1.00  0.00     0.173 A 
ATOM     92  F   UNL     1       9.088   4.461 -13.573  1.00  0.00    -0.203 F 
ATOM     93  C   UNL     1       9.446   4.544 -15.899  1.00  0.00     0.198 A 
ATOM     94  C   UNL     1       7.896   3.481 -17.393  1.00  0.00     0.198 A 
ATOM     95  F   UNL     1       5.992   2.399 -16.539  1.00  0.00    -0.203 F 
ATOM     96  F   UNL     1      10.552   5.275 -15.701  1.00  0.00    -0.200 F 
ATOM     97  C   UNL     1       9.057   4.210 -17.188  1.00  0.00     0.200 A 
ATOM     98  F   UNL     1       7.529   3.139 -18.636  1.00  0.00    -0.200 F 
ATOM     99  F   UNL     1       9.799   4.597 -18.234  1.00  0.00    -0.200 F 
ENDBRANCH  66  89
ENDBRANCH  40  41
ENDBRANCH  33  35
ENDBRANCH  32  33
ENDBRANCH  31  32
ENDBRANCH  30  31
ENDBRANCH  29  30
ENDBRANCH  28  29
ENDBRANCH  27  28
ENDBRANCH  26  27
ENDBRANCH   1  26
TORSDOF 23
