REMARK SMILES CCN(CC(C)(C)O)C(=O)N[C@@H](C(=O)OCCOCCOCCOCCOC(=O)c1ccc(-c2c3nc(c(-c4c(F)c(F)c(F)c(F)c4F)c4ccc([nH]4)c(-c4c(F)c(F)c(F)c(F)c4F)c4nc(c(-c5c(F)c(F)c(F)c(F)c5F)c5ccc2[nH]5)C=C4)C=C3)cc1)C(C)(C)C
REMARK SMILES IDX 19 1 18 2 17 3 16 4 15 5 13 6 14 7 12 8 11 9 9 10 10 11 3 13
REMARK SMILES IDX 2 14 1 15 4 16 5 17 6 18 7 19 8 20 93 22 94 23 95 24 96 25
REMARK SMILES IDX 20 26 21 27 22 28 23 29 24 30 25 31 26 32 27 33 28 34 29 35
REMARK SMILES IDX 30 36 31 37 92 38 32 39 91 40 33 41 34 42 35 43 85 44 36 45
REMARK SMILES IDX 90 46 84 47 86 48 37 49 89 50 83 51 82 52 38 54 70 55 50 56
REMARK SMILES IDX 69 57 51 58 54 59 68 60 87 61 52 62 53 63 67 65 88 66 55 67
REMARK SMILES IDX 39 68 40 69 48 70 41 71 42 72 46 73 49 74 43 75 44 76 47 77
REMARK SMILES IDX 45 78 71 79 72 80 80 81 73 82 74 83 78 84 81 85 75 86 76 87
REMARK SMILES IDX 79 88 77 89 56 90 57 91 65 92 58 93 59 94 63 95 66 96 60 97
REMARK SMILES IDX 61 98 64 99 62 100
REMARK H PARENT 11 12 8 21 86 53 54 64
REMARK Flexibility Score: inf
ROOT
ATOM      1  C   UNL     1       4.356  -7.876  -0.109  1.00  0.00     0.188 C 
ENDROOT
BRANCH   1   2
ATOM      2  O   UNL     1       3.994  -8.918  -1.001  1.00  0.00    -0.376 OA
BRANCH   2   3
ATOM      3  C   UNL     1       2.982  -8.682  -1.970  1.00  0.00     0.202 C 
BRANCH   3   4
ATOM      4  C   UNL     1       1.723  -7.855  -1.640  1.00  0.00     0.261 C 
BRANCH   4   5
ATOM      5  O   UNL     1       1.917  -6.644  -0.876  1.00  0.00    -0.462 OA
BRANCH   5   6
ATOM      6  C   UNL     1       1.334  -6.569   0.345  1.00  0.00     0.329 C 
ATOM      7  O   UNL     1       0.678  -7.491   0.819  1.00  0.00    -0.250 OA
BRANCH   6   8
ATOM      8  C   UNL     1       1.522  -5.192   1.082  1.00  0.00     0.199 C 
BRANCH   8   9
ATOM      9  N   UNL     1       2.233  -4.088   0.386  1.00  0.00    -0.324 N 
ATOM     10  C   UNL     1       1.991  -2.886  -0.162  1.00  0.00     0.318 C 
ATOM     11  O   UNL     1       3.016  -2.247  -0.433  1.00  0.00    -0.249 OA
ATOM     12  H   UNL     1       3.189  -4.309   0.299  1.00  0.00     0.166 HD
BRANCH  10  13
ATOM     13  N   UNL     1       0.751  -2.382  -0.428  1.00  0.00    -0.322 N 
BRANCH  13  14
ATOM     14  C   UNL     1       0.694  -1.041  -1.034  1.00  0.00     0.118 C 
ATOM     15  C   UNL     1       0.993   0.070  -0.035  1.00  0.00     0.027 C 
ENDBRANCH  13  14
BRANCH  13  16
ATOM     16  C   UNL     1      -0.535  -3.076  -0.370  1.00  0.00     0.155 C 
BRANCH  16  17
ATOM     17  C   UNL     1      -0.843  -3.999  -1.587  1.00  0.00     0.077 C 
ATOM     18  C   UNL     1       0.366  -4.363  -2.458  1.00  0.00     0.043 C 
ATOM     19  C   UNL     1      -1.591  -5.249  -1.106  1.00  0.00     0.043 C 
BRANCH  17  20
ATOM     20  O   UNL     1      -1.747  -3.287  -2.454  1.00  0.00    -0.389 OA
ATOM     21  H   UNL     1      -1.314  -2.484  -2.784  1.00  0.00     0.211 HD
ENDBRANCH  17  20
ENDBRANCH  16  17
ENDBRANCH  13  16
ENDBRANCH  10  13
ENDBRANCH   8   9
BRANCH   8  22
ATOM     22  C   UNL     1       2.056  -5.328   2.564  1.00  0.00    -0.007 C 
ATOM     23  C   UNL     1       1.907  -3.961   3.270  1.00  0.00     0.013 C 
ATOM     24  C   UNL     1       1.220  -6.356   3.353  1.00  0.00     0.013 C 
ATOM     25  C   UNL     1       3.536  -5.736   2.682  1.00  0.00     0.013 C 
ENDBRANCH   8  22
ENDBRANCH   6   8
ENDBRANCH   5   6
ENDBRANCH   4   5
ENDBRANCH   3   4
ENDBRANCH   2   3
ENDBRANCH   1   2
BRANCH   1  26
ATOM     26  C   UNL     1       4.645  -6.462  -0.653  1.00  0.00     0.188 C 
BRANCH  26  27
ATOM     27  O   UNL     1       4.327  -6.273  -2.019  1.00  0.00    -0.377 OA
BRANCH  27  28
ATOM     28  C   UNL     1       5.396  -6.457  -2.937  1.00  0.00     0.188 C 
BRANCH  28  29
ATOM     29  C   UNL     1       6.416  -7.569  -2.618  1.00  0.00     0.188 C 
BRANCH  29  30
ATOM     30  O   UNL     1       6.953  -7.498  -1.306  1.00  0.00    -0.376 OA
BRANCH  30  31
ATOM     31  C   UNL     1       8.179  -6.826  -1.066  1.00  0.00     0.202 C 
BRANCH  31  32
ATOM     32  C   UNL     1       8.316  -5.340  -1.435  1.00  0.00     0.261 C 
BRANCH  32  33
ATOM     33  O   UNL     1       8.001  -4.971  -2.784  1.00  0.00    -0.460 OA
BRANCH  33  34
ATOM     34  C   UNL     1       8.668  -5.567  -3.791  1.00  0.00     0.338 C 
ATOM     35  O   UNL     1       9.582  -6.370  -3.704  1.00  0.00    -0.246 OA
BRANCH  34  36
ATOM     36  C   UNL     1       7.948  -5.234  -5.038  1.00  0.00     0.060 A 
ATOM     37  C   UNL     1       7.385  -6.266  -5.803  1.00  0.00     0.016 A 
ATOM     38  C   UNL     1       7.799  -3.902  -5.428  1.00  0.00     0.016 A 
ATOM     39  C   UNL     1       6.687  -5.968  -6.973  1.00  0.00     0.010 A 
ATOM     40  C   UNL     1       7.133  -3.607  -6.617  1.00  0.00     0.010 A 
ATOM     41  C   UNL     1       6.600  -4.641  -7.408  1.00  0.00    -0.014 A 
BRANCH  41  42
ATOM     42  C   UNL     1       6.157  -4.343  -8.788  1.00  0.00     0.031 A 
ATOM     43  C   UNL     1       7.215  -4.170  -9.840  1.00  0.00     0.074 A 
ATOM     44  C   UNL     1       4.856  -4.219  -9.098  1.00  0.00     0.049 A 
ATOM     45  N   UNL     1       7.100  -3.781 -11.083  1.00  0.00    -0.248 NA
ATOM     46  C   UNL     1       8.596  -4.471  -9.427  1.00  0.00     0.031 C 
ATOM     47  C   UNL     1       3.743  -4.425  -8.177  1.00  0.00     0.029 A 
ATOM     48  N   UNL     1       4.257  -3.865 -10.282  1.00  0.00    -0.354 N 
ATOM     49  C   UNL     1       8.391  -3.776 -11.593  1.00  0.00     0.074 A 
ATOM     50  C   UNL     1       9.277  -4.177 -10.523  1.00  0.00     0.031 C 
ATOM     51  C   UNL     1       2.592  -4.167  -8.823  1.00  0.00     0.029 A 
ATOM     52  C   UNL     1       2.894  -3.735 -10.187  1.00  0.00     0.049 A 
ATOM     53  H   UNL     1       4.757  -3.719 -11.118  1.00  0.00     0.167 HD
ATOM     54  C   UNL     1       8.798  -3.465 -12.845  1.00  0.00     0.037 A 
ATOM     55  C   UNL     1       2.004  -3.277 -11.090  1.00  0.00     0.037 A 
ATOM     56  C   UNL     1       7.908  -3.060 -13.900  1.00  0.00     0.049 A 
ATOM     57  C   UNL     1       2.494  -2.837 -12.448  1.00  0.00     0.074 A 
ATOM     58  C   UNL     1       8.214  -2.740 -15.210  1.00  0.00     0.029 A 
ATOM     59  N   UNL     1       6.537  -2.905 -13.757  1.00  0.00    -0.354 N 
ATOM     60  N   UNL     1       3.711  -2.855 -12.938  1.00  0.00    -0.248 NA
ATOM     61  C   UNL     1       1.486  -2.307 -13.378  1.00  0.00     0.031 C 
ATOM     62  C   UNL     1       7.037  -2.327 -15.842  1.00  0.00     0.029 A 
ATOM     63  C   UNL     1       5.987  -2.456 -14.946  1.00  0.00     0.049 A 
ATOM     64  H   UNL     1       6.030  -3.087 -12.933  1.00  0.00     0.167 HD
ATOM     65  C   UNL     1       3.611  -2.369 -14.236  1.00  0.00     0.074 A 
ATOM     66  C   UNL     1       2.211  -2.077 -14.464  1.00  0.00     0.031 C 
ATOM     67  C   UNL     1       4.588  -2.180 -15.157  1.00  0.00     0.037 A 
BRANCH  54  68
ATOM     68  C   UNL     1      10.271  -3.510 -13.129  1.00  0.00     0.064 A 
ATOM     69  C   UNL     1      10.980  -4.719 -13.177  1.00  0.00     0.173 A 
ATOM     70  C   UNL     1      10.978  -2.325 -13.382  1.00  0.00     0.173 A 
ATOM     71  F   UNL     1      10.356  -5.880 -12.924  1.00  0.00    -0.203 F 
ATOM     72  C   UNL     1      12.347  -4.738 -13.442  1.00  0.00     0.198 A 
ATOM     73  C   UNL     1      12.337  -2.349 -13.681  1.00  0.00     0.198 A 
ATOM     74  F   UNL     1      10.348  -1.141 -13.349  1.00  0.00    -0.203 F 
ATOM     75  F   UNL     1      13.015  -5.900 -13.432  1.00  0.00    -0.200 F 
ATOM     76  C   UNL     1      13.022  -3.554 -13.703  1.00  0.00     0.200 A 
ATOM     77  F   UNL     1      12.984  -1.206 -13.946  1.00  0.00    -0.200 F 
ATOM     78  F   UNL     1      14.336  -3.575 -13.967  1.00  0.00    -0.200 F 
ENDBRANCH  54  68
BRANCH  55  79
ATOM     79  C   UNL     1       0.563  -3.176 -10.734  1.00  0.00     0.064 A 
ATOM     80  C   UNL     1      -0.398  -3.969 -11.376  1.00  0.00     0.173 A 
ATOM     81  C   UNL     1       0.113  -2.267  -9.764  1.00  0.00     0.173 A 
ATOM     82  F   UNL     1      -0.023  -4.834 -12.329  1.00  0.00    -0.203 F 
ATOM     83  C   UNL     1      -1.754  -3.843 -11.077  1.00  0.00     0.198 A 
ATOM     84  C   UNL     1      -1.239  -2.165  -9.442  1.00  0.00     0.198 A 
ATOM     85  F   UNL     1       0.989  -1.480  -9.122  1.00  0.00    -0.203 F 
ATOM     86  F   UNL     1      -2.655  -4.577 -11.744  1.00  0.00    -0.200 F 
ATOM     87  C   UNL     1      -2.172  -2.946 -10.106  1.00  0.00     0.200 A 
ATOM     88  F   UNL     1      -1.637  -1.308  -8.493  1.00  0.00    -0.200 F 
ATOM     89  F   UNL     1      -3.475  -2.829  -9.816  1.00  0.00    -0.200 F 
ENDBRANCH  55  79
BRANCH  67  90
ATOM     90  C   UNL     1       4.184  -1.666 -16.509  1.00  0.00     0.064 A 
ATOM     91  C   UNL     1       3.767  -0.341 -16.701  1.00  0.00     0.173 A 
ATOM     92  C   UNL     1       4.285  -2.492 -17.640  1.00  0.00     0.173 A 
ATOM     93  F   UNL     1       3.641   0.486 -15.652  1.00  0.00    -0.203 F 
ATOM     94  C   UNL     1       3.450   0.133 -17.972  1.00  0.00     0.198 A 
ATOM     95  C   UNL     1       4.001  -2.006 -18.913  1.00  0.00     0.198 A 
ATOM     96  F   UNL     1       4.687  -3.766 -17.514  1.00  0.00    -0.203 F 
ATOM     97  F   UNL     1       3.016   1.391 -18.126  1.00  0.00    -0.200 F 
ATOM     98  C   UNL     1       3.579  -0.696 -19.077  1.00  0.00     0.200 A 
ATOM     99  F   UNL     1       4.144  -2.802 -19.981  1.00  0.00    -0.200 F 
ATOM    100  F   UNL     1       3.291  -0.232 -20.301  1.00  0.00    -0.200 F 
ENDBRANCH  67  90
ENDBRANCH  41  42
ENDBRANCH  34  36
ENDBRANCH  33  34
ENDBRANCH  32  33
ENDBRANCH  31  32
ENDBRANCH  30  31
ENDBRANCH  29  30
ENDBRANCH  28  29
ENDBRANCH  27  28
ENDBRANCH  26  27
ENDBRANCH   1  26
TORSDOF 27
