REMARK SMILES O=C(OCCOCCOCCOCCOC(=O)[C@@H](CCCCl)[P@TB4](=O)(c1ccccc1)c1ccccc1)c1ccc(-c2c3nc(c(-c4c(F)c(F)c(F)c(F)c4F)c4ccc([nH]4)c(-c4c(F)c(F)c(F)c(F)c4F)c4nc(c(-c5c(F)c(F)c(F)c(F)c5F)c5ccc2[nH]5)C=C4)C=C3)cc1
REMARK SMILES IDX 10 1 9 2 8 3 7 4 6 5 5 6 4 7 3 8 2 9 1 10 37 11 38 12 99 13
REMARK SMILES IDX 39 14 98 15 40 16 41 17 42 18 92 19 43 20 97 21 91 22 93 23
REMARK SMILES IDX 44 24 96 25 90 26 89 27 45 29 77 30 57 31 76 32 58 33 61 34
REMARK SMILES IDX 75 35 94 36 59 37 60 38 74 40 95 41 62 42 46 43 47 44 55 45
REMARK SMILES IDX 48 46 49 47 53 48 56 49 50 50 51 51 54 52 52 53 78 54 79 55
REMARK SMILES IDX 87 56 80 57 81 58 85 59 88 60 82 61 83 62 86 63 84 64 63 65
REMARK SMILES IDX 64 66 72 67 65 68 66 69 70 70 73 71 67 72 68 73 71 74 69 75
REMARK SMILES IDX 11 76 12 77 13 78 14 79 15 80 16 81 17 82 18 83 19 84 20 85
REMARK SMILES IDX 21 86 22 87 23 88 24 89 25 90 26 91 30 92 27 93 29 94 28 95
REMARK SMILES IDX 31 96 32 97 36 98 33 99 35 100 34 101
REMARK H PARENT 93 28 61 39
REMARK Flexibility Score: inf
ROOT
ATOM      1  C   UNL     1       4.879  -2.335   0.985  1.00  0.00       nan C 
ENDROOT
BRANCH   1   2
ATOM      2  O   UNL     1       3.615  -2.461   1.637  1.00  0.00       nan OA
BRANCH   2   3
ATOM      3  C   UNL     1       2.420  -1.913   1.094  1.00  0.00       nan C 
BRANCH   3   4
ATOM      4  C   UNL     1       2.471  -0.403   1.059  1.00  0.00       nan C 
BRANCH   4   5
ATOM      5  O   UNL     1       3.642  -0.087   0.359  1.00  0.00       inf OA
BRANCH   5   6
ATOM      6  C   UNL     1       4.532   0.912   0.780  1.00  0.00     0.202 C 
BRANCH   6   7
ATOM      7  C   UNL     1       3.938   2.290   0.787  1.00  0.00     0.261 C 
BRANCH   7   8
ATOM      8  O   UNL     1       2.782   2.591  -0.033  1.00  0.00    -0.460 OA
BRANCH   8   9
ATOM      9  C   UNL     1       2.126   1.933  -1.014  1.00  0.00     0.338 C 
ATOM     10  O   UNL     1       0.896   1.964  -1.042  1.00  0.00    -0.246 OA
BRANCH   9  11
ATOM     11  C   UNL     1       2.824   1.461  -2.238  1.00  0.00     0.060 A 
ATOM     12  C   UNL     1       3.841   0.515  -2.273  1.00  0.00     0.016 A 
ATOM     13  C   UNL     1       2.317   1.911  -3.465  1.00  0.00     0.016 A 
ATOM     14  C   UNL     1       4.454   0.130  -3.436  1.00  0.00     0.010 A 
ATOM     15  C   UNL     1       2.881   1.478  -4.668  1.00  0.00     0.010 A 
ATOM     16  C   UNL     1       3.985   0.619  -4.637  1.00  0.00    -0.014 A 
BRANCH  16  17
ATOM     17  C   UNL     1       4.862   0.384  -5.782  1.00  0.00     0.031 A 
ATOM     18  C   UNL     1       5.706   1.538  -6.214  1.00  0.00     0.074 A 
ATOM     19  C   UNL     1       5.069  -0.871  -6.214  1.00  0.00     0.049 A 
ATOM     20  N   UNL     1       6.495   1.647  -7.243  1.00  0.00    -0.248 NA
ATOM     21  C   UNL     1       5.674   2.734  -5.348  1.00  0.00     0.031 C 
ATOM     22  C   UNL     1       4.466  -2.080  -5.637  1.00  0.00     0.029 A 
ATOM     23  N   UNL     1       5.885  -1.346  -7.199  1.00  0.00    -0.354 N 
ATOM     24  C   UNL     1       6.998   2.938  -7.183  1.00  0.00     0.074 A 
ATOM     25  C   UNL     1       6.451   3.574  -6.010  1.00  0.00     0.031 C 
ATOM     26  C   UNL     1       4.944  -3.158  -6.278  1.00  0.00     0.029 A 
ATOM     27  C   UNL     1       5.795  -2.705  -7.368  1.00  0.00     0.049 A 
ATOM     28  H   UNL     1       6.478  -0.771  -7.735  1.00  0.00     0.167 HD
ATOM     29  C   UNL     1       7.831   3.530  -8.065  1.00  0.00     0.037 A 
ATOM     30  C   UNL     1       6.301  -3.467  -8.353  1.00  0.00     0.037 A 
ATOM     31  C   UNL     1       8.341   2.833  -9.211  1.00  0.00     0.049 A 
ATOM     32  C   UNL     1       7.094  -2.754  -9.416  1.00  0.00     0.074 A 
ATOM     33  C   UNL     1       9.090   3.314 -10.264  1.00  0.00     0.029 A 
ATOM     34  N   UNL     1       8.138   1.474  -9.440  1.00  0.00    -0.354 N 
ATOM     35  N   UNL     1       7.455  -1.491  -9.469  1.00  0.00    -0.248 NA
ATOM     36  C   UNL     1       7.524  -3.552 -10.566  1.00  0.00     0.031 C 
ATOM     37  C   UNL     1       9.297   2.255 -11.155  1.00  0.00     0.029 A 
ATOM     38  C   UNL     1       8.732   1.100 -10.628  1.00  0.00     0.049 A 
ATOM     39  H   UNL     1       7.644   0.869  -8.841  1.00  0.00     0.167 HD
ATOM     40  C   UNL     1       8.171  -1.344 -10.645  1.00  0.00     0.074 A 
ATOM     41  C   UNL     1       8.208  -2.657 -11.265  1.00  0.00     0.031 C 
ATOM     42  C   UNL     1       8.743  -0.234 -11.177  1.00  0.00     0.037 A 
BRANCH  29  43
ATOM     43  C   UNL     1       8.103   4.989  -7.867  1.00  0.00     0.064 A 
ATOM     44  C   UNL     1       8.889   5.470  -6.808  1.00  0.00     0.173 A 
ATOM     45  C   UNL     1       7.488   5.931  -8.706  1.00  0.00     0.173 A 
ATOM     46  F   UNL     1       9.460   4.614  -5.947  1.00  0.00    -0.203 F 
ATOM     47  C   UNL     1       9.023   6.839  -6.580  1.00  0.00     0.198 A 
ATOM     48  C   UNL     1       7.647   7.297  -8.492  1.00  0.00     0.198 A 
ATOM     49  F   UNL     1       6.706   5.525  -9.717  1.00  0.00    -0.203 F 
ATOM     50  F   UNL     1       9.717   7.276  -5.520  1.00  0.00    -0.200 F 
ATOM     51  C   UNL     1       8.405   7.750  -7.424  1.00  0.00     0.200 A 
ATOM     52  F   UNL     1       7.043   8.175  -9.305  1.00  0.00    -0.200 F 
ATOM     53  F   UNL     1       8.522   9.066  -7.194  1.00  0.00    -0.200 F 
ENDBRANCH  29  43
BRANCH  30  54
ATOM     54  C   UNL     1       5.996  -4.921  -8.427  1.00  0.00     0.064 A 
ATOM     55  C   UNL     1       7.013  -5.882  -8.368  1.00  0.00     0.173 A 
ATOM     56  C   UNL     1       4.678  -5.384  -8.583  1.00  0.00     0.173 A 
ATOM     57  F   UNL     1       8.291  -5.497  -8.238  1.00  0.00    -0.203 F 
ATOM     58  C   UNL     1       6.729  -7.244  -8.484  1.00  0.00     0.198 A 
ATOM     59  C   UNL     1       4.391  -6.746  -8.664  1.00  0.00     0.198 A 
ATOM     60  F   UNL     1       3.660  -4.513  -8.650  1.00  0.00    -0.203 F 
ATOM     61  F   UNL     1       7.728  -8.137  -8.477  1.00  0.00    -0.200 F 
ATOM     62  C   UNL     1       5.418  -7.674  -8.627  1.00  0.00     0.200 A 
ATOM     63  F   UNL     1       3.121  -7.155  -8.787  1.00  0.00    -0.200 F 
ATOM     64  F   UNL     1       5.147  -8.981  -8.740  1.00  0.00    -0.200 F 
ENDBRANCH  30  54
BRANCH  42  65
ATOM     65  C   UNL     1       9.493  -0.420 -12.458  1.00  0.00     0.064 A 
ATOM     66  C   UNL     1       8.830  -0.630 -13.674  1.00  0.00     0.173 A 
ATOM     67  C   UNL     1      10.892  -0.319 -12.469  1.00  0.00     0.173 A 
ATOM     68  F   UNL     1       7.494  -0.748 -13.704  1.00  0.00    -0.203 F 
ATOM     69  C   UNL     1       9.546  -0.754 -14.859  1.00  0.00     0.198 A 
ATOM     70  C   UNL     1      11.601  -0.408 -13.659  1.00  0.00     0.198 A 
ATOM     71  F   UNL     1      11.564  -0.109 -11.327  1.00  0.00    -0.203 F 
ATOM     72  F   UNL     1       8.900  -1.001 -16.006  1.00  0.00    -0.200 F 
ATOM     73  C   UNL     1      10.929  -0.632 -14.852  1.00  0.00     0.200 A 
ATOM     74  F   UNL     1      12.934  -0.270 -13.654  1.00  0.00    -0.200 F 
ATOM     75  F   UNL     1      11.616  -0.735 -15.997  1.00  0.00    -0.200 F 
ENDBRANCH  42  65
ENDBRANCH  16  17
ENDBRANCH   9  11
ENDBRANCH   8   9
ENDBRANCH   7   8
ENDBRANCH   6   7
ENDBRANCH   5   6
ENDBRANCH   4   5
ENDBRANCH   3   4
ENDBRANCH   2   3
ENDBRANCH   1   2
BRANCH   1  76
ATOM     76  C   UNL     1       5.055  -2.840  -0.453  1.00  0.00       nan C 
BRANCH  76  77
ATOM     77  O   UNL     1       3.842  -3.005  -1.156  1.00  0.00       nan OA
BRANCH  77  78
ATOM     78  C   UNL     1       3.420  -4.339  -1.416  1.00  0.00       nan C 
BRANCH  78  79
ATOM     79  C   UNL     1       3.183  -5.346  -0.272  1.00  0.00       nan C 
BRANCH  79  80
ATOM     80  O   UNL     1       3.409  -4.876   1.057  1.00  0.00       nan OA
BRANCH  80  81
ATOM     81  C   UNL     1       4.639  -5.098   1.568  1.00  0.00       nan C 
ATOM     82  O   UNL     1       5.571  -5.548   0.891  1.00  0.00       nan OA
BRANCH  81  83
ATOM     83  C   UNL     1       4.828  -4.787   3.053  1.00  0.00       nan C 
BRANCH  83  84
ATOM     84  C   UNL     1       4.208  -3.648   3.941  1.00  0.00       nan C 
BRANCH  84  85
ATOM     85  C   UNL     1       2.666  -3.547   4.099  1.00  0.00       nan C 
BRANCH  85  86
ATOM     86  C   UNL     1       1.997  -4.217   5.307  1.00  0.00       nan C 
ATOM     87  Cl  UNL     1       2.693  -3.687   6.856  1.00  0.00       nan Cl
ENDBRANCH  85  86
ENDBRANCH  84  85
ENDBRANCH  83  84
BRANCH  83  88
ATOM     88  P   UNL     1       4.218  -6.251   3.966  1.00  0.00       nan P 
ATOM     89  O   UNL     1       2.937  -6.318   3.107  1.00  0.00       nan OA
BRANCH  88  90
ATOM     90  C   UNL     1       5.694  -7.383   3.187  1.00  0.00       nan A 
ATOM     91  C   UNL     1       5.406  -8.549   2.453  1.00  0.00       nan A 
ATOM     92  C   UNL     1       7.035  -6.967   3.279  1.00  0.00       nan A 
ATOM     93  C   UNL     1       6.427  -9.299   1.863  1.00  0.00       nan A 
ATOM     94  C   UNL     1       8.039  -7.670   2.600  1.00  0.00       nan A 
ATOM     95  C   UNL     1       7.739  -8.844   1.910  1.00  0.00       nan A 
ENDBRANCH  88  90
BRANCH  88  96
ATOM     96  C   UNL     1       3.608  -7.715   4.880  1.00  0.00       nan A 
ATOM     97  C   UNL     1       3.868  -7.688   6.266  1.00  0.00       nan A 
ATOM     98  C   UNL     1       2.901  -8.815   4.374  1.00  0.00       nan A 
ATOM     99  C   UNL     1       3.517  -8.757   7.091  1.00  0.00       nan A 
ATOM    100  C   UNL     1       2.603  -9.912   5.187  1.00  0.00       nan A 
ATOM    101  C   UNL     1       2.918  -9.886   6.544  1.00  0.00       nan A 
ENDBRANCH  88  96
ENDBRANCH  83  88
ENDBRANCH  81  83
ENDBRANCH  80  81
ENDBRANCH  79  80
ENDBRANCH  78  79
ENDBRANCH  77  78
ENDBRANCH  76  77
ENDBRANCH   1  76
TORSDOF 26
