REMARK SMILES O=C(NCc1ccc(C(=O)OCCOCCOCCOCCOC(=O)c2ccc(-c3c4nc(c(-c5c(F)c(F)c(F)c(F)c5F)c5ccc([nH]5)c(-c5c(F)c(F)c(F)c(F)c5F)c5nc(c(-c6c(F)c(F)c(F)c(F)c6F)c6ccc3[nH]6)C=C5)C=C4)cc2)cc1)Nc1ccccc1Br
REMARK SMILES IDX 16 1 15 2 14 3 13 4 12 5 11 6 9 7 10 8 8 9 5 10 6 11 90 12
REMARK SMILES IDX 7 13 89 14 4 15 3 16 1 17 2 18 91 19 92 22 93 23 97 24 94 25
REMARK SMILES IDX 96 26 98 27 95 28 17 29 18 30 19 31 20 32 21 33 22 34 23 35
REMARK SMILES IDX 24 36 25 37 26 38 27 39 88 40 28 41 87 42 29 43 30 44 31 45
REMARK SMILES IDX 81 46 32 47 86 48 80 49 82 50 33 51 85 52 79 53 78 54 34 56
REMARK SMILES IDX 66 57 46 58 65 59 47 60 50 61 64 62 83 63 48 64 49 65 63 67
REMARK SMILES IDX 84 68 51 69 35 70 36 71 44 72 37 73 38 74 42 75 45 76 39 77
REMARK SMILES IDX 40 78 43 79 41 80 67 81 68 82 76 83 69 84 70 85 74 86 77 87
REMARK SMILES IDX 71 88 72 89 75 90 73 91 52 92 53 93 61 94 54 95 55 96 59 97
REMARK SMILES IDX 62 98 56 99 57 100 60 101 58 102
REMARK H PARENT 3 20 91 21 82 55 50 66
REMARK Flexibility Score: inf
ROOT
ATOM      1  C   UNL     1       3.752   1.559   6.820  1.00  0.00     0.188 C 
ENDROOT
BRANCH   1   2
ATOM      2  C   UNL     1       4.878   0.995   7.713  1.00  0.00     0.188 C 
BRANCH   2   3
ATOM      3  O   UNL     1       5.342   1.914   8.687  1.00  0.00    -0.376 OA
BRANCH   3   4
ATOM      4  C   UNL     1       6.610   2.517   8.521  1.00  0.00     0.202 C 
BRANCH   4   5
ATOM      5  C   UNL     1       6.902   3.333   7.251  1.00  0.00     0.261 C 
BRANCH   5   6
ATOM      6  O   UNL     1       6.438   2.777   6.017  1.00  0.00    -0.460 OA
BRANCH   6   7
ATOM      7  C   UNL     1       7.127   1.724   5.528  1.00  0.00     0.338 C 
ATOM      8  O   UNL     1       8.123   1.220   6.016  1.00  0.00    -0.246 OA
BRANCH   7   9
ATOM      9  C   UNL     1       6.359   1.137   4.402  1.00  0.00     0.060 A 
ATOM     10  C   UNL     1       4.980  -0.073   2.279  1.00  0.00    -0.029 A 
ATOM     11  C   UNL     1       5.567  -0.858   3.281  1.00  0.00     0.006 A 
ATOM     12  C   UNL     1       5.016   1.326   2.397  1.00  0.00     0.006 A 
ATOM     13  C   UNL     1       6.264  -0.257   4.329  1.00  0.00     0.016 A 
ATOM     14  C   UNL     1       5.700   1.931   3.457  1.00  0.00     0.016 A 
BRANCH  10  15
ATOM     15  C   UNL     1       4.404  -0.724   1.049  1.00  0.00     0.153 C 
BRANCH  15  16
ATOM     16  N   UNL     1       2.964  -0.651   0.992  1.00  0.00    -0.334 N 
ATOM     17  O   UNL     1       0.932  -0.222   0.212  1.00  0.00    -0.248 OA
ATOM     18  C   UNL     1       2.143  -0.079   0.072  1.00  0.00     0.319 C 
ATOM     19  N   UNL     1       2.751   0.566  -0.969  1.00  0.00    -0.307 N 
ATOM     20  H   UNL     1       2.500  -1.087   1.743  1.00  0.00     0.165 HD
ATOM     21  H   UNL     1       3.724   0.447  -1.065  1.00  0.00     0.171 HD
BRANCH  19  22
ATOM     22  C   UNL     1       2.104   1.391  -1.919  1.00  0.00     0.057 A 
ATOM     23  C   UNL     1       2.596   1.300  -3.233  1.00  0.00     0.027 A 
ATOM     24  C   UNL     1       1.053   2.286  -1.658  1.00  0.00     0.041 A 
ATOM     25  C   UNL     1       1.996   2.006  -4.278  1.00  0.00     0.002 A 
ATOM     26  C   UNL     1       0.449   2.985  -2.714  1.00  0.00     0.018 A 
ATOM     27  Br  UNL     1       0.517   2.820   0.091  1.00  0.00    -0.049 Br
ATOM     28  C   UNL     1       0.909   2.833  -4.021  1.00  0.00     0.001 A 
ENDBRANCH  19  22
ENDBRANCH  15  16
ENDBRANCH  10  15
ENDBRANCH   7   9
ENDBRANCH   6   7
ENDBRANCH   5   6
ENDBRANCH   4   5
ENDBRANCH   3   4
ENDBRANCH   2   3
ENDBRANCH   1   2
BRANCH   1  29
ATOM     29  O   UNL     1       3.510   2.958   6.851  1.00  0.00    -0.377 OA
BRANCH  29  30
ATOM     30  C   UNL     1       3.281   3.615   8.097  1.00  0.00     0.188 C 
BRANCH  30  31
ATOM     31  C   UNL     1       2.873   2.850   9.381  1.00  0.00     0.188 C 
BRANCH  31  32
ATOM     32  O   UNL     1       2.497   1.501   9.176  1.00  0.00    -0.376 OA
BRANCH  32  33
ATOM     33  C   UNL     1       1.128   1.165   9.302  1.00  0.00     0.202 C 
BRANCH  33  34
ATOM     34  C   UNL     1       0.160   1.806   8.299  1.00  0.00     0.261 C 
BRANCH  34  35
ATOM     35  O   UNL     1       0.225   3.236   8.185  1.00  0.00    -0.460 OA
BRANCH  35  36
ATOM     36  C   UNL     1      -0.169   3.963   9.250  1.00  0.00     0.338 C 
ATOM     37  O   UNL     1      -0.576   3.547  10.324  1.00  0.00    -0.246 OA
BRANCH  36  38
ATOM     38  C   UNL     1       0.148   5.376   8.963  1.00  0.00     0.060 A 
ATOM     39  C   UNL     1       1.056   6.059   9.784  1.00  0.00     0.016 A 
ATOM     40  C   UNL     1      -0.441   6.018   7.871  1.00  0.00     0.016 A 
ATOM     41  C   UNL     1       1.354   7.399   9.531  1.00  0.00     0.010 A 
ATOM     42  C   UNL     1      -0.158   7.364   7.632  1.00  0.00     0.010 A 
ATOM     43  C   UNL     1       0.716   8.069   8.479  1.00  0.00    -0.014 A 
BRANCH  43  44
ATOM     44  C   UNL     1       0.808   9.545   8.370  1.00  0.00     0.031 A 
ATOM     45  C   UNL     1      -0.324  10.371   8.913  1.00  0.00     0.074 A 
ATOM     46  C   UNL     1       1.871  10.141   7.803  1.00  0.00     0.049 A 
ATOM     47  N   UNL     1      -0.514  11.664   8.860  1.00  0.00    -0.248 NA
ATOM     48  C   UNL     1      -1.392   9.633   9.607  1.00  0.00     0.031 C 
ATOM     49  C   UNL     1       3.048   9.453   7.280  1.00  0.00     0.029 A 
ATOM     50  N   UNL     1       2.119  11.470   7.559  1.00  0.00    -0.354 N 
ATOM     51  C   UNL     1      -1.725  11.892   9.502  1.00  0.00     0.074 A 
ATOM     52  C   UNL     1      -2.241  10.603   9.908  1.00  0.00     0.031 C 
ATOM     53  C   UNL     1       3.889  10.364   6.760  1.00  0.00     0.029 A 
ATOM     54  C   UNL     1       3.290  11.693   6.878  1.00  0.00     0.049 A 
ATOM     55  H   UNL     1       1.515  12.193   7.845  1.00  0.00     0.167 HD
ATOM     56  C   UNL     1      -2.347  13.072   9.736  1.00  0.00     0.037 A 
ATOM     57  C   UNL     1       3.800  12.838   6.381  1.00  0.00     0.037 A 
ATOM     58  C   UNL     1      -1.832  14.351   9.323  1.00  0.00     0.049 A 
ATOM     59  C   UNL     1       3.047  14.130   6.580  1.00  0.00     0.074 A 
ATOM     60  C   UNL     1      -2.376  15.606   9.526  1.00  0.00     0.029 A 
ATOM     61  N   UNL     1      -0.656  14.535   8.609  1.00  0.00    -0.354 N 
ATOM     62  N   UNL     1       1.917  14.345   7.210  1.00  0.00    -0.248 NA
ATOM     63  C   UNL     1       3.644  15.342   6.000  1.00  0.00     0.031 C 
ATOM     64  C   UNL     1      -1.565  16.544   8.880  1.00  0.00     0.029 A 
ATOM     65  C   UNL     1      -0.475  15.882   8.337  1.00  0.00     0.049 A 
ATOM     66  H   UNL     1      -0.041  13.816   8.337  1.00  0.00     0.167 HD
ATOM     67  C   UNL     1       1.686  15.713   7.132  1.00  0.00     0.074 A 
ATOM     68  C   UNL     1       2.802  16.281   6.405  1.00  0.00     0.031 C 
ATOM     69  C   UNL     1       0.647  16.435   7.620  1.00  0.00     0.037 A 
BRANCH  56  70
ATOM     70  C   UNL     1      -3.672  13.030  10.441  1.00  0.00     0.064 A 
ATOM     71  C   UNL     1      -3.782  12.673  11.794  1.00  0.00     0.173 A 
ATOM     72  C   UNL     1      -4.847  13.383   9.760  1.00  0.00     0.173 A 
ATOM     73  F   UNL     1      -2.692  12.313  12.488  1.00  0.00    -0.203 F 
ATOM     74  C   UNL     1      -5.021  12.642  12.429  1.00  0.00     0.198 A 
ATOM     75  C   UNL     1      -6.080  13.385  10.408  1.00  0.00     0.198 A 
ATOM     76  F   UNL     1      -4.800  13.736   8.466  1.00  0.00    -0.203 F 
ATOM     77  F   UNL     1      -5.107  12.247  13.707  1.00  0.00    -0.200 F 
ATOM     78  C   UNL     1      -6.167  13.007  11.738  1.00  0.00     0.200 A 
ATOM     79  F   UNL     1      -7.184  13.752   9.742  1.00  0.00    -0.200 F 
ATOM     80  F   UNL     1      -7.357  12.986  12.354  1.00  0.00    -0.200 F 
ENDBRANCH  56  70
BRANCH  57  81
ATOM     81  C   UNL     1       5.084  12.818   5.629  1.00  0.00     0.064 A 
ATOM     82  C   UNL     1       6.228  13.455   6.132  1.00  0.00     0.173 A 
ATOM     83  C   UNL     1       5.187  12.188   4.380  1.00  0.00     0.173 A 
ATOM     84  F   UNL     1       6.175  14.096   7.309  1.00  0.00    -0.203 F 
ATOM     85  C   UNL     1       7.417  13.481   5.405  1.00  0.00     0.198 A 
ATOM     86  C   UNL     1       6.386  12.186   3.669  1.00  0.00     0.198 A 
ATOM     87  F   UNL     1       4.122  11.569   3.849  1.00  0.00    -0.203 F 
ATOM     88  F   UNL     1       8.477  14.145   5.884  1.00  0.00    -0.200 F 
ATOM     89  C   UNL     1       7.497  12.841   4.177  1.00  0.00     0.200 A 
ATOM     90  F   UNL     1       6.461  11.556   2.489  1.00  0.00    -0.200 F 
ATOM     91  F   UNL     1       8.640  12.865   3.480  1.00  0.00    -0.200 F 
ENDBRANCH  57  81
BRANCH  69  92
ATOM     92  C   UNL     1       0.686  17.927   7.432  1.00  0.00     0.064 A 
ATOM     93  C   UNL     1       0.525  18.521   6.171  1.00  0.00     0.173 A 
ATOM     94  C   UNL     1       0.845  18.775   8.540  1.00  0.00     0.173 A 
ATOM     95  F   UNL     1       0.382  17.757   5.078  1.00  0.00    -0.203 F 
ATOM     96  C   UNL     1       0.552  19.906   6.023  1.00  0.00     0.198 A 
ATOM     97  C   UNL     1       0.834  20.159   8.393  1.00  0.00     0.198 A 
ATOM     98  F   UNL     1       0.993  18.261   9.770  1.00  0.00    -0.203 F 
ATOM     99  F   UNL     1       0.451  20.449   4.802  1.00  0.00    -0.200 F 
ATOM    100  C   UNL     1       0.697  20.724   7.134  1.00  0.00     0.200 A 
ATOM    101  F   UNL     1       0.955  20.947   9.470  1.00  0.00    -0.200 F 
ATOM    102  F   UNL     1       0.713  22.056   6.990  1.00  0.00    -0.200 F 
ENDBRANCH  69  92
ENDBRANCH  43  44
ENDBRANCH  36  38
ENDBRANCH  35  36
ENDBRANCH  34  35
ENDBRANCH  33  34
ENDBRANCH  32  33
ENDBRANCH  31  32
ENDBRANCH  30  31
ENDBRANCH  29  30
ENDBRANCH   1  29
TORSDOF 23
