REMARK SMILES O=C(OCCOCCOCCOCCOC(=O)c1ccc(-c2c3nc(c(-c4c(F)c(F)c(F)c(F)c4F)c4ccc([nH]4)c(-c4c(F)c(F)c(F)c(F)c4F)c4nc(c(-c5c(F)c(F)c(F)c(F)c5F)c5ccc2[nH]5)C=C4)C=C3)cc1)C1=Cc2cc(Cl)c(Cl)cc2O[C@@H]1C(F)(F)F
REMARK SMILES IDX 10 1 9 2 8 3 7 4 6 5 5 6 4 7 3 8 2 9 1 10 81 11 82 12 92 13
REMARK SMILES IDX 83 14 91 15 84 16 90 17 85 18 89 19 86 20 87 21 88 22 93 23
REMARK SMILES IDX 94 24 95 25 96 26 11 27 12 28 13 29 14 30 15 31 16 32 17 33
REMARK SMILES IDX 18 34 19 35 80 36 20 37 79 38 21 39 22 40 23 41 73 42 24 43
REMARK SMILES IDX 78 44 72 45 74 46 25 47 77 48 71 49 70 50 26 52 58 53 38 54
REMARK SMILES IDX 57 55 39 56 42 57 56 58 75 59 40 60 41 61 55 63 76 64 43 65
REMARK SMILES IDX 27 66 28 67 36 68 29 69 30 70 34 71 37 72 31 73 32 74 35 75
REMARK SMILES IDX 33 76 59 77 60 78 68 79 61 80 62 81 66 82 69 83 63 84 64 85
REMARK SMILES IDX 67 86 65 87 44 88 45 89 53 90 46 91 47 92 51 93 54 94 48 95
REMARK SMILES IDX 49 96 52 97 50 98
REMARK H PARENT 74 51 42 62
REMARK Flexibility Score: inf
ROOT
ATOM      1  C   UNL     1       3.172   1.596  -3.993  1.00  0.00     0.188 C 
ENDROOT
BRANCH   1   2
ATOM      2  O   UNL     1       1.866   2.022  -3.631  1.00  0.00    -0.377 OA
BRANCH   2   3
ATOM      3  C   UNL     1       1.146   1.131  -2.790  1.00  0.00     0.188 C 
BRANCH   3   4
ATOM      4  C   UNL     1       1.592   1.224  -1.339  1.00  0.00     0.188 C 
BRANCH   4   5
ATOM      5  O   UNL     1       2.961   0.896  -1.145  1.00  0.00    -0.376 OA
BRANCH   5   6
ATOM      6  C   UNL     1       3.368  -0.457  -1.278  1.00  0.00     0.202 C 
BRANCH   6   7
ATOM      7  C   UNL     1       2.834  -1.408  -0.208  1.00  0.00     0.261 C 
BRANCH   7   8
ATOM      8  O   UNL     1       2.269  -0.684   0.896  1.00  0.00    -0.460 OA
BRANCH   8   9
ATOM      9  C   UNL     1       2.759  -0.987   2.116  1.00  0.00     0.338 C 
ATOM     10  O   UNL     1       2.282  -1.857   2.827  1.00  0.00    -0.246 OA
BRANCH   9  11
ATOM     11  C   UNL     1       3.881  -0.101   2.532  1.00  0.00     0.087 C 
ATOM     12  C   UNL     1       4.908  -0.813   3.031  1.00  0.00     0.027 C 
ATOM     13  C   UNL     1       4.133   1.151   1.720  1.00  0.00     0.316 C 
ATOM     14  C   UNL     1       6.004  -0.943   2.057  1.00  0.00     0.019 A 
ATOM     15  O   UNL     1       5.378   1.135   0.966  1.00  0.00    -0.475 OA
ATOM     16  C   UNL     1       6.835  -2.066   2.096  1.00  0.00     0.034 A 
ATOM     17  C   UNL     1       6.143   0.001   1.036  1.00  0.00     0.129 A 
ATOM     18  C   UNL     1       7.755  -2.284   1.067  1.00  0.00     0.060 A 
ATOM     19  C   UNL     1       7.066  -0.211   0.013  1.00  0.00     0.069 A 
ATOM     20  Cl  UNL     1       8.717  -3.717   1.144  1.00  0.00    -0.083 Cl
ATOM     21  C   UNL     1       7.847  -1.372   0.007  1.00  0.00     0.063 A 
ATOM     22  Cl  UNL     1       8.859  -1.653  -1.365  1.00  0.00    -0.083 Cl
BRANCH  13  23
ATOM     23  C   UNL     1       3.995   2.419   2.564  1.00  0.00     0.430 C 
ATOM     24  F   UNL     1       3.785   3.507   1.786  1.00  0.00    -0.167 F 
ATOM     25  F   UNL     1       2.932   2.332   3.402  1.00  0.00    -0.167 F 
ATOM     26  F   UNL     1       5.088   2.655   3.321  1.00  0.00    -0.167 F 
ENDBRANCH  13  23
ENDBRANCH   9  11
ENDBRANCH   8   9
ENDBRANCH   7   8
ENDBRANCH   6   7
ENDBRANCH   5   6
ENDBRANCH   4   5
ENDBRANCH   3   4
ENDBRANCH   2   3
ENDBRANCH   1   2
BRANCH   1  27
ATOM     27  C   UNL     1       4.357   2.314  -3.304  1.00  0.00     0.188 C 
BRANCH  27  28
ATOM     28  O   UNL     1       4.346   3.694  -2.960  1.00  0.00    -0.376 OA
BRANCH  28  29
ATOM     29  C   UNL     1       3.286   4.523  -3.397  1.00  0.00     0.202 C 
BRANCH  29  30
ATOM     30  C   UNL     1       3.331   4.942  -4.874  1.00  0.00     0.261 C 
BRANCH  30  31
ATOM     31  O   UNL     1       3.663   3.877  -5.782  1.00  0.00    -0.460 OA
BRANCH  31  32
ATOM     32  C   UNL     1       4.969   3.790  -6.151  1.00  0.00     0.338 C 
ATOM     33  O   UNL     1       5.849   4.593  -5.932  1.00  0.00    -0.246 OA
BRANCH  32  34
ATOM     34  C   UNL     1       5.227   2.432  -6.712  1.00  0.00     0.060 A 
ATOM     35  C   UNL     1       6.373   1.749  -6.274  1.00  0.00     0.016 A 
ATOM     36  C   UNL     1       4.340   1.801  -7.589  1.00  0.00     0.016 A 
ATOM     37  C   UNL     1       6.636   0.445  -6.707  1.00  0.00     0.010 A 
ATOM     38  C   UNL     1       4.617   0.504  -8.044  1.00  0.00     0.010 A 
ATOM     39  C   UNL     1       5.778  -0.174  -7.623  1.00  0.00    -0.014 A 
BRANCH  39  40
ATOM     40  C   UNL     1       6.195  -1.417  -8.324  1.00  0.00     0.031 A 
ATOM     41  C   UNL     1       6.885  -1.268  -9.653  1.00  0.00     0.074 A 
ATOM     42  C   UNL     1       5.960  -2.646  -7.827  1.00  0.00     0.049 A 
ATOM     43  N   UNL     1       7.212  -2.181 -10.531  1.00  0.00    -0.248 NA
ATOM     44  C   UNL     1       7.249   0.103 -10.047  1.00  0.00     0.031 C 
ATOM     45  C   UNL     1       5.360  -2.938  -6.528  1.00  0.00     0.029 A 
ATOM     46  N   UNL     1       6.180  -3.887  -8.380  1.00  0.00    -0.354 N 
ATOM     47  C   UNL     1       7.795  -1.493 -11.586  1.00  0.00     0.074 A 
ATOM     48  C   UNL     1       7.776  -0.088 -11.246  1.00  0.00     0.031 C 
ATOM     49  C   UNL     1       5.226  -4.271  -6.399  1.00  0.00     0.029 A 
ATOM     50  C   UNL     1       5.690  -4.925  -7.624  1.00  0.00     0.049 A 
ATOM     51  H   UNL     1       6.646  -4.019  -9.238  1.00  0.00     0.167 HD
ATOM     52  C   UNL     1       8.299  -1.988 -12.740  1.00  0.00     0.037 A 
ATOM     53  C   UNL     1       5.585  -6.240  -7.910  1.00  0.00     0.037 A 
ATOM     54  C   UNL     1       8.335  -3.384 -13.078  1.00  0.00     0.049 A 
ATOM     55  C   UNL     1       6.078  -6.755  -9.245  1.00  0.00     0.074 A 
ATOM     56  C   UNL     1       8.872  -3.982 -14.204  1.00  0.00     0.029 A 
ATOM     57  N   UNL     1       7.803  -4.398 -12.298  1.00  0.00    -0.354 N 
ATOM     58  N   UNL     1       6.661  -6.105 -10.222  1.00  0.00    -0.248 NA
ATOM     59  C   UNL     1       5.884  -8.189  -9.521  1.00  0.00     0.031 C 
ATOM     60  C   UNL     1       8.607  -5.353 -14.137  1.00  0.00     0.029 A 
ATOM     61  C   UNL     1       7.957  -5.614 -12.942  1.00  0.00     0.049 A 
ATOM     62  H   UNL     1       7.378  -4.272 -11.419  1.00  0.00     0.167 HD
ATOM     63  C   UNL     1       6.923  -7.048 -11.210  1.00  0.00     0.074 A 
ATOM     64  C   UNL     1       6.455  -8.321 -10.710  1.00  0.00     0.031 C 
ATOM     65  C   UNL     1       7.494  -6.875 -12.427  1.00  0.00     0.037 A 
BRANCH  52  66
ATOM     66  C   UNL     1       8.820  -1.014 -13.752  1.00  0.00     0.064 A 
ATOM     67  C   UNL     1      10.042  -0.350 -13.578  1.00  0.00     0.173 A 
ATOM     68  C   UNL     1       8.116  -0.801 -14.946  1.00  0.00     0.173 A 
ATOM     69  F   UNL     1      10.742  -0.508 -12.445  1.00  0.00    -0.203 F 
ATOM     70  C   UNL     1      10.538   0.499 -14.565  1.00  0.00     0.198 A 
ATOM     71  C   UNL     1       8.627   0.027 -15.940  1.00  0.00     0.198 A 
ATOM     72  F   UNL     1       6.941  -1.414 -15.157  1.00  0.00    -0.203 F 
ATOM     73  F   UNL     1      11.695   1.145 -14.370  1.00  0.00    -0.200 F 
ATOM     74  C   UNL     1       9.836   0.677 -15.748  1.00  0.00     0.200 A 
ATOM     75  F   UNL     1       7.953   0.188 -17.087  1.00  0.00    -0.200 F 
ATOM     76  F   UNL     1      10.326   1.478 -16.705  1.00  0.00    -0.200 F 
ENDBRANCH  52  66
BRANCH  53  77
ATOM     77  C   UNL     1       4.924  -7.176  -6.956  1.00  0.00     0.064 A 
ATOM     78  C   UNL     1       5.630  -8.232  -6.360  1.00  0.00     0.173 A 
ATOM     79  C   UNL     1       3.550  -7.083  -6.686  1.00  0.00     0.173 A 
ATOM     80  F   UNL     1       6.938  -8.389  -6.613  1.00  0.00    -0.203 F 
ATOM     81  C   UNL     1       4.983  -9.174  -5.561  1.00  0.00     0.198 A 
ATOM     82  C   UNL     1       2.911  -8.005  -5.859  1.00  0.00     0.198 A 
ATOM     83  F   UNL     1       2.821  -6.100  -7.235  1.00  0.00    -0.203 F 
ATOM     84  F   UNL     1       5.668 -10.213  -5.064  1.00  0.00    -0.200 F 
ATOM     85  C   UNL     1       3.624  -9.058  -5.308  1.00  0.00     0.200 A 
ATOM     86  F   UNL     1       1.600  -7.882  -5.610  1.00  0.00    -0.200 F 
ATOM     87  F   UNL     1       3.001  -9.968  -4.548  1.00  0.00    -0.200 F 
ENDBRANCH  53  77
BRANCH  65  88
ATOM     88  C   UNL     1       7.670  -8.086 -13.298  1.00  0.00     0.064 A 
ATOM     89  C   UNL     1       6.579  -8.703 -13.927  1.00  0.00     0.173 A 
ATOM     90  C   UNL     1       8.952  -8.594 -13.563  1.00  0.00     0.173 A 
ATOM     91  F   UNL     1       5.332  -8.264 -13.697  1.00  0.00    -0.203 F 
ATOM     92  C   UNL     1       6.763  -9.792 -14.775  1.00  0.00     0.198 A 
ATOM     93  C   UNL     1       9.135  -9.663 -14.436  1.00  0.00     0.198 A 
ATOM     94  F   UNL     1      10.031  -8.034 -12.995  1.00  0.00    -0.203 F 
ATOM     95  F   UNL     1       5.701 -10.389 -15.335  1.00  0.00    -0.200 F 
ATOM     96  C   UNL     1       8.040 -10.264 -15.037  1.00  0.00     0.200 A 
ATOM     97  F   UNL     1      10.372 -10.106 -14.700  1.00  0.00    -0.200 F 
ATOM     98  F   UNL     1       8.216 -11.303 -15.866  1.00  0.00    -0.200 F 
ENDBRANCH  65  88
ENDBRANCH  39  40
ENDBRANCH  32  34
ENDBRANCH  31  32
ENDBRANCH  30  31
ENDBRANCH  29  30
ENDBRANCH  28  29
ENDBRANCH  27  28
ENDBRANCH   1  27
TORSDOF 21
