REMARK SMILES O=C(COCCNC(=O)c1cc(Cl)c2c(c1)OCCO2)OCCOCCOCCOCCOC(=O)c1ccc(-c2c3nc(c(-c4c(F)c(F)c(F)c(F)c4F)c4ccc([nH]4)c(-c4c(F)c(F)c(F)c(F)c4F)c4nc(c(-c5c(F)c(F)c(F)c(F)c5F)c5ccc2[nH]5)C=C4)C=C3)cc1
REMARK SMILES IDX 25 1 24 2 23 3 22 4 21 5 2 6 1 7 3 8 4 9 5 10 6 11 7 12 8 13
REMARK SMILES IDX 9 15 10 16 11 17 16 18 12 19 15 20 13 21 14 22 17 23 20 24
REMARK SMILES IDX 18 25 19 26 26 27 27 28 28 29 29 30 30 31 31 32 32 33 33 34
REMARK SMILES IDX 34 35 35 36 36 37 37 38 98 39 38 40 97 41 39 42 40 43 41 44
REMARK SMILES IDX 91 45 42 46 96 47 90 48 92 49 43 50 95 51 89 52 88 53 44 55
REMARK SMILES IDX 76 56 56 57 75 58 57 59 60 60 74 61 93 62 58 63 59 64 73 66
REMARK SMILES IDX 94 67 61 68 45 69 46 70 54 71 47 72 48 73 52 74 55 75 49 76
REMARK SMILES IDX 50 77 53 78 51 79 77 80 78 81 86 82 79 83 80 84 84 85 87 86
REMARK SMILES IDX 81 87 82 88 85 89 83 90 62 91 63 92 71 93 64 94 65 95 69 96
REMARK SMILES IDX 72 97 66 98 67 99 70 100 68 101
REMARK H PARENT 7 14 92 54 60 65
REMARK Flexibility Score: inf
ROOT
ATOM      1  C   UNL     1       2.895   1.090  -1.211  1.00  0.00     0.188 C 
ENDROOT
BRANCH   1   2
ATOM      2  O   UNL     1       4.280   1.036  -0.885  1.00  0.00    -0.376 OA
BRANCH   2   3
ATOM      3  C   UNL     1       5.132  -0.053  -0.575  1.00  0.00     0.202 C 
BRANCH   3   4
ATOM      4  C   UNL     1       4.686  -1.276   0.221  1.00  0.00     0.261 C 
BRANCH   4   5
ATOM      5  O   UNL     1       3.282  -1.381   0.392  1.00  0.00    -0.462 OA
BRANCH   5   6
ATOM      6  C   UNL     1       2.676  -0.695   1.390  1.00  0.00     0.332 C 
ATOM      7  O   UNL     1       1.516  -0.966   1.688  1.00  0.00    -0.250 OA
BRANCH   6   8
ATOM      8  C   UNL     1       3.444   0.480   2.029  1.00  0.00     0.282 C 
BRANCH   8   9
ATOM      9  O   UNL     1       3.671   0.415   3.417  1.00  0.00    -0.368 OA
BRANCH   9  10
ATOM     10  C   UNL     1       2.482   0.462   4.196  1.00  0.00     0.182 C 
BRANCH  10  11
ATOM     11  C   UNL     1       1.798   1.833   4.154  1.00  0.00     0.144 C 
BRANCH  11  12
ATOM     12  N   UNL     1       0.935   2.078   2.989  1.00  0.00    -0.350 N 
ATOM     13  C   UNL     1      -0.372   1.735   2.735  1.00  0.00     0.251 C 
ATOM     14  H   UNL     1       1.371   2.578   2.261  1.00  0.00     0.163 HD
ATOM     15  O   UNL     1      -0.839   1.879   1.609  1.00  0.00    -0.269 OA
BRANCH  13  16
ATOM     16  C   UNL     1      -1.218   1.226   3.830  1.00  0.00     0.045 A 
ATOM     17  C   UNL     1      -1.173   1.855   5.074  1.00  0.00     0.038 A 
ATOM     18  C   UNL     1      -2.071   0.141   3.622  1.00  0.00     0.064 A 
ATOM     19  C   UNL     1      -1.810   1.284   6.165  1.00  0.00     0.087 A 
ATOM     20  C   UNL     1      -2.783  -0.381   4.704  1.00  0.00     0.163 A 
ATOM     21  Cl  UNL     1      -1.545   1.987   7.718  1.00  0.00    -0.080 Cl
ATOM     22  C   UNL     1      -2.625   0.167   5.987  1.00  0.00     0.179 A 
ATOM     23  O   UNL     1      -3.623  -1.431   4.435  1.00  0.00    -0.486 OA
ATOM     24  O   UNL     1      -3.249  -0.355   7.091  1.00  0.00    -0.485 OA
ATOM     25  C   UNL     1      -4.097  -2.077   5.623  1.00  0.00     0.271 C 
ATOM     26  C   UNL     1      -4.422  -1.074   6.715  1.00  0.00     0.271 C 
ENDBRANCH  13  16
ENDBRANCH  11  12
ENDBRANCH  10  11
ENDBRANCH   9  10
ENDBRANCH   8   9
ENDBRANCH   6   8
ENDBRANCH   5   6
ENDBRANCH   4   5
ENDBRANCH   3   4
ENDBRANCH   2   3
ENDBRANCH   1   2
BRANCH   1  27
ATOM     27  C   UNL     1       2.174   0.248  -2.281  1.00  0.00     0.188 C 
BRANCH  27  28
ATOM     28  O   UNL     1       2.746   0.135  -3.571  1.00  0.00    -0.377 OA
BRANCH  28  29
ATOM     29  C   UNL     1       4.090  -0.282  -3.563  1.00  0.00     0.188 C 
BRANCH  29  30
ATOM     30  C   UNL     1       5.085   0.883  -3.758  1.00  0.00     0.188 C 
BRANCH  30  31
ATOM     31  O   UNL     1       4.651   2.220  -3.604  1.00  0.00    -0.376 OA
BRANCH  31  32
ATOM     32  C   UNL     1       3.540   2.715  -4.337  1.00  0.00     0.202 C 
BRANCH  32  33
ATOM     33  C   UNL     1       3.146   2.253  -5.758  1.00  0.00     0.261 C 
BRANCH  33  34
ATOM     34  O   UNL     1       3.471   0.916  -6.148  1.00  0.00    -0.460 OA
BRANCH  34  35
ATOM     35  C   UNL     1       4.604   0.753  -6.865  1.00  0.00     0.338 C 
ATOM     36  O   UNL     1       5.386   1.615  -7.236  1.00  0.00    -0.246 OA
BRANCH  35  37
ATOM     37  C   UNL     1       4.877  -0.696  -6.934  1.00  0.00     0.060 A 
ATOM     38  C   UNL     1       6.032  -1.206  -6.315  1.00  0.00     0.016 A 
ATOM     39  C   UNL     1       3.968  -1.549  -7.558  1.00  0.00     0.016 A 
ATOM     40  C   UNL     1       6.277  -2.574  -6.311  1.00  0.00     0.010 A 
ATOM     41  C   UNL     1       4.252  -2.911  -7.620  1.00  0.00     0.010 A 
ATOM     42  C   UNL     1       5.420  -3.418  -7.024  1.00  0.00    -0.014 A 
BRANCH  42  43
ATOM     43  C   UNL     1       5.884  -4.765  -7.408  1.00  0.00     0.031 A 
ATOM     44  C   UNL     1       6.702  -4.875  -8.661  1.00  0.00     0.074 A 
ATOM     45  C   UNL     1       5.565  -5.852  -6.691  1.00  0.00     0.049 A 
ATOM     46  N   UNL     1       7.120  -5.939  -9.292  1.00  0.00    -0.248 NA
ATOM     47  C   UNL     1       7.098  -3.603  -9.292  1.00  0.00     0.031 C 
ATOM     48  C   UNL     1       4.840  -5.848  -5.424  1.00  0.00     0.029 A 
ATOM     49  N   UNL     1       5.801  -7.177  -6.948  1.00  0.00    -0.354 N 
ATOM     50  C   UNL     1       7.830  -5.465 -10.386  1.00  0.00     0.074 A 
ATOM     51  C   UNL     1       7.761  -4.023 -10.355  1.00  0.00     0.031 C 
ATOM     52  C   UNL     1       4.670  -7.120  -5.022  1.00  0.00     0.029 A 
ATOM     53  C   UNL     1       5.237  -8.020  -6.026  1.00  0.00     0.049 A 
ATOM     54  H   UNL     1       6.325  -7.493  -7.720  1.00  0.00     0.167 HD
ATOM     55  C   UNL     1       8.485  -6.175 -11.333  1.00  0.00     0.037 A 
ATOM     56  C   UNL     1       5.169  -9.365  -6.019  1.00  0.00     0.037 A 
ATOM     57  C   UNL     1       8.501  -7.612 -11.382  1.00  0.00     0.049 A 
ATOM     58  C   UNL     1       5.793 -10.139  -7.152  1.00  0.00     0.074 A 
ATOM     59  C   UNL     1       9.097  -8.437 -12.316  1.00  0.00     0.029 A 
ATOM     60  N   UNL     1       7.875  -8.437 -10.457  1.00  0.00    -0.354 N 
ATOM     61  N   UNL     1       6.453  -9.694  -8.195  1.00  0.00    -0.248 NA
ATOM     62  C   UNL     1       5.663 -11.601  -7.105  1.00  0.00     0.031 C 
ATOM     63  C   UNL     1       8.784  -9.760 -11.989  1.00  0.00     0.029 A 
ATOM     64  C   UNL     1       8.055  -9.764 -10.809  1.00  0.00     0.049 A 
ATOM     65  H   UNL     1       7.376  -8.124  -9.668  1.00  0.00     0.167 HD
ATOM     66  C   UNL     1       6.850 -10.819  -8.908  1.00  0.00     0.074 A 
ATOM     67  C   UNL     1       6.358 -11.967  -8.173  1.00  0.00     0.031 C 
ATOM     68  C   UNL     1       7.563 -10.895 -10.060  1.00  0.00     0.037 A 
BRANCH  55  69
ATOM     69  C   UNL     1       9.197  -5.399 -12.402  1.00  0.00     0.064 A 
ATOM     70  C   UNL     1      10.336  -4.630 -12.116  1.00  0.00     0.173 A 
ATOM     71  C   UNL     1       8.742  -5.427 -13.728  1.00  0.00     0.173 A 
ATOM     72  F   UNL     1      10.798  -4.548 -10.859  1.00  0.00    -0.203 F 
ATOM     73  C   UNL     1      10.977  -3.899 -13.113  1.00  0.00     0.198 A 
ATOM     74  C   UNL     1       9.406  -4.723 -14.729  1.00  0.00     0.198 A 
ATOM     75  F   UNL     1       7.653  -6.139 -14.055  1.00  0.00    -0.203 F 
ATOM     76  F   UNL     1      12.029  -3.128 -12.805  1.00  0.00    -0.200 F 
ATOM     77  C   UNL     1      10.517  -3.954 -14.420  1.00  0.00     0.200 A 
ATOM     78  F   UNL     1       8.966  -4.786 -15.993  1.00  0.00    -0.200 F 
ATOM     79  F   UNL     1      11.140  -3.257 -15.380  1.00  0.00    -0.200 F 
ENDBRANCH  55  69
BRANCH  56  80
ATOM     80  C   UNL     1       4.508 -10.056  -4.883  1.00  0.00     0.064 A 
ATOM     81  C   UNL     1       5.265 -10.781  -3.954  1.00  0.00     0.173 A 
ATOM     82  C   UNL     1       3.123  -9.971  -4.674  1.00  0.00     0.173 A 
ATOM     83  F   UNL     1       6.589 -10.912  -4.126  1.00  0.00    -0.203 F 
ATOM     84  C   UNL     1       4.665 -11.390  -2.854  1.00  0.00     0.198 A 
ATOM     85  C   UNL     1       2.527 -10.559  -3.559  1.00  0.00     0.198 A 
ATOM     86  F   UNL     1       2.353  -9.292  -5.536  1.00  0.00    -0.203 F 
ATOM     87  F   UNL     1       5.410 -12.094  -1.991  1.00  0.00    -0.200 F 
ATOM     88  C   UNL     1       3.298 -11.268  -2.651  1.00  0.00     0.200 A 
ATOM     89  F   UNL     1       1.209 -10.427  -3.359  1.00  0.00    -0.200 F 
ATOM     90  F   UNL     1       2.725 -11.833  -1.579  1.00  0.00    -0.200 F 
ENDBRANCH  56  80
BRANCH  68  91
ATOM     91  C   UNL     1       7.905 -12.264 -10.580  1.00  0.00     0.064 A 
ATOM     92  C   UNL     1       6.932 -13.117 -11.120  1.00  0.00     0.173 A 
ATOM     93  C   UNL     1       9.240 -12.700 -10.594  1.00  0.00     0.173 A 
ATOM     94  F   UNL     1       5.641 -12.754 -11.124  1.00  0.00    -0.203 F 
ATOM     95  C   UNL     1       7.279 -14.367 -11.628  1.00  0.00     0.198 A 
ATOM     96  C   UNL     1       9.588 -13.933 -11.136  1.00  0.00     0.198 A 
ATOM     97  F   UNL     1      10.213 -11.918 -10.102  1.00  0.00    -0.203 F 
ATOM     98  F   UNL     1       6.326 -15.187 -12.092  1.00  0.00    -0.200 F 
ATOM     99  C   UNL     1       8.606 -14.770 -11.644  1.00  0.00     0.200 A 
ATOM    100  F   UNL     1      10.873 -14.310 -11.170  1.00  0.00    -0.200 F 
ATOM    101  F   UNL     1       8.939 -15.967 -12.146  1.00  0.00    -0.200 F 
ENDBRANCH  68  91
ENDBRANCH  42  43
ENDBRANCH  35  37
ENDBRANCH  34  35
ENDBRANCH  33  34
ENDBRANCH  32  33
ENDBRANCH  31  32
ENDBRANCH  30  31
ENDBRANCH  29  30
ENDBRANCH  28  29
ENDBRANCH  27  28
ENDBRANCH   1  27
TORSDOF 25
