REMARK SMILES O=C(OCCOCCOCCOCCOC(=O)[C@H]1CC=CC[C@@H]1C(=O)Nc1ccccc1C(=O)NCc1ccco1)c1ccc(-c2c3nc(c(-c4c(F)c(F)c(F)c(F)c4F)c4ccc([nH]4)c(-c4c(F)c(F)c(F)c(F)c4F)c4nc(c(-c5c(F)c(F)c(F)c(F)c5F)c5ccc2[nH]5)C=C4)C=C3)cc1
REMARK SMILES IDX 10 1 9 2 8 3 7 4 6 5 5 6 4 7 3 8 2 9 1 10 42 11 43 12 104 13
REMARK SMILES IDX 44 14 103 15 45 16 46 17 47 18 97 19 48 20 102 21 96 22
REMARK SMILES IDX 98 23 49 24 101 25 95 26 94 27 50 29 82 30 62 31 81 32 63 33
REMARK SMILES IDX 66 34 80 35 99 36 64 37 65 38 79 40 100 41 67 42 51 43 52 44
REMARK SMILES IDX 60 45 53 46 54 47 58 48 61 49 55 50 56 51 59 52 57 53 83 54
REMARK SMILES IDX 84 55 92 56 85 57 86 58 90 59 93 60 87 61 88 62 91 63 89 64
REMARK SMILES IDX 68 65 69 66 77 67 70 68 71 69 75 70 78 71 72 72 73 73 76 74
REMARK SMILES IDX 74 75 11 76 12 77 13 78 14 79 15 80 16 81 17 82 18 83 19 84
REMARK SMILES IDX 23 85 20 86 22 87 21 88 24 89 25 90 26 91 27 93 28 94 32 95
REMARK SMILES IDX 29 96 31 97 30 98 33 99 34 100 35 101 36 103 37 104 38 105
REMARK SMILES IDX 41 106 39 107 40 108
REMARK H PARENT 98 28 66 39 26 92 35 102
REMARK Flexibility Score: inf
ROOT
ATOM      1  C   UNL     1       3.877  -3.535   1.352  1.00  0.00     0.188 C 
ENDROOT
BRANCH   1   2
ATOM      2  O   UNL     1       2.459  -3.631   1.430  1.00  0.00    -0.377 OA
BRANCH   2   3
ATOM      3  C   UNL     1       1.705  -2.603   0.789  1.00  0.00     0.188 C 
BRANCH   3   4
ATOM      4  C   UNL     1       2.144  -1.178   1.118  1.00  0.00     0.188 C 
BRANCH   4   5
ATOM      5  O   UNL     1       3.433  -0.926   0.564  1.00  0.00    -0.376 OA
BRANCH   5   6
ATOM      6  C   UNL     1       4.329  -0.171   1.376  1.00  0.00     0.202 C 
BRANCH   6   7
ATOM      7  C   UNL     1       4.144   1.339   1.273  1.00  0.00     0.261 C 
BRANCH   7   8
ATOM      8  O   UNL     1       2.793   1.703   0.964  1.00  0.00    -0.460 OA
BRANCH   8   9
ATOM      9  C   UNL     1       2.227   1.788  -0.265  1.00  0.00     0.338 C 
ATOM     10  O   UNL     1       1.034   2.082  -0.339  1.00  0.00    -0.246 OA
BRANCH   9  11
ATOM     11  C   UNL     1       2.970   1.601  -1.550  1.00  0.00     0.060 A 
ATOM     12  C   UNL     1       4.060   0.752  -1.752  1.00  0.00     0.016 A 
ATOM     13  C   UNL     1       2.468   2.293  -2.665  1.00  0.00     0.016 A 
ATOM     14  C   UNL     1       4.683   0.639  -2.985  1.00  0.00     0.010 A 
ATOM     15  C   UNL     1       3.070   2.169  -3.919  1.00  0.00     0.010 A 
ATOM     16  C   UNL     1       4.203   1.362  -4.067  1.00  0.00    -0.014 A 
BRANCH  16  17
ATOM     17  C   UNL     1       5.033   1.410  -5.279  1.00  0.00     0.031 A 
ATOM     18  C   UNL     1       5.827   2.655  -5.517  1.00  0.00     0.074 A 
ATOM     19  C   UNL     1       5.169   0.319  -6.050  1.00  0.00     0.049 A 
ATOM     20  N   UNL     1       6.539   3.005  -6.551  1.00  0.00    -0.248 NA
ATOM     21  C   UNL     1       5.819   3.647  -4.426  1.00  0.00     0.031 C 
ATOM     22  C   UNL     1       4.550  -0.982  -5.787  1.00  0.00     0.029 A 
ATOM     23  N   UNL     1       5.888   0.123  -7.197  1.00  0.00    -0.354 N 
ATOM     24  C   UNL     1       7.017   4.275  -6.258  1.00  0.00     0.074 A 
ATOM     25  C   UNL     1       6.522   4.635  -4.950  1.00  0.00     0.031 C 
ATOM     26  C   UNL     1       4.918  -1.843  -6.748  1.00  0.00     0.029 A 
ATOM     27  C   UNL     1       5.726  -1.131  -7.731  1.00  0.00     0.049 A 
ATOM     28  H   UNL     1       6.464   0.812  -7.599  1.00  0.00     0.167 HD
ATOM     29  C   UNL     1       7.789   5.066  -7.036  1.00  0.00     0.037 A 
ATOM     30  C   UNL     1       6.143  -1.614  -8.916  1.00  0.00     0.037 A 
ATOM     31  C   UNL     1       8.267   4.654  -8.327  1.00  0.00     0.049 A 
ATOM     32  C   UNL     1       6.927  -0.687  -9.807  1.00  0.00     0.074 A 
ATOM     33  C   UNL     1       9.009   5.364  -9.248  1.00  0.00     0.029 A 
ATOM     34  N   UNL     1       8.037   3.394  -8.873  1.00  0.00    -0.354 N 
ATOM     35  N   UNL     1       7.310   0.549  -9.579  1.00  0.00    -0.248 NA
ATOM     36  C   UNL     1       7.321  -1.205 -11.121  1.00  0.00     0.031 C 
ATOM     37  C   UNL     1       9.183   4.551 -10.375  1.00  0.00     0.029 A 
ATOM     38  C   UNL     1       8.604   3.313 -10.131  1.00  0.00     0.049 A 
ATOM     39  H   UNL     1       7.543   2.668  -8.428  1.00  0.00     0.167 HD
ATOM     40  C   UNL     1       7.999   0.955 -10.711  1.00  0.00     0.074 A 
ATOM     41  C   UNL     1       7.998  -0.179 -11.618  1.00  0.00     0.031 C 
ATOM     42  C   UNL     1       8.577   2.151 -10.988  1.00  0.00     0.037 A 
BRANCH  29  43
ATOM     43  C   UNL     1       8.055   6.457  -6.539  1.00  0.00     0.064 A 
ATOM     44  C   UNL     1       8.867   6.716  -5.423  1.00  0.00     0.173 A 
ATOM     45  C   UNL     1       7.421   7.549  -7.151  1.00  0.00     0.173 A 
ATOM     46  F   UNL     1       9.470   5.706  -4.779  1.00  0.00    -0.203 F 
ATOM     47  C   UNL     1       8.995   8.007  -4.913  1.00  0.00     0.198 A 
ATOM     48  C   UNL     1       7.577   8.842  -6.658  1.00  0.00     0.198 A 
ATOM     49  F   UNL     1       6.626   7.360  -8.215  1.00  0.00    -0.203 F 
ATOM     50  F   UNL     1       9.709   8.217  -3.798  1.00  0.00    -0.200 F 
ATOM     51  C   UNL     1       8.352   9.068  -5.531  1.00  0.00     0.200 A 
ATOM     52  F   UNL     1       6.956   9.866  -7.260  1.00  0.00    -0.200 F 
ATOM     53  F   UNL     1       8.463  10.306  -5.030  1.00  0.00    -0.200 F 
ENDBRANCH  29  43
BRANCH  30  54
ATOM     54  C   UNL     1       5.762  -2.989  -9.338  1.00  0.00     0.064 A 
ATOM     55  C   UNL     1       6.722  -3.992  -9.526  1.00  0.00     0.173 A 
ATOM     56  C   UNL     1       4.416  -3.333  -9.553  1.00  0.00     0.173 A 
ATOM     57  F   UNL     1       8.023  -3.714  -9.357  1.00  0.00    -0.203 F 
ATOM     58  C   UNL     1       6.353  -5.279  -9.920  1.00  0.00     0.198 A 
ATOM     59  C   UNL     1       4.046  -4.627  -9.914  1.00  0.00     0.198 A 
ATOM     60  F   UNL     1       3.453  -2.413  -9.392  1.00  0.00    -0.203 F 
ATOM     61  F   UNL     1       7.296  -6.207 -10.132  1.00  0.00    -0.200 F 
ATOM     62  C   UNL     1       5.016  -5.598 -10.105  1.00  0.00     0.200 A 
ATOM     63  F   UNL     1       2.751  -4.931 -10.075  1.00  0.00    -0.200 F 
ATOM     64  F   UNL     1       4.663  -6.836 -10.474  1.00  0.00    -0.200 F 
ENDBRANCH  30  54
BRANCH  42  65
ATOM     65  C   UNL     1       9.278   2.272 -12.306  1.00  0.00     0.064 A 
ATOM     66  C   UNL     1       8.567   2.371 -13.510  1.00  0.00     0.173 A 
ATOM     67  C   UNL     1      10.678   2.356 -12.352  1.00  0.00     0.173 A 
ATOM     68  F   UNL     1       7.229   2.281 -13.514  1.00  0.00    -0.203 F 
ATOM     69  C   UNL     1       9.236   2.531 -14.718  1.00  0.00     0.198 A 
ATOM     70  C   UNL     1      11.341   2.549 -13.558  1.00  0.00     0.198 A 
ATOM     71  F   UNL     1      11.398   2.274 -11.223  1.00  0.00    -0.203 F 
ATOM     72  F   UNL     1       8.543   2.581 -15.864  1.00  0.00    -0.200 F 
ATOM     73  C   UNL     1      10.620   2.630 -14.740  1.00  0.00     0.200 A 
ATOM     74  F   UNL     1      12.675   2.662 -13.576  1.00  0.00    -0.200 F 
ATOM     75  F   UNL     1      11.262   2.800 -15.904  1.00  0.00    -0.200 F 
ENDBRANCH  42  65
ENDBRANCH  16  17
ENDBRANCH   9  11
ENDBRANCH   8   9
ENDBRANCH   7   8
ENDBRANCH   6   7
ENDBRANCH   5   6
ENDBRANCH   4   5
ENDBRANCH   3   4
ENDBRANCH   2   3
ENDBRANCH   1   2
BRANCH   1  76
ATOM     76  C   UNL     1       4.555  -3.485  -0.041  1.00  0.00     0.188 C 
BRANCH  76  77
ATOM     77  O   UNL     1       3.669  -3.461  -1.151  1.00  0.00    -0.376 OA
BRANCH  77  78
ATOM     78  C   UNL     1       3.490  -4.713  -1.810  1.00  0.00     0.202 C 
BRANCH  78  79
ATOM     79  C   UNL     1       2.797  -5.805  -0.981  1.00  0.00     0.261 C 
BRANCH  79  80
ATOM     80  O   UNL     1       3.473  -6.147   0.246  1.00  0.00    -0.463 OA
BRANCH  80  81
ATOM     81  C   UNL     1       4.682  -6.753   0.144  1.00  0.00     0.310 C 
ATOM     82  O   UNL     1       5.175  -7.102  -0.922  1.00  0.00    -0.252 OA
BRANCH  81  83
ATOM     83  C   UNL     1       5.344  -6.880   1.519  1.00  0.00     0.116 C 
ATOM     84  C   UNL     1       5.684  -8.364   1.740  1.00  0.00     0.043 C 
ATOM     85  C   UNL     1       6.603  -5.968   1.681  1.00  0.00     0.097 C 
ATOM     86  C   UNL     1       7.014  -8.756   1.158  1.00  0.00    -0.030 C 
ATOM     87  C   UNL     1       7.672  -6.393   0.661  1.00  0.00     0.041 C 
ATOM     88  C   UNL     1       7.890  -7.877   0.646  1.00  0.00    -0.030 C 
BRANCH  85  89
ATOM     89  C   UNL     1       7.119  -6.040   3.123  1.00  0.00     0.228 C 
ATOM     90  O   UNL     1       6.482  -6.607   4.015  1.00  0.00    -0.274 OA
ATOM     91  N   UNL     1       8.312  -5.489   3.489  1.00  0.00    -0.325 N 
ATOM     92  H   UNL     1       8.685  -5.856   4.323  1.00  0.00     0.169 HD
BRANCH  91  93
ATOM     93  C   UNL     1       9.105  -4.496   2.897  1.00  0.00     0.054 A 
ATOM     94  C   UNL     1      10.450  -4.896   2.740  1.00  0.00     0.027 A 
ATOM     95  C   UNL     1       8.698  -3.232   2.437  1.00  0.00     0.063 A 
ATOM     96  C   UNL     1      11.347  -4.154   1.978  1.00  0.00     0.002 A 
ATOM     97  C   UNL     1       9.629  -2.511   1.643  1.00  0.00     0.016 A 
ATOM     98  C   UNL     1      10.923  -2.974   1.392  1.00  0.00     0.001 A 
BRANCH  95  99
ATOM     99  C   UNL     1       7.463  -2.427   2.742  1.00  0.00     0.253 C 
ATOM    100  O   UNL     1       7.148  -1.539   1.942  1.00  0.00    -0.269 OA
ATOM    101  N   UNL     1       6.691  -2.483   3.875  1.00  0.00    -0.345 N 
ATOM    102  H   UNL     1       6.128  -1.688   4.016  1.00  0.00     0.164 HD
BRANCH 101 103
ATOM    103  C   UNL     1       6.553  -3.487   4.897  1.00  0.00     0.191 C 
BRANCH 103 104
ATOM    104  C   UNL     1       6.391  -2.969   6.270  1.00  0.00     0.122 A 
ATOM    105  C   UNL     1       6.082  -1.771   6.879  1.00  0.00     0.047 A 
ATOM    106  O   UNL     1       6.624  -3.920   7.226  1.00  0.00    -0.467 OA
ATOM    107  C   UNL     1       6.156  -2.007   8.278  1.00  0.00     0.042 A 
ATOM    108  C   UNL     1       6.486  -3.331   8.434  1.00  0.00     0.195 A 
ENDBRANCH 103 104
ENDBRANCH 101 103
ENDBRANCH  95  99
ENDBRANCH  91  93
ENDBRANCH  85  89
ENDBRANCH  81  83
ENDBRANCH  80  81
ENDBRANCH  79  80
ENDBRANCH  78  79
ENDBRANCH  77  78
ENDBRANCH  76  77
ENDBRANCH   1  76
TORSDOF 25
