REMARK SMILES Cc1cc(OC(F)(F)F)cc2c1O[C@H](C(F)(F)F)C(C(=O)OCCOCCOCCOCCOC(=O)c1ccc(-c3c4nc(c(-c5c(F)c(F)c(F)c(F)c5F)c5ccc([nH]5)c(-c5c(F)c(F)c(F)c(F)c5F)c5nc(c(-c6c(F)c(F)c(F)c(F)c6F)c6ccc3[nH]6)C=C5)C=C4)cc1)=C2
REMARK SMILES IDX 28 1 27 2 26 3 25 4 24 5 23 6 22 7 20 8 21 9 19 10 1 11 2 12
REMARK SMILES IDX 3 13 12 14 4 15 11 16 13 17 10 18 100 19 14 20 5 21 6 22
REMARK SMILES IDX 7 23 8 24 9 25 15 26 16 27 17 28 18 29 29 30 30 31 31 32
REMARK SMILES IDX 32 33 33 34 34 35 35 36 36 37 37 38 38 39 99 40 39 41 98 42
REMARK SMILES IDX 40 43 41 44 42 45 92 46 43 47 97 48 91 49 93 50 44 51 96 52
REMARK SMILES IDX 90 53 89 54 45 56 77 57 57 58 76 59 58 60 61 61 75 62 94 63
REMARK SMILES IDX 59 64 60 65 74 67 95 68 62 69 46 70 47 71 55 72 48 73 49 74
REMARK SMILES IDX 53 75 56 76 50 77 51 78 54 79 52 80 78 81 79 82 87 83 80 84
REMARK SMILES IDX 81 85 85 86 88 87 82 88 83 89 86 90 84 91 63 92 64 93 72 94
REMARK SMILES IDX 65 95 66 96 70 97 73 98 67 99 68 100 71 101 69 102
REMARK H PARENT 93 55 61 66
REMARK Flexibility Score: inf
ROOT
ATOM      1  O   UNL     1       3.602  -6.945   1.451  1.00  0.00    -0.377 OA
ENDROOT
BRANCH   1   2
ATOM      2  C   UNL     1       3.168  -6.187   2.570  1.00  0.00     0.188 C 
BRANCH   2   3
ATOM      3  C   UNL     1       2.186  -6.959   3.474  1.00  0.00     0.188 C 
BRANCH   3   4
ATOM      4  O   UNL     1       2.215  -8.365   3.324  1.00  0.00    -0.376 OA
BRANCH   4   5
ATOM      5  C   UNL     1       1.526  -9.044   2.288  1.00  0.00     0.202 C 
BRANCH   5   6
ATOM      6  C   UNL     1       1.034  -8.440   0.958  1.00  0.00     0.261 C 
BRANCH   6   7
ATOM      7  O   UNL     1       0.970  -7.021   0.849  1.00  0.00    -0.460 OA
BRANCH   7   8
ATOM      8  C   UNL     1      -0.127  -6.417   1.339  1.00  0.00     0.338 C 
ATOM      9  O   UNL     1      -1.095  -6.955   1.845  1.00  0.00    -0.246 OA
BRANCH   8  10
ATOM     10  C   UNL     1       0.122  -4.960   1.315  1.00  0.00     0.087 C 
ATOM     11  C   UNL     1       1.053  -0.118  -0.037  1.00  0.00     0.048 C 
ATOM     12  C   UNL     1       0.561  -0.815   1.202  1.00  0.00    -0.005 A 
ATOM     13  C   UNL     1       0.144  -0.056   2.310  1.00  0.00     0.054 A 
ATOM     14  C   UNL     1       0.514  -2.215   1.270  1.00  0.00     0.131 A 
ATOM     15  C   UNL     1      -0.315  -0.681   3.470  1.00  0.00     0.130 A 
ATOM     16  C   UNL     1       0.013  -2.842   2.412  1.00  0.00     0.021 A 
ATOM     17  O   UNL     1       0.967  -2.903   0.180  1.00  0.00    -0.475 OA
ATOM     18  C   UNL     1      -0.363  -2.076   3.519  1.00  0.00     0.058 A 
ATOM     19  C   UNL     1      -0.194  -4.278   2.422  1.00  0.00     0.027 C 
ATOM     20  C   UNL     1       0.772  -4.340   0.106  1.00  0.00     0.316 C 
BRANCH  15  21
ATOM     21  O   UNL     1      -0.749  -0.065   4.608  1.00  0.00    -0.406 OA
BRANCH  21  22
ATOM     22  C   UNL     1      -1.014   1.326   4.541  1.00  0.00     0.573 C 
ATOM     23  F   UNL     1       0.124   2.025   4.347  1.00  0.00    -0.132 F 
ATOM     24  F   UNL     1      -1.893   1.610   3.557  1.00  0.00    -0.132 F 
ATOM     25  F   UNL     1      -1.554   1.720   5.715  1.00  0.00    -0.132 F 
ENDBRANCH  21  22
ENDBRANCH  15  21
BRANCH  20  26
ATOM     26  C   UNL     1       0.008  -4.652  -1.187  1.00  0.00     0.430 C 
ATOM     27  F   UNL     1       0.554  -4.011  -2.249  1.00  0.00    -0.167 F 
ATOM     28  F   UNL     1       0.028  -5.973  -1.482  1.00  0.00    -0.167 F 
ATOM     29  F   UNL     1      -1.288  -4.275  -1.107  1.00  0.00    -0.167 F 
ENDBRANCH  20  26
ENDBRANCH   8  10
ENDBRANCH   7   8
ENDBRANCH   6   7
ENDBRANCH   5   6
ENDBRANCH   4   5
ENDBRANCH   3   4
ENDBRANCH   2   3
ENDBRANCH   1   2
BRANCH   1  30
ATOM     30  C   UNL     1       4.722  -7.809   1.639  1.00  0.00     0.188 C 
BRANCH  30  31
ATOM     31  C   UNL     1       5.048  -8.411   3.028  1.00  0.00     0.188 C 
BRANCH  31  32
ATOM     32  O   UNL     1       4.912  -7.492   4.102  1.00  0.00    -0.376 OA
BRANCH  32  33
ATOM     33  C   UNL     1       6.076  -6.958   4.706  1.00  0.00     0.202 C 
BRANCH  33  34
ATOM     34  C   UNL     1       6.937  -6.024   3.847  1.00  0.00     0.261 C 
BRANCH  34  35
ATOM     35  O   UNL     1       7.350  -6.541   2.575  1.00  0.00    -0.460 OA
BRANCH  35  36
ATOM     36  C   UNL     1       8.177  -7.605   2.574  1.00  0.00     0.338 C 
ATOM     37  O   UNL     1       8.639  -8.190   3.540  1.00  0.00    -0.246 OA
BRANCH  36  38
ATOM     38  C   UNL     1       8.306  -8.057   1.176  1.00  0.00     0.060 A 
ATOM     39  C   UNL     1       7.806  -9.313   0.804  1.00  0.00     0.016 A 
ATOM     40  C   UNL     1       8.928  -7.231   0.238  1.00  0.00     0.016 A 
ATOM     41  C   UNL     1       7.957  -9.762  -0.507  1.00  0.00     0.010 A 
ATOM     42  C   UNL     1       9.112  -7.696  -1.063  1.00  0.00     0.010 A 
ATOM     43  C   UNL     1       8.661  -8.976  -1.429  1.00  0.00    -0.014 A 
BRANCH  43  44
ATOM     44  C   UNL     1       9.151  -9.574  -2.690  1.00  0.00     0.031 A 
ATOM     45  C   UNL     1      10.520 -10.194  -2.681  1.00  0.00     0.074 A 
ATOM     46  C   UNL     1       8.418  -9.549  -3.814  1.00  0.00     0.049 A 
ATOM     47  N   UNL     1      11.226 -10.667  -3.674  1.00  0.00    -0.248 NA
ATOM     48  C   UNL     1      11.184 -10.290  -1.369  1.00  0.00     0.031 C 
ATOM     49  C   UNL     1       7.058  -9.031  -3.925  1.00  0.00     0.029 A 
ATOM     50  N   UNL     1       8.733  -9.956  -5.086  1.00  0.00    -0.354 N 
ATOM     51  C   UNL     1      12.413 -11.113  -3.109  1.00  0.00     0.074 A 
ATOM     52  C   UNL     1      12.348 -10.833  -1.693  1.00  0.00     0.031 C 
ATOM     53  C   UNL     1       6.660  -9.131  -5.206  1.00  0.00     0.029 A 
ATOM     54  C   UNL     1       7.754  -9.680  -6.008  1.00  0.00     0.049 A 
ATOM     55  H   UNL     1       9.580 -10.403  -5.316  1.00  0.00     0.167 HD
ATOM     56  C   UNL     1      13.462 -11.709  -3.721  1.00  0.00     0.037 A 
ATOM     57  C   UNL     1       7.760  -9.828  -7.347  1.00  0.00     0.037 A 
ATOM     58  C   UNL     1      13.527 -11.966  -5.134  1.00  0.00     0.049 A 
ATOM     59  C   UNL     1       8.984 -10.398  -8.020  1.00  0.00     0.074 A 
ATOM     60  C   UNL     1      14.549 -12.557  -5.854  1.00  0.00     0.029 A 
ATOM     61  N   UNL     1      12.532 -11.638  -6.042  1.00  0.00    -0.354 N 
ATOM     62  N   UNL     1      10.104 -10.823  -7.485  1.00  0.00    -0.248 NA
ATOM     63  C   UNL     1       8.945 -10.510  -9.486  1.00  0.00     0.031 C 
ATOM     64  C   UNL     1      14.198 -12.534  -7.206  1.00  0.00     0.029 A 
ATOM     65  C   UNL     1      12.927 -11.993  -7.322  1.00  0.00     0.049 A 
ATOM     66  H   UNL     1      11.673 -11.216  -5.812  1.00  0.00     0.167 HD
ATOM     67  C   UNL     1      10.885 -11.282  -8.539  1.00  0.00     0.074 A 
ATOM     68  C   UNL     1      10.106 -11.095  -9.745  1.00  0.00     0.031 C 
ATOM     69  C   UNL     1      12.134 -11.811  -8.511  1.00  0.00     0.037 A 
BRANCH  56  70
ATOM     70  C   UNL     1      14.634 -12.106  -2.873  1.00  0.00     0.064 A 
ATOM     71  C   UNL     1      14.559 -13.179  -1.972  1.00  0.00     0.173 A 
ATOM     72  C   UNL     1      15.866 -11.450  -3.013  1.00  0.00     0.173 A 
ATOM     73  F   UNL     1      13.398 -13.825  -1.786  1.00  0.00    -0.203 F 
ATOM     74  C   UNL     1      15.674 -13.577  -1.239  1.00  0.00     0.198 A 
ATOM     75  C   UNL     1      16.986 -11.870  -2.302  1.00  0.00     0.198 A 
ATOM     76  F   UNL     1      15.990 -10.415  -3.858  1.00  0.00    -0.203 F 
ATOM     77  F   UNL     1      15.572 -14.584  -0.362  1.00  0.00    -0.200 F 
ATOM     78  C   UNL     1      16.889 -12.931  -1.415  1.00  0.00     0.200 A 
ATOM     79  F   UNL     1      18.162 -11.254  -2.482  1.00  0.00    -0.200 F 
ATOM     80  F   UNL     1      17.967 -13.331  -0.726  1.00  0.00    -0.200 F 
ENDBRANCH  56  70
BRANCH  57  81
ATOM     81  C   UNL     1       6.569  -9.429  -8.143  1.00  0.00     0.064 A 
ATOM     82  C   UNL     1       5.791 -10.389  -8.805  1.00  0.00     0.173 A 
ATOM     83  C   UNL     1       6.184  -8.085  -8.261  1.00  0.00     0.173 A 
ATOM     84  F   UNL     1       6.135 -11.684  -8.747  1.00  0.00    -0.203 F 
ATOM     85  C   UNL     1       4.681 -10.020  -9.561  1.00  0.00     0.198 A 
ATOM     86  C   UNL     1       5.055  -7.720  -8.992  1.00  0.00     0.198 A 
ATOM     87  F   UNL     1       6.897  -7.125  -7.653  1.00  0.00    -0.203 F 
ATOM     88  F   UNL     1       3.981 -10.955 -10.218  1.00  0.00    -0.200 F 
ATOM     89  C   UNL     1       4.308  -8.687  -9.647  1.00  0.00     0.200 A 
ATOM     90  F   UNL     1       4.692  -6.432  -9.062  1.00  0.00    -0.200 F 
ATOM     91  F   UNL     1       3.234  -8.334 -10.366  1.00  0.00    -0.200 F 
ENDBRANCH  57  81
BRANCH  69  92
ATOM     92  C   UNL     1      12.730 -12.268  -9.813  1.00  0.00     0.064 A 
ATOM     93  C   UNL     1      13.136 -11.358 -10.801  1.00  0.00     0.173 A 
ATOM     94  C   UNL     1      12.964 -13.633 -10.045  1.00  0.00     0.173 A 
ATOM     95  F   UNL     1      12.928 -10.044 -10.633  1.00  0.00    -0.203 F 
ATOM     96  C   UNL     1      13.729 -11.800 -11.981  1.00  0.00     0.198 A 
ATOM     97  C   UNL     1      13.591 -14.068 -11.209  1.00  0.00     0.198 A 
ATOM     98  F   UNL     1      12.608 -14.546  -9.127  1.00  0.00    -0.203 F 
ATOM     99  F   UNL     1      14.066 -10.916 -12.930  1.00  0.00    -0.200 F 
ATOM    100  C   UNL     1      13.966 -13.152 -12.179  1.00  0.00     0.200 A 
ATOM    101  F   UNL     1      13.839 -15.373 -11.388  1.00  0.00    -0.200 F 
ATOM    102  F   UNL     1      14.552 -13.573 -13.308  1.00  0.00    -0.200 F 
ENDBRANCH  69  92
ENDBRANCH  43  44
ENDBRANCH  36  38
ENDBRANCH  35  36
ENDBRANCH  34  35
ENDBRANCH  33  34
ENDBRANCH  32  33
ENDBRANCH  31  32
ENDBRANCH  30  31
ENDBRANCH   1  30
TORSDOF 23
