REMARK SMILES CCOc1cccc(-c2ccc([C@@H](C)C(=O)OCCOCCOCCOCCOC(=O)c3ccc(-c4c5nc(c(-c6c(F)c(F)c(F)c(F)c6F)c6ccc([nH]6)c(-c6c(F)c(F)c(F)c(F)c6F)c6nc(c(-c7c(F)c(F)c(F)c(F)c7F)c7ccc4[nH]7)C=C6)C=C5)cc3)cc2F)c1
REMARK SMILES IDX 22 1 21 2 20 3 19 4 18 5 17 6 15 7 16 8 13 9 14 10 12 11
REMARK SMILES IDX 9 12 10 13 96 14 11 15 95 16 97 17 8 18 4 19 5 20 98 21 6 22
REMARK SMILES IDX 7 23 3 24 2 25 1 26 23 27 24 28 25 29 26 30 27 31 28 32
REMARK SMILES IDX 29 33 30 34 31 35 32 36 33 37 94 38 34 39 93 40 35 41 36 42
REMARK SMILES IDX 37 43 87 44 38 45 92 46 86 47 88 48 39 49 91 50 85 51 84 52
REMARK SMILES IDX 40 54 72 55 52 56 71 57 53 58 56 59 70 60 89 61 54 62 55 63
REMARK SMILES IDX 69 65 90 66 57 67 41 68 42 69 50 70 43 71 44 72 48 73 51 74
REMARK SMILES IDX 45 75 46 76 49 77 47 78 73 79 74 80 82 81 75 82 76 83 80 84
REMARK SMILES IDX 83 85 77 86 78 87 81 88 79 89 58 90 59 91 67 92 60 93 61 94
REMARK SMILES IDX 65 95 68 96 62 97 63 98 66 99 64 100
REMARK H PARENT 88 53 56 64
REMARK Flexibility Score: inf
ROOT
ATOM      1  C   UNL     1       6.267  -1.568   3.185  1.00  0.00     0.188 C 
ENDROOT
BRANCH   1   2
ATOM      2  C   UNL     1       6.732  -2.449   4.354  1.00  0.00     0.188 C 
BRANCH   2   3
ATOM      3  O   UNL     1       7.545  -1.915   5.389  1.00  0.00    -0.376 OA
BRANCH   3   4
ATOM      4  C   UNL     1       8.600  -1.012   5.096  1.00  0.00     0.202 C 
BRANCH   4   5
ATOM      5  C   UNL     1       9.632  -1.297   3.988  1.00  0.00     0.261 C 
BRANCH   5   6
ATOM      6  O   UNL     1       9.123  -1.710   2.703  1.00  0.00    -0.463 OA
BRANCH   6   7
ATOM      7  C   UNL     1       9.278  -3.018   2.394  1.00  0.00     0.313 C 
ATOM      8  O   UNL     1       9.842  -3.822   3.135  1.00  0.00    -0.252 OA
BRANCH   7   9
ATOM      9  C   UNL     1       8.726  -3.460   1.041  1.00  0.00     0.126 C 
ATOM     10  C   UNL     1       9.903  -3.815   0.139  1.00  0.00     0.025 C 
BRANCH   9  11
ATOM     11  C   UNL     1       7.692  -2.630   0.281  1.00  0.00    -0.031 A 
ATOM     12  C   UNL     1       5.673  -1.196  -1.190  1.00  0.00     0.018 A 
ATOM     13  C   UNL     1       6.899  -0.601  -0.834  1.00  0.00     0.012 A 
ATOM     14  C   UNL     1       5.481  -2.518  -0.775  1.00  0.00     0.131 A 
ATOM     15  C   UNL     1       7.892  -1.302  -0.116  1.00  0.00     0.005 A 
ATOM     16  C   UNL     1       6.464  -3.226  -0.073  1.00  0.00     0.044 A 
ATOM     17  F   UNL     1       4.335  -3.160  -1.059  1.00  0.00    -0.206 F 
BRANCH  12  18
ATOM     18  C   UNL     1       4.665  -0.472  -2.001  1.00  0.00    -0.012 A 
ATOM     19  C   UNL     1       2.358   0.201  -2.464  1.00  0.00     0.119 A 
ATOM     20  C   UNL     1       2.752   0.823  -3.643  1.00  0.00     0.046 A 
ATOM     21  C   UNL     1       3.299  -0.453  -1.658  1.00  0.00     0.055 A 
ATOM     22  C   UNL     1       4.095   0.814  -4.007  1.00  0.00     0.004 A 
ATOM     23  C   UNL     1       5.039   0.176  -3.193  1.00  0.00     0.009 A 
BRANCH  19  24
ATOM     24  O   UNL     1       1.016   0.103  -2.217  1.00  0.00    -0.494 OA
BRANCH  24  25
ATOM     25  C   UNL     1       0.563   0.939  -1.147  1.00  0.00     0.226 C 
ATOM     26  C   UNL     1       0.554   0.172   0.161  1.00  0.00     0.049 C 
ENDBRANCH  24  25
ENDBRANCH  19  24
ENDBRANCH  12  18
ENDBRANCH   9  11
ENDBRANCH   7   9
ENDBRANCH   6   7
ENDBRANCH   5   6
ENDBRANCH   4   5
ENDBRANCH   3   4
ENDBRANCH   2   3
ENDBRANCH   1   2
BRANCH   1  27
ATOM     27  O   UNL     1       6.910  -0.314   3.088  1.00  0.00    -0.377 OA
BRANCH  27  28
ATOM     28  C   UNL     1       6.192   0.811   3.566  1.00  0.00     0.188 C 
BRANCH  28  29
ATOM     29  C   UNL     1       5.347   0.634   4.843  1.00  0.00     0.188 C 
BRANCH  29  30
ATOM     30  O   UNL     1       4.471  -0.484   4.808  1.00  0.00    -0.376 OA
BRANCH  30  31
ATOM     31  C   UNL     1       3.121  -0.280   4.424  1.00  0.00     0.202 C 
BRANCH  31  32
ATOM     32  C   UNL     1       2.833   0.173   2.985  1.00  0.00     0.261 C 
BRANCH  32  33
ATOM     33  O   UNL     1       3.457   1.385   2.535  1.00  0.00    -0.460 OA
BRANCH  33  34
ATOM     34  C   UNL     1       3.202   2.523   3.207  1.00  0.00     0.338 C 
ATOM     35  O   UNL     1       2.427   2.670   4.138  1.00  0.00    -0.246 OA
BRANCH  34  36
ATOM     36  C   UNL     1       4.168   3.548   2.753  1.00  0.00     0.060 A 
ATOM     37  C   UNL     1       5.045   4.115   3.689  1.00  0.00     0.016 A 
ATOM     38  C   UNL     1       4.207   3.953   1.417  1.00  0.00     0.016 A 
ATOM     39  C   UNL     1       5.929   5.124   3.304  1.00  0.00     0.010 A 
ATOM     40  C   UNL     1       5.072   4.985   1.038  1.00  0.00     0.010 A 
ATOM     41  C   UNL     1       5.905   5.604   1.989  1.00  0.00    -0.014 A 
BRANCH  41  42
ATOM     42  C   UNL     1       6.549   6.901   1.663  1.00  0.00     0.031 A 
ATOM     43  C   UNL     1       5.680   8.130   1.655  1.00  0.00     0.074 A 
ATOM     44  C   UNL     1       7.861   7.001   1.388  1.00  0.00     0.049 A 
ATOM     45  N   UNL     1       5.966   9.355   1.296  1.00  0.00    -0.248 NA
ATOM     46  C   UNL     1       4.292   7.946   2.110  1.00  0.00     0.031 C 
ATOM     47  C   UNL     1       8.820   5.901   1.427  1.00  0.00     0.029 A 
ATOM     48  N   UNL     1       8.607   8.088   1.004  1.00  0.00    -0.354 N 
ATOM     49  C   UNL     1       4.792  10.079   1.466  1.00  0.00     0.074 A 
ATOM     50  C   UNL     1       3.784   9.154   1.932  1.00  0.00     0.031 C 
ATOM     51  C   UNL     1      10.027   6.365   1.057  1.00  0.00     0.029 A 
ATOM     52  C   UNL     1       9.915   7.783   0.716  1.00  0.00     0.049 A 
ATOM     53  H   UNL     1       8.240   8.999   0.941  1.00  0.00     0.167 HD
ATOM     54  C   UNL     1       4.576  11.399   1.254  1.00  0.00     0.037 A 
ATOM     55  C   UNL     1      10.894   8.556   0.203  1.00  0.00     0.037 A 
ATOM     56  C   UNL     1       5.582  12.314   0.787  1.00  0.00     0.049 A 
ATOM     57  C   UNL     1      10.606  10.005  -0.112  1.00  0.00     0.074 A 
ATOM     58  C   UNL     1       5.467  13.671   0.546  1.00  0.00     0.029 A 
ATOM     59  N   UNL     1       6.888  11.961   0.482  1.00  0.00    -0.354 N 
ATOM     60  N   UNL     1       9.498  10.687   0.055  1.00  0.00    -0.248 NA
ATOM     61  C   UNL     1      11.707  10.792  -0.688  1.00  0.00     0.031 C 
ATOM     62  C   UNL     1       6.685  14.126   0.032  1.00  0.00     0.029 A 
ATOM     63  C   UNL     1       7.582  13.070   0.029  1.00  0.00     0.049 A 
ATOM     64  H   UNL     1       7.265  11.056   0.573  1.00  0.00     0.167 HD
ATOM     65  C   UNL     1       9.781  11.987  -0.348  1.00  0.00     0.074 A 
ATOM     66  C   UNL     1      11.165  12.000  -0.769  1.00  0.00     0.031 C 
ATOM     67  C   UNL     1       8.970  13.074  -0.360  1.00  0.00     0.037 A 
BRANCH  54  68
ATOM     68  C   UNL     1       3.187  11.921   1.488  1.00  0.00     0.064 A 
ATOM     69  C   UNL     1       2.633  12.007   2.774  1.00  0.00     0.173 A 
ATOM     70  C   UNL     1       2.409  12.364   0.408  1.00  0.00     0.173 A 
ATOM     71  F   UNL     1       3.328  11.581   3.840  1.00  0.00    -0.203 F 
ATOM     72  C   UNL     1       1.340  12.488   2.966  1.00  0.00     0.198 A 
ATOM     73  C   UNL     1       1.131  12.878   0.607  1.00  0.00     0.198 A 
ATOM     74  F   UNL     1       2.890  12.306  -0.843  1.00  0.00    -0.203 F 
ATOM     75  F   UNL     1       0.810  12.508   4.197  1.00  0.00    -0.200 F 
ATOM     76  C   UNL     1       0.594  12.931   1.884  1.00  0.00     0.200 A 
ATOM     77  F   UNL     1       0.417  13.319  -0.438  1.00  0.00    -0.200 F 
ATOM     78  F   UNL     1      -0.647  13.402   2.072  1.00  0.00    -0.200 F 
ENDBRANCH  54  68
BRANCH  55  79
ATOM     79  C   UNL     1      12.238   7.978  -0.068  1.00  0.00     0.064 A 
ATOM     80  C   UNL     1      13.368   8.404   0.645  1.00  0.00     0.173 A 
ATOM     81  C   UNL     1      12.428   7.012  -1.068  1.00  0.00     0.173 A 
ATOM     82  F   UNL     1      13.245   9.345   1.593  1.00  0.00    -0.203 F 
ATOM     83  C   UNL     1      14.636   7.904   0.354  1.00  0.00     0.198 A 
ATOM     84  C   UNL     1      13.692   6.489  -1.336  1.00  0.00     0.198 A 
ATOM     85  F   UNL     1      11.384   6.571  -1.785  1.00  0.00    -0.203 F 
ATOM     86  F   UNL     1      15.705   8.371   1.014  1.00  0.00    -0.200 F 
ATOM     87  C   UNL     1      14.797   6.943  -0.632  1.00  0.00     0.200 A 
ATOM     88  F   UNL     1      13.840   5.551  -2.281  1.00  0.00    -0.200 F 
ATOM     89  F   UNL     1      16.016   6.462  -0.911  1.00  0.00    -0.200 F 
ENDBRANCH  55  79
BRANCH  67  90
ATOM     90  C   UNL     1       9.566  14.392  -0.768  1.00  0.00     0.064 A 
ATOM     91  C   UNL     1       9.924  14.671  -2.095  1.00  0.00     0.173 A 
ATOM     92  C   UNL     1       9.710  15.419   0.179  1.00  0.00     0.173 A 
ATOM     93  F   UNL     1       9.816  13.723  -3.038  1.00  0.00    -0.203 F 
ATOM     94  C   UNL     1      10.424  15.921  -2.453  1.00  0.00     0.198 A 
ATOM     95  C   UNL     1      10.177  16.677  -0.189  1.00  0.00     0.198 A 
ATOM     96  F   UNL     1       9.373  15.208   1.461  1.00  0.00    -0.203 F 
ATOM     97  F   UNL     1      10.800  16.153  -3.718  1.00  0.00    -0.200 F 
ATOM     98  C   UNL     1      10.539  16.926  -1.503  1.00  0.00     0.200 A 
ATOM     99  F   UNL     1      10.267  17.651   0.728  1.00  0.00    -0.200 F 
ATOM    100  F   UNL     1      11.003  18.133  -1.854  1.00  0.00    -0.200 F 
ENDBRANCH  67  90
ENDBRANCH  41  42
ENDBRANCH  34  36
ENDBRANCH  33  34
ENDBRANCH  32  33
ENDBRANCH  31  32
ENDBRANCH  30  31
ENDBRANCH  29  30
ENDBRANCH  28  29
ENDBRANCH  27  28
ENDBRANCH   1  27
TORSDOF 24
