REMARK SMILES Cc1cc(Cl)ccc1-c1ccc(C(=O)OCCOCCOCCOCCOC(=O)c2ccc(-c3c4nc(c(-c5c(F)c(F)c(F)c(F)c5F)c5ccc([nH]5)c(-c5c(F)c(F)c(F)c(F)c5F)c5nc(c(-c6c(F)c(F)c(F)c(F)c6F)c6ccc3[nH]6)C=C5)C=C4)cc2)c(Cl)c1
REMARK SMILES IDX 22 1 21 2 20 3 19 4 18 5 17 6 16 7 15 8 13 9 14 10 12 11
REMARK SMILES IDX 9 12 10 13 95 14 11 15 93 16 94 17 8 18 1 19 2 20 3 21 4 22
REMARK SMILES IDX 7 23 5 24 6 25 23 26 24 27 25 28 26 29 27 30 28 31 29 32
REMARK SMILES IDX 30 33 31 34 92 35 32 36 91 37 33 38 34 39 35 40 85 41 36 42
REMARK SMILES IDX 90 43 84 44 86 45 37 46 89 47 83 48 82 49 38 51 70 52 50 53
REMARK SMILES IDX 69 54 51 55 54 56 68 57 87 58 52 59 53 60 67 62 88 63 55 64
REMARK SMILES IDX 39 65 40 66 48 67 41 68 42 69 46 70 49 71 43 72 44 73 47 74
REMARK SMILES IDX 45 75 71 76 72 77 80 78 73 79 74 80 78 81 81 82 75 83 76 84
REMARK SMILES IDX 79 85 77 86 56 87 57 88 65 89 58 90 59 91 63 92 66 93 60 94
REMARK SMILES IDX 61 95 64 96 62 97
REMARK H PARENT 86 50 54 61
REMARK Flexibility Score: inf
ROOT
ATOM      1  C   UNL     1      -9.949  -1.282   2.660  1.00  0.00     0.188 C 
ENDROOT
BRANCH   1   2
ATOM      2  O   UNL     1      -8.570  -1.212   2.307  1.00  0.00    -0.377 OA
BRANCH   2   3
ATOM      3  C   UNL     1      -8.185  -0.697   1.040  1.00  0.00     0.188 C 
BRANCH   3   4
ATOM      4  C   UNL     1      -8.916  -1.176  -0.235  1.00  0.00     0.188 C 
BRANCH   4   5
ATOM      5  O   UNL     1     -10.109  -1.893   0.021  1.00  0.00    -0.376 OA
BRANCH   5   6
ATOM      6  C   UNL     1     -10.149  -3.290  -0.193  1.00  0.00     0.202 C 
BRANCH   6   7
ATOM      7  C   UNL     1      -9.098  -4.198   0.462  1.00  0.00     0.261 C 
BRANCH   7   8
ATOM      8  O   UNL     1      -7.790  -3.636   0.587  1.00  0.00    -0.460 OA
BRANCH   8   9
ATOM      9  C   UNL     1      -6.953  -3.774  -0.461  1.00  0.00     0.339 C 
ATOM     10  O   UNL     1      -7.210  -4.304  -1.529  1.00  0.00    -0.246 OA
BRANCH   9  11
ATOM     11  C   UNL     1      -5.736  -2.969  -0.214  1.00  0.00     0.078 A 
ATOM     12  C   UNL     1      -3.384  -1.430   0.036  1.00  0.00    -0.017 A 
ATOM     13  C   UNL     1      -4.184  -1.321  -1.109  1.00  0.00     0.010 A 
ATOM     14  C   UNL     1      -3.824  -2.261   1.084  1.00  0.00     0.030 A 
ATOM     15  C   UNL     1      -5.346  -2.088  -1.236  1.00  0.00     0.018 A 
ATOM     16  C   UNL     1      -4.985  -3.035   0.963  1.00  0.00     0.056 A 
ATOM     17  Cl  UNL     1      -5.360  -4.102   2.269  1.00  0.00    -0.083 Cl
BRANCH  12  18
ATOM     18  C   UNL     1      -2.026  -0.859   0.065  1.00  0.00    -0.015 A 
ATOM     19  C   UNL     1      -2.763   1.607   0.073  1.00  0.00     0.045 C 
ATOM     20  C   UNL     1      -1.723   0.519   0.062  1.00  0.00    -0.042 A 
ATOM     21  C   UNL     1      -0.371   0.925   0.034  1.00  0.00     0.024 A 
ATOM     22  C   UNL     1       0.662  -0.012   0.016  1.00  0.00     0.041 A 
ATOM     23  C   UNL     1      -0.955  -1.781   0.047  1.00  0.00     0.010 A 
ATOM     24  Cl  UNL     1       2.299   0.511  -0.023  1.00  0.00    -0.084 Cl
ATOM     25  C   UNL     1       0.375  -1.367   0.025  1.00  0.00     0.021 A 
ENDBRANCH  12  18
ENDBRANCH   9  11
ENDBRANCH   8   9
ENDBRANCH   7   8
ENDBRANCH   6   7
ENDBRANCH   5   6
ENDBRANCH   4   5
ENDBRANCH   3   4
ENDBRANCH   2   3
ENDBRANCH   1   2
BRANCH   1  26
ATOM     26  C   UNL     1     -10.990  -0.308   2.059  1.00  0.00     0.188 C 
BRANCH  26  27
ATOM     27  O   UNL     1     -10.444   0.716   1.246  1.00  0.00    -0.376 OA
BRANCH  27  28
ATOM     28  C   UNL     1     -10.430   2.033   1.766  1.00  0.00     0.202 C 
BRANCH  28  29
ATOM     29  C   UNL     1      -9.579   2.276   3.022  1.00  0.00     0.261 C 
BRANCH  29  30
ATOM     30  O   UNL     1      -9.841   1.408   4.136  1.00  0.00    -0.460 OA
BRANCH  30  31
ATOM     31  C   UNL     1     -11.043   1.527   4.730  1.00  0.00     0.338 C 
ATOM     32  O   UNL     1     -11.939   2.309   4.439  1.00  0.00    -0.246 OA
BRANCH  31  33
ATOM     33  C   UNL     1     -11.194   0.418   5.691  1.00  0.00     0.060 A 
ATOM     34  C   UNL     1     -12.265  -0.471   5.532  1.00  0.00     0.016 A 
ATOM     35  C   UNL     1     -10.298   0.267   6.752  1.00  0.00     0.016 A 
ATOM     36  C   UNL     1     -12.480  -1.476   6.473  1.00  0.00     0.010 A 
ATOM     37  C   UNL     1     -10.524  -0.730   7.705  1.00  0.00     0.010 A 
ATOM     38  C   UNL     1     -11.648  -1.570   7.596  1.00  0.00    -0.014 A 
BRANCH  38  39
ATOM     39  C   UNL     1     -12.107  -2.372   8.757  1.00  0.00     0.031 A 
ATOM     40  C   UNL     1     -12.804  -1.654   9.882  1.00  0.00     0.074 A 
ATOM     41  C   UNL     1     -11.988  -3.709   8.780  1.00  0.00     0.049 A 
ATOM     42  N   UNL     1     -13.349  -2.134  10.971  1.00  0.00    -0.248 NA
ATOM     43  C   UNL     1     -12.899  -0.191   9.758  1.00  0.00     0.031 C 
ATOM     44  C   UNL     1     -11.380  -4.522   7.731  1.00  0.00     0.029 A 
ATOM     45  N   UNL     1     -12.393  -4.620   9.724  1.00  0.00    -0.354 N 
ATOM     46  C   UNL     1     -13.852  -1.034  11.655  1.00  0.00     0.074 A 
ATOM     47  C   UNL     1     -13.501   0.140  10.888  1.00  0.00     0.031 C 
ATOM     48  C   UNL     1     -11.464  -5.818   8.082  1.00  0.00     0.029 A 
ATOM     49  C   UNL     1     -12.108  -5.920   9.391  1.00  0.00     0.049 A 
ATOM     50  H   UNL     1     -12.845  -4.364  10.560  1.00  0.00     0.167 HD
ATOM     51  C   UNL     1     -14.561  -1.004  12.810  1.00  0.00     0.037 A 
ATOM     52  C   UNL     1     -12.342  -7.059  10.072  1.00  0.00     0.037 A 
ATOM     53  C   UNL     1     -14.895  -2.173  13.581  1.00  0.00     0.049 A 
ATOM     54  C   UNL     1     -13.047  -6.992  11.403  1.00  0.00     0.074 A 
ATOM     55  C   UNL     1     -15.602  -2.254  14.767  1.00  0.00     0.029 A 
ATOM     56  N   UNL     1     -14.530  -3.469  13.244  1.00  0.00    -0.354 N 
ATOM     57  N   UNL     1     -13.542  -5.954  12.034  1.00  0.00    -0.248 NA
ATOM     58  C   UNL     1     -13.235  -8.266  12.111  1.00  0.00     0.031 C 
ATOM     59  C   UNL     1     -15.610  -3.591  15.180  1.00  0.00     0.029 A 
ATOM     60  C   UNL     1     -14.975  -4.354  14.213  1.00  0.00     0.049 A 
ATOM     61  H   UNL     1     -14.029  -3.722  12.435  1.00  0.00     0.167 HD
ATOM     62  C   UNL     1     -14.139  -6.453  13.186  1.00  0.00     0.074 A 
ATOM     63  C   UNL     1     -13.952  -7.889  13.160  1.00  0.00     0.031 C 
ATOM     64  C   UNL     1     -14.791  -5.784  14.172  1.00  0.00     0.037 A 
BRANCH  51  65
ATOM     65  C   UNL     1     -14.979   0.348  13.320  1.00  0.00     0.064 A 
ATOM     66  C   UNL     1     -15.918   1.140  12.638  1.00  0.00     0.173 A 
ATOM     67  C   UNL     1     -14.420   0.867  14.497  1.00  0.00     0.173 A 
ATOM     68  F   UNL     1     -16.473   0.701  11.499  1.00  0.00    -0.203 F 
ATOM     69  C   UNL     1     -16.241   2.418  13.089  1.00  0.00     0.198 A 
ATOM     70  C   UNL     1     -14.775   2.129  14.966  1.00  0.00     0.198 A 
ATOM     71  F   UNL     1     -13.521   0.153  15.192  1.00  0.00    -0.203 F 
ATOM     72  F   UNL     1     -17.081   3.185  12.379  1.00  0.00    -0.200 F 
ATOM     73  C   UNL     1     -15.673   2.909  14.254  1.00  0.00     0.200 A 
ATOM     74  F   UNL     1     -14.236   2.596  16.101  1.00  0.00    -0.200 F 
ATOM     75  F   UNL     1     -15.981   4.140  14.685  1.00  0.00    -0.200 F 
ENDBRANCH  51  65
BRANCH  52  76
ATOM     76  C   UNL     1     -11.932  -8.369   9.498  1.00  0.00     0.064 A 
ATOM     77  C   UNL     1     -12.890  -9.314   9.104  1.00  0.00     0.173 A 
ATOM     78  C   UNL     1     -10.581  -8.713   9.354  1.00  0.00     0.173 A 
ATOM     79  F   UNL     1     -14.196  -9.043   9.247  1.00  0.00    -0.203 F 
ATOM     80  C   UNL     1     -12.512 -10.560   8.609  1.00  0.00     0.198 A 
ATOM     81  C   UNL     1     -10.204  -9.948   8.829  1.00  0.00     0.198 A 
ATOM     82  F   UNL     1      -9.624  -7.848   9.720  1.00  0.00    -0.203 F 
ATOM     83  F   UNL     1     -13.449 -11.464   8.289  1.00  0.00    -0.200 F 
ATOM     84  C   UNL     1     -11.169 -10.874   8.465  1.00  0.00     0.200 A 
ATOM     85  F   UNL     1      -8.905 -10.242   8.683  1.00  0.00    -0.200 F 
ATOM     86  F   UNL     1     -10.806 -12.071   7.986  1.00  0.00    -0.200 F 
ENDBRANCH  52  76
BRANCH  64  87
ATOM     87  C   UNL     1     -15.408  -6.606  15.271  1.00  0.00     0.064 A 
ATOM     88  C   UNL     1     -14.633  -7.317  16.200  1.00  0.00     0.173 A 
ATOM     89  C   UNL     1     -16.805  -6.673  15.402  1.00  0.00     0.173 A 
ATOM     90  F   UNL     1     -13.293  -7.297  16.118  1.00  0.00    -0.203 F 
ATOM     91  C   UNL     1     -15.231  -8.102  17.184  1.00  0.00     0.198 A 
ATOM     92  C   UNL     1     -17.399  -7.425  16.412  1.00  0.00     0.198 A 
ATOM     93  F   UNL     1     -17.598  -6.005  14.551  1.00  0.00    -0.203 F 
ATOM     94  F   UNL     1     -14.469  -8.830  18.012  1.00  0.00    -0.200 F 
ATOM     95  C   UNL     1     -16.613  -8.151  17.292  1.00  0.00     0.200 A 
ATOM     96  F   UNL     1     -18.734  -7.455  16.526  1.00  0.00    -0.200 F 
ATOM     97  F   UNL     1     -17.186  -8.907  18.238  1.00  0.00    -0.200 F 
ENDBRANCH  64  87
ENDBRANCH  38  39
ENDBRANCH  31  33
ENDBRANCH  30  31
ENDBRANCH  29  30
ENDBRANCH  28  29
ENDBRANCH  27  28
ENDBRANCH  26  27
ENDBRANCH   1  26
TORSDOF 21
