REMARK SMILES C[C@@H]1CC(C)(C)C[C@@](CC(=O)Nc2cccc(C(F)(F)F)c2)(C(=O)OCCOCCOCCOCCOC(=O)c2ccc(-c3c4nc(c(-c5c(F)c(F)c(F)c(F)c5F)c5ccc([nH]5)c(-c5c(F)c(F)c(F)c(F)c5F)c5nc(c(-c6c(F)c(F)c(F)c(F)c6F)c6ccc3[nH]6)C=C5)C=C4)cc2)C1
REMARK SMILES IDX 30 1 29 2 28 3 27 4 26 5 25 6 23 7 24 8 8 9 1 10 2 11 3 12
REMARK SMILES IDX 103 13 4 14 5 15 6 16 7 17 9 18 10 19 11 20 12 21 13 23
REMARK SMILES IDX 14 24 22 25 15 26 17 27 16 28 18 29 19 30 20 31 21 32 31 33
REMARK SMILES IDX 32 34 33 35 34 36 35 37 36 38 37 39 38 40 39 41 40 42 41 43
REMARK SMILES IDX 102 44 42 45 101 46 43 47 44 48 45 49 95 50 46 51 100 52
REMARK SMILES IDX 94 53 96 54 47 55 99 56 93 57 92 58 48 60 80 61 60 62 79 63
REMARK SMILES IDX 61 64 64 65 78 66 97 67 62 68 63 69 77 71 98 72 65 73 49 74
REMARK SMILES IDX 50 75 58 76 51 77 52 78 56 79 59 80 53 81 54 82 57 83 55 84
REMARK SMILES IDX 81 85 82 86 90 87 83 88 84 89 88 90 91 91 85 92 86 93 89 94
REMARK SMILES IDX 87 95 66 96 67 97 75 98 68 99 69 100 73 101 76 102 70 103
REMARK SMILES IDX 71 104 74 105 72 106
REMARK H PARENT 12 22 96 59 64 70
REMARK Flexibility Score: inf
ROOT
ATOM      1  C   UNL     1      -0.109  -5.277   0.285  1.00  0.00     0.188 C 
ENDROOT
BRANCH   1   2
ATOM      2  C   UNL     1       0.892  -4.983  -0.846  1.00  0.00     0.188 C 
BRANCH   2   3
ATOM      3  O   UNL     1       2.239  -5.277  -0.515  1.00  0.00    -0.376 OA
BRANCH   3   4
ATOM      4  C   UNL     1       3.129  -4.299  -0.028  1.00  0.00     0.202 C 
BRANCH   4   5
ATOM      5  C   UNL     1       2.721  -3.521   1.220  1.00  0.00     0.261 C 
BRANCH   5   6
ATOM      6  O   UNL     1       1.483  -2.791   1.175  1.00  0.00    -0.463 OA
BRANCH   6   7
ATOM      7  C   UNL     1       1.306  -1.912   0.160  1.00  0.00     0.312 C 
ATOM      8  O   UNL     1       1.777  -2.079  -0.956  1.00  0.00    -0.252 OA
BRANCH   7   9
ATOM      9  C   UNL     1       0.567  -0.635   0.568  1.00  0.00     0.078 C 
ATOM     10  C   UNL     1       0.427   2.691   0.540  1.00  0.00     0.008 C 
ATOM     11  C   UNL     1       0.116   1.694  -0.565  1.00  0.00    -0.013 C 
ATOM     12  C   UNL     1      -1.350   1.345  -0.748  1.00  0.00     0.009 C 
ATOM     13  C   UNL     1       0.925   0.419  -0.497  1.00  0.00     0.022 C 
ATOM     14  C   UNL     1      -1.928   0.275   0.208  1.00  0.00    -0.034 C 
ATOM     15  C   UNL     1      -2.345   0.910   1.545  1.00  0.00     0.011 C 
ATOM     16  C   UNL     1      -3.235  -0.224  -0.461  1.00  0.00     0.011 C 
ATOM     17  C   UNL     1      -0.966  -0.942   0.432  1.00  0.00     0.025 C 
BRANCH   9  18
ATOM     18  C   UNL     1       1.013  -0.338   2.019  1.00  0.00     0.119 C 
BRANCH  18  19
ATOM     19  C   UNL     1       2.079   0.648   2.462  1.00  0.00     0.225 C 
ATOM     20  O   UNL     1       1.843   1.228   3.541  1.00  0.00    -0.275 OA
ATOM     21  N   UNL     1       3.267   1.008   1.940  1.00  0.00    -0.326 N 
ATOM     22  H   UNL     1       3.714   1.620   2.569  1.00  0.00     0.169 HD
BRANCH  21  23
ATOM     23  C   UNL     1       4.101   0.828   0.822  1.00  0.00     0.041 A 
ATOM     24  C   UNL     1       4.992   1.882   0.584  1.00  0.00     0.026 A 
ATOM     25  C   UNL     1       4.080  -0.206  -0.106  1.00  0.00     0.039 A 
ATOM     26  C   UNL     1       5.728   1.964  -0.599  1.00  0.00     0.003 A 
ATOM     27  C   UNL     1       4.730  -0.097  -1.359  1.00  0.00     0.058 A 
ATOM     28  C   UNL     1       5.569   0.998  -1.583  1.00  0.00     0.013 A 
BRANCH  27  29
ATOM     29  C   UNL     1       4.475  -1.083  -2.483  1.00  0.00     0.416 C 
ATOM     30  F   UNL     1       5.140  -0.763  -3.633  1.00  0.00    -0.166 F 
ATOM     31  F   UNL     1       4.864  -2.348  -2.175  1.00  0.00    -0.166 F 
ATOM     32  F   UNL     1       3.167  -1.146  -2.849  1.00  0.00    -0.166 F 
ENDBRANCH  27  29
ENDBRANCH  21  23
ENDBRANCH  18  19
ENDBRANCH   9  18
ENDBRANCH   7   9
ENDBRANCH   6   7
ENDBRANCH   5   6
ENDBRANCH   4   5
ENDBRANCH   3   4
ENDBRANCH   2   3
ENDBRANCH   1   2
BRANCH   1  33
ATOM     33  O   UNL     1      -0.023  -6.558   0.905  1.00  0.00    -0.377 OA
BRANCH  33  34
ATOM     34  C   UNL     1       1.271  -6.941   1.343  1.00  0.00     0.188 C 
BRANCH  34  35
ATOM     35  C   UNL     1       2.056  -7.825   0.350  1.00  0.00     0.188 C 
BRANCH  35  36
ATOM     36  O   UNL     1       1.585  -8.073  -0.961  1.00  0.00    -0.376 OA
BRANCH  36  37
ATOM     37  C   UNL     1       0.230  -8.371  -1.239  1.00  0.00     0.202 C 
BRANCH  37  38
ATOM     38  C   UNL     1      -0.691  -9.195  -0.322  1.00  0.00     0.261 C 
BRANCH  38  39
ATOM     39  O   UNL     1      -0.312  -9.352   1.044  1.00  0.00    -0.460 OA
BRANCH  39  40
ATOM     40  C   UNL     1       0.497 -10.392   1.318  1.00  0.00     0.338 C 
ATOM     41  O   UNL     1       0.928 -11.230   0.538  1.00  0.00    -0.246 OA
BRANCH  40  42
ATOM     42  C   UNL     1       0.949 -10.248   2.714  1.00  0.00     0.060 A 
ATOM     43  C   UNL     1       2.325 -10.150   2.970  1.00  0.00     0.016 A 
ATOM     44  C   UNL     1       0.025 -10.185   3.760  1.00  0.00     0.016 A 
ATOM     45  C   UNL     1       2.785 -10.014   4.274  1.00  0.00     0.010 A 
ATOM     46  C   UNL     1       0.489 -10.099   5.073  1.00  0.00     0.010 A 
ATOM     47  C   UNL     1       1.871 -10.050   5.332  1.00  0.00    -0.014 A 
BRANCH  47  48
ATOM     48  C   UNL     1       2.376 -10.307   6.697  1.00  0.00     0.031 A 
ATOM     49  C   UNL     1       2.403 -11.732   7.172  1.00  0.00     0.074 A 
ATOM     50  C   UNL     1       2.833  -9.313   7.476  1.00  0.00     0.049 A 
ATOM     51  N   UNL     1       2.744 -12.215   8.338  1.00  0.00    -0.248 NA
ATOM     52  C   UNL     1       1.985 -12.752   6.196  1.00  0.00     0.031 C 
ATOM     53  C   UNL     1       2.908  -7.905   7.095  1.00  0.00     0.029 A 
ATOM     54  N   UNL     1       3.310  -9.344   8.761  1.00  0.00    -0.354 N 
ATOM     55  C   UNL     1       2.567 -13.589   8.238  1.00  0.00     0.074 A 
ATOM     56  C   UNL     1       2.065 -13.862   6.911  1.00  0.00     0.031 C 
ATOM     57  C   UNL     1       3.384  -7.200   8.136  1.00  0.00     0.029 A 
ATOM     58  C   UNL     1       3.611  -8.104   9.264  1.00  0.00     0.049 A 
ATOM     59  H   UNL     1       3.426 -10.177   9.274  1.00  0.00     0.167 HD
ATOM     60  C   UNL     1       2.807 -14.537   9.173  1.00  0.00     0.037 A 
ATOM     61  C   UNL     1       3.993  -7.745  10.505  1.00  0.00     0.037 A 
ATOM     62  C   UNL     1       3.305 -14.254  10.492  1.00  0.00     0.049 A 
ATOM     63  C   UNL     1       4.176  -8.814  11.555  1.00  0.00     0.074 A 
ATOM     64  C   UNL     1       3.602 -15.141  11.510  1.00  0.00     0.029 A 
ATOM     65  N   UNL     1       3.568 -12.981  10.978  1.00  0.00    -0.354 N 
ATOM     66  N   UNL     1       4.032 -10.114  11.451  1.00  0.00    -0.248 NA
ATOM     67  C   UNL     1       4.577  -8.363  12.895  1.00  0.00     0.031 C 
ATOM     68  C   UNL     1       3.981 -14.402  12.634  1.00  0.00     0.029 A 
ATOM     69  C   UNL     1       3.992 -13.058  12.295  1.00  0.00     0.049 A 
ATOM     70  H   UNL     1       3.469 -12.148  10.464  1.00  0.00     0.167 HD
ATOM     71  C   UNL     1       4.358 -10.637  12.697  1.00  0.00     0.074 A 
ATOM     72  C   UNL     1       4.721  -9.514  13.536  1.00  0.00     0.031 C 
ATOM     73  C   UNL     1       4.359 -11.929  13.111  1.00  0.00     0.037 A 
BRANCH  60  74
ATOM     74  C   UNL     1       2.491 -15.960   8.816  1.00  0.00     0.064 A 
ATOM     75  C   UNL     1       3.244 -16.675   7.873  1.00  0.00     0.173 A 
ATOM     76  C   UNL     1       1.432 -16.626   9.451  1.00  0.00     0.173 A 
ATOM     77  F   UNL     1       4.256 -16.079   7.224  1.00  0.00    -0.203 F 
ATOM     78  C   UNL     1       2.933 -17.996   7.562  1.00  0.00     0.198 A 
ATOM     79  C   UNL     1       1.146 -17.957   9.163  1.00  0.00     0.198 A 
ATOM     80  F   UNL     1       0.679 -15.988  10.361  1.00  0.00    -0.203 F 
ATOM     81  F   UNL     1       3.635 -18.644   6.621  1.00  0.00    -0.200 F 
ATOM     82  C   UNL     1       1.891 -18.639   8.213  1.00  0.00     0.200 A 
ATOM     83  F   UNL     1       0.147 -18.580   9.804  1.00  0.00    -0.200 F 
ATOM     84  F   UNL     1       1.600 -19.914   7.921  1.00  0.00    -0.200 F 
ENDBRANCH  60  74
BRANCH  61  85
ATOM     85  C   UNL     1       4.204  -6.311  10.836  1.00  0.00     0.064 A 
ATOM     86  C   UNL     1       5.474  -5.822  11.173  1.00  0.00     0.173 A 
ATOM     87  C   UNL     1       3.132  -5.405  10.857  1.00  0.00     0.173 A 
ATOM     88  F   UNL     1       6.527  -6.652  11.193  1.00  0.00    -0.203 F 
ATOM     89  C   UNL     1       5.659  -4.491  11.544  1.00  0.00     0.198 A 
ATOM     90  C   UNL     1       3.324  -4.067  11.195  1.00  0.00     0.198 A 
ATOM     91  F   UNL     1       1.895  -5.819  10.546  1.00  0.00    -0.203 F 
ATOM     92  F   UNL     1       6.873  -4.065  11.918  1.00  0.00    -0.200 F 
ATOM     93  C   UNL     1       4.585  -3.614  11.549  1.00  0.00     0.200 A 
ATOM     94  F   UNL     1       2.286  -3.220  11.185  1.00  0.00    -0.200 F 
ATOM     95  F   UNL     1       4.764  -2.334  11.905  1.00  0.00    -0.200 F 
ENDBRANCH  61  85
BRANCH  73  96
ATOM     96  C   UNL     1       4.812 -12.207  14.517  1.00  0.00     0.064 A 
ATOM     97  C   UNL     1       4.044 -11.836  15.631  1.00  0.00     0.173 A 
ATOM     98  C   UNL     1       6.013 -12.896  14.750  1.00  0.00     0.173 A 
ATOM     99  F   UNL     1       2.894 -11.165  15.466  1.00  0.00    -0.203 F 
ATOM    100  C   UNL     1       4.477 -12.117  16.925  1.00  0.00     0.198 A 
ATOM    101  C   UNL     1       6.423 -13.209  16.042  1.00  0.00     0.198 A 
ATOM    102  F   UNL     1       6.781 -13.284  13.720  1.00  0.00    -0.203 F 
ATOM    103  F   UNL     1       3.754 -11.704  17.975  1.00  0.00    -0.200 F 
ATOM    104  C   UNL     1       5.661 -12.810  17.129  1.00  0.00     0.200 A 
ATOM    105  F   UNL     1       7.558 -13.896  16.236  1.00  0.00    -0.200 F 
ATOM    106  F   UNL     1       6.070 -13.089  18.374  1.00  0.00    -0.200 F 
ENDBRANCH  73  96
ENDBRANCH  47  48
ENDBRANCH  40  42
ENDBRANCH  39  40
ENDBRANCH  38  39
ENDBRANCH  37  38
ENDBRANCH  36  37
ENDBRANCH  35  36
ENDBRANCH  34  35
ENDBRANCH  33  34
ENDBRANCH   1  33
TORSDOF 24
