REMARK SMILES COc1ccc2c(c1)c(CC(=O)OCCOCCOCCOCCOC(=O)c1ccc(-c3c4nc(c(-c5c(F)c(F)c(F)c(F)c5F)c5ccc([nH]5)c(-c5c(F)c(F)c(F)c(F)c5F)c5nc(c(-c6c(F)c(F)c(F)c(F)c6F)c6ccc3[nH]6)C=C5)C=C4)cc1)c(C(F)(F)F)n2C(=O)c1ccc(Cl)cc1
REMARK SMILES IDX 18 1 17 2 16 3 15 4 14 5 13 6 11 7 12 8 10 9 9 10 3 11 4 12
REMARK SMILES IDX 8 13 5 14 7 15 6 16 96 17 91 18 2 19 1 20 97 21 98 22 99 23
REMARK SMILES IDX 100 24 105 25 101 26 104 27 102 28 103 29 92 30 93 31 94 32
REMARK SMILES IDX 95 33 19 34 20 35 21 36 22 37 23 38 24 39 25 40 26 41 27 42
REMARK SMILES IDX 28 43 29 44 90 45 30 46 89 47 31 48 32 49 33 50 83 51 34 52
REMARK SMILES IDX 88 53 82 54 84 55 35 56 87 57 81 58 80 59 36 61 68 62 48 63
REMARK SMILES IDX 67 64 49 65 52 66 66 67 85 68 50 69 51 70 65 72 86 73 53 74
REMARK SMILES IDX 37 75 38 76 46 77 39 78 40 79 44 80 47 81 41 82 42 83 45 84
REMARK SMILES IDX 43 85 69 86 70 87 78 88 71 89 72 90 76 91 79 92 73 93 74 94
REMARK SMILES IDX 77 95 75 96 54 97 55 98 63 99 56 100 57 101 61 102 64 103
REMARK SMILES IDX 58 104 59 105 62 106 60 107
REMARK H PARENT 84 60 52 71
REMARK Flexibility Score: inf
ROOT
ATOM      1  C   UNL     1      -1.163   2.350  -3.241  1.00  0.00     0.188 C 
ENDROOT
BRANCH   1   2
ATOM      2  C   UNL     1      -2.552   1.970  -3.735  1.00  0.00     0.188 C 
BRANCH   2   3
ATOM      3  O   UNL     1      -2.686   1.979  -5.144  1.00  0.00    -0.376 OA
BRANCH   3   4
ATOM      4  C   UNL     1      -3.268   3.125  -5.743  1.00  0.00     0.202 C 
BRANCH   4   5
ATOM      5  C   UNL     1      -2.470   4.447  -5.761  1.00  0.00     0.261 C 
BRANCH   5   6
ATOM      6  O   UNL     1      -1.855   4.894  -4.531  1.00  0.00    -0.463 OA
BRANCH   6   7
ATOM      7  C   UNL     1      -2.652   5.469  -3.599  1.00  0.00     0.310 C 
ATOM      8  O   UNL     1      -3.867   5.584  -3.745  1.00  0.00    -0.252 OA
BRANCH   7   9
ATOM      9  C   UNL     1      -1.960   5.909  -2.305  1.00  0.00     0.161 C 
BRANCH   9  10
ATOM     10  C   UNL     1      -0.453   5.741  -2.112  1.00  0.00     0.002 A 
ATOM     11  C   UNL     1       0.548   2.699   0.012  1.00  0.00     0.119 A 
ATOM     12  C   UNL     1       1.913   2.860  -0.117  1.00  0.00     0.048 A 
ATOM     13  C   UNL     1      -0.310   3.684  -0.494  1.00  0.00     0.057 A 
ATOM     14  C   UNL     1       2.432   3.961  -0.801  1.00  0.00     0.031 A 
ATOM     15  C   UNL     1       0.184   4.749  -1.291  1.00  0.00     0.008 A 
ATOM     16  C   UNL     1       1.568   4.896  -1.418  1.00  0.00     0.057 A 
ATOM     17  N   UNL     1       1.814   6.017  -2.228  1.00  0.00    -0.271 N 
ATOM     18  C   UNL     1       0.570   6.569  -2.580  1.00  0.00     0.135 A 
BRANCH  11  19
ATOM     19  O   UNL     1      -0.068   1.610   0.569  1.00  0.00    -0.497 OA
ATOM     20  C   UNL     1       0.717   0.424   0.689  1.00  0.00     0.278 C 
ENDBRANCH  11  19
BRANCH  17  21
ATOM     21  C   UNL     1       3.103   6.471  -2.644  1.00  0.00     0.262 C 
ATOM     22  O   UNL     1       3.167   7.329  -3.519  1.00  0.00    -0.268 OA
BRANCH  21  23
ATOM     23  C   UNL     1       4.395   5.936  -2.163  1.00  0.00     0.040 A 
ATOM     24  C   UNL     1       4.998   4.893  -2.877  1.00  0.00     0.015 A 
ATOM     25  C   UNL     1       4.984   6.428  -0.990  1.00  0.00     0.015 A 
ATOM     26  C   UNL     1       6.161   4.296  -2.382  1.00  0.00     0.021 A 
ATOM     27  C   UNL     1       6.156   5.833  -0.506  1.00  0.00     0.021 A 
ATOM     28  C   UNL     1       6.730   4.762  -1.196  1.00  0.00     0.041 A 
ATOM     29  Cl  UNL     1       8.138   3.996  -0.569  1.00  0.00    -0.084 Cl
ENDBRANCH  21  23
ENDBRANCH  17  21
BRANCH  18  30
ATOM     30  C   UNL     1       0.424   7.847  -3.343  1.00  0.00     0.432 C 
ATOM     31  F   UNL     1       0.410   7.638  -4.681  1.00  0.00    -0.165 F 
ATOM     32  F   UNL     1      -0.773   8.431  -3.046  1.00  0.00    -0.165 F 
ATOM     33  F   UNL     1       1.344   8.793  -3.053  1.00  0.00    -0.165 F 
ENDBRANCH  18  30
ENDBRANCH   9  10
ENDBRANCH   7   9
ENDBRANCH   6   7
ENDBRANCH   5   6
ENDBRANCH   4   5
ENDBRANCH   3   4
ENDBRANCH   2   3
ENDBRANCH   1   2
BRANCH   1  34
ATOM     34  O   UNL     1       0.022   2.050  -3.936  1.00  0.00    -0.377 OA
BRANCH  34  35
ATOM     35  C   UNL     1      -0.059   1.381  -5.164  1.00  0.00     0.188 C 
BRANCH  35  36
ATOM     36  C   UNL     1      -0.410  -0.110  -5.096  1.00  0.00     0.188 C 
BRANCH  36  37
ATOM     37  O   UNL     1      -0.028  -0.931  -3.995  1.00  0.00    -0.376 OA
BRANCH  37  38
ATOM     38  C   UNL     1       0.951  -0.493  -3.067  1.00  0.00     0.202 C 
BRANCH  38  39
ATOM     39  C   UNL     1       2.416  -0.406  -3.530  1.00  0.00     0.261 C 
BRANCH  39  40
ATOM     40  O   UNL     1       2.582   0.239  -4.795  1.00  0.00    -0.460 OA
BRANCH  40  41
ATOM     41  C   UNL     1       3.179  -0.472  -5.791  1.00  0.00     0.338 C 
ATOM     42  O   UNL     1       3.846  -1.470  -5.694  1.00  0.00    -0.246 OA
BRANCH  41  43
ATOM     43  C   UNL     1       2.570   0.030  -7.048  1.00  0.00     0.060 A 
ATOM     44  C   UNL     1       2.545   1.396  -7.341  1.00  0.00     0.016 A 
ATOM     45  C   UNL     1       1.736  -0.866  -7.730  1.00  0.00     0.016 A 
ATOM     46  C   UNL     1       1.564   1.876  -8.205  1.00  0.00     0.010 A 
ATOM     47  C   UNL     1       0.749  -0.380  -8.588  1.00  0.00     0.010 A 
ATOM     48  C   UNL     1       0.628   0.996  -8.788  1.00  0.00    -0.014 A 
BRANCH  48  49
ATOM     49  C   UNL     1      -0.260   1.549  -9.821  1.00  0.00     0.031 A 
ATOM     50  C   UNL     1       0.514   2.083 -10.975  1.00  0.00     0.074 A 
ATOM     51  C   UNL     1      -1.605   1.478  -9.913  1.00  0.00     0.049 A 
ATOM     52  N   UNL     1       0.512   3.278 -11.469  1.00  0.00    -0.248 NA
ATOM     53  C   UNL     1       1.515   1.178 -11.567  1.00  0.00     0.031 C 
ATOM     54  C   UNL     1      -2.540   0.735  -9.070  1.00  0.00     0.029 A 
ATOM     55  N   UNL     1      -2.419   2.007 -10.885  1.00  0.00    -0.354 N 
ATOM     56  C   UNL     1       1.415   3.240 -12.526  1.00  0.00     0.074 A 
ATOM     57  C   UNL     1       2.103   1.978 -12.451  1.00  0.00     0.031 C 
ATOM     58  C   UNL     1      -3.752   0.699  -9.675  1.00  0.00     0.029 A 
ATOM     59  C   UNL     1      -3.710   1.494 -10.894  1.00  0.00     0.049 A 
ATOM     60  H   UNL     1      -2.113   2.693 -11.521  1.00  0.00     0.167 HD
ATOM     61  C   UNL     1       1.399   4.156 -13.527  1.00  0.00     0.037 A 
ATOM     62  C   UNL     1      -4.651   1.655 -11.863  1.00  0.00     0.037 A 
ATOM     63  C   UNL     1       0.737   5.370 -13.147  1.00  0.00     0.049 A 
ATOM     64  C   UNL     1      -4.254   2.808 -12.707  1.00  0.00     0.074 A 
ATOM     65  C   UNL     1       0.936   6.312 -12.157  1.00  0.00     0.029 A 
ATOM     66  N   UNL     1      -0.510   5.623 -13.656  1.00  0.00    -0.354 N 
ATOM     67  N   UNL     1      -4.334   4.057 -12.348  1.00  0.00    -0.248 NA
ATOM     68  C   UNL     1      -3.435   2.546 -13.883  1.00  0.00     0.031 C 
ATOM     69  C   UNL     1      -0.366   6.773 -11.810  1.00  0.00     0.029 A 
ATOM     70  C   UNL     1      -1.274   6.093 -12.621  1.00  0.00     0.049 A 
ATOM     71  H   UNL     1      -0.801   5.492 -14.587  1.00  0.00     0.167 HD
ATOM     72  C   UNL     1      -3.266   4.670 -12.981  1.00  0.00     0.074 A 
ATOM     73  C   UNL     1      -2.822   3.725 -13.996  1.00  0.00     0.031 C 
ATOM     74  C   UNL     1      -2.665   5.766 -12.438  1.00  0.00     0.037 A 
BRANCH  61  75
ATOM     75  C   UNL     1       1.696   3.797 -14.957  1.00  0.00     0.064 A 
ATOM     76  C   UNL     1       1.891   4.819 -15.903  1.00  0.00     0.173 A 
ATOM     77  C   UNL     1       1.508   2.499 -15.483  1.00  0.00     0.173 A 
ATOM     78  F   UNL     1       2.036   6.093 -15.510  1.00  0.00    -0.203 F 
ATOM     79  C   UNL     1       1.846   4.564 -17.275  1.00  0.00     0.198 A 
ATOM     80  C   UNL     1       1.527   2.240 -16.849  1.00  0.00     0.198 A 
ATOM     81  F   UNL     1       1.186   1.456 -14.706  1.00  0.00    -0.203 F 
ATOM     82  F   UNL     1       1.911   5.584 -18.141  1.00  0.00    -0.200 F 
ATOM     83  C   UNL     1       1.665   3.276 -17.747  1.00  0.00     0.200 A 
ATOM     84  F   UNL     1       1.327   0.988 -17.285  1.00  0.00    -0.200 F 
ATOM     85  F   UNL     1       1.567   3.039 -19.061  1.00  0.00    -0.200 F 
ENDBRANCH  61  75
BRANCH  62  86
ATOM     86  C   UNL     1      -5.786   0.777 -12.254  1.00  0.00     0.064 A 
ATOM     87  C   UNL     1      -6.840   1.254 -13.058  1.00  0.00     0.173 A 
ATOM     88  C   UNL     1      -5.735  -0.616 -12.066  1.00  0.00     0.173 A 
ATOM     89  F   UNL     1      -6.944   2.562 -13.335  1.00  0.00    -0.203 F 
ATOM     90  C   UNL     1      -7.768   0.388 -13.650  1.00  0.00     0.198 A 
ATOM     91  C   UNL     1      -6.670  -1.478 -12.645  1.00  0.00     0.198 A 
ATOM     92  F   UNL     1      -4.723  -1.183 -11.395  1.00  0.00    -0.203 F 
ATOM     93  F   UNL     1      -8.718   0.877 -14.460  1.00  0.00    -0.200 F 
ATOM     94  C   UNL     1      -7.678  -0.978 -13.447  1.00  0.00     0.200 A 
ATOM     95  F   UNL     1      -6.550  -2.801 -12.469  1.00  0.00    -0.200 F 
ATOM     96  F   UNL     1      -8.533  -1.812 -14.056  1.00  0.00    -0.200 F 
ENDBRANCH  62  86
BRANCH  74  97
ATOM     97  C   UNL     1      -3.387   6.506 -11.355  1.00  0.00     0.064 A 
ATOM     98  C   UNL     1      -3.684   5.955 -10.098  1.00  0.00     0.173 A 
ATOM     99  C   UNL     1      -3.622   7.876 -11.540  1.00  0.00     0.173 A 
ATOM    100  F   UNL     1      -3.396   4.676  -9.815  1.00  0.00    -0.203 F 
ATOM    101  C   UNL     1      -4.223   6.742  -9.083  1.00  0.00     0.198 A 
ATOM    102  C   UNL     1      -4.121   8.666 -10.511  1.00  0.00     0.198 A 
ATOM    103  F   UNL     1      -3.309   8.460 -12.709  1.00  0.00    -0.203 F 
ATOM    104  F   UNL     1      -4.508   6.195  -7.893  1.00  0.00    -0.200 F 
ATOM    105  C   UNL     1      -4.426   8.098  -9.285  1.00  0.00     0.200 A 
ATOM    106  F   UNL     1      -4.273   9.985 -10.697  1.00  0.00    -0.200 F 
ATOM    107  F   UNL     1      -4.888   8.865  -8.287  1.00  0.00    -0.200 F 
ENDBRANCH  74  97
ENDBRANCH  48  49
ENDBRANCH  41  43
ENDBRANCH  40  41
ENDBRANCH  39  40
ENDBRANCH  38  39
ENDBRANCH  37  38
ENDBRANCH  36  37
ENDBRANCH  35  36
ENDBRANCH  34  35
ENDBRANCH   1  34
TORSDOF 25
