REMARK SMILES C[NH2+][C@]1(C(=O)OCCOCCOCCOCCOC(=O)c2ccc(-c3c4nc(c(-c5c(F)c(F)c(F)c(F)c5F)c5ccc([nH]5)c(-c5c(F)c(F)c(F)c(F)c5F)c5nc(c(-c6c(F)c(F)c(F)c(F)c6F)c6ccc3[nH]6)C=C5)C=C4)cc2)CCC[C@H]1CCOC1C[C@@H](C)C[C@H](C)C1
REMARK SMILES IDX 11 1 10 2 9 3 8 4 7 5 6 6 4 7 5 8 3 9 84 10 87 11 85 12
REMARK SMILES IDX 86 13 2 14 1 15 88 18 89 19 90 20 91 21 92 22 98 23 93 24
REMARK SMILES IDX 96 25 94 26 95 27 97 28 12 29 13 30 14 31 15 32 16 33 17 34
REMARK SMILES IDX 18 35 19 36 20 37 21 38 22 39 83 40 23 41 82 42 24 43 25 44
REMARK SMILES IDX 26 45 76 46 27 47 81 48 75 49 77 50 28 51 80 52 74 53 73 54
REMARK SMILES IDX 29 56 61 57 41 58 60 59 42 60 45 61 59 62 78 63 43 64 44 65
REMARK SMILES IDX 58 67 79 68 46 69 30 70 31 71 39 72 32 73 33 74 37 75 40 76
REMARK SMILES IDX 34 77 35 78 38 79 36 80 62 81 63 82 71 83 64 84 65 85 69 86
REMARK SMILES IDX 72 87 66 88 67 89 70 90 68 91 47 92 48 93 56 94 49 95 50 96
REMARK SMILES IDX 54 97 57 98 51 99 52 100 55 101 53 102
REMARK H PARENT 2 16 2 17 77 55 45 66
REMARK Flexibility Score: inf
ROOT
ATOM      1  C   UNL     1       1.179   1.750   1.929  1.00  0.00     0.188 C 
ENDROOT
BRANCH   1   2
ATOM      2  C   UNL     1       2.110   1.018   2.911  1.00  0.00     0.188 C 
BRANCH   2   3
ATOM      3  O   UNL     1       3.395   0.702   2.425  1.00  0.00    -0.376 OA
BRANCH   3   4
ATOM      4  C   UNL     1       3.599  -0.381   1.551  1.00  0.00     0.202 C 
BRANCH   4   5
ATOM      5  C   UNL     1       2.506  -1.198   0.869  1.00  0.00     0.261 C 
BRANCH   5   6
ATOM      6  O   UNL     1       1.118  -0.821   0.916  1.00  0.00    -0.459 OA
BRANCH   6   7
ATOM      7  C   UNL     1       0.309  -1.484   1.802  1.00  0.00     0.368 C 
ATOM      8  O   UNL     1       0.719  -1.994   2.839  1.00  0.00    -0.245 OA
BRANCH   7   9
ATOM      9  C   UNL     1      -1.167  -1.641   1.267  1.00  0.00     0.197 C 
ATOM     10  C   UNL     1      -1.612  -0.342   0.507  1.00  0.00     0.081 C 
ATOM     11  C   UNL     1      -1.795  -3.071   0.260  1.00  0.00     0.065 C 
ATOM     12  C   UNL     1      -2.963  -0.649  -0.095  1.00  0.00     0.008 C 
ATOM     13  C   UNL     1      -3.220  -2.148   0.048  1.00  0.00     0.011 C 
BRANCH   9  14
ATOM     14  N   UNL     1      -2.036  -1.352   2.502  1.00  0.00    -0.334 N 
ATOM     15  C   UNL     1      -2.421  -2.408   3.403  1.00  0.00     0.331 C 
ATOM     16  H   UNL     1      -1.527  -0.666   3.060  1.00  0.00     0.347 HD
ATOM     17  H   UNL     1      -2.926  -1.075   2.089  1.00  0.00     0.347 HD
ENDBRANCH   9  14
BRANCH  11  18
ATOM     18  C   UNL     1      -1.015  -4.611  -0.976  1.00  0.00     0.039 C 
BRANCH  18  19
ATOM     19  C   UNL     1       0.076  -5.864  -0.622  1.00  0.00     0.161 C 
BRANCH  19  20
ATOM     20  O   UNL     1       0.253  -5.907   0.757  1.00  0.00    -0.378 OA
BRANCH  20  21
ATOM     21  C   UNL     1      -0.509  -4.756   1.030  1.00  0.00     0.118 C 
ATOM     22  C   UNL     1       0.388  -3.454  -0.089  1.00  0.00     0.035 C 
ATOM     23  C   UNL     1      -2.303  -5.337   0.592  1.00  0.00     0.035 C 
ATOM     24  C   UNL     1      -0.563  -2.547  -1.488  1.00  0.00    -0.011 C 
ATOM     25  C   UNL     1      -3.219  -4.562  -0.893  1.00  0.00    -0.011 C 
ATOM     26  C   UNL     1       0.380  -2.327  -2.682  1.00  0.00     0.008 C 
ATOM     27  C   UNL     1      -2.299  -3.247  -2.002  1.00  0.00     0.006 C 
ATOM     28  C   UNL     1      -4.729  -4.520  -0.599  1.00  0.00     0.008 C 
ENDBRANCH  20  21
ENDBRANCH  19  20
ENDBRANCH  18  19
ENDBRANCH  11  18
ENDBRANCH   7   9
ENDBRANCH   6   7
ENDBRANCH   5   6
ENDBRANCH   4   5
ENDBRANCH   3   4
ENDBRANCH   2   3
ENDBRANCH   1   2
BRANCH   1  29
ATOM     29  O   UNL     1       1.574   1.740   0.566  1.00  0.00    -0.377 OA
BRANCH  29  30
ATOM     30  C   UNL     1       2.675   2.538   0.145  1.00  0.00     0.188 C 
BRANCH  30  31
ATOM     31  C   UNL     1       3.595   3.251   1.159  1.00  0.00     0.188 C 
BRANCH  31  32
ATOM     32  O   UNL     1       2.953   3.694   2.343  1.00  0.00    -0.376 OA
BRANCH  32  33
ATOM     33  C   UNL     1       2.516   5.040   2.429  1.00  0.00     0.202 C 
BRANCH  33  34
ATOM     34  C   UNL     1       1.440   5.487   1.429  1.00  0.00     0.261 C 
BRANCH  34  35
ATOM     35  O   UNL     1       1.817   5.442   0.045  1.00  0.00    -0.460 OA
BRANCH  35  36
ATOM     36  C   UNL     1       2.941   6.092  -0.323  1.00  0.00     0.338 C 
ATOM     37  O   UNL     1       3.648   6.806   0.356  1.00  0.00    -0.246 OA
BRANCH  36  38
ATOM     38  C   UNL     1       3.292   5.612  -1.673  1.00  0.00     0.060 A 
ATOM     39  C   UNL     1       4.547   5.022  -1.876  1.00  0.00     0.016 A 
ATOM     40  C   UNL     1       2.384   5.749  -2.725  1.00  0.00     0.016 A 
ATOM     41  C   UNL     1       4.919   4.610  -3.150  1.00  0.00     0.010 A 
ATOM     42  C   UNL     1       2.771   5.371  -4.009  1.00  0.00     0.010 A 
ATOM     43  C   UNL     1       4.057   4.847  -4.228  1.00  0.00    -0.014 A 
BRANCH  43  44
ATOM     44  C   UNL     1       4.614   4.843  -5.597  1.00  0.00     0.031 A 
ATOM     45  C   UNL     1       5.171   6.140  -6.115  1.00  0.00     0.074 A 
ATOM     46  C   UNL     1       4.648   3.728  -6.342  1.00  0.00     0.049 A 
ATOM     47  N   UNL     1       5.667   6.425  -7.289  1.00  0.00    -0.248 NA
ATOM     48  C   UNL     1       5.166   7.273  -5.172  1.00  0.00     0.031 C 
ATOM     49  C   UNL     1       4.188   2.409  -5.916  1.00  0.00     0.029 A 
ATOM     50  N   UNL     1       5.088   3.538  -7.626  1.00  0.00    -0.354 N 
ATOM     51  C   UNL     1       6.029   7.764  -7.225  1.00  0.00     0.074 A 
ATOM     52  C   UNL     1       5.673   8.246  -5.911  1.00  0.00     0.031 C 
ATOM     53  C   UNL     1       4.353   1.544  -6.933  1.00  0.00     0.029 A 
ATOM     54  C   UNL     1       4.899   2.259  -8.086  1.00  0.00     0.049 A 
ATOM     55  H   UNL     1       5.500   4.250  -8.167  1.00  0.00     0.167 HD
ATOM     56  C   UNL     1       6.613   8.523  -8.180  1.00  0.00     0.037 A 
ATOM     57  C   UNL     1       5.120   1.744  -9.311  1.00  0.00     0.037 A 
ATOM     58  C   UNL     1       6.950   8.039  -9.490  1.00  0.00     0.049 A 
ATOM     59  C   UNL     1       5.690   2.634 -10.387  1.00  0.00     0.074 A 
ATOM     60  C   UNL     1       7.542   8.721 -10.536  1.00  0.00     0.029 A 
ATOM     61  N   UNL     1       6.710   6.747  -9.933  1.00  0.00    -0.354 N 
ATOM     62  N   UNL     1       6.046   3.895 -10.320  1.00  0.00    -0.248 NA
ATOM     63  C   UNL     1       5.889   2.027 -11.711  1.00  0.00     0.031 C 
ATOM     64  C   UNL     1       7.612   7.854 -11.632  1.00  0.00     0.029 A 
ATOM     65  C   UNL     1       7.119   6.617 -11.249  1.00  0.00     0.049 A 
ATOM     66  H   UNL     1       6.309   6.029  -9.392  1.00  0.00     0.167 HD
ATOM     67  C   UNL     1       6.538   4.223 -11.578  1.00  0.00     0.074 A 
ATOM     68  C   UNL     1       6.445   3.024 -12.385  1.00  0.00     0.031 C 
ATOM     69  C   UNL     1       7.025   5.407 -12.026  1.00  0.00     0.037 A 
BRANCH  56  70
ATOM     70  C   UNL     1       6.882   9.961  -7.848  1.00  0.00     0.064 A 
ATOM     71  C   UNL     1       7.878  10.334  -6.934  1.00  0.00     0.173 A 
ATOM     72  C   UNL     1       6.136  10.979  -8.459  1.00  0.00     0.173 A 
ATOM     73  F   UNL     1       8.603   9.397  -6.303  1.00  0.00    -0.203 F 
ATOM     74  C   UNL     1       8.101  11.674  -6.626  1.00  0.00     0.198 A 
ATOM     75  C   UNL     1       6.382  12.319  -8.172  1.00  0.00     0.198 A 
ATOM     76  F   UNL     1       5.167  10.675  -9.336  1.00  0.00    -0.203 F 
ATOM     77  F   UNL     1       9.023  12.005  -5.712  1.00  0.00    -0.200 F 
ATOM     78  C   UNL     1       7.359  12.665  -7.251  1.00  0.00     0.200 A 
ATOM     79  F   UNL     1       5.668  13.275  -8.782  1.00  0.00    -0.200 F 
ATOM     80  F   UNL     1       7.578  13.954  -6.958  1.00  0.00    -0.200 F 
ENDBRANCH  56  70
BRANCH  57  81
ATOM     81  C   UNL     1       4.786   0.323  -9.594  1.00  0.00     0.064 A 
ATOM     82  C   UNL     1       5.788  -0.617  -9.870  1.00  0.00     0.173 A 
ATOM     83  C   UNL     1       3.454  -0.118  -9.620  1.00  0.00     0.173 A 
ATOM     84  F   UNL     1       7.075  -0.239  -9.883  1.00  0.00    -0.203 F 
ATOM     85  C   UNL     1       5.471  -1.938 -10.180  1.00  0.00     0.198 A 
ATOM     86  C   UNL     1       3.140  -1.446  -9.901  1.00  0.00     0.198 A 
ATOM     87  F   UNL     1       2.456   0.741  -9.367  1.00  0.00    -0.203 F 
ATOM     88  F   UNL     1       6.446  -2.804 -10.488  1.00  0.00    -0.200 F 
ATOM     89  C   UNL     1       4.147  -2.353 -10.190  1.00  0.00     0.200 A 
ATOM     90  F   UNL     1       1.860  -1.845  -9.897  1.00  0.00    -0.200 F 
ATOM     91  F   UNL     1       3.843  -3.624 -10.486  1.00  0.00    -0.200 F 
ENDBRANCH  57  81
BRANCH  69  92
ATOM     92  C   UNL     1       7.534   5.455 -13.438  1.00  0.00     0.064 A 
ATOM     93  C   UNL     1       6.665   5.413 -14.537  1.00  0.00     0.173 A 
ATOM     94  C   UNL     1       8.908   5.598 -13.689  1.00  0.00     0.173 A 
ATOM     95  F   UNL     1       5.345   5.265 -14.350  1.00  0.00    -0.203 F 
ATOM     96  C   UNL     1       7.156   5.488 -15.838  1.00  0.00     0.198 A 
ATOM     97  C   UNL     1       9.391   5.706 -14.989  1.00  0.00     0.198 A 
ATOM     98  F   UNL     1       9.780   5.654 -12.671  1.00  0.00    -0.203 F 
ATOM     99  F   UNL     1       6.312   5.399 -16.876  1.00  0.00    -0.200 F 
ATOM    100  C   UNL     1       8.516   5.643 -16.063  1.00  0.00     0.200 A 
ATOM    101  F   UNL     1      10.703   5.872 -15.203  1.00  0.00    -0.200 F 
ATOM    102  F   UNL     1       8.984   5.725 -17.316  1.00  0.00    -0.200 F 
ENDBRANCH  69  92
ENDBRANCH  43  44
ENDBRANCH  36  38
ENDBRANCH  35  36
ENDBRANCH  34  35
ENDBRANCH  33  34
ENDBRANCH  32  33
ENDBRANCH  31  32
ENDBRANCH  30  31
ENDBRANCH  29  30
ENDBRANCH   1  29
TORSDOF 25
