REMARK SMILES C[C@@H](NC(=O)CNC(=O)N1CC(=O)Nc2ccccc21)C(=O)OCCOCCOCCOCCOC(=O)c1ccc(-c2c3nc(c(-c4c(F)c(F)c(F)c(F)c4F)c4ccc([nH]4)c(-c4c(F)c(F)c(F)c(F)c4F)c4nc(c(-c5c(F)c(F)c(F)c(F)c5F)c5ccc2[nH]5)C=C4)C=C3)cc1
REMARK SMILES IDX 28 1 27 2 26 3 25 4 24 5 23 6 21 7 22 8 2 9 1 10 3 11 4 12
REMARK SMILES IDX 5 14 6 15 7 16 8 17 9 19 10 20 11 21 20 22 12 23 15 24 19 25
REMARK SMILES IDX 13 26 14 27 16 28 18 29 17 31 29 32 30 33 31 34 32 35 33 36
REMARK SMILES IDX 34 37 35 38 36 39 37 40 38 41 39 42 100 43 40 44 99 45 41 46
REMARK SMILES IDX 42 47 43 48 93 49 44 50 98 51 92 52 94 53 45 54 97 55 91 56
REMARK SMILES IDX 90 57 46 59 78 60 58 61 77 62 59 63 62 64 76 65 95 66 60 67
REMARK SMILES IDX 61 68 75 70 96 71 63 72 47 73 48 74 56 75 49 76 50 77 54 78
REMARK SMILES IDX 57 79 51 80 52 81 55 82 53 83 79 84 80 85 88 86 81 87 82 88
REMARK SMILES IDX 86 89 89 90 83 91 84 92 87 93 85 94 64 95 65 96 73 97 66 98
REMARK SMILES IDX 67 99 71 100 74 101 68 102 69 103 72 104 70 105
REMARK H PARENT 3 13 7 18 14 30 94 58 62 69
REMARK Flexibility Score: inf
ROOT
ATOM      1  C   UNL     1      -1.270   0.517   1.847  1.00  0.00     0.188 C 
ENDROOT
BRANCH   1   2
ATOM      2  C   UNL     1      -2.241   0.837   0.702  1.00  0.00     0.188 C 
BRANCH   2   3
ATOM      3  O   UNL     1      -2.803  -0.396   0.155  1.00  0.00    -0.376 OA
BRANCH   3   4
ATOM      4  C   UNL     1      -3.682  -0.500  -1.004  1.00  0.00     0.202 C 
BRANCH   4   5
ATOM      5  C   UNL     1      -3.292  -1.497  -2.333  1.00  0.00     0.261 C 
BRANCH   5   6
ATOM      6  O   UNL     1      -2.071  -1.277  -3.551  1.00  0.00    -0.462 OA
BRANCH   6   7
ATOM      7  C   UNL     1      -0.801  -0.962  -4.098  1.00  0.00     0.328 C 
ATOM      8  O   UNL     1      -0.789  -0.817  -5.331  1.00  0.00    -0.250 OA
BRANCH   7   9
ATOM      9  C   UNL     1       0.752  -0.944  -3.380  1.00  0.00     0.189 C 
ATOM     10  C   UNL     1       1.513  -0.334  -2.159  1.00  0.00     0.043 C 
BRANCH   9  11
ATOM     11  N   UNL     1       1.225  -2.303  -3.427  1.00  0.00    -0.341 N 
ATOM     12  C   UNL     1       0.587  -3.280  -2.722  1.00  0.00     0.240 C 
ATOM     13  H   UNL     1       2.014  -2.528  -3.971  1.00  0.00     0.164 HD
ATOM     14  O   UNL     1       1.033  -4.423  -2.733  1.00  0.00    -0.273 OA
BRANCH  12  15
ATOM     15  C   UNL     1      -0.811  -2.921  -2.175  1.00  0.00     0.218 C 
BRANCH  15  16
ATOM     16  N   UNL     1      -0.963  -1.472  -1.474  1.00  0.00    -0.329 N 
ATOM     17  C   UNL     1      -1.057  -0.069  -1.570  1.00  0.00     0.322 C 
ATOM     18  H   UNL     1      -1.017  -1.662  -0.509  1.00  0.00     0.165 HD
ATOM     19  O   UNL     1      -0.297   0.375  -0.687  1.00  0.00    -0.248 OA
BRANCH  17  20
ATOM     20  N   UNL     1      -1.819   0.867  -2.387  1.00  0.00    -0.283 N 
ATOM     21  C   UNL     1      -2.813   1.011  -3.628  1.00  0.00     0.227 C 
ATOM     22  C   UNL     1      -1.675   2.292  -2.074  1.00  0.00     0.070 A 
ATOM     23  C   UNL     1      -2.114   1.773  -4.763  1.00  0.00     0.244 C 
ATOM     24  C   UNL     1      -1.090   3.106  -3.030  1.00  0.00     0.065 A 
ATOM     25  C   UNL     1      -2.594   2.969  -1.255  1.00  0.00     0.028 A 
ATOM     26  O   UNL     1      -2.521   1.751  -5.923  1.00  0.00    -0.273 OA
ATOM     27  N   UNL     1      -1.153   2.689  -4.372  1.00  0.00    -0.323 N 
ATOM     28  C   UNL     1      -0.871   4.459  -2.772  1.00  0.00     0.028 A 
ATOM     29  C   UNL     1      -2.466   4.327  -0.986  1.00  0.00     0.002 A 
ATOM     30  H   UNL     1      -0.515   3.047  -5.031  1.00  0.00     0.170 HD
ATOM     31  C   UNL     1      -1.522   5.056  -1.691  1.00  0.00     0.002 A 
ENDBRANCH  17  20
ENDBRANCH  15  16
ENDBRANCH  12  15
ENDBRANCH   9  11
ENDBRANCH   7   9
ENDBRANCH   6   7
ENDBRANCH   5   6
ENDBRANCH   4   5
ENDBRANCH   3   4
ENDBRANCH   2   3
ENDBRANCH   1   2
BRANCH   1  32
ATOM     32  O   UNL     1      -1.908   0.537   3.107  1.00  0.00    -0.377 OA
BRANCH  32  33
ATOM     33  C   UNL     1      -3.310   0.401   3.014  1.00  0.00     0.188 C 
BRANCH  33  34
ATOM     34  C   UNL     1      -4.127   1.714   2.834  1.00  0.00     0.188 C 
BRANCH  34  35
ATOM     35  O   UNL     1      -3.662   3.025   3.156  1.00  0.00    -0.376 OA
BRANCH  35  36
ATOM     36  C   UNL     1      -2.291   3.377   3.270  1.00  0.00     0.202 C 
BRANCH  36  37
ATOM     37  C   UNL     1      -1.694   3.234   4.682  1.00  0.00     0.261 C 
BRANCH  37  38
ATOM     38  O   UNL     1      -2.057   2.023   5.353  1.00  0.00    -0.460 OA
BRANCH  38  39
ATOM     39  C   UNL     1      -3.300   1.997   5.878  1.00  0.00     0.338 C 
ATOM     40  O   UNL     1      -4.074   2.942   6.012  1.00  0.00    -0.246 OA
BRANCH  39  41
ATOM     41  C   UNL     1      -3.704   0.590   6.087  1.00  0.00     0.060 A 
ATOM     42  C   UNL     1      -5.017   0.227   5.722  1.00  0.00     0.016 A 
ATOM     43  C   UNL     1      -2.778  -0.396   6.460  1.00  0.00     0.016 A 
ATOM     44  C   UNL     1      -5.407  -1.107   5.745  1.00  0.00     0.010 A 
ATOM     45  C   UNL     1      -3.195  -1.724   6.574  1.00  0.00     0.010 A 
ATOM     46  C   UNL     1      -4.529  -2.060   6.277  1.00  0.00    -0.014 A 
BRANCH  46  47
ATOM     47  C   UNL     1      -5.166  -3.194   6.977  1.00  0.00     0.031 A 
ATOM     48  C   UNL     1      -5.615  -2.908   8.388  1.00  0.00     0.074 A 
ATOM     49  C   UNL     1      -5.438  -4.362   6.376  1.00  0.00     0.049 A 
ATOM     50  N   UNL     1      -6.260  -3.663   9.235  1.00  0.00    -0.248 NA
ATOM     51  C   UNL     1      -5.298  -1.565   8.913  1.00  0.00     0.031 C 
ATOM     52  C   UNL     1      -5.112  -4.708   4.995  1.00  0.00     0.029 A 
ATOM     53  N   UNL     1      -6.073  -5.472   6.865  1.00  0.00    -0.354 N 
ATOM     54  C   UNL     1      -6.417  -2.886  10.377  1.00  0.00     0.074 A 
ATOM     55  C   UNL     1      -5.781  -1.617  10.138  1.00  0.00     0.031 C 
ATOM     56  C   UNL     1      -5.550  -5.957   4.748  1.00  0.00     0.029 A 
ATOM     57  C   UNL     1      -6.162  -6.499   5.960  1.00  0.00     0.049 A 
ATOM     58  H   UNL     1      -6.432  -5.528   7.781  1.00  0.00     0.167 HD
ATOM     59  C   UNL     1      -7.047  -3.201  11.529  1.00  0.00     0.037 A 
ATOM     60  C   UNL     1      -6.675  -7.734   6.117  1.00  0.00     0.037 A 
ATOM     61  C   UNL     1      -7.662  -4.474  11.761  1.00  0.00     0.049 A 
ATOM     62  C   UNL     1      -7.297  -8.096   7.446  1.00  0.00     0.074 A 
ATOM     63  C   UNL     1      -8.319  -4.922  12.889  1.00  0.00     0.029 A 
ATOM     64  N   UNL     1      -7.679  -5.512  10.839  1.00  0.00    -0.354 N 
ATOM     65  N   UNL     1      -7.454  -7.359   8.521  1.00  0.00    -0.248 NA
ATOM     66  C   UNL     1      -7.823  -9.461   7.576  1.00  0.00     0.031 C 
ATOM     67  C   UNL     1      -8.676  -6.256  12.675  1.00  0.00     0.029 A 
ATOM     68  C   UNL     1      -8.316  -6.612  11.383  1.00  0.00     0.049 A 
ATOM     69  H   UNL     1      -7.295  -5.471   9.933  1.00  0.00     0.167 HD
ATOM     70  C   UNL     1      -8.137  -8.152   9.435  1.00  0.00     0.074 A 
ATOM     71  C   UNL     1      -8.369  -9.424   8.783  1.00  0.00     0.031 C 
ATOM     72  C   UNL     1      -8.545  -7.858  10.697  1.00  0.00     0.037 A 
BRANCH  59  73
ATOM     73  C   UNL     1      -7.029  -2.176  12.625  1.00  0.00     0.064 A 
ATOM     74  C   UNL     1      -7.728  -0.963  12.527  1.00  0.00     0.173 A 
ATOM     75  C   UNL     1      -6.274  -2.405  13.785  1.00  0.00     0.173 A 
ATOM     76  F   UNL     1      -8.437  -0.677  11.424  1.00  0.00    -0.203 F 
ATOM     77  C   UNL     1      -7.648  -0.006  13.537  1.00  0.00     0.198 A 
ATOM     78  C   UNL     1      -6.226  -1.463  14.808  1.00  0.00     0.198 A 
ATOM     79  F   UNL     1      -5.574  -3.541  13.923  1.00  0.00    -0.203 F 
ATOM     80  F   UNL     1      -8.270   1.172  13.393  1.00  0.00    -0.200 F 
ATOM     81  C   UNL     1      -6.905  -0.261  14.679  1.00  0.00     0.200 A 
ATOM     82  F   UNL     1      -5.514  -1.715  15.914  1.00  0.00    -0.200 F 
ATOM     83  F   UNL     1      -6.833   0.657  15.653  1.00  0.00    -0.200 F 
ENDBRANCH  59  73
BRANCH  60  84
ATOM     84  C   UNL     1      -6.631  -8.716   5.000  1.00  0.00     0.064 A 
ATOM     85  C   UNL     1      -7.806  -9.177   4.389  1.00  0.00     0.173 A 
ATOM     86  C   UNL     1      -5.413  -9.237   4.538  1.00  0.00     0.173 A 
ATOM     87  F   UNL     1      -8.999  -8.727   4.807  1.00  0.00    -0.203 F 
ATOM     88  C   UNL     1      -7.766 -10.137   3.379  1.00  0.00     0.198 A 
ATOM     89  C   UNL     1      -5.372 -10.173   3.506  1.00  0.00     0.198 A 
ATOM     90  F   UNL     1      -4.258  -8.834   5.088  1.00  0.00    -0.203 F 
ATOM     91  F   UNL     1      -8.908 -10.597   2.850  1.00  0.00    -0.200 F 
ATOM     92  C   UNL     1      -6.549 -10.630   2.934  1.00  0.00     0.200 A 
ATOM     93  F   UNL     1      -4.193 -10.637   3.071  1.00  0.00    -0.200 F 
ATOM     94  F   UNL     1      -6.511 -11.551   1.962  1.00  0.00    -0.200 F 
ENDBRANCH  60  84
BRANCH  72  95
ATOM     95  C   UNL     1      -9.348  -8.900  11.422  1.00  0.00     0.064 A 
ATOM     96  C   UNL     1      -8.785 -10.109  11.855  1.00  0.00     0.173 A 
ATOM     97  C   UNL     1     -10.700  -8.662  11.715  1.00  0.00     0.173 A 
ATOM     98  F   UNL     1      -7.498 -10.387  11.596  1.00  0.00    -0.203 F 
ATOM     99  C   UNL     1      -9.559 -11.061  12.513  1.00  0.00     0.198 A 
ATOM    100  C   UNL     1     -11.459  -9.598  12.410  1.00  0.00     0.198 A 
ATOM    101  F   UNL     1     -11.284  -7.514  11.338  1.00  0.00    -0.203 F 
ATOM    102  F   UNL     1      -9.019 -12.239  12.856  1.00  0.00    -0.200 F 
ATOM    103  C   UNL     1     -10.892 -10.802  12.796  1.00  0.00     0.200 A 
ATOM    104  F   UNL     1     -12.740  -9.334  12.703  1.00  0.00    -0.200 F 
ATOM    105  F   UNL     1     -11.634 -11.719  13.432  1.00  0.00    -0.200 F 
ENDBRANCH  72  95
ENDBRANCH  46  47
ENDBRANCH  39  41
ENDBRANCH  38  39
ENDBRANCH  37  38
ENDBRANCH  36  37
ENDBRANCH  35  36
ENDBRANCH  34  35
ENDBRANCH  33  34
ENDBRANCH  32  33
ENDBRANCH   1  32
TORSDOF 24
