REMARK SMILES COc1ccc2c(CC(=O)OCCOCCOCCOCCOC(=O)c3ccc(-c4c5nc(c(-c6c(F)c(F)c(F)c(F)c6F)c6ccc([nH]6)c(-c6c(F)c(F)c(F)c(F)c6F)c6nc(c(-c7c(F)c(F)c(F)c(F)c7F)c7ccc4[nH]7)C=C6)C=C5)cc3)c(C(=O)c3cc(C)ccn3)[nH]c2c1
REMARK SMILES IDX 16 1 15 2 14 3 13 4 12 5 11 6 9 7 10 8 8 9 7 10 3 11 4 12
REMARK SMILES IDX 101 13 5 14 100 15 6 16 99 17 89 18 2 20 1 21 90 22 91 23
REMARK SMILES IDX 92 24 93 25 98 26 94 27 97 28 95 29 96 30 17 31 18 32 19 33
REMARK SMILES IDX 20 34 21 35 22 36 23 37 24 38 25 39 26 40 27 41 88 42 28 43
REMARK SMILES IDX 87 44 29 45 30 46 31 47 81 48 32 49 86 50 80 51 82 52 33 53
REMARK SMILES IDX 85 54 79 55 78 56 34 58 66 59 46 60 65 61 47 62 50 63 64 64
REMARK SMILES IDX 83 65 48 66 49 67 63 69 84 70 51 71 35 72 36 73 44 74 37 75
REMARK SMILES IDX 38 76 42 77 45 78 39 79 40 80 43 81 41 82 67 83 68 84 76 85
REMARK SMILES IDX 69 86 70 87 74 88 77 89 71 90 72 91 75 92 73 93 52 94 53 95
REMARK SMILES IDX 61 96 54 97 55 98 59 99 62 100 56 101 57 102 60 103 58 104
REMARK H PARENT 99 19 82 57 50 68
REMARK Flexibility Score: inf
ROOT
ATOM      1  C   UNL     1       1.046  -8.433   2.026  1.00  0.00     0.188 C 
ENDROOT
BRANCH   1   2
ATOM      2  C   UNL     1       1.774  -9.709   1.543  1.00  0.00     0.188 C 
BRANCH   2   3
ATOM      3  O   UNL     1       2.687 -10.358   2.400  1.00  0.00    -0.376 OA
BRANCH   3   4
ATOM      4  C   UNL     1       3.870  -9.749   2.864  1.00  0.00     0.202 C 
BRANCH   4   5
ATOM      5  C   UNL     1       4.457  -8.423   2.337  1.00  0.00     0.261 C 
BRANCH   5   6
ATOM      6  O   UNL     1       3.649  -7.637   1.442  1.00  0.00    -0.463 OA
BRANCH   6   7
ATOM      7  C   UNL     1       3.995  -7.608   0.135  1.00  0.00     0.310 C 
ATOM      8  O   UNL     1       5.038  -8.113  -0.280  1.00  0.00    -0.252 OA
BRANCH   7   9
ATOM      9  C   UNL     1       3.004  -6.959  -0.834  1.00  0.00     0.161 C 
BRANCH   9  10
ATOM     10  C   UNL     1       1.734  -6.242  -0.385  1.00  0.00     0.000 A 
ATOM     11  C   UNL     1       0.911  -2.262   0.767  1.00  0.00     0.120 A 
ATOM     12  C   UNL     1       2.260  -2.566   0.600  1.00  0.00     0.047 A 
ATOM     13  C   UNL     1      -0.060  -3.260   0.685  1.00  0.00     0.073 A 
ATOM     14  C   UNL     1       2.664  -3.869   0.271  1.00  0.00     0.014 A 
ATOM     15  C   UNL     1       0.361  -4.543   0.308  1.00  0.00     0.050 A 
ATOM     16  C   UNL     1       1.693  -4.875   0.078  1.00  0.00     0.004 A 
ATOM     17  N   UNL     1      -0.374  -5.677   0.090  1.00  0.00    -0.351 N 
ATOM     18  C   UNL     1       0.384  -6.646  -0.536  1.00  0.00     0.093 A 
ATOM     19  H   UNL     1      -1.318  -5.787   0.346  1.00  0.00     0.167 HD
BRANCH  11  20
ATOM     20  O   UNL     1       0.467  -1.001   1.070  1.00  0.00    -0.497 OA
ATOM     21  C   UNL     1       0.913  -0.024   0.128  1.00  0.00     0.278 C 
ENDBRANCH  11  20
BRANCH  18  22
ATOM     22  C   UNL     1      -0.166  -7.873  -1.142  1.00  0.00     0.227 C 
ATOM     23  O   UNL     1       0.550  -8.655  -1.765  1.00  0.00    -0.285 OA
BRANCH  22  24
ATOM     24  C   UNL     1      -1.614  -8.280  -0.942  1.00  0.00     0.113 A 
ATOM     25  C   UNL     1      -2.703  -7.442  -1.187  1.00  0.00     0.036 A 
ATOM     26  N   UNL     1      -1.776  -9.561  -0.509  1.00  0.00    -0.253 NA
ATOM     27  C   UNL     1      -4.002  -7.926  -0.941  1.00  0.00    -0.047 A 
ATOM     28  C   UNL     1      -3.033 -10.007  -0.301  1.00  0.00     0.112 A 
ATOM     29  C   UNL     1      -5.230  -7.095  -1.171  1.00  0.00     0.044 C 
ATOM     30  C   UNL     1      -4.159  -9.228  -0.462  1.00  0.00     0.023 A 
ENDBRANCH  22  24
ENDBRANCH  18  22
ENDBRANCH   9  10
ENDBRANCH   7   9
ENDBRANCH   6   7
ENDBRANCH   5   6
ENDBRANCH   4   5
ENDBRANCH   3   4
ENDBRANCH   2   3
ENDBRANCH   1   2
BRANCH   1  31
ATOM     31  O   UNL     1       0.420  -8.209   3.274  1.00  0.00    -0.377 OA
BRANCH  31  32
ATOM     32  C   UNL     1       0.887  -8.918   4.390  1.00  0.00     0.188 C 
BRANCH  32  33
ATOM     33  C   UNL     1       0.276 -10.315   4.472  1.00  0.00     0.188 C 
BRANCH  33  34
ATOM     34  O   UNL     1      -0.168 -10.801   3.220  1.00  0.00    -0.376 OA
BRANCH  34  35
ATOM     35  C   UNL     1      -1.534 -10.625   2.859  1.00  0.00     0.202 C 
BRANCH  35  36
ATOM     36  C   UNL     1      -2.204  -9.232   2.837  1.00  0.00     0.261 C 
BRANCH  36  37
ATOM     37  O   UNL     1      -2.132  -8.465   4.039  1.00  0.00    -0.460 OA
BRANCH  37  38
ATOM     38  C   UNL     1      -2.762  -8.955   5.115  1.00  0.00     0.338 C 
ATOM     39  O   UNL     1      -3.482  -9.937   5.182  1.00  0.00    -0.246 OA
BRANCH  38  40
ATOM     40  C   UNL     1      -2.226  -8.209   6.259  1.00  0.00     0.060 A 
ATOM     41  C   UNL     1      -1.508  -8.927   7.219  1.00  0.00     0.016 A 
ATOM     42  C   UNL     1      -2.369  -6.819   6.348  1.00  0.00     0.016 A 
ATOM     43  C   UNL     1      -0.941  -8.260   8.290  1.00  0.00     0.010 A 
ATOM     44  C   UNL     1      -1.839  -6.153   7.450  1.00  0.00     0.010 A 
ATOM     45  C   UNL     1      -1.160  -6.885   8.437  1.00  0.00    -0.014 A 
BRANCH  45  46
ATOM     46  C   UNL     1      -0.912  -6.311   9.770  1.00  0.00     0.031 A 
ATOM     47  C   UNL     1      -2.061  -6.302  10.735  1.00  0.00     0.074 A 
ATOM     48  C   UNL     1       0.326  -5.944  10.133  1.00  0.00     0.049 A 
ATOM     49  N   UNL     1      -2.093  -5.940  11.989  1.00  0.00    -0.248 NA
ATOM     50  C   UNL     1      -3.354  -6.782  10.214  1.00  0.00     0.031 C 
ATOM     51  C   UNL     1       1.506  -5.988   9.271  1.00  0.00     0.029 A 
ATOM     52  N   UNL     1       0.796  -5.482  11.332  1.00  0.00    -0.354 N 
ATOM     53  C   UNL     1      -3.401  -6.151  12.403  1.00  0.00     0.074 A 
ATOM     54  C   UNL     1      -4.144  -6.636  11.265  1.00  0.00     0.031 C 
ATOM     55  C   UNL     1       2.572  -5.570   9.974  1.00  0.00     0.029 A 
ATOM     56  C   UNL     1       2.139  -5.204  11.321  1.00  0.00     0.049 A 
ATOM     57  H   UNL     1       0.226  -5.362  12.126  1.00  0.00     0.167 HD
ATOM     58  C   UNL     1      -3.927  -5.963  13.635  1.00  0.00     0.037 A 
ATOM     59  C   UNL     1       2.914  -4.694  12.296  1.00  0.00     0.037 A 
ATOM     60  C   UNL     1      -3.165  -5.467  14.748  1.00  0.00     0.049 A 
ATOM     61  C   UNL     1       2.283  -4.417  13.636  1.00  0.00     0.074 A 
ATOM     62  C   UNL     1      -3.583  -5.220  16.042  1.00  0.00     0.029 A 
ATOM     63  N   UNL     1      -1.818  -5.132  14.688  1.00  0.00    -0.354 N 
ATOM     64  N   UNL     1       1.047  -4.622  14.031  1.00  0.00    -0.248 NA
ATOM     65  C   UNL     1       3.155  -3.846  14.669  1.00  0.00     0.031 C 
ATOM     66  C   UNL     1      -2.505  -4.674  16.746  1.00  0.00     0.029 A 
ATOM     67  C   UNL     1      -1.395  -4.651  15.915  1.00  0.00     0.049 A 
ATOM     68  H   UNL     1      -1.248  -5.223  13.890  1.00  0.00     0.167 HD
ATOM     69  C   UNL     1       0.999  -4.233  15.363  1.00  0.00     0.074 A 
ATOM     70  C   UNL     1       2.339  -3.802  15.712  1.00  0.00     0.031 C 
ATOM     71  C   UNL     1      -0.051  -4.228  16.223  1.00  0.00     0.037 A 
BRANCH  58  72
ATOM     72  C   UNL     1      -5.391  -6.245  13.813  1.00  0.00     0.064 A 
ATOM     73  C   UNL     1      -5.914  -7.546  13.750  1.00  0.00     0.173 A 
ATOM     74  C   UNL     1      -6.288  -5.192  14.048  1.00  0.00     0.173 A 
ATOM     75  F   UNL     1      -5.106  -8.588  13.502  1.00  0.00    -0.203 F 
ATOM     76  C   UNL     1      -7.281  -7.778  13.887  1.00  0.00     0.198 A 
ATOM     77  C   UNL     1      -7.649  -5.431  14.218  1.00  0.00     0.198 A 
ATOM     78  F   UNL     1      -5.845  -3.927  14.109  1.00  0.00    -0.203 F 
ATOM     79  F   UNL     1      -7.764  -9.023  13.763  1.00  0.00    -0.200 F 
ATOM     80  C   UNL     1      -8.146  -6.722  14.129  1.00  0.00     0.200 A 
ATOM     81  F   UNL     1      -8.481  -4.409  14.460  1.00  0.00    -0.200 F 
ATOM     82  F   UNL     1      -9.460  -6.946  14.265  1.00  0.00    -0.200 F 
ENDBRANCH  58  72
BRANCH  59  83
ATOM     83  C   UNL     1       4.349  -4.406  12.036  1.00  0.00     0.064 A 
ATOM     84  C   UNL     1       5.367  -5.101  12.703  1.00  0.00     0.173 A 
ATOM     85  C   UNL     1       4.733  -3.415  11.120  1.00  0.00     0.173 A 
ATOM     86  F   UNL     1       5.056  -6.045  13.603  1.00  0.00    -0.203 F 
ATOM     87  C   UNL     1       6.710  -4.800  12.482  1.00  0.00     0.198 A 
ATOM     88  C   UNL     1       6.076  -3.138  10.874  1.00  0.00     0.198 A 
ATOM     89  F   UNL     1       3.800  -2.719  10.453  1.00  0.00    -0.203 F 
ATOM     90  F   UNL     1       7.662  -5.445  13.171  1.00  0.00    -0.200 F 
ATOM     91  C   UNL     1       7.064  -3.824  11.563  1.00  0.00     0.200 A 
ATOM     92  F   UNL     1       6.411  -2.205   9.973  1.00  0.00    -0.200 F 
ATOM     93  F   UNL     1       8.355  -3.538  11.347  1.00  0.00    -0.200 F 
ENDBRANCH  59  83
BRANCH  71  94
ATOM     94  C   UNL     1       0.226  -3.777  17.629  1.00  0.00     0.064 A 
ATOM     95  C   UNL     1       0.538  -2.443  17.930  1.00  0.00     0.173 A 
ATOM     96  C   UNL     1       0.159  -4.692  18.691  1.00  0.00     0.173 A 
ATOM     97  F   UNL     1       0.625  -1.531  16.950  1.00  0.00    -0.203 F 
ATOM     98  C   UNL     1       0.819  -2.053  19.236  1.00  0.00     0.198 A 
ATOM     99  C   UNL     1       0.398  -4.289  20.001  1.00  0.00     0.198 A 
ATOM    100  F   UNL     1      -0.150  -5.978  18.460  1.00  0.00    -0.203 F 
ATOM    101  F   UNL     1       1.186  -0.789  19.491  1.00  0.00    -0.200 F 
ATOM    102  C   UNL     1       0.742  -2.974  20.270  1.00  0.00     0.200 A 
ATOM    103  F   UNL     1       0.302  -5.176  21.001  1.00  0.00    -0.200 F 
ATOM    104  F   UNL     1       1.011  -2.595  21.527  1.00  0.00    -0.200 F 
ENDBRANCH  71  94
ENDBRANCH  45  46
ENDBRANCH  38  40
ENDBRANCH  37  38
ENDBRANCH  36  37
ENDBRANCH  35  36
ENDBRANCH  34  35
ENDBRANCH  33  34
ENDBRANCH  32  33
ENDBRANCH  31  32
ENDBRANCH   1  31
TORSDOF 24
