REMARK SMILES COc1ccccc1-c1ccc(C(=O)OCCOCCOCCOCCOC(=O)c2ccc(-c3c4nc(c(-c5c(F)c(F)c(F)c(F)c5F)c5ccc([nH]5)c(-c5c(F)c(F)c(F)c(F)c5F)c5nc(c(-c6c(F)c(F)c(F)c(F)c6F)c6ccc3[nH]6)C=C5)C=C4)cc2)c(O)c1
REMARK SMILES IDX 21 1 20 2 19 3 18 4 17 5 16 6 15 7 13 8 14 9 12 10 9 11
REMARK SMILES IDX 10 12 95 13 11 14 93 15 8 16 3 17 4 18 5 19 7 20 6 21 2 22
REMARK SMILES IDX 1 23 94 24 22 26 23 27 24 28 25 29 26 30 27 31 28 32 29 33
REMARK SMILES IDX 30 34 31 35 92 36 32 37 91 38 33 39 34 40 35 41 85 42 36 43
REMARK SMILES IDX 90 44 84 45 86 46 37 47 89 48 83 49 82 50 38 52 70 53 50 54
REMARK SMILES IDX 69 55 51 56 54 57 68 58 87 59 52 60 53 61 67 63 88 64 55 65
REMARK SMILES IDX 39 66 40 67 48 68 41 69 42 70 46 71 49 72 43 73 44 74 47 75
REMARK SMILES IDX 45 76 71 77 72 78 80 79 73 80 74 81 78 82 81 83 75 84 76 85
REMARK SMILES IDX 79 86 77 87 56 88 57 89 65 90 58 91 59 92 63 93 66 94 60 95
REMARK SMILES IDX 61 96 64 97 62 98
REMARK H PARENT 94 25 86 51 54 62
REMARK Flexibility Score: inf
ROOT
ATOM      1  O   UNL     1       7.964   1.129  -0.966  1.00  0.00    -0.377 OA
ENDROOT
BRANCH   1   2
ATOM      2  C   UNL     1       7.598  -0.093  -0.335  1.00  0.00     0.188 C 
BRANCH   2   3
ATOM      3  C   UNL     1       7.644  -1.438  -1.104  1.00  0.00     0.188 C 
BRANCH   3   4
ATOM      4  O   UNL     1       8.288  -1.375  -2.364  1.00  0.00    -0.376 OA
BRANCH   4   5
ATOM      5  C   UNL     1       7.532  -1.568  -3.544  1.00  0.00     0.202 C 
BRANCH   5   6
ATOM      6  C   UNL     1       6.369  -0.611  -3.841  1.00  0.00     0.261 C 
BRANCH   6   7
ATOM      7  O   UNL     1       5.640  -0.184  -2.692  1.00  0.00    -0.460 OA
BRANCH   7   8
ATOM      8  C   UNL     1       4.657  -1.001  -2.264  1.00  0.00     0.341 C 
ATOM      9  O   UNL     1       4.330  -2.065  -2.766  1.00  0.00    -0.246 OA
BRANCH   8  10
ATOM     10  C   UNL     1       4.185  -0.547  -0.938  1.00  0.00     0.101 A 
ATOM     11  C   UNL     1       3.080   0.111   1.550  1.00  0.00    -0.011 A 
ATOM     12  C   UNL     1       3.499  -1.203   1.291  1.00  0.00     0.010 A 
ATOM     13  C   UNL     1       3.373   1.119   0.615  1.00  0.00     0.056 A 
ATOM     14  C   UNL     1       4.033  -1.533   0.048  1.00  0.00     0.020 A 
ATOM     15  C   UNL     1       3.908   0.789  -0.631  1.00  0.00     0.130 A 
BRANCH  11  16
ATOM     16  C   UNL     1       2.131   0.357   2.642  1.00  0.00     0.024 A 
ATOM     17  C   UNL     1       0.793   0.724   2.369  1.00  0.00     0.126 A 
ATOM     18  C   UNL     1      -0.128   0.897   3.403  1.00  0.00     0.047 A 
ATOM     19  C   UNL     1       0.259   0.684   4.724  1.00  0.00     0.004 A 
ATOM     20  C   UNL     1       2.502   0.158   3.983  1.00  0.00     0.012 A 
ATOM     21  C   UNL     1       1.573   0.321   5.015  1.00  0.00     0.001 A 
BRANCH  17  22
ATOM     22  O   UNL     1       0.335   1.032   1.108  1.00  0.00    -0.496 OA
ATOM     23  C   UNL     1       0.224  -0.104   0.248  1.00  0.00     0.278 C 
ENDBRANCH  17  22
ENDBRANCH  11  16
BRANCH  15  24
ATOM     24  O   UNL     1       4.074   1.774  -1.563  1.00  0.00    -0.507 OA
ATOM     25  H   UNL     1       4.432   1.567  -2.404  1.00  0.00     0.293 HD
ENDBRANCH  15  24
ENDBRANCH   8  10
ENDBRANCH   7   8
ENDBRANCH   6   7
ENDBRANCH   5   6
ENDBRANCH   4   5
ENDBRANCH   3   4
ENDBRANCH   2   3
ENDBRANCH   1   2
BRANCH   1  26
ATOM     26  C   UNL     1       9.045   1.148  -1.891  1.00  0.00     0.188 C 
BRANCH  26  27
ATOM     27  C   UNL     1      10.304   0.288  -1.632  1.00  0.00     0.188 C 
BRANCH  27  28
ATOM     28  O   UNL     1      10.247  -0.490  -0.449  1.00  0.00    -0.376 OA
BRANCH  28  29
ATOM     29  C   UNL     1      11.011  -0.063   0.663  1.00  0.00     0.202 C 
BRANCH  29  30
ATOM     30  C   UNL     1      10.745   1.337   1.236  1.00  0.00     0.261 C 
BRANCH  30  31
ATOM     31  O   UNL     1      10.733   2.425   0.300  1.00  0.00    -0.460 OA
BRANCH  31  32
ATOM     32  C   UNL     1      11.895   2.747  -0.303  1.00  0.00     0.338 C 
ATOM     33  O   UNL     1      12.983   2.212  -0.151  1.00  0.00    -0.246 OA
BRANCH  32  34
ATOM     34  C   UNL     1      11.591   3.760  -1.332  1.00  0.00     0.060 A 
ATOM     35  C   UNL     1      11.824   3.466  -2.683  1.00  0.00     0.016 A 
ATOM     36  C   UNL     1      11.060   4.995  -0.957  1.00  0.00     0.016 A 
ATOM     37  C   UNL     1      11.552   4.423  -3.662  1.00  0.00     0.010 A 
ATOM     38  C   UNL     1      10.812   5.960  -1.934  1.00  0.00     0.010 A 
ATOM     39  C   UNL     1      11.088   5.690  -3.287  1.00  0.00    -0.014 A 
BRANCH  39  40
ATOM     40  C   UNL     1      11.087   6.802  -4.266  1.00  0.00     0.031 A 
ATOM     41  C   UNL     1      12.245   7.761  -4.247  1.00  0.00     0.074 A 
ATOM     42  C   UNL     1      10.084   6.967  -5.144  1.00  0.00     0.049 A 
ATOM     43  N   UNL     1      12.428   8.863  -4.927  1.00  0.00    -0.248 NA
ATOM     44  C   UNL     1      13.345   7.430  -3.327  1.00  0.00     0.031 C 
ATOM     45  C   UNL     1       8.932   6.080  -5.289  1.00  0.00     0.029 A 
ATOM     46  N   UNL     1       9.869   7.956  -6.072  1.00  0.00    -0.354 N 
ATOM     47  C   UNL     1      13.653   9.363  -4.506  1.00  0.00     0.074 A 
ATOM     48  C   UNL     1      14.156   8.463  -3.492  1.00  0.00     0.031 C 
ATOM     49  C   UNL     1       8.119   6.577  -6.238  1.00  0.00     0.029 A 
ATOM     50  C   UNL     1       8.674   7.835  -6.736  1.00  0.00     0.049 A 
ATOM     51  H   UNL     1      10.511   8.683  -6.244  1.00  0.00     0.167 HD
ATOM     52  C   UNL     1      14.303  10.472  -4.933  1.00  0.00     0.037 A 
ATOM     53  C   UNL     1       8.085   8.665  -7.620  1.00  0.00     0.037 A 
ATOM     54  C   UNL     1      13.794  11.366  -5.939  1.00  0.00     0.049 A 
ATOM     55  C   UNL     1       8.790   9.938  -8.021  1.00  0.00     0.074 A 
ATOM     56  C   UNL     1      14.380  12.507  -6.455  1.00  0.00     0.029 A 
ATOM     57  N   UNL     1      12.568  11.223  -6.573  1.00  0.00    -0.354 N 
ATOM     58  N   UNL     1       9.958  10.397  -7.638  1.00  0.00    -0.248 NA
ATOM     59  C   UNL     1       8.095  10.808  -8.980  1.00  0.00     0.031 C 
ATOM     60  C   UNL     1      13.481  13.091  -7.352  1.00  0.00     0.029 A 
ATOM     61  C   UNL     1      12.367  12.274  -7.454  1.00  0.00     0.049 A 
ATOM     62  H   UNL     1      11.935  10.485  -6.420  1.00  0.00     0.167 HD
ATOM     63  C   UNL     1      10.153  11.584  -8.335  1.00  0.00     0.074 A 
ATOM     64  C   UNL     1       8.986  11.770  -9.171  1.00  0.00     0.031 C 
ATOM     65  C   UNL     1      11.205  12.439  -8.291  1.00  0.00     0.037 A 
BRANCH  52  66
ATOM     66  C   UNL     1      15.616  10.800  -4.283  1.00  0.00     0.064 A 
ATOM     67  C   UNL     1      16.761  10.014  -4.485  1.00  0.00     0.173 A 
ATOM     68  C   UNL     1      15.737  11.934  -3.465  1.00  0.00     0.173 A 
ATOM     69  F   UNL     1      16.698   8.910  -5.245  1.00  0.00    -0.203 F 
ATOM     70  C   UNL     1      17.968  10.334  -3.867  1.00  0.00     0.198 A 
ATOM     71  C   UNL     1      16.953  12.270  -2.878  1.00  0.00     0.198 A 
ATOM     72  F   UNL     1      14.675  12.722  -3.240  1.00  0.00    -0.203 F 
ATOM     73  F   UNL     1      19.034   9.537  -4.030  1.00  0.00    -0.200 F 
ATOM     74  C   UNL     1      18.065  11.466  -3.072  1.00  0.00     0.200 A 
ATOM     75  F   UNL     1      17.048  13.373  -2.122  1.00  0.00    -0.200 F 
ATOM     76  F   UNL     1      19.229  11.777  -2.486  1.00  0.00    -0.200 F 
ENDBRANCH  52  66
BRANCH  53  77
ATOM     77  C   UNL     1       6.747   8.332  -8.177  1.00  0.00     0.064 A 
ATOM     78  C   UNL     1       6.581   8.037  -9.537  1.00  0.00     0.173 A 
ATOM     79  C   UNL     1       5.601   8.328  -7.367  1.00  0.00     0.173 A 
ATOM     80  F   UNL     1       7.640   8.055 -10.360  1.00  0.00    -0.203 F 
ATOM     81  C   UNL     1       5.321   7.770 -10.069  1.00  0.00     0.198 A 
ATOM     82  C   UNL     1       4.346   8.028  -7.893  1.00  0.00     0.198 A 
ATOM     83  F   UNL     1       5.701   8.609  -6.059  1.00  0.00    -0.203 F 
ATOM     84  F   UNL     1       5.185   7.544 -11.383  1.00  0.00    -0.200 F 
ATOM     85  C   UNL     1       4.205   7.759  -9.246  1.00  0.00     0.200 A 
ATOM     86  F   UNL     1       3.273   8.008  -7.091  1.00  0.00    -0.200 F 
ATOM     87  F   UNL     1       2.994   7.501  -9.757  1.00  0.00    -0.200 F 
ENDBRANCH  53  77
BRANCH  65  88
ATOM     88  C   UNL     1      11.177  13.627  -9.212  1.00  0.00     0.064 A 
ATOM     89  C   UNL     1      10.292  14.698  -9.018  1.00  0.00     0.173 A 
ATOM     90  C   UNL     1      12.088  13.716 -10.276  1.00  0.00     0.173 A 
ATOM     91  F   UNL     1       9.392  14.660  -8.023  1.00  0.00    -0.203 F 
ATOM     92  C   UNL     1      10.302  15.799  -9.871  1.00  0.00     0.198 A 
ATOM     93  C   UNL     1      12.121  14.835 -11.104  1.00  0.00     0.198 A 
ATOM     94  F   UNL     1      12.964  12.725 -10.501  1.00  0.00    -0.203 F 
ATOM     95  F   UNL     1       9.413  16.787  -9.698  1.00  0.00    -0.200 F 
ATOM     96  C   UNL     1      11.222  15.871 -10.907  1.00  0.00     0.200 A 
ATOM     97  F   UNL     1      13.024  14.909 -12.092  1.00  0.00    -0.200 F 
ATOM     98  F   UNL     1      11.238  16.937 -11.719  1.00  0.00    -0.200 F 
ENDBRANCH  65  88
ENDBRANCH  39  40
ENDBRANCH  32  34
ENDBRANCH  31  32
ENDBRANCH  30  31
ENDBRANCH  29  30
ENDBRANCH  28  29
ENDBRANCH  27  28
ENDBRANCH  26  27
ENDBRANCH   1  26
TORSDOF 23
