REMARK SMILES CC(C)[C@H](NC(N)=O)C(=O)N[C@H](C)C(=O)OCCOCCOCCOCCOC(=O)c1ccc(-c2c3nc(c(-c4c(F)c(F)c(F)c(F)c4F)c4ccc([nH]4)c(-c4c(F)c(F)c(F)c(F)c4F)c4nc(c(-c5c(F)c(F)c(F)c(F)c5F)c5ccc2[nH]5)C=C4)C=C3)cc1
REMARK SMILES IDX 21 1 20 2 19 3 18 4 17 5 16 6 14 7 15 8 12 9 13 10 11 11
REMARK SMILES IDX 9 12 10 13 4 15 2 16 1 17 3 18 5 19 6 20 7 22 8 23 22 26
REMARK SMILES IDX 23 27 24 28 25 29 26 30 27 31 28 32 29 33 30 34 31 35 32 36
REMARK SMILES IDX 93 37 33 38 92 39 34 40 35 41 36 42 86 43 37 44 91 45 85 46
REMARK SMILES IDX 87 47 38 48 90 49 84 50 83 51 39 53 71 54 51 55 70 56 52 57
REMARK SMILES IDX 55 58 69 59 88 60 53 61 54 62 68 64 89 65 56 66 40 67 41 68
REMARK SMILES IDX 49 69 42 70 43 71 47 72 50 73 44 74 45 75 48 76 46 77 72 78
REMARK SMILES IDX 73 79 81 80 74 81 75 82 79 83 82 84 76 85 77 86 80 87 78 88
REMARK SMILES IDX 57 89 58 90 66 91 59 92 60 93 64 94 67 95 61 96 62 97 65 98
REMARK SMILES IDX 63 99
REMARK H PARENT 11 14 5 21 7 24 7 25 87 52 55 63
REMARK Flexibility Score: inf
ROOT
ATOM      1  C   UNL     1      -3.700   3.401   0.691  1.00  0.00     0.188 C 
ENDROOT
BRANCH   1   2
ATOM      2  C   UNL     1      -3.486   3.664   2.191  1.00  0.00     0.188 C 
BRANCH   2   3
ATOM      3  O   UNL     1      -3.882   4.959   2.608  1.00  0.00    -0.376 OA
BRANCH   3   4
ATOM      4  C   UNL     1      -2.877   5.947   2.646  1.00  0.00     0.202 C 
BRANCH   4   5
ATOM      5  C   UNL     1      -2.351   6.471   1.312  1.00  0.00     0.261 C 
BRANCH   5   6
ATOM      6  O   UNL     1      -1.694   5.618   0.326  1.00  0.00    -0.462 OA
BRANCH   6   7
ATOM      7  C   UNL     1      -0.815   4.606   0.539  1.00  0.00     0.328 C 
ATOM      8  O   UNL     1      -0.569   4.077   1.612  1.00  0.00    -0.250 OA
BRANCH   7   9
ATOM      9  C   UNL     1      -0.016   4.308  -0.738  1.00  0.00     0.189 C 
ATOM     10  C   UNL     1      -0.771   4.443  -2.055  1.00  0.00     0.043 C 
BRANCH   9  11
ATOM     11  N   UNL     1       1.337   4.879  -0.755  1.00  0.00    -0.341 N 
ATOM     12  C   UNL     1       1.875   6.117  -0.580  1.00  0.00     0.243 C 
ATOM     13  O   UNL     1       3.090   6.194  -0.804  1.00  0.00    -0.273 OA
ATOM     14  H   UNL     1       2.024   4.199  -0.939  1.00  0.00     0.164 HD
BRANCH  12  15
ATOM     15  C   UNL     1       1.141   7.332   0.038  1.00  0.00     0.175 C 
BRANCH  15  16
ATOM     16  C   UNL     1       1.240   7.462   1.605  1.00  0.00     0.015 C 
ATOM     17  C   UNL     1       0.777   6.349   2.542  1.00  0.00     0.010 C 
ATOM     18  C   UNL     1       2.701   7.675   2.021  1.00  0.00     0.010 C 
ENDBRANCH  15  16
BRANCH  15  19
ATOM     19  N   UNL     1      -0.176   7.509  -0.573  1.00  0.00    -0.326 N 
ATOM     20  C   UNL     1      -0.449   8.374  -1.588  1.00  0.00     0.312 C 
ATOM     21  H   UNL     1      -0.918   6.963  -0.226  1.00  0.00     0.166 HD
ATOM     22  N   UNL     1      -1.648   8.128  -2.178  1.00  0.00    -0.352 N 
ATOM     23  O   UNL     1       0.273   9.278  -1.974  1.00  0.00    -0.249 OA
ATOM     24  H   UNL     1      -2.217   7.394  -1.851  1.00  0.00     0.161 HD
ATOM     25  H   UNL     1      -1.949   8.685  -2.932  1.00  0.00     0.161 HD
ENDBRANCH  15  19
ENDBRANCH  12  15
ENDBRANCH   9  11
ENDBRANCH   7   9
ENDBRANCH   6   7
ENDBRANCH   5   6
ENDBRANCH   4   5
ENDBRANCH   3   4
ENDBRANCH   2   3
ENDBRANCH   1   2
BRANCH   1  26
ATOM     26  O   UNL     1      -4.044   4.520  -0.118  1.00  0.00    -0.377 OA
BRANCH  26  27
ATOM     27  C   UNL     1      -5.241   5.254   0.145  1.00  0.00     0.188 C 
BRANCH  27  28
ATOM     28  C   UNL     1      -6.263   4.795   1.201  1.00  0.00     0.188 C 
BRANCH  28  29
ATOM     29  O   UNL     1      -6.291   3.397   1.401  1.00  0.00    -0.376 OA
BRANCH  29  30
ATOM     30  C   UNL     1      -7.234   2.648   0.657  1.00  0.00     0.202 C 
BRANCH  30  31
ATOM     31  C   UNL     1      -7.177   2.741  -0.877  1.00  0.00     0.261 C 
BRANCH  31  32
ATOM     32  O   UNL     1      -7.368   4.037  -1.483  1.00  0.00    -0.460 OA
BRANCH  32  33
ATOM     33  C   UNL     1      -8.429   4.797  -1.141  1.00  0.00     0.338 C 
ATOM     34  O   UNL     1      -9.354   4.486  -0.410  1.00  0.00    -0.246 OA
BRANCH  33  35
ATOM     35  C   UNL     1      -8.166   6.176  -1.625  1.00  0.00     0.060 A 
ATOM     36  C   UNL     1      -8.097   7.236  -0.705  1.00  0.00     0.016 A 
ATOM     37  C   UNL     1      -7.954   6.419  -2.983  1.00  0.00     0.016 A 
ATOM     38  C   UNL     1      -7.845   8.540  -1.144  1.00  0.00     0.010 A 
ATOM     39  C   UNL     1      -7.738   7.728  -3.425  1.00  0.00     0.010 A 
ATOM     40  C   UNL     1      -7.712   8.799  -2.513  1.00  0.00    -0.014 A 
BRANCH  40  41
ATOM     41  C   UNL     1      -7.776  10.192  -3.025  1.00  0.00     0.031 A 
ATOM     42  C   UNL     1      -9.110  10.709  -3.490  1.00  0.00     0.074 A 
ATOM     43  C   UNL     1      -6.687  10.977  -3.097  1.00  0.00     0.049 A 
ATOM     44  N   UNL     1      -9.407  11.826  -4.104  1.00  0.00    -0.248 NA
ATOM     45  C   UNL     1     -10.268   9.839  -3.229  1.00  0.00     0.031 C 
ATOM     46  C   UNL     1      -5.353  10.625  -2.620  1.00  0.00     0.029 A 
ATOM     47  N   UNL     1      -6.536  12.238  -3.625  1.00  0.00    -0.354 N 
ATOM     48  C   UNL     1     -10.780  11.784  -4.314  1.00  0.00     0.074 A 
ATOM     49  C   UNL     1     -11.255  10.525  -3.784  1.00  0.00     0.031 C 
ATOM     50  C   UNL     1      -4.510  11.634  -2.902  1.00  0.00     0.029 A 
ATOM     51  C   UNL     1      -5.237  12.684  -3.618  1.00  0.00     0.049 A 
ATOM     52  H   UNL     1      -7.287  12.770  -3.974  1.00  0.00     0.167 HD
ATOM     53  C   UNL     1     -11.573  12.713  -4.898  1.00  0.00     0.037 A 
ATOM     54  C   UNL     1      -4.696  13.792  -4.163  1.00  0.00     0.037 A 
ATOM     55  C   UNL     1     -11.098  13.962  -5.430  1.00  0.00     0.049 A 
ATOM     56  C   UNL     1      -5.584  14.766  -4.902  1.00  0.00     0.074 A 
ATOM     57  C   UNL     1     -11.823  14.978  -6.027  1.00  0.00     0.029 A 
ATOM     58  N   UNL     1      -9.769  14.359  -5.442  1.00  0.00    -0.354 N 
ATOM     59  N   UNL     1      -6.882  14.731  -5.087  1.00  0.00    -0.248 NA
ATOM     60  C   UNL     1      -4.928  15.932  -5.513  1.00  0.00     0.031 C 
ATOM     61  C   UNL     1     -10.926  15.960  -6.457  1.00  0.00     0.029 A 
ATOM     62  C   UNL     1      -9.648  15.588  -6.071  1.00  0.00     0.049 A 
ATOM     63  H   UNL     1      -9.022  13.844  -5.061  1.00  0.00     0.167 HD
ATOM     64  C   UNL     1      -7.199  15.875  -5.811  1.00  0.00     0.074 A 
ATOM     65  C   UNL     1      -5.960  16.595  -6.016  1.00  0.00     0.031 C 
ATOM     66  C   UNL     1      -8.407  16.293  -6.267  1.00  0.00     0.037 A 
BRANCH  53  67
ATOM     67  C   UNL     1     -13.035  12.394  -5.028  1.00  0.00     0.064 A 
ATOM     68  C   UNL     1     -13.886  12.350  -3.914  1.00  0.00     0.173 A 
ATOM     69  C   UNL     1     -13.596  12.156  -6.292  1.00  0.00     0.173 A 
ATOM     70  F   UNL     1     -13.397  12.552  -2.681  1.00  0.00    -0.203 F 
ATOM     71  C   UNL     1     -15.239  12.052  -4.058  1.00  0.00     0.198 A 
ATOM     72  C   UNL     1     -14.955  11.891  -6.435  1.00  0.00     0.198 A 
ATOM     73  F   UNL     1     -12.827  12.187  -7.390  1.00  0.00    -0.203 F 
ATOM     74  F   UNL     1     -16.023  11.963  -2.974  1.00  0.00    -0.200 F 
ATOM     75  C   UNL     1     -15.774  11.831  -5.318  1.00  0.00     0.200 A 
ATOM     76  F   UNL     1     -15.472  11.690  -7.656  1.00  0.00    -0.200 F 
ATOM     77  F   UNL     1     -17.077  11.552  -5.456  1.00  0.00    -0.200 F 
ENDBRANCH  53  67
BRANCH  54  78
ATOM     78  C   UNL     1      -3.229  14.030  -4.072  1.00  0.00     0.064 A 
ATOM     79  C   UNL     1      -2.713  15.109  -3.341  1.00  0.00     0.173 A 
ATOM     80  C   UNL     1      -2.314  13.209  -4.749  1.00  0.00     0.173 A 
ATOM     81  F   UNL     1      -3.547  15.946  -2.705  1.00  0.00    -0.203 F 
ATOM     82  C   UNL     1      -1.344  15.368  -3.305  1.00  0.00     0.198 A 
ATOM     83  C   UNL     1      -0.943  13.451  -4.689  1.00  0.00     0.198 A 
ATOM     84  F   UNL     1      -2.755  12.169  -5.474  1.00  0.00    -0.203 F 
ATOM     85  F   UNL     1      -0.885  16.442  -2.646  1.00  0.00    -0.200 F 
ATOM     86  C   UNL     1      -0.459  14.536  -3.974  1.00  0.00     0.200 A 
ATOM     87  F   UNL     1      -0.094  12.645  -5.341  1.00  0.00    -0.200 F 
ATOM     88  F   UNL     1       0.856  14.793  -3.947  1.00  0.00    -0.200 F 
ENDBRANCH  54  78
BRANCH  66  89
ATOM     89  C   UNL     1      -8.457  17.598  -7.012  1.00  0.00     0.064 A 
ATOM     90  C   UNL     1      -7.922  17.733  -8.302  1.00  0.00     0.173 A 
ATOM     91  C   UNL     1      -9.097  18.714  -6.449  1.00  0.00     0.173 A 
ATOM     92  F   UNL     1      -7.290  16.701  -8.881  1.00  0.00    -0.203 F 
ATOM     93  C   UNL     1      -8.003  18.942  -8.989  1.00  0.00     0.198 A 
ATOM     94  C   UNL     1      -9.207  19.911  -7.153  1.00  0.00     0.198 A 
ATOM     95  F   UNL     1      -9.636  18.639  -5.223  1.00  0.00    -0.203 F 
ATOM     96  F   UNL     1      -7.443  19.059 -10.201  1.00  0.00    -0.200 F 
ATOM     97  C   UNL     1      -8.653  20.026  -8.419  1.00  0.00     0.200 A 
ATOM     98  F   UNL     1      -9.851  20.951  -6.607  1.00  0.00    -0.200 F 
ATOM     99  F   UNL     1      -8.741  21.184  -9.087  1.00  0.00    -0.200 F 
ENDBRANCH  66  89
ENDBRANCH  40  41
ENDBRANCH  33  35
ENDBRANCH  32  33
ENDBRANCH  31  32
ENDBRANCH  30  31
ENDBRANCH  29  30
ENDBRANCH  28  29
ENDBRANCH  27  28
ENDBRANCH  26  27
ENDBRANCH   1  26
TORSDOF 24
