REMARK SMILES O=C(OCCOCCOCCOCCOC(=O)[C@@H]1CCCC[C@@H]1c1nc(C2CCCCC2)no1)c1ccc(-c2c3nc(c(-c4c(F)c(F)c(F)c(F)c4F)c4ccc([nH]4)c(-c4c(F)c(F)c(F)c(F)c4F)c4nc(c(-c5c(F)c(F)c(F)c(F)c5F)c5ccc2[nH]5)C=C4)C=C3)cc1
REMARK SMILES IDX 9 1 8 2 7 3 6 4 5 5 4 6 3 7 2 8 1 9 35 10 36 11 97 12 37 13
REMARK SMILES IDX 96 14 38 15 39 16 40 17 90 18 41 19 95 20 89 21 91 22 42 23
REMARK SMILES IDX 94 24 88 25 87 26 43 28 75 29 55 30 74 31 56 32 59 33 73 34
REMARK SMILES IDX 92 35 57 36 58 37 72 39 93 40 60 41 44 42 45 43 53 44 46 45
REMARK SMILES IDX 47 46 51 47 54 48 48 49 49 50 52 51 50 52 76 53 77 54 85 55
REMARK SMILES IDX 78 56 79 57 83 58 86 59 80 60 81 61 84 62 82 63 61 64 62 65
REMARK SMILES IDX 70 66 63 67 64 68 68 69 71 70 65 71 66 72 69 73 67 74 10 75
REMARK SMILES IDX 11 76 12 77 13 78 14 79 15 80 16 81 17 82 18 83 19 84 23 85
REMARK SMILES IDX 20 86 22 87 21 88 24 89 25 90 34 91 26 92 33 93 27 94 28 95
REMARK SMILES IDX 32 96 29 97 31 98 30 99
REMARK H PARENT 91 27 59 38
REMARK Flexibility Score: inf
ROOT
ATOM      1  O   UNL     1       1.947   2.755  -2.054  1.00  0.00    -0.377 OA
ENDROOT
BRANCH   1   2
ATOM      2  C   UNL     1       1.438   1.984  -0.983  1.00  0.00     0.188 C 
BRANCH   2   3
ATOM      3  C   UNL     1       2.034   0.592  -0.814  1.00  0.00     0.188 C 
BRANCH   3   4
ATOM      4  O   UNL     1       3.403   0.664  -0.408  1.00  0.00    -0.376 OA
BRANCH   4   5
ATOM      5  C   UNL     1       4.285  -0.292  -1.004  1.00  0.00     0.202 C 
BRANCH   5   6
ATOM      6  C   UNL     1       4.124  -1.732  -0.509  1.00  0.00     0.261 C 
BRANCH   6   7
ATOM      7  O   UNL     1       2.812  -2.044  -0.017  1.00  0.00    -0.460 OA
BRANCH   7   8
ATOM      8  C   UNL     1       2.269  -1.802   1.202  1.00  0.00     0.338 C 
ATOM      9  O   UNL     1       1.120  -2.197   1.407  1.00  0.00    -0.246 OA
BRANCH   8  10
ATOM     10  C   UNL     1       2.942  -1.039   2.302  1.00  0.00     0.060 A 
ATOM     11  C   UNL     1       4.109  -0.291   2.169  1.00  0.00     0.016 A 
ATOM     12  C   UNL     1       2.318  -1.044   3.564  1.00  0.00     0.016 A 
ATOM     13  C   UNL     1       4.662   0.410   3.219  1.00  0.00     0.010 A 
ATOM     14  C   UNL     1       2.884  -0.371   4.652  1.00  0.00     0.010 A 
ATOM     15  C   UNL     1       4.079   0.330   4.473  1.00  0.00    -0.014 A 
BRANCH  15  16
ATOM     16  C   UNL     1       4.944   0.740   5.584  1.00  0.00     0.031 A 
ATOM     17  C   UNL     1       5.724  -0.346   6.259  1.00  0.00     0.074 A 
ATOM     18  C   UNL     1       5.211   2.043   5.771  1.00  0.00     0.049 A 
ATOM     19  N   UNL     1       6.546  -0.278   7.267  1.00  0.00    -0.248 NA
ATOM     20  C   UNL     1       5.580  -1.702   5.692  1.00  0.00     0.031 C 
ATOM     21  C   UNL     1       4.662   3.139   4.967  1.00  0.00     0.029 A 
ATOM     22  N   UNL     1       6.049   2.660   6.653  1.00  0.00    -0.354 N 
ATOM     23  C   UNL     1       6.978  -1.581   7.480  1.00  0.00     0.074 A 
ATOM     24  C   UNL     1       6.346  -2.421   6.494  1.00  0.00     0.031 C 
ATOM     25  C   UNL     1       5.186   4.299   5.394  1.00  0.00     0.029 A 
ATOM     26  C   UNL     1       6.037   4.029   6.546  1.00  0.00     0.049 A 
ATOM     27  H   UNL     1       6.608   2.173   7.301  1.00  0.00     0.167 HD
ATOM     28  C   UNL     1       7.820  -2.022   8.440  1.00  0.00     0.037 A 
ATOM     29  C   UNL     1       6.615   4.944   7.344  1.00  0.00     0.037 A 
ATOM     30  C   UNL     1       8.419  -1.135   9.398  1.00  0.00     0.049 A 
ATOM     31  C   UNL     1       7.423   4.422   8.503  1.00  0.00     0.074 A 
ATOM     32  C   UNL     1       9.197  -1.434  10.496  1.00  0.00     0.029 A 
ATOM     33  N   UNL     1       8.289   0.250   9.353  1.00  0.00    -0.354 N 
ATOM     34  N   UNL     1       7.732   3.181   8.804  1.00  0.00    -0.248 NA
ATOM     35  C   UNL     1       7.943   5.417   9.446  1.00  0.00     0.031 C 
ATOM     36  C   UNL     1       9.493  -0.231  11.148  1.00  0.00     0.029 A 
ATOM     37  C   UNL     1       8.955   0.822  10.419  1.00  0.00     0.049 A 
ATOM     38  H   UNL     1       7.795   0.748   8.663  1.00  0.00     0.167 HD
ATOM     39  C   UNL     1       8.500   3.243   9.956  1.00  0.00     0.074 A 
ATOM     40  C   UNL     1       8.624   4.651  10.287  1.00  0.00     0.031 C 
ATOM     41  C   UNL     1       9.052   2.238  10.683  1.00  0.00     0.037 A 
BRANCH  28  42
ATOM     42  C   UNL     1       8.012  -3.505   8.546  1.00  0.00     0.064 A 
ATOM     43  C   UNL     1       8.720  -4.244   7.585  1.00  0.00     0.173 A 
ATOM     44  C   UNL     1       7.397  -4.213   9.590  1.00  0.00     0.173 A 
ATOM     45  F   UNL     1       9.291  -3.623   6.541  1.00  0.00    -0.203 F 
ATOM     46  C   UNL     1       8.772  -5.636   7.646  1.00  0.00     0.198 A 
ATOM     47  C   UNL     1       7.476  -5.601   9.664  1.00  0.00     0.198 A 
ATOM     48  F   UNL     1       6.692  -3.559  10.526  1.00  0.00    -0.203 F 
ATOM     49  F   UNL     1       9.387  -6.326   6.675  1.00  0.00    -0.200 F 
ATOM     50  C   UNL     1       8.152  -6.313   8.686  1.00  0.00     0.200 A 
ATOM     51  F   UNL     1       6.873  -6.252  10.669  1.00  0.00    -0.200 F 
ATOM     52  F   UNL     1       8.188  -7.652   8.734  1.00  0.00    -0.200 F 
ENDBRANCH  28  42
BRANCH  29  53
ATOM     53  C   UNL     1       6.384   6.397   7.127  1.00  0.00     0.064 A 
ATOM     54  C   UNL     1       7.440   7.273   6.844  1.00  0.00     0.173 A 
ATOM     55  C   UNL     1       5.096   6.951   7.228  1.00  0.00     0.173 A 
ATOM     56  F   UNL     1       8.694   6.805   6.757  1.00  0.00    -0.203 F 
ATOM     57  C   UNL     1       7.222   8.643   6.693  1.00  0.00     0.198 A 
ATOM     58  C   UNL     1       4.874   8.315   7.043  1.00  0.00     0.198 A 
ATOM     59  F   UNL     1       4.044   6.165   7.504  1.00  0.00    -0.203 F 
ATOM     60  F   UNL     1       8.260   9.464   6.478  1.00  0.00    -0.200 F 
ATOM     61  C   UNL     1       5.940   9.162   6.788  1.00  0.00     0.200 A 
ATOM     62  F   UNL     1       3.630   8.806   7.124  1.00  0.00    -0.200 F 
ATOM     63  F   UNL     1       5.733  10.478   6.648  1.00  0.00    -0.200 F 
ENDBRANCH  29  53
BRANCH  41  64
ATOM     64  C   UNL     1       9.873   2.643  11.868  1.00  0.00     0.064 A 
ATOM     65  C   UNL     1       9.284   3.148  13.034  1.00  0.00     0.173 A 
ATOM     66  C   UNL     1      11.264   2.466  11.847  1.00  0.00     0.173 A 
ATOM     67  F   UNL     1       7.958   3.347  13.091  1.00  0.00    -0.203 F 
ATOM     68  C   UNL     1      10.065   3.488  14.133  1.00  0.00     0.198 A 
ATOM     69  C   UNL     1      12.037   2.772  12.960  1.00  0.00     0.198 A 
ATOM     70  F   UNL     1      11.868   1.976  10.754  1.00  0.00    -0.203 F 
ATOM     71  F   UNL     1       9.491   4.018  15.221  1.00  0.00    -0.200 F 
ATOM     72  C   UNL     1      11.438   3.290  14.099  1.00  0.00     0.200 A 
ATOM     73  F   UNL     1      13.360   2.561  12.933  1.00  0.00    -0.200 F 
ATOM     74  F   UNL     1      12.187   3.605  15.164  1.00  0.00    -0.200 F 
ENDBRANCH  41  64
ENDBRANCH  15  16
ENDBRANCH   8  10
ENDBRANCH   7   8
ENDBRANCH   6   7
ENDBRANCH   5   6
ENDBRANCH   4   5
ENDBRANCH   3   4
ENDBRANCH   2   3
ENDBRANCH   1   2
BRANCH   1  75
ATOM     75  C   UNL     1       3.312   2.579  -2.367  1.00  0.00     0.188 C 
BRANCH  75  76
ATOM     76  C   UNL     1       4.406   3.184  -1.462  1.00  0.00     0.188 C 
BRANCH  76  77
ATOM     77  O   UNL     1       4.040   3.998  -0.372  1.00  0.00    -0.376 OA
BRANCH  77  78
ATOM     78  C   UNL     1       3.118   5.050  -0.572  1.00  0.00     0.202 C 
BRANCH  78  79
ATOM     79  C   UNL     1       2.955   5.810  -1.910  1.00  0.00     0.261 C 
BRANCH  79  80
ATOM     80  O   UNL     1       3.496   5.223  -3.112  1.00  0.00    -0.463 OA
BRANCH  80  81
ATOM     81  C   UNL     1       4.629   5.753  -3.619  1.00  0.00     0.309 C 
ATOM     82  O   UNL     1       5.174   6.754  -3.141  1.00  0.00    -0.252 OA
BRANCH  81  83
ATOM     83  C   UNL     1       5.143   5.053  -4.896  1.00  0.00     0.111 C 
ATOM     84  C   UNL     1       4.893   3.541  -5.080  1.00  0.00     0.016 C 
ATOM     85  C   UNL     1       6.637   5.386  -5.067  1.00  0.00     0.093 C 
ATOM     86  C   UNL     1       5.568   2.894  -6.291  1.00  0.00     0.001 C 
ATOM     87  C   UNL     1       7.206   4.780  -6.358  1.00  0.00     0.014 C 
ATOM     88  C   UNL     1       7.035   3.266  -6.416  1.00  0.00     0.001 C 
BRANCH  85  89
ATOM     89  C   UNL     1       7.505   5.011  -3.907  1.00  0.00     0.230 A 
ATOM     90  N   UNL     1       8.601   5.607  -3.516  1.00  0.00    -0.196 NA
ATOM     91  O   UNL     1       7.250   3.858  -3.222  1.00  0.00    -0.339 OA
ATOM     92  C   UNL     1       9.051   4.774  -2.526  1.00  0.00     0.175 A 
ATOM     93  N   UNL     1       8.284   3.702  -2.295  1.00  0.00    -0.062 NA
BRANCH  92  94
ATOM     94  C   UNL     1      10.405   4.972  -1.933  1.00  0.00     0.061 C 
ATOM     95  C   UNL     1      11.454   4.510  -2.965  1.00  0.00     0.012 C 
ATOM     96  C   UNL     1      10.594   6.443  -1.515  1.00  0.00     0.012 C 
ATOM     97  C   UNL     1      12.877   4.909  -2.605  1.00  0.00     0.001 C 
ATOM     98  C   UNL     1      12.039   6.793  -1.184  1.00  0.00     0.001 C 
ATOM     99  C   UNL     1      12.972   6.402  -2.323  1.00  0.00     0.000 C 
ENDBRANCH  92  94
ENDBRANCH  85  89
ENDBRANCH  81  83
ENDBRANCH  80  81
ENDBRANCH  79  80
ENDBRANCH  78  79
ENDBRANCH  77  78
ENDBRANCH  76  77
ENDBRANCH  75  76
ENDBRANCH   1  75
TORSDOF 22
