REMARK SMILES O=C(C[NH+]1CCN(c2nccc(N3CCCCC3)n2)CC1)OCCOCCOCCOCCOC(=O)c1ccc(-c2c3nc(c(-c4c(F)c(F)c(F)c(F)c4F)c4ccc([nH]4)c(-c4c(F)c(F)c(F)c(F)c4F)c4nc(c(-c5c(F)c(F)c(F)c(F)c5F)c5ccc2[nH]5)C=C4)C=C3)cc1
REMARK SMILES IDX 27 1 26 2 25 3 24 4 23 5 22 6 2 7 1 8 3 9 4 10 5 11 21 12
REMARK SMILES IDX 6 14 20 15 7 16 8 17 9 18 19 19 10 20 12 21 11 22 13 23
REMARK SMILES IDX 14 24 18 25 15 26 17 27 16 28 28 29 29 30 30 31 31 32 32 33
REMARK SMILES IDX 33 34 34 35 35 36 36 37 37 38 38 39 99 40 39 41 98 42 40 43
REMARK SMILES IDX 41 44 42 45 92 46 43 47 97 48 91 49 93 50 44 51 96 52 90 53
REMARK SMILES IDX 89 54 45 56 77 57 57 58 76 59 58 60 61 61 75 62 94 63 59 64
REMARK SMILES IDX 60 65 74 67 95 68 62 69 46 70 47 71 55 72 48 73 49 74 53 75
REMARK SMILES IDX 56 76 50 77 51 78 54 79 52 80 78 81 79 82 87 83 80 84 81 85
REMARK SMILES IDX 85 86 88 87 82 88 83 89 86 90 84 91 63 92 64 93 72 94 65 95
REMARK SMILES IDX 66 96 70 97 73 98 67 99 68 100 71 101 69 102
REMARK H PARENT 4 13 93 55 61 66
REMARK Flexibility Score: inf
ROOT
ATOM      1  C   UNL     1       1.668  -0.378   2.741  1.00  0.00     0.188 C 
ENDROOT
BRANCH   1   2
ATOM      2  C   UNL     1       1.974  -0.973   1.360  1.00  0.00     0.188 C 
BRANCH   2   3
ATOM      3  O   UNL     1       3.304  -0.838   0.866  1.00  0.00    -0.376 OA
BRANCH   3   4
ATOM      4  C   UNL     1       3.870   0.470   0.762  1.00  0.00     0.202 C 
BRANCH   4   5
ATOM      5  C   UNL     1       2.957   1.573   0.235  1.00  0.00     0.261 C 
BRANCH   5   6
ATOM      6  O   UNL     1       2.878   1.558  -1.200  1.00  0.00    -0.459 OA
BRANCH   6   7
ATOM      7  C   UNL     1       2.191   0.524  -1.747  1.00  0.00     0.361 C 
ATOM      8  O   UNL     1       0.965   0.513  -1.791  1.00  0.00    -0.245 OA
BRANCH   7   9
ATOM      9  C   UNL     1       3.076  -0.632  -2.204  1.00  0.00     0.386 C 
BRANCH   9  10
ATOM     10  N   UNL     1       4.176  -0.362  -3.152  1.00  0.00    -0.323 N 
ATOM     11  C   UNL     1       4.726   1.000  -3.248  1.00  0.00     0.284 C 
ATOM     12  C   UNL     1       5.290  -1.321  -2.939  1.00  0.00     0.284 C 
ATOM     13  H   UNL     1       3.704  -0.481  -4.049  1.00  0.00     0.348 HD
ATOM     14  C   UNL     1       5.736   1.458  -2.174  1.00  0.00     0.181 C 
ATOM     15  C   UNL     1       6.262  -0.988  -1.778  1.00  0.00     0.181 C 
ATOM     16  N   UNL     1       6.666   0.404  -1.823  1.00  0.00    -0.329 N 
BRANCH  16  17
ATOM     17  C   UNL     1       7.721   0.794  -1.042  1.00  0.00     0.227 A 
ATOM     18  N   UNL     1       7.536   1.204   0.221  1.00  0.00    -0.221 NA
ATOM     19  N   UNL     1       8.882   0.889  -1.684  1.00  0.00    -0.196 NA
ATOM     20  C   UNL     1       8.620   1.714   0.840  1.00  0.00     0.119 A 
ATOM     21  C   UNL     1       9.935   1.430  -1.066  1.00  0.00     0.134 A 
ATOM     22  C   UNL     1       9.852   1.845   0.243  1.00  0.00     0.067 A 
BRANCH  21  23
ATOM     23  N   UNL     1      11.086   1.649  -1.816  1.00  0.00    -0.356 N 
ATOM     24  C   UNL     1      10.844   1.979  -3.227  1.00  0.00     0.118 C 
ATOM     25  C   UNL     1      12.215   0.760  -1.552  1.00  0.00     0.118 C 
ATOM     26  C   UNL     1      10.728   0.724  -4.096  1.00  0.00     0.022 C 
ATOM     27  C   UNL     1      12.107  -0.517  -2.392  1.00  0.00     0.022 C 
ATOM     28  C   UNL     1      11.921  -0.201  -3.877  1.00  0.00     0.004 C 
ENDBRANCH  21  23
ENDBRANCH  16  17
ENDBRANCH   9  10
ENDBRANCH   7   9
ENDBRANCH   6   7
ENDBRANCH   5   6
ENDBRANCH   4   5
ENDBRANCH   3   4
ENDBRANCH   2   3
ENDBRANCH   1   2
BRANCH   1  29
ATOM     29  O   UNL     1       2.651   0.552   3.175  1.00  0.00    -0.377 OA
BRANCH  29  30
ATOM     30  C   UNL     1       3.623   0.005   4.073  1.00  0.00     0.188 C 
BRANCH  30  31
ATOM     31  C   UNL     1       4.356  -1.293   3.657  1.00  0.00     0.188 C 
BRANCH  31  32
ATOM     32  O   UNL     1       3.442  -2.372   3.473  1.00  0.00    -0.376 OA
BRANCH  32  33
ATOM     33  C   UNL     1       3.486  -3.424   4.426  1.00  0.00     0.202 C 
BRANCH  33  34
ATOM     34  C   UNL     1       2.865  -3.099   5.795  1.00  0.00     0.261 C 
BRANCH  34  35
ATOM     35  O   UNL     1       3.323  -1.884   6.409  1.00  0.00    -0.460 OA
BRANCH  35  36
ATOM     36  C   UNL     1       4.611  -1.844   6.830  1.00  0.00     0.338 C 
ATOM     37  O   UNL     1       5.389  -2.767   6.855  1.00  0.00    -0.246 OA
BRANCH  36  38
ATOM     38  C   UNL     1       4.986  -0.414   7.038  1.00  0.00     0.060 A 
ATOM     39  C   UNL     1       6.259  -0.003   6.619  1.00  0.00     0.016 A 
ATOM     40  C   UNL     1       4.101   0.522   7.590  1.00  0.00     0.016 A 
ATOM     41  C   UNL     1       6.681   1.311   6.833  1.00  0.00     0.010 A 
ATOM     42  C   UNL     1       4.523   1.840   7.808  1.00  0.00     0.010 A 
ATOM     43  C   UNL     1       5.841   2.217   7.495  1.00  0.00    -0.014 A 
BRANCH  43  44
ATOM     44  C   UNL     1       6.460   3.386   8.174  1.00  0.00     0.031 A 
ATOM     45  C   UNL     1       6.897   3.187   9.605  1.00  0.00     0.074 A 
ATOM     46  C   UNL     1       6.698   4.555   7.554  1.00  0.00     0.049 A 
ATOM     47  N   UNL     1       7.509   4.008  10.419  1.00  0.00    -0.248 NA
ATOM     48  C   UNL     1       6.600   1.871  10.197  1.00  0.00     0.031 C 
ATOM     49  C   UNL     1       6.361   4.869   6.169  1.00  0.00     0.029 A 
ATOM     50  N   UNL     1       7.294   5.700   8.025  1.00  0.00    -0.354 N 
ATOM     51  C   UNL     1       7.664   3.308  11.610  1.00  0.00     0.074 A 
ATOM     52  C   UNL     1       7.048   2.014  11.431  1.00  0.00     0.031 C 
ATOM     53  C   UNL     1       6.760   6.126   5.899  1.00  0.00     0.029 A 
ATOM     54  C   UNL     1       7.366   6.710   7.096  1.00  0.00     0.049 A 
ATOM     55  H   UNL     1       7.639   5.789   8.943  1.00  0.00     0.167 HD
ATOM     56  C   UNL     1       8.279   3.696  12.751  1.00  0.00     0.037 A 
ATOM     57  C   UNL     1       7.864   7.957   7.210  1.00  0.00     0.037 A 
ATOM     58  C   UNL     1       8.893   4.980  12.937  1.00  0.00     0.049 A 
ATOM     59  C   UNL     1       8.492   8.392   8.514  1.00  0.00     0.074 A 
ATOM     60  C   UNL     1       9.550   5.470  14.050  1.00  0.00     0.029 A 
ATOM     61  N   UNL     1       8.914   5.984  11.980  1.00  0.00    -0.354 N 
ATOM     62  N   UNL     1       8.672   7.709   9.620  1.00  0.00    -0.248 NA
ATOM     63  C   UNL     1       8.997   9.772   8.578  1.00  0.00     0.031 C 
ATOM     64  C   UNL     1       9.927   6.791  13.785  1.00  0.00     0.029 A 
ATOM     65  C   UNL     1       9.557   7.101  12.486  1.00  0.00     0.049 A 
ATOM     66  H   UNL     1       8.530   5.913  11.077  1.00  0.00     0.167 HD
ATOM     67  C   UNL     1       9.350   8.557  10.489  1.00  0.00     0.074 A 
ATOM     68  C   UNL     1       9.552   9.804   9.781  1.00  0.00     0.031 C 
ATOM     69  C   UNL     1       9.774   8.323  11.756  1.00  0.00     0.037 A 
BRANCH  56  70
ATOM     70  C   UNL     1       8.280   2.722  13.892  1.00  0.00     0.064 A 
ATOM     71  C   UNL     1       9.044   1.546  13.859  1.00  0.00     0.173 A 
ATOM     72  C   UNL     1       7.495   2.964  15.028  1.00  0.00     0.173 A 
ATOM     73  F   UNL     1       9.792   1.255  12.783  1.00  0.00    -0.203 F 
ATOM     74  C   UNL     1       8.996   0.631  14.908  1.00  0.00     0.198 A 
ATOM     75  C   UNL     1       7.473   2.064  16.089  1.00  0.00     0.198 A 
ATOM     76  F   UNL     1       6.742   4.072  15.106  1.00  0.00    -0.203 F 
ATOM     77  F   UNL     1       9.685  -0.515  14.828  1.00  0.00    -0.200 F 
ATOM     78  C   UNL     1       8.216   0.894  16.024  1.00  0.00     0.200 A 
ATOM     79  F   UNL     1       6.724   2.322  17.169  1.00  0.00    -0.200 F 
ATOM     80  F   UNL     1       8.169   0.013  17.033  1.00  0.00    -0.200 F 
ENDBRANCH  56  70
BRANCH  57  81
ATOM     81  C   UNL     1       7.815   8.895   6.055  1.00  0.00     0.064 A 
ATOM     82  C   UNL     1       8.989   9.306   5.407  1.00  0.00     0.173 A 
ATOM     83  C   UNL     1       6.602   9.435   5.606  1.00  0.00     0.173 A 
ATOM     84  F   UNL     1      10.178   8.842   5.819  1.00  0.00    -0.203 F 
ATOM     85  C   UNL     1       8.953  10.237   4.370  1.00  0.00     0.198 A 
ATOM     86  C   UNL     1       6.564  10.346   4.551  1.00  0.00     0.198 A 
ATOM     87  F   UNL     1       5.450   9.083   6.197  1.00  0.00    -0.203 F 
ATOM     88  F   UNL     1      10.095  10.652   3.805  1.00  0.00    -0.200 F 
ATOM     89  C   UNL     1       7.740  10.753   3.940  1.00  0.00     0.200 A 
ATOM     90  F   UNL     1       5.389  10.838   4.135  1.00  0.00    -0.200 F 
ATOM     91  F   UNL     1       7.706  11.651   2.946  1.00  0.00    -0.200 F 
ENDBRANCH  57  81
BRANCH  69  92
ATOM     92  C   UNL     1      10.560   9.406  12.439  1.00  0.00     0.064 A 
ATOM     93  C   UNL     1       9.964  10.600  12.870  1.00  0.00     0.173 A 
ATOM     94  C   UNL     1      11.927   9.222  12.704  1.00  0.00     0.173 A 
ATOM     95  F   UNL     1       8.664  10.829  12.634  1.00  0.00    -0.203 F 
ATOM     96  C   UNL     1      10.714  11.582  13.513  1.00  0.00     0.198 A 
ATOM     97  C   UNL     1      12.665  10.191  13.375  1.00  0.00     0.198 A 
ATOM     98  F   UNL     1      12.543   8.093  12.323  1.00  0.00    -0.203 F 
ATOM     99  F   UNL     1      10.135  12.737  13.871  1.00  0.00    -0.200 F 
ATOM    100  C   UNL     1      12.061  11.374  13.771  1.00  0.00     0.200 A 
ATOM    101  F   UNL     1      13.962   9.981  13.639  1.00  0.00    -0.200 F 
ATOM    102  F   UNL     1      12.779  12.318  14.395  1.00  0.00    -0.200 F 
ENDBRANCH  69  92
ENDBRANCH  43  44
ENDBRANCH  36  38
ENDBRANCH  35  36
ENDBRANCH  34  35
ENDBRANCH  33  34
ENDBRANCH  32  33
ENDBRANCH  31  32
ENDBRANCH  30  31
ENDBRANCH  29  30
ENDBRANCH   1  29
TORSDOF 23
