REMARK SMILES CSc1ccc(C[C@H]([NH3+])C(=O)OCCOCCOCCOCCOC(=O)c2ccc(-c3c4nc(c(-c5c(F)c(F)c(F)c(F)c5F)c5ccc([nH]5)c(-c5c(F)c(F)c(F)c(F)c5F)c5nc(c(-c6c(F)c(F)c(F)c(F)c6F)c6ccc3[nH]6)C=C5)C=C4)cc2)cc1
REMARK SMILES IDX 17 1 16 2 15 3 14 4 13 5 12 6 10 7 11 8 8 9 7 10 6 11 3 12
REMARK SMILES IDX 4 13 91 14 5 15 90 16 2 17 1 18 9 19 18 23 19 24 20 25 21 26
REMARK SMILES IDX 22 27 23 28 24 29 25 30 26 31 27 32 28 33 89 34 29 35 88 36
REMARK SMILES IDX 30 37 31 38 32 39 82 40 33 41 87 42 81 43 83 44 34 45 86 46
REMARK SMILES IDX 80 47 79 48 35 50 67 51 47 52 66 53 48 54 51 55 65 56 84 57
REMARK SMILES IDX 49 58 50 59 64 61 85 62 52 63 36 64 37 65 45 66 38 67 39 68
REMARK SMILES IDX 43 69 46 70 40 71 41 72 44 73 42 74 68 75 69 76 77 77 70 78
REMARK SMILES IDX 71 79 75 80 78 81 72 82 73 83 76 84 74 85 53 86 54 87 62 88
REMARK SMILES IDX 55 89 56 90 60 91 63 92 57 93 58 94 61 95 59 96
REMARK H PARENT 9 20 9 21 9 22 83 49 51 60
REMARK Flexibility Score: inf
ROOT
ATOM      1  C   UNL     1       4.180  -8.392  -1.250  1.00  0.00     0.188 C 
ENDROOT
BRANCH   1   2
ATOM      2  C   UNL     1       4.898  -9.287  -0.228  1.00  0.00     0.188 C 
BRANCH   2   3
ATOM      3  O   UNL     1       4.858 -10.702  -0.298  1.00  0.00    -0.376 OA
BRANCH   3   4
ATOM      4  C   UNL     1       3.710 -11.484  -0.571  1.00  0.00     0.202 C 
BRANCH   4   5
ATOM      5  C   UNL     1       2.285 -11.221  -0.059  1.00  0.00     0.261 C 
BRANCH   5   6
ATOM      6  O   UNL     1       1.806  -9.880  -0.040  1.00  0.00    -0.459 OA
BRANCH   6   7
ATOM      7  C   UNL     1       2.107  -9.207   1.101  1.00  0.00     0.365 C 
ATOM      8  O   UNL     1       2.813  -9.664   1.991  1.00  0.00    -0.245 OA
BRANCH   7   9
ATOM      9  C   UNL     1       1.442  -7.822   1.162  1.00  0.00     0.296 C 
BRANCH   9  10
ATOM     10  C   UNL     1       0.161  -7.894   2.004  1.00  0.00     0.113 C 
BRANCH  10  11
ATOM     11  C   UNL     1       0.420  -8.256   3.450  1.00  0.00    -0.041 A 
ATOM     12  C   UNL     1       1.151  -8.920   6.080  1.00  0.00     0.007 A 
ATOM     13  C   UNL     1       1.065  -9.913   5.109  1.00  0.00     0.015 A 
ATOM     14  C   UNL     1       0.859  -7.596   5.739  1.00  0.00     0.015 A 
ATOM     15  C   UNL     1       0.659  -9.588   3.816  1.00  0.00     0.005 A 
ATOM     16  C   UNL     1       0.509  -7.262   4.428  1.00  0.00     0.005 A 
BRANCH  12  17
ATOM     17  S   UNL     1       1.622  -9.370   7.737  1.00  0.00    -0.130 SA
ATOM     18  C   UNL     1       0.073  -8.954   8.574  1.00  0.00     0.091 C 
ENDBRANCH  12  17
ENDBRANCH  10  11
ENDBRANCH   9  10
BRANCH   9  19
ATOM     19  N   UNL     1       1.107  -7.285  -0.188  1.00  0.00    -0.346 N 
ATOM     20  H   UNL     1       0.430  -7.899  -0.640  1.00  0.00     0.345 HD
ATOM     21  H   UNL     1       1.954  -7.236  -0.754  1.00  0.00     0.345 HD
ATOM     22  H   UNL     1       0.708  -6.351  -0.092  1.00  0.00     0.345 HD
ENDBRANCH   9  19
ENDBRANCH   7   9
ENDBRANCH   6   7
ENDBRANCH   5   6
ENDBRANCH   4   5
ENDBRANCH   3   4
ENDBRANCH   2   3
ENDBRANCH   1   2
BRANCH   1  23
ATOM     23  O   UNL     1       3.246  -9.063  -2.071  1.00  0.00    -0.377 OA
BRANCH  23  24
ATOM     24  C   UNL     1       3.731  -9.605  -3.296  1.00  0.00     0.188 C 
BRANCH  24  25
ATOM     25  C   UNL     1       5.197 -10.086  -3.391  1.00  0.00     0.188 C 
BRANCH  25  26
ATOM     26  O   UNL     1       6.142  -9.175  -2.850  1.00  0.00    -0.376 OA
BRANCH  26  27
ATOM     27  C   UNL     1       6.874  -8.340  -3.731  1.00  0.00     0.202 C 
BRANCH  27  28
ATOM     28  C   UNL     1       6.078  -7.281  -4.507  1.00  0.00     0.261 C 
BRANCH  28  29
ATOM     29  O   UNL     1       5.015  -7.771  -5.339  1.00  0.00    -0.460 OA
BRANCH  29  30
ATOM     30  C   UNL     1       5.332  -8.643  -6.318  1.00  0.00     0.338 C 
ATOM     31  O   UNL     1       6.444  -9.034  -6.629  1.00  0.00    -0.246 OA
BRANCH  30  32
ATOM     32  C   UNL     1       4.070  -9.213  -6.832  1.00  0.00     0.060 A 
ATOM     33  C   UNL     1       3.871 -10.599  -6.773  1.00  0.00     0.016 A 
ATOM     34  C   UNL     1       3.085  -8.379  -7.366  1.00  0.00     0.016 A 
ATOM     35  C   UNL     1       2.702 -11.161  -7.287  1.00  0.00     0.010 A 
ATOM     36  C   UNL     1       1.926  -8.944  -7.902  1.00  0.00     0.010 A 
ATOM     37  C   UNL     1       1.748 -10.339  -7.899  1.00  0.00    -0.014 A 
BRANCH  37  38
ATOM     38  C   UNL     1       0.683 -10.939  -8.738  1.00  0.00     0.031 A 
ATOM     39  C   UNL     1       0.908 -10.998 -10.224  1.00  0.00     0.074 A 
ATOM     40  C   UNL     1      -0.454 -11.417  -8.204  1.00  0.00     0.049 A 
ATOM     41  N   UNL     1       0.094 -11.371 -11.178  1.00  0.00    -0.248 NA
ATOM     42  C   UNL     1       2.235 -10.569 -10.697  1.00  0.00     0.031 C 
ATOM     43  C   UNL     1      -0.765 -11.464  -6.778  1.00  0.00     0.029 A 
ATOM     44  N   UNL     1      -1.569 -11.940  -8.812  1.00  0.00    -0.354 N 
ATOM     45  C   UNL     1       0.804 -11.208 -12.360  1.00  0.00     0.074 A 
ATOM     46  C   UNL     1       2.103 -10.677 -12.010  1.00  0.00     0.031 C 
ATOM     47  C   UNL     1      -2.002 -11.969  -6.620  1.00  0.00     0.029 A 
ATOM     48  C   UNL     1      -2.582 -12.240  -7.935  1.00  0.00     0.049 A 
ATOM     49  H   UNL     1      -1.635 -12.086  -9.783  1.00  0.00     0.167 HD
ATOM     50  C   UNL     1       0.409 -11.482 -13.626  1.00  0.00     0.037 A 
ATOM     51  C   UNL     1      -3.843 -12.652  -8.175  1.00  0.00     0.037 A 
ATOM     52  C   UNL     1      -0.885 -12.008 -13.968  1.00  0.00     0.049 A 
ATOM     53  C   UNL     1      -4.290 -12.867  -9.602  1.00  0.00     0.074 A 
ATOM     54  C   UNL     1      -1.380 -12.335 -15.218  1.00  0.00     0.029 A 
ATOM     55  N   UNL     1      -1.894 -12.275 -13.054  1.00  0.00    -0.354 N 
ATOM     56  N   UNL     1      -3.611 -12.731 -10.715  1.00  0.00    -0.248 NA
ATOM     57  C   UNL     1      -5.683 -13.294  -9.804  1.00  0.00     0.031 C 
ATOM     58  C   UNL     1      -2.710 -12.738 -15.068  1.00  0.00     0.029 A 
ATOM     59  C   UNL     1      -3.021 -12.734 -13.717  1.00  0.00     0.049 A 
ATOM     60  H   UNL     1      -1.821 -12.157 -12.080  1.00  0.00     0.167 HD
ATOM     61  C   UNL     1      -4.477 -13.091 -11.741  1.00  0.00     0.074 A 
ATOM     62  C   UNL     1      -5.730 -13.460 -11.118  1.00  0.00     0.031 C 
ATOM     63  C   UNL     1      -4.255 -13.116 -13.079  1.00  0.00     0.037 A 
BRANCH  50  64
ATOM     64  C   UNL     1       1.373 -11.182 -14.736  1.00  0.00     0.064 A 
ATOM     65  C   UNL     1       2.547 -11.930 -14.921  1.00  0.00     0.173 A 
ATOM     66  C   UNL     1       1.102 -10.152 -15.649  1.00  0.00     0.173 A 
ATOM     67  F   UNL     1       2.862 -12.915 -14.067  1.00  0.00    -0.203 F 
ATOM     68  C   UNL     1       3.424 -11.639 -15.963  1.00  0.00     0.198 A 
ATOM     69  C   UNL     1       1.964  -9.886 -16.709  1.00  0.00     0.198 A 
ATOM     70  F   UNL     1      -0.006  -9.406 -15.518  1.00  0.00    -0.203 F 
ATOM     71  F   UNL     1       4.564 -12.332 -16.090  1.00  0.00    -0.200 F 
ATOM     72  C   UNL     1       3.128 -10.624 -16.860  1.00  0.00     0.200 A 
ATOM     73  F   UNL     1       1.669  -8.914 -17.583  1.00  0.00    -0.200 F 
ATOM     74  F   UNL     1       3.968 -10.352 -17.868  1.00  0.00    -0.200 F 
ENDBRANCH  50  64
BRANCH  51  75
ATOM     75  C   UNL     1      -4.789 -12.866  -7.047  1.00  0.00     0.064 A 
ATOM     76  C   UNL     1      -5.281 -14.144  -6.747  1.00  0.00     0.173 A 
ATOM     77  C   UNL     1      -5.249 -11.794  -6.268  1.00  0.00     0.173 A 
ATOM     78  F   UNL     1      -4.894 -15.199  -7.479  1.00  0.00    -0.203 F 
ATOM     79  C   UNL     1      -6.214 -14.337  -5.729  1.00  0.00     0.198 A 
ATOM     80  C   UNL     1      -6.156 -11.992  -5.229  1.00  0.00     0.198 A 
ATOM     81  F   UNL     1      -4.815 -10.549  -6.515  1.00  0.00    -0.203 F 
ATOM     82  F   UNL     1      -6.712 -15.561  -5.503  1.00  0.00    -0.200 F 
ATOM     83  C   UNL     1      -6.647 -13.262  -4.968  1.00  0.00     0.200 A 
ATOM     84  F   UNL     1      -6.562 -10.952  -4.488  1.00  0.00    -0.200 F 
ATOM     85  F   UNL     1      -7.544 -13.449  -3.990  1.00  0.00    -0.200 F 
ENDBRANCH  51  75
BRANCH  63  86
ATOM     86  C   UNL     1      -5.365 -13.613 -13.963  1.00  0.00     0.064 A 
ATOM     87  C   UNL     1      -6.533 -12.867 -14.178  1.00  0.00     0.173 A 
ATOM     88  C   UNL     1      -5.227 -14.828 -14.653  1.00  0.00     0.173 A 
ATOM     89  F   UNL     1      -6.721 -11.705 -13.534  1.00  0.00    -0.203 F 
ATOM     90  C   UNL     1      -7.531 -13.331 -15.031  1.00  0.00     0.198 A 
ATOM     91  C   UNL     1      -6.210 -15.271 -15.533  1.00  0.00     0.198 A 
ATOM     92  F   UNL     1      -4.125 -15.576 -14.492  1.00  0.00    -0.203 F 
ATOM     93  F   UNL     1      -8.660 -12.624 -15.185  1.00  0.00    -0.200 F 
ATOM     94  C   UNL     1      -7.365 -14.526 -15.715  1.00  0.00     0.200 A 
ATOM     95  F   UNL     1      -6.037 -16.416 -16.207  1.00  0.00    -0.200 F 
ATOM     96  F   UNL     1      -8.320 -14.963 -16.548  1.00  0.00    -0.200 F 
ENDBRANCH  63  86
ENDBRANCH  37  38
ENDBRANCH  30  32
ENDBRANCH  29  30
ENDBRANCH  28  29
ENDBRANCH  27  28
ENDBRANCH  26  27
ENDBRANCH  25  26
ENDBRANCH  24  25
ENDBRANCH  23  24
ENDBRANCH   1  23
TORSDOF 24
