REMARK SMILES C[C@@H]1Cc2ccccc2N1c1ccc(F)cc1C(=O)OCCOCCOCCOCCOC(=O)c1ccc(-c2c3nc(c(-c4c(F)c(F)c(F)c(F)c4F)c4ccc([nH]4)c(-c4c(F)c(F)c(F)c(F)c4F)c4nc(c(-c5c(F)c(F)c(F)c(F)c5F)c5ccc2[nH]5)C=C4)C=C3)cc1
REMARK SMILES IDX 27 1 26 2 25 3 24 4 23 5 22 6 21 7 20 8 18 9 19 10 17 11
REMARK SMILES IDX 11 12 12 13 13 14 16 15 14 16 15 17 10 18 1 19 2 20 3 21
REMARK SMILES IDX 4 22 9 23 5 24 8 25 6 26 7 27 28 28 29 29 30 30 31 31 32 32
REMARK SMILES IDX 33 33 34 34 35 35 36 36 97 37 37 38 96 39 38 40 39 41 40 42
REMARK SMILES IDX 90 43 41 44 95 45 89 46 91 47 42 48 94 49 88 50 87 51 43 53
REMARK SMILES IDX 75 54 55 55 74 56 56 57 59 58 73 59 92 60 57 61 58 62 72 64
REMARK SMILES IDX 93 65 60 66 44 67 45 68 53 69 46 70 47 71 51 72 54 73 48 74
REMARK SMILES IDX 49 75 52 76 50 77 76 78 77 79 85 80 78 81 79 82 83 83 86 84
REMARK SMILES IDX 80 85 81 86 84 87 82 88 61 89 62 90 70 91 63 92 64 93 68 94
REMARK SMILES IDX 71 95 65 96 66 97 69 98 67 99
REMARK H PARENT 91 52 59 63
REMARK Flexibility Score: inf
ROOT
ATOM      1  C   UNL     1      -3.930   3.853  -0.407  1.00  0.00     0.188 C 
ENDROOT
BRANCH   1   2
ATOM      2  O   UNL     1      -3.525   3.822  -1.768  1.00  0.00    -0.377 OA
BRANCH   2   3
ATOM      3  C   UNL     1      -3.069   2.559  -2.229  1.00  0.00     0.188 C 
BRANCH   3   4
ATOM      4  C   UNL     1      -4.110   1.432  -2.212  1.00  0.00     0.188 C 
BRANCH   4   5
ATOM      5  O   UNL     1      -4.530   1.083  -0.892  1.00  0.00    -0.376 OA
BRANCH   5   6
ATOM      6  C   UNL     1      -4.090  -0.181  -0.405  1.00  0.00     0.202 C 
BRANCH   6   7
ATOM      7  C   UNL     1      -2.730  -0.093   0.284  1.00  0.00     0.261 C 
BRANCH   7   8
ATOM      8  O   UNL     1      -1.708   0.423  -0.578  1.00  0.00    -0.460 OA
BRANCH   8   9
ATOM      9  C   UNL     1      -1.254  -0.387  -1.553  1.00  0.00     0.340 C 
ATOM     10  O   UNL     1      -1.618  -1.540  -1.737  1.00  0.00    -0.246 OA
BRANCH   9  11
ATOM     11  C   UNL     1      -0.356   0.343  -2.488  1.00  0.00     0.086 A 
ATOM     12  C   UNL     1       0.517   1.405  -2.143  1.00  0.00     0.056 A 
ATOM     13  C   UNL     1       1.311   1.952  -3.180  1.00  0.00     0.030 A 
ATOM     14  C   UNL     1       1.171   1.552  -4.510  1.00  0.00     0.041 A 
ATOM     15  C   UNL     1      -0.488  -0.054  -3.834  1.00  0.00     0.057 A 
ATOM     16  C   UNL     1       0.252   0.569  -4.827  1.00  0.00     0.124 A 
ATOM     17  F   UNL     1       0.064   0.225  -6.107  1.00  0.00    -0.207 F 
BRANCH  12  18
ATOM     18  N   UNL     1       0.550   2.024  -0.880  1.00  0.00    -0.337 N 
ATOM     19  C   UNL     1       1.002   0.114   0.743  1.00  0.00     0.032 C 
ATOM     20  C   UNL     1       1.394   1.492   0.232  1.00  0.00     0.089 C 
ATOM     21  C   UNL     1       1.296   2.520   1.393  1.00  0.00     0.063 C 
ATOM     22  C   UNL     1       0.991   3.767   0.643  1.00  0.00    -0.022 A 
ATOM     23  C   UNL     1       0.543   3.436  -0.637  1.00  0.00     0.045 A 
ATOM     24  C   UNL     1       1.071   5.081   1.080  1.00  0.00     0.006 A 
ATOM     25  C   UNL     1       0.160   4.447  -1.510  1.00  0.00     0.026 A 
ATOM     26  C   UNL     1       0.721   6.095   0.188  1.00  0.00     0.000 A 
ATOM     27  C   UNL     1       0.269   5.780  -1.100  1.00  0.00     0.002 A 
ENDBRANCH  12  18
ENDBRANCH   9  11
ENDBRANCH   8   9
ENDBRANCH   7   8
ENDBRANCH   6   7
ENDBRANCH   5   6
ENDBRANCH   4   5
ENDBRANCH   3   4
ENDBRANCH   2   3
ENDBRANCH   1   2
BRANCH   1  28
ATOM     28  C   UNL     1      -5.458   3.804  -0.191  1.00  0.00     0.188 C 
BRANCH  28  29
ATOM     29  O   UNL     1      -6.399   4.366  -1.107  1.00  0.00    -0.376 OA
BRANCH  29  30
ATOM     30  C   UNL     1      -5.969   4.912  -2.341  1.00  0.00     0.202 C 
BRANCH  30  31
ATOM     31  C   UNL     1      -5.435   6.349  -2.267  1.00  0.00     0.261 C 
BRANCH  31  32
ATOM     32  O   UNL     1      -4.695   6.652  -1.078  1.00  0.00    -0.460 OA
BRANCH  32  33
ATOM     33  C   UNL     1      -5.442   7.047  -0.018  1.00  0.00     0.338 C 
ATOM     34  O   UNL     1      -6.643   7.255   0.010  1.00  0.00    -0.246 OA
BRANCH  33  35
ATOM     35  C   UNL     1      -4.585   7.095   1.186  1.00  0.00     0.060 A 
ATOM     36  C   UNL     1      -3.313   7.674   1.149  1.00  0.00     0.016 A 
ATOM     37  C   UNL     1      -5.087   6.568   2.383  1.00  0.00     0.016 A 
ATOM     38  C   UNL     1      -2.567   7.775   2.325  1.00  0.00     0.010 A 
ATOM     39  C   UNL     1      -4.335   6.654   3.555  1.00  0.00     0.010 A 
ATOM     40  C   UNL     1      -3.087   7.292   3.539  1.00  0.00    -0.014 A 
BRANCH  40  41
ATOM     41  C   UNL     1      -2.429   7.657   4.814  1.00  0.00     0.031 A 
ATOM     42  C   UNL     1      -1.513   6.724   5.535  1.00  0.00     0.074 A 
ATOM     43  C   UNL     1      -2.698   8.876   5.321  1.00  0.00     0.049 A 
ATOM     44  N   UNL     1      -0.781   6.954   6.596  1.00  0.00    -0.248 NA
ATOM     45  C   UNL     1      -1.407   5.355   5.011  1.00  0.00     0.031 C 
ATOM     46  C   UNL     1      -3.619   9.843   4.721  1.00  0.00     0.029 A 
ATOM     47  N   UNL     1      -2.227   9.511   6.439  1.00  0.00    -0.354 N 
ATOM     48  C   UNL     1      -0.106   5.771   6.856  1.00  0.00     0.074 A 
ATOM     49  C   UNL     1      -0.554   4.807   5.870  1.00  0.00     0.031 C 
ATOM     50  C   UNL     1      -3.627  10.959   5.463  1.00  0.00     0.029 A 
ATOM     51  C   UNL     1      -2.720  10.783   6.593  1.00  0.00     0.049 A 
ATOM     52  H   UNL     1      -1.596   9.096   7.071  1.00  0.00     0.167 HD
ATOM     53  C   UNL     1       0.816   5.530   7.819  1.00  0.00     0.037 A 
ATOM     54  C   UNL     1      -2.458  11.711   7.530  1.00  0.00     0.037 A 
ATOM     55  C   UNL     1       1.236   6.496   8.804  1.00  0.00     0.049 A 
ATOM     56  C   UNL     1      -1.454  11.405   8.603  1.00  0.00     0.074 A 
ATOM     57  C   UNL     1       2.214   6.367   9.776  1.00  0.00     0.029 A 
ATOM     58  N   UNL     1       0.689   7.762   8.957  1.00  0.00    -0.354 N 
ATOM     59  N   UNL     1      -0.735  10.322   8.773  1.00  0.00    -0.248 NA
ATOM     60  C   UNL     1      -1.218  12.449   9.608  1.00  0.00     0.031 C 
ATOM     61  C   UNL     1       2.224   7.534  10.547  1.00  0.00     0.029 A 
ATOM     62  C   UNL     1       1.284   8.410  10.029  1.00  0.00     0.049 A 
ATOM     63  H   UNL     1      -0.018   8.144   8.388  1.00  0.00     0.167 HD
ATOM     64  C   UNL     1       0.048  10.557   9.893  1.00  0.00     0.074 A 
ATOM     65  C   UNL     1      -0.271  11.894  10.352  1.00  0.00     0.031 C 
ATOM     66  C   UNL     1       0.948   9.736  10.485  1.00  0.00     0.037 A 
BRANCH  53  67
ATOM     67  C   UNL     1       1.462   4.176   7.850  1.00  0.00     0.064 A 
ATOM     68  C   UNL     1       2.401   3.799   6.879  1.00  0.00     0.173 A 
ATOM     69  C   UNL     1       1.219   3.288   8.909  1.00  0.00     0.173 A 
ATOM     70  F   UNL     1       2.665   4.610   5.843  1.00  0.00    -0.203 F 
ATOM     71  C   UNL     1       3.065   2.578   6.960  1.00  0.00     0.198 A 
ATOM     72  C   UNL     1       1.902   2.077   8.999  1.00  0.00     0.198 A 
ATOM     73  F   UNL     1       0.338   3.604   9.869  1.00  0.00    -0.203 F 
ATOM     74  F   UNL     1       3.939   2.228   6.006  1.00  0.00    -0.200 F 
ATOM     75  C   UNL     1       2.823   1.723   8.024  1.00  0.00     0.200 A 
ATOM     76  F   UNL     1       1.676   1.257  10.034  1.00  0.00    -0.200 F 
ATOM     77  F   UNL     1       3.476   0.555   8.109  1.00  0.00    -0.200 F 
ENDBRANCH  53  67
BRANCH  54  78
ATOM     78  C   UNL     1      -3.119  13.036   7.445  1.00  0.00     0.064 A 
ATOM     79  C   UNL     1      -2.397  14.170   7.048  1.00  0.00     0.173 A 
ATOM     80  C   UNL     1      -4.488  13.188   7.707  1.00  0.00     0.173 A 
ATOM     81  F   UNL     1      -1.083  14.073   6.800  1.00  0.00    -0.203 F 
ATOM     82  C   UNL     1      -3.020  15.409   6.922  1.00  0.00     0.198 A 
ATOM     83  C   UNL     1      -5.114  14.422   7.558  1.00  0.00     0.198 A 
ATOM     84  F   UNL     1      -5.221  12.129   8.081  1.00  0.00    -0.203 F 
ATOM     85  F   UNL     1      -2.304  16.482   6.563  1.00  0.00    -0.200 F 
ATOM     86  C   UNL     1      -4.380  15.533   7.169  1.00  0.00     0.200 A 
ATOM     87  F   UNL     1      -6.430  14.536   7.784  1.00  0.00    -0.200 F 
ATOM     88  F   UNL     1      -4.981  16.722   7.034  1.00  0.00    -0.200 F 
ENDBRANCH  54  78
BRANCH  66  89
ATOM     89  C   UNL     1       1.652  10.251  11.705  1.00  0.00     0.064 A 
ATOM     90  C   UNL     1       0.992  10.346  12.939  1.00  0.00     0.173 A 
ATOM     91  C   UNL     1       3.012  10.589  11.657  1.00  0.00     0.173 A 
ATOM     92  F   UNL     1      -0.313  10.050  13.030  1.00  0.00    -0.203 F 
ATOM     93  C   UNL     1       1.668  10.769  14.080  1.00  0.00     0.198 A 
ATOM     94  C   UNL     1       3.691  10.988  12.805  1.00  0.00     0.198 A 
ATOM     95  F   UNL     1       3.688  10.512  10.500  1.00  0.00    -0.203 F 
ATOM     96  F   UNL     1       1.012  10.880  15.243  1.00  0.00    -0.200 F 
ATOM     97  C   UNL     1       3.018  11.080  14.014  1.00  0.00     0.200 A 
ATOM     98  F   UNL     1       4.998  11.276  12.742  1.00  0.00    -0.200 F 
ATOM     99  F   UNL     1       3.671  11.470  15.117  1.00  0.00    -0.200 F 
ENDBRANCH  66  89
ENDBRANCH  40  41
ENDBRANCH  33  35
ENDBRANCH  32  33
ENDBRANCH  31  32
ENDBRANCH  30  31
ENDBRANCH  29  30
ENDBRANCH  28  29
ENDBRANCH   1  28
TORSDOF 21
