REMARK SMILES NS(=O)(=O)c1ccc(C#Cc2cc(Cl)cc3c2O[C@H](C(F)(F)F)C(C(=O)OCCOCCOCCOCCOC(=O)c2ccc(-c4c5nc(c(-c6c(F)c(F)c(F)c(F)c6F)c6ccc([nH]6)c(-c6c(F)c(F)c(F)c(F)c6F)c6nc(c(-c7c(F)c(F)c(F)c(F)c7F)c7ccc4[nH]7)C=C6)C=C5)cc2)=C3)cc1
REMARK SMILES IDX 32 1 31 2 30 3 29 4 28 5 27 6 25 7 26 8 24 9 11 10 12 11
REMARK SMILES IDX 17 12 13 13 16 14 18 15 14 16 15 17 105 18 19 19 10 20 9 21
REMARK SMILES IDX 8 22 5 23 6 24 107 25 7 26 106 27 2 28 3 29 4 30 1 31 20 34
REMARK SMILES IDX 21 35 22 36 23 37 33 38 34 39 35 40 36 41 37 42 38 43 39 44
REMARK SMILES IDX 40 45 41 46 42 47 43 48 104 49 44 50 103 51 45 52 46 53
REMARK SMILES IDX 47 54 97 55 48 56 102 57 96 58 98 59 49 60 101 61 95 62
REMARK SMILES IDX 94 63 50 65 82 66 62 67 81 68 63 69 66 70 80 71 99 72 64 73
REMARK SMILES IDX 65 74 79 76 100 77 67 78 51 79 52 80 60 81 53 82 54 83 58 84
REMARK SMILES IDX 61 85 55 86 56 87 59 88 57 89 83 90 84 91 92 92 85 93 86 94
REMARK SMILES IDX 90 95 93 96 87 97 88 98 91 99 89 100 68 101 69 102 77 103
REMARK SMILES IDX 70 104 71 105 75 106 78 107 72 108 73 109 76 110 74 111
REMARK H PARENT 1 32 1 33 98 64 66 75
REMARK Flexibility Score: inf
ROOT
ATOM      1  C   UNL     1       4.265  -9.417  -8.703  1.00  0.00     0.188 C 
ENDROOT
BRANCH   1   2
ATOM      2  C   UNL     1       3.499 -10.493  -9.502  1.00  0.00     0.188 C 
BRANCH   2   3
ATOM      3  O   UNL     1       3.395 -10.250 -10.890  1.00  0.00    -0.376 OA
BRANCH   3   4
ATOM      4  C   UNL     1       2.341  -9.508 -11.470  1.00  0.00     0.202 C 
BRANCH   4   5
ATOM      5  C   UNL     1       1.510  -8.424 -10.761  1.00  0.00     0.261 C 
BRANCH   5   6
ATOM      6  O   UNL     1       1.591  -8.350  -9.341  1.00  0.00    -0.460 OA
BRANCH   6   7
ATOM      7  C   UNL     1       0.759  -9.155  -8.652  1.00  0.00     0.338 C 
ATOM      8  O   UNL     1      -0.059  -9.928  -9.118  1.00  0.00    -0.246 OA
BRANCH   7   9
ATOM      9  C   UNL     1       1.123  -9.079  -7.222  1.00  0.00     0.087 C 
ATOM     10  C   UNL     1       1.759  -8.927  -3.099  1.00  0.00     0.069 A 
ATOM     11  C   UNL     1       1.762 -10.119  -2.366  1.00  0.00     0.041 A 
ATOM     12  C   UNL     1       1.657  -8.964  -4.500  1.00  0.00     0.143 A 
ATOM     13  C   UNL     1       1.687 -11.340  -3.029  1.00  0.00     0.043 A 
ATOM     14  C   UNL     1       1.527 -10.197  -5.149  1.00  0.00     0.020 A 
ATOM     15  O   UNL     1       1.669  -7.771  -5.170  1.00  0.00    -0.474 OA
ATOM     16  Cl  UNL     1       1.675 -12.805  -2.126  1.00  0.00    -0.084 Cl
ATOM     17  C   UNL     1       1.577 -11.387  -4.416  1.00  0.00     0.032 A 
ATOM     18  C   UNL     1       1.239 -10.242  -6.571  1.00  0.00     0.027 C 
ATOM     19  C   UNL     1       1.380  -7.736  -6.593  1.00  0.00     0.316 C 
BRANCH  10  20
ATOM     20  C   UNL     1       1.770  -7.687  -2.386  1.00  0.00    -0.058 C 
ATOM     21  C   UNL     1       1.693  -6.648  -1.779  1.00  0.00    -0.062 C 
BRANCH  21  22
ATOM     22  C   UNL     1       1.511  -5.418  -1.077  1.00  0.00     0.025 A 
ATOM     23  C   UNL     1       1.022  -3.005   0.234  1.00  0.00     0.082 A 
ATOM     24  C   UNL     1       1.587  -2.995  -1.043  1.00  0.00     0.023 A 
ATOM     25  C   UNL     1       0.721  -4.215   0.870  1.00  0.00     0.023 A 
ATOM     26  C   UNL     1       1.831  -4.207  -1.697  1.00  0.00     0.018 A 
ATOM     27  C   UNL     1       0.965  -5.422   0.211  1.00  0.00     0.018 A 
BRANCH  23  28
ATOM     28  S   UNL     1       0.653  -1.506   1.096  1.00  0.00     0.238 S 
ATOM     29  O   UNL     1       1.420  -1.485   2.319  1.00  0.00    -0.207 OA
ATOM     30  O   UNL     1      -0.776  -1.307   1.064  1.00  0.00    -0.207 OA
BRANCH  28  31
ATOM     31  N   UNL     1       1.303  -0.284   0.142  1.00  0.00    -0.225 NA
ATOM     32  H   UNL     1       1.127   0.620   0.581  1.00  0.00     0.137 HD
ATOM     33  H   UNL     1       0.868  -0.305  -0.780  1.00  0.00     0.137 HD
ENDBRANCH  28  31
ENDBRANCH  23  28
ENDBRANCH  21  22
ENDBRANCH  10  20
BRANCH  19  34
ATOM     34  C   UNL     1       0.214  -6.764  -6.821  1.00  0.00     0.430 C 
ATOM     35  F   UNL     1       0.412  -5.593  -6.172  1.00  0.00    -0.167 F 
ATOM     36  F   UNL     1       0.060  -6.459  -8.131  1.00  0.00    -0.167 F 
ATOM     37  F   UNL     1      -0.958  -7.281  -6.387  1.00  0.00    -0.167 F 
ENDBRANCH  19  34
ENDBRANCH   7   9
ENDBRANCH   6   7
ENDBRANCH   5   6
ENDBRANCH   4   5
ENDBRANCH   3   4
ENDBRANCH   2   3
ENDBRANCH   1   2
BRANCH   1  38
ATOM     38  O   UNL     1       4.348  -8.139  -9.309  1.00  0.00    -0.377 OA
BRANCH  38  39
ATOM     39  C   UNL     1       5.163  -7.967 -10.469  1.00  0.00     0.188 C 
BRANCH  39  40
ATOM     40  C   UNL     1       5.914  -9.132 -11.168  1.00  0.00     0.188 C 
BRANCH  40  41
ATOM     41  O   UNL     1       6.137 -10.267 -10.359  1.00  0.00    -0.376 OA
BRANCH  41  42
ATOM     42  C   UNL     1       7.403 -10.524  -9.792  1.00  0.00     0.202 C 
BRANCH  42  43
ATOM     43  C   UNL     1       8.129  -9.436  -8.989  1.00  0.00     0.261 C 
BRANCH  43  44
ATOM     44  O   UNL     1       8.026  -8.092  -9.469  1.00  0.00    -0.460 OA
BRANCH  44  45
ATOM     45  C   UNL     1       8.750  -7.756 -10.560  1.00  0.00     0.338 C 
ATOM     46  O   UNL     1       9.474  -8.478 -11.217  1.00  0.00    -0.246 OA
BRANCH  45  47
ATOM     47  C   UNL     1       8.337  -6.383 -10.932  1.00  0.00     0.060 A 
ATOM     48  C   UNL     1       8.501  -5.336 -10.022  1.00  0.00     0.016 A 
ATOM     49  C   UNL     1       7.710  -6.157 -12.165  1.00  0.00     0.016 A 
ATOM     50  C   UNL     1       8.060  -4.055 -10.360  1.00  0.00     0.010 A 
ATOM     51  C   UNL     1       7.253  -4.877 -12.495  1.00  0.00     0.010 A 
ATOM     52  C   UNL     1       7.451  -3.811 -11.606  1.00  0.00    -0.014 A 
BRANCH  52  53
ATOM     53  C   UNL     1       7.224  -2.413 -12.052  1.00  0.00     0.031 A 
ATOM     54  C   UNL     1       5.865  -1.785 -12.086  1.00  0.00     0.074 A 
ATOM     55  C   UNL     1       8.303  -1.710 -12.445  1.00  0.00     0.049 A 
ATOM     56  N   UNL     1       5.540  -0.553 -12.397  1.00  0.00    -0.248 NA
ATOM     57  C   UNL     1       4.723  -2.639 -11.736  1.00  0.00     0.031 C 
ATOM     58  C   UNL     1       9.669  -2.234 -12.481  1.00  0.00     0.029 A 
ATOM     59  N   UNL     1       8.429  -0.414 -12.875  1.00  0.00    -0.354 N 
ATOM     60  C   UNL     1       4.162  -0.474 -12.257  1.00  0.00     0.074 A 
ATOM     61  C   UNL     1       3.705  -1.798 -11.882  1.00  0.00     0.031 C 
ATOM     62  C   UNL     1      10.501  -1.260 -12.873  1.00  0.00     0.029 A 
ATOM     63  C   UNL     1       9.724  -0.057 -13.157  1.00  0.00     0.049 A 
ATOM     64  H   UNL     1       7.665   0.199 -12.973  1.00  0.00     0.167 HD
ATOM     65  C   UNL     1       3.363   0.612 -12.409  1.00  0.00     0.037 A 
ATOM     66  C   UNL     1      10.235   1.109 -13.595  1.00  0.00     0.037 A 
ATOM     67  C   UNL     1       3.829   1.921 -12.806  1.00  0.00     0.049 A 
ATOM     68  C   UNL     1       9.315   2.277 -13.810  1.00  0.00     0.074 A 
ATOM     69  C   UNL     1       3.095   3.085 -12.960  1.00  0.00     0.029 A 
ATOM     70  N   UNL     1       5.142   2.238 -13.125  1.00  0.00    -0.354 N 
ATOM     71  N   UNL     1       8.023   2.361 -13.606  1.00  0.00    -0.248 NA
ATOM     72  C   UNL     1       9.926   3.516 -14.307  1.00  0.00     0.031 C 
ATOM     73  C   UNL     1       3.947   4.086 -13.436  1.00  0.00     0.029 A 
ATOM     74  C   UNL     1       5.231   3.571 -13.505  1.00  0.00     0.049 A 
ATOM     75  H   UNL     1       5.899   1.611 -13.087  1.00  0.00     0.167 HD
ATOM     76  C   UNL     1       7.671   3.666 -13.921  1.00  0.00     0.074 A 
ATOM     77  C   UNL     1       8.891   4.344 -14.309  1.00  0.00     0.031 C 
ATOM     78  C   UNL     1       6.446   4.246 -13.890  1.00  0.00     0.037 A 
BRANCH  65  79
ATOM     79  C   UNL     1       1.891   0.452 -12.141  1.00  0.00     0.064 A 
ATOM     80  C   UNL     1       1.404   0.251 -10.840  1.00  0.00     0.173 A 
ATOM     81  C   UNL     1       0.952   0.609 -13.172  1.00  0.00     0.173 A 
ATOM     82  F   UNL     1       2.256   0.096  -9.816  1.00  0.00    -0.203 F 
ATOM     83  C   UNL     1       0.035   0.200 -10.585  1.00  0.00     0.198 A 
ATOM     84  C   UNL     1      -0.416   0.590 -12.909  1.00  0.00     0.198 A 
ATOM     85  F   UNL     1       1.359   0.818 -14.433  1.00  0.00    -0.203 F 
ATOM     86  F   UNL     1      -0.404  -0.020  -9.338  1.00  0.00    -0.200 F 
ATOM     87  C   UNL     1      -0.873   0.382 -11.617  1.00  0.00     0.200 A 
ATOM     88  F   UNL     1      -1.292   0.789 -13.904  1.00  0.00    -0.200 F 
ATOM     89  F   UNL     1      -2.190   0.358 -11.366  1.00  0.00    -0.200 F 
ENDBRANCH  65  79
BRANCH  66  90
ATOM     90  C   UNL     1      11.699   1.227 -13.818  1.00  0.00     0.064 A 
ATOM     91  C   UNL     1      12.488   2.045 -12.999  1.00  0.00     0.173 A 
ATOM     92  C   UNL     1      12.343   0.503 -14.833  1.00  0.00     0.173 A 
ATOM     93  F   UNL     1      11.916   2.770 -12.026  1.00  0.00    -0.203 F 
ATOM     94  C   UNL     1      13.864   2.145 -13.194  1.00  0.00     0.198 A 
ATOM     95  C   UNL     1      13.723   0.575 -15.004  1.00  0.00     0.198 A 
ATOM     96  F   UNL     1      11.634  -0.301 -15.639  1.00  0.00    -0.203 F 
ATOM     97  F   UNL     1      14.589   2.965 -12.422  1.00  0.00    -0.200 F 
ATOM     98  C   UNL     1      14.482   1.402 -14.189  1.00  0.00     0.200 A 
ATOM     99  F   UNL     1      14.318  -0.162 -15.952  1.00  0.00    -0.200 F 
ATOM    100  F   UNL     1      15.807   1.485 -14.365  1.00  0.00    -0.200 F 
ENDBRANCH  66  90
BRANCH  78 101
ATOM    101  C   UNL     1       6.356   5.702 -14.258  1.00  0.00     0.064 A 
ATOM    102  C   UNL     1       6.578   6.150 -15.569  1.00  0.00     0.173 A 
ATOM    103  C   UNL     1       5.992   6.658 -13.296  1.00  0.00     0.173 A 
ATOM    104  F   UNL     1       6.940   5.282 -16.527  1.00  0.00    -0.203 F 
ATOM    105  C   UNL     1       6.466   7.499 -15.896  1.00  0.00     0.198 A 
ATOM    106  C   UNL     1       5.843   8.000 -13.635  1.00  0.00     0.198 A 
ATOM    107  F   UNL     1       5.760   6.288 -12.027  1.00  0.00    -0.203 F 
ATOM    108  F   UNL     1       6.736   7.909 -17.144  1.00  0.00    -0.200 F 
ATOM    109  C   UNL     1       6.088   8.421 -14.932  1.00  0.00     0.200 A 
ATOM    110  F   UNL     1       5.458   8.886 -12.705  1.00  0.00    -0.200 F 
ATOM    111  F   UNL     1       5.967   9.717 -15.252  1.00  0.00    -0.200 F 
ENDBRANCH  78 101
ENDBRANCH  52  53
ENDBRANCH  45  47
ENDBRANCH  44  45
ENDBRANCH  43  44
ENDBRANCH  42  43
ENDBRANCH  41  42
ENDBRANCH  40  41
ENDBRANCH  39  40
ENDBRANCH  38  39
ENDBRANCH   1  38
TORSDOF 25
