REMARK SMILES C[C@@H]1C[C@@H](C)CN(S(=O)(=O)N2CC[C@H](C(=O)OCCOCCOCCOCCOC(=O)c3ccc(-c4c5nc(c(-c6c(F)c(F)c(F)c(F)c6F)c6ccc([nH]6)c(-c6c(F)c(F)c(F)c(F)c6F)c6nc(c(-c7c(F)c(F)c(F)c(F)c7F)c7ccc4[nH]7)C=C6)C=C5)cc3)[C@@H]2C)C1
REMARK SMILES IDX 23 1 22 2 21 3 20 4 19 5 18 6 17 7 15 8 16 9 14 10 11 11
REMARK SMILES IDX 12 12 95 13 13 14 96 15 8 16 9 17 10 18 7 19 1 20 2 21 3 22
REMARK SMILES IDX 97 23 4 24 6 25 5 26 24 27 25 28 26 29 27 30 28 31 29 32
REMARK SMILES IDX 30 33 31 34 32 35 33 36 94 37 34 38 93 39 35 40 36 41 37 42
REMARK SMILES IDX 87 43 38 44 92 45 86 46 88 47 39 48 91 49 85 50 84 51 40 53
REMARK SMILES IDX 72 54 52 55 71 56 53 57 56 58 70 59 89 60 54 61 55 62 69 64
REMARK SMILES IDX 90 65 57 66 41 67 42 68 50 69 43 70 44 71 48 72 51 73 45 74
REMARK SMILES IDX 46 75 49 76 47 77 73 78 74 79 82 80 75 81 76 82 80 83 83 84
REMARK SMILES IDX 77 85 78 86 81 87 79 88 58 89 59 90 67 91 60 92 61 93 65 94
REMARK SMILES IDX 68 95 62 96 63 97 66 98 64 99
REMARK H PARENT 88 52 56 63
REMARK Flexibility Score: inf
ROOT
ATOM      1  O   UNL     1       4.386   4.663   5.012  1.00  0.00    -0.377 OA
ENDROOT
BRANCH   1   2
ATOM      2  C   UNL     1       3.684   5.475   4.089  1.00  0.00     0.188 C 
BRANCH   2   3
ATOM      3  C   UNL     1       2.859   6.651   4.667  1.00  0.00     0.188 C 
BRANCH   3   4
ATOM      4  O   UNL     1       3.224   7.021   5.991  1.00  0.00    -0.376 OA
BRANCH   4   5
ATOM      5  C   UNL     1       2.290   6.811   7.040  1.00  0.00     0.202 C 
BRANCH   5   6
ATOM      6  C   UNL     1       2.013   5.351   7.424  1.00  0.00     0.261 C 
BRANCH   6   7
ATOM      7  O   UNL     1       1.619   4.541   6.312  1.00  0.00    -0.463 OA
BRANCH   7   8
ATOM      8  C   UNL     1       0.380   4.783   5.799  1.00  0.00     0.310 C 
ATOM      9  O   UNL     1      -0.455   5.490   6.335  1.00  0.00    -0.252 OA
BRANCH   8  10
ATOM     10  C   UNL     1       0.336   4.199   4.402  1.00  0.00     0.118 C 
ATOM     11  N   UNL     1      -1.492   3.183   3.278  1.00  0.00    -0.185 NA
ATOM     12  C   UNL     1      -0.895   2.186   4.185  1.00  0.00     0.105 C 
ATOM     13  C   UNL     1      -0.853   4.497   3.490  1.00  0.00     0.085 C 
ATOM     14  C   UNL     1       0.516   2.687   4.393  1.00  0.00     0.034 C 
ATOM     15  C   UNL     1      -1.847   5.560   3.916  1.00  0.00     0.027 C 
BRANCH  11  16
ATOM     16  S   UNL     1      -1.942   2.696   1.746  1.00  0.00     0.282 S 
ATOM     17  O   UNL     1      -2.431   3.847   1.019  1.00  0.00    -0.195 OA
ATOM     18  O   UNL     1      -2.755   1.514   1.905  1.00  0.00    -0.195 OA
BRANCH  16  19
ATOM     19  N   UNL     1      -0.464   2.201   0.999  1.00  0.00    -0.188 NA
ATOM     20  C   UNL     1       1.127  -0.232  -0.123  1.00  0.00     0.009 C 
ATOM     21  C   UNL     1       0.464   0.879  -0.943  1.00  0.00     0.001 C 
ATOM     22  C   UNL     1       1.429   2.023  -1.256  1.00  0.00     0.009 C 
ATOM     23  C   UNL     1      -0.790   1.419  -0.249  1.00  0.00     0.106 C 
ATOM     24  C   UNL     1       1.782   2.791   0.013  1.00  0.00     0.001 C 
ATOM     25  C   UNL     1       0.508   3.299   0.700  1.00  0.00     0.106 C 
ATOM     26  C   UNL     1       2.725   3.956  -0.298  1.00  0.00     0.009 C 
ENDBRANCH  16  19
ENDBRANCH  11  16
ENDBRANCH   8  10
ENDBRANCH   7   8
ENDBRANCH   6   7
ENDBRANCH   5   6
ENDBRANCH   4   5
ENDBRANCH   3   4
ENDBRANCH   2   3
ENDBRANCH   1   2
BRANCH   1  27
ATOM     27  C   UNL     1       5.337   5.277   5.878  1.00  0.00     0.188 C 
BRANCH  27  28
ATOM     28  C   UNL     1       5.908   6.697   5.620  1.00  0.00     0.188 C 
BRANCH  28  29
ATOM     29  O   UNL     1       5.630   7.235   4.339  1.00  0.00    -0.376 OA
BRANCH  29  30
ATOM     30  C   UNL     1       6.688   7.328   3.404  1.00  0.00     0.202 C 
BRANCH  30  31
ATOM     31  C   UNL     1       7.338   6.018   2.939  1.00  0.00     0.261 C 
BRANCH  31  32
ATOM     32  O   UNL     1       7.735   5.104   3.970  1.00  0.00    -0.460 OA
BRANCH  32  33
ATOM     33  C   UNL     1       8.741   5.480   4.790  1.00  0.00     0.338 C 
ATOM     34  O   UNL     1       9.363   6.525   4.770  1.00  0.00    -0.246 OA
BRANCH  33  35
ATOM     35  C   UNL     1       8.830   4.455   5.851  1.00  0.00     0.060 A 
ATOM     36  C   UNL     1       8.580   4.806   7.188  1.00  0.00     0.016 A 
ATOM     37  C   UNL     1       9.111   3.133   5.506  1.00  0.00     0.016 A 
ATOM     38  C   UNL     1       8.627   3.832   8.187  1.00  0.00     0.010 A 
ATOM     39  C   UNL     1       9.193   2.169   6.508  1.00  0.00     0.010 A 
ATOM     40  C   UNL     1       8.982   2.519   7.854  1.00  0.00    -0.014 A 
BRANCH  40  41
ATOM     41  C   UNL     1       9.396   1.554   8.899  1.00  0.00     0.031 A 
ATOM     42  C   UNL     1      10.870   1.433   9.169  1.00  0.00     0.074 A 
ATOM     43  C   UNL     1       8.515   0.771   9.544  1.00  0.00     0.049 A 
ATOM     44  N   UNL     1      11.522   0.526   9.846  1.00  0.00    -0.248 NA
ATOM     45  C   UNL     1      11.725   2.476   8.576  1.00  0.00     0.031 C 
ATOM     46  C   UNL     1       7.062   0.841   9.414  1.00  0.00     0.029 A 
ATOM     47  N   UNL     1       8.729  -0.267  10.417  1.00  0.00    -0.354 N 
ATOM     48  C   UNL     1      12.861   0.883   9.750  1.00  0.00     0.074 A 
ATOM     49  C   UNL     1      12.934   2.068   8.927  1.00  0.00     0.031 C 
ATOM     50  C   UNL     1       6.514  -0.141  10.153  1.00  0.00     0.029 A 
ATOM     51  C   UNL     1       7.579  -0.937  10.762  1.00  0.00     0.049 A 
ATOM     52  H   UNL     1       9.619  -0.509  10.762  1.00  0.00     0.167 HD
ATOM     53  C   UNL     1      13.934   0.276  10.307  1.00  0.00     0.037 A 
ATOM     54  C   UNL     1       7.421  -2.088  11.448  1.00  0.00     0.037 A 
ATOM     55  C   UNL     1      13.854  -0.912  11.110  1.00  0.00     0.049 A 
ATOM     56  C   UNL     1       8.646  -2.812  11.964  1.00  0.00     0.074 A 
ATOM     57  C   UNL     1      14.881  -1.627  11.698  1.00  0.00     0.029 A 
ATOM     58  N   UNL     1      12.672  -1.561  11.435  1.00  0.00    -0.354 N 
ATOM     59  N   UNL     1       9.911  -2.479  11.867  1.00  0.00    -0.248 NA
ATOM     60  C   UNL     1       8.420  -4.076  12.682  1.00  0.00     0.031 C 
ATOM     61  C   UNL     1      14.326  -2.736  12.341  1.00  0.00     0.029 A 
ATOM     62  C   UNL     1      12.947  -2.674  12.210  1.00  0.00     0.049 A 
ATOM     63  H   UNL     1      11.773  -1.273  11.157  1.00  0.00     0.167 HD
ATOM     64  C   UNL     1      10.620  -3.459  12.553  1.00  0.00     0.074 A 
ATOM     65  C   UNL     1       9.648  -4.401  13.061  1.00  0.00     0.031 C 
ATOM     66  C   UNL     1      11.957  -3.570  12.748  1.00  0.00     0.037 A 
BRANCH  53  67
ATOM     67  C   UNL     1      15.283   0.877  10.052  1.00  0.00     0.064 A 
ATOM     68  C   UNL     1      15.660   2.100  10.627  1.00  0.00     0.173 A 
ATOM     69  C   UNL     1      16.226   0.204   9.262  1.00  0.00     0.173 A 
ATOM     70  F   UNL     1      14.787   2.793  11.374  1.00  0.00    -0.203 F 
ATOM     71  C   UNL     1      16.926   2.634  10.407  1.00  0.00     0.198 A 
ATOM     72  C   UNL     1      17.502   0.725   9.071  1.00  0.00     0.198 A 
ATOM     73  F   UNL     1      15.915  -0.968   8.688  1.00  0.00    -0.203 F 
ATOM     74  F   UNL     1      17.249   3.824  10.932  1.00  0.00    -0.200 F 
ATOM     75  C   UNL     1      17.849   1.942   9.639  1.00  0.00     0.200 A 
ATOM     76  F   UNL     1      18.398   0.048   8.339  1.00  0.00    -0.200 F 
ATOM     77  F   UNL     1      19.073   2.450   9.441  1.00  0.00    -0.200 F 
ENDBRANCH  53  67
BRANCH  54  78
ATOM     78  C   UNL     1       6.066  -2.669  11.657  1.00  0.00     0.064 A 
ATOM     79  C   UNL     1       5.533  -2.814  12.947  1.00  0.00     0.173 A 
ATOM     80  C   UNL     1       5.307  -3.159  10.584  1.00  0.00     0.173 A 
ATOM     81  F   UNL     1       6.229  -2.386  14.011  1.00  0.00    -0.203 F 
ATOM     82  C   UNL     1       4.317  -3.463  13.157  1.00  0.00     0.198 A 
ATOM     83  C   UNL     1       4.073  -3.774  10.792  1.00  0.00     0.198 A 
ATOM     84  F   UNL     1       5.767  -3.050   9.329  1.00  0.00    -0.203 F 
ATOM     85  F   UNL     1       3.871  -3.656  14.406  1.00  0.00    -0.200 F 
ATOM     86  C   UNL     1       3.587  -3.940  12.080  1.00  0.00     0.200 A 
ATOM     87  F   UNL     1       3.365  -4.222   9.746  1.00  0.00    -0.200 F 
ATOM     88  F   UNL     1       2.424  -4.575  12.283  1.00  0.00    -0.200 F 
ENDBRANCH  54  78
BRANCH  66  89
ATOM     89  C   UNL     1      12.454  -4.688  13.619  1.00  0.00     0.064 A 
ATOM     90  C   UNL     1      12.458  -6.021  13.188  1.00  0.00     0.173 A 
ATOM     91  C   UNL     1      13.021  -4.399  14.870  1.00  0.00     0.173 A 
ATOM     92  F   UNL     1      11.918  -6.351  12.005  1.00  0.00    -0.203 F 
ATOM     93  C   UNL     1      13.002  -7.027  13.984  1.00  0.00     0.198 A 
ATOM     94  C   UNL     1      13.593  -5.401  15.648  1.00  0.00     0.198 A 
ATOM     95  F   UNL     1      13.051  -3.136  15.324  1.00  0.00    -0.203 F 
ATOM     96  F   UNL     1      12.967  -8.300  13.568  1.00  0.00    -0.200 F 
ATOM     97  C   UNL     1      13.579  -6.714  15.206  1.00  0.00     0.200 A 
ATOM     98  F   UNL     1      14.168  -5.092  16.819  1.00  0.00    -0.200 F 
ATOM     99  F   UNL     1      14.124  -7.680  15.959  1.00  0.00    -0.200 F 
ENDBRANCH  66  89
ENDBRANCH  40  41
ENDBRANCH  33  35
ENDBRANCH  32  33
ENDBRANCH  31  32
ENDBRANCH  30  31
ENDBRANCH  29  30
ENDBRANCH  28  29
ENDBRANCH  27  28
ENDBRANCH   1  27
TORSDOF 22
