REMARK SMILES CCc1cc(OC(F)(F)F)cc2c1O[C@H](C(F)(F)F)C(C(=O)OCCOCCOCCOCCOC(=O)c1ccc(-c3c4nc(c(-c5c(F)c(F)c(F)c(F)c5F)c5ccc([nH]5)c(-c5c(F)c(F)c(F)c(F)c5F)c5nc(c(-c6c(F)c(F)c(F)c(F)c6F)c6ccc3[nH]6)C=C5)C=C4)cc1)=C2
REMARK SMILES IDX 29 1 28 2 27 3 26 4 25 5 24 6 23 7 21 8 22 9 20 10 3 11 4 12
REMARK SMILES IDX 13 13 5 14 12 15 14 16 11 17 101 18 15 19 2 20 1 21 6 22
REMARK SMILES IDX 7 23 8 24 9 25 10 26 16 27 17 28 18 29 19 30 30 31 31 32
REMARK SMILES IDX 32 33 33 34 34 35 35 36 36 37 37 38 38 39 39 40 100 41 40 42
REMARK SMILES IDX 99 43 41 44 42 45 43 46 93 47 44 48 98 49 92 50 94 51 45 52
REMARK SMILES IDX 97 53 91 54 90 55 46 57 78 58 58 59 77 60 59 61 62 62 76 63
REMARK SMILES IDX 95 64 60 65 61 66 75 68 96 69 63 70 47 71 48 72 56 73 49 74
REMARK SMILES IDX 50 75 54 76 57 77 51 78 52 79 55 80 53 81 79 82 80 83 88 84
REMARK SMILES IDX 81 85 82 86 86 87 89 88 83 89 84 90 87 91 85 92 64 93 65 94
REMARK SMILES IDX 73 95 66 96 67 97 71 98 74 99 68 100 69 101 72 102 70 103
REMARK H PARENT 94 56 62 67
REMARK Flexibility Score: inf
ROOT
ATOM      1  O   UNL     1       4.652   2.984   6.288  1.00  0.00    -0.377 OA
ENDROOT
BRANCH   1   2
ATOM      2  C   UNL     1       4.301   3.229   4.937  1.00  0.00     0.188 C 
BRANCH   2   3
ATOM      3  C   UNL     1       3.571   4.553   4.615  1.00  0.00     0.188 C 
BRANCH   3   4
ATOM      4  O   UNL     1       3.487   5.425   5.725  1.00  0.00    -0.376 OA
BRANCH   4   5
ATOM      5  C   UNL     1       2.273   5.522   6.437  1.00  0.00     0.202 C 
BRANCH   5   6
ATOM      6  C   UNL     1       1.535   4.267   6.936  1.00  0.00     0.261 C 
BRANCH   6   7
ATOM      7  O   UNL     1       1.623   3.076   6.143  1.00  0.00    -0.460 OA
BRANCH   7   8
ATOM      8  C   UNL     1       0.868   3.021   5.026  1.00  0.00     0.338 C 
ATOM      9  O   UNL     1       0.135   3.905   4.614  1.00  0.00    -0.246 OA
BRANCH   8  10
ATOM     10  C   UNL     1       1.155   1.787   4.267  1.00  0.00     0.087 C 
ATOM     11  C   UNL     1       0.762  -1.541   1.819  1.00  0.00    -0.002 A 
ATOM     12  C   UNL     1       1.100  -2.805   2.334  1.00  0.00     0.054 A 
ATOM     13  C   UNL     1       0.841  -0.448   2.683  1.00  0.00     0.131 A 
ATOM     14  C   UNL     1       1.522  -2.964   3.661  1.00  0.00     0.130 A 
ATOM     15  C   UNL     1       1.288  -0.582   4.013  1.00  0.00     0.021 A 
ATOM     16  O   UNL     1       0.412   0.770   2.212  1.00  0.00    -0.475 OA
ATOM     17  C   UNL     1       1.639  -1.844   4.491  1.00  0.00     0.058 A 
ATOM     18  C   UNL     1       1.271   0.598   4.882  1.00  0.00     0.027 C 
ATOM     19  C   UNL     1       1.165   1.878   2.759  1.00  0.00     0.316 C 
BRANCH  11  20
ATOM     20  C   UNL     1       0.257  -1.430   0.396  1.00  0.00     0.036 C 
ATOM     21  C   UNL     1       0.847  -0.303  -0.447  1.00  0.00     0.009 C 
ENDBRANCH  11  20
BRANCH  14  22
ATOM     22  O   UNL     1       1.835  -4.151   4.263  1.00  0.00    -0.406 OA
BRANCH  22  23
ATOM     23  C   UNL     1       1.438  -5.341   3.599  1.00  0.00     0.573 C 
ATOM     24  F   UNL     1       0.122  -5.321   3.296  1.00  0.00    -0.132 F 
ATOM     25  F   UNL     1       2.158  -5.526   2.471  1.00  0.00    -0.132 F 
ATOM     26  F   UNL     1       1.663  -6.392   4.418  1.00  0.00    -0.132 F 
ENDBRANCH  22  23
ENDBRANCH  14  22
BRANCH  19  27
ATOM     27  C   UNL     1       2.564   1.951   2.091  1.00  0.00     0.430 C 
ATOM     28  F   UNL     1       3.401   0.965   2.488  1.00  0.00    -0.167 F 
ATOM     29  F   UNL     1       2.475   1.878   0.741  1.00  0.00    -0.167 F 
ATOM     30  F   UNL     1       3.187   3.122   2.352  1.00  0.00    -0.167 F 
ENDBRANCH  19  27
ENDBRANCH   8  10
ENDBRANCH   7   8
ENDBRANCH   6   7
ENDBRANCH   5   6
ENDBRANCH   4   5
ENDBRANCH   3   4
ENDBRANCH   2   3
ENDBRANCH   1   2
BRANCH   1  31
ATOM     31  C   UNL     1       5.406   3.961   6.998  1.00  0.00     0.188 C 
BRANCH  31  32
ATOM     32  C   UNL     1       6.185   5.091   6.278  1.00  0.00     0.188 C 
BRANCH  32  33
ATOM     33  O   UNL     1       6.308   4.944   4.875  1.00  0.00    -0.376 OA
BRANCH  33  34
ATOM     34  C   UNL     1       7.565   4.587   4.335  1.00  0.00     0.202 C 
BRANCH  34  35
ATOM     35  C   UNL     1       8.103   3.195   4.691  1.00  0.00     0.261 C 
BRANCH  35  36
ATOM     36  O   UNL     1       8.138   2.878   6.090  1.00  0.00    -0.460 OA
BRANCH  36  37
ATOM     37  C   UNL     1       8.987   3.591   6.857  1.00  0.00     0.338 C 
ATOM     38  O   UNL     1       9.744   4.479   6.495  1.00  0.00    -0.246 OA
BRANCH  37  39
ATOM     39  C   UNL     1       8.714   3.252   8.266  1.00  0.00     0.060 A 
ATOM     40  C   UNL     1       8.302   4.266   9.141  1.00  0.00     0.016 A 
ATOM     41  C   UNL     1       8.847   1.936   8.715  1.00  0.00     0.016 A 
ATOM     42  C   UNL     1       8.058   3.972  10.481  1.00  0.00     0.010 A 
ATOM     43  C   UNL     1       8.630   1.648  10.064  1.00  0.00     0.010 A 
ATOM     44  C   UNL     1       8.273   2.673  10.959  1.00  0.00    -0.014 A 
BRANCH  44  45
ATOM     45  C   UNL     1       8.340   2.446  12.421  1.00  0.00     0.031 A 
ATOM     46  C   UNL     1       9.696   2.424  13.072  1.00  0.00     0.074 A 
ATOM     47  C   UNL     1       7.228   2.312  13.163  1.00  0.00     0.049 A 
ATOM     48  N   UNL     1      10.017   2.241  14.327  1.00  0.00    -0.248 NA
ATOM     49  C   UNL     1      10.849   2.637  12.181  1.00  0.00     0.031 C 
ATOM     50  C   UNL     1       5.861   2.357  12.652  1.00  0.00     0.029 A 
ATOM     51  N   UNL     1       7.080   2.108  14.512  1.00  0.00    -0.354 N 
ATOM     52  C   UNL     1      11.403   2.314  14.374  1.00  0.00     0.074 A 
ATOM     53  C   UNL     1      11.866   2.517  13.020  1.00  0.00     0.031 C 
ATOM     54  C   UNL     1       5.008   2.179  13.677  1.00  0.00     0.029 A 
ATOM     55  C   UNL     1       5.772   1.977  14.908  1.00  0.00     0.049 A 
ATOM     56  H   UNL     1       7.839   2.060  15.137  1.00  0.00     0.167 HD
ATOM     57  C   UNL     1      12.216   2.231  15.453  1.00  0.00     0.037 A 
ATOM     58  C   UNL     1       5.258   1.705  16.123  1.00  0.00     0.037 A 
ATOM     59  C   UNL     1      11.751   2.022  16.799  1.00  0.00     0.049 A 
ATOM     60  C   UNL     1       6.191   1.540  17.298  1.00  0.00     0.074 A 
ATOM     61  C   UNL     1      12.491   1.936  17.964  1.00  0.00     0.029 A 
ATOM     62  N   UNL     1      10.420   1.856  17.156  1.00  0.00    -0.354 N 
ATOM     63  N   UNL     1       7.498   1.640  17.343  1.00  0.00    -0.248 NA
ATOM     64  C   UNL     1       5.572   1.233  18.596  1.00  0.00     0.031 C 
ATOM     65  C   UNL     1      11.616   1.653  19.017  1.00  0.00     0.029 A 
ATOM     66  C   UNL     1      10.322   1.637  18.521  1.00  0.00     0.049 A 
ATOM     67  H   UNL     1       9.659   1.888  16.533  1.00  0.00     0.167 HD
ATOM     68  C   UNL     1       7.853   1.444  18.672  1.00  0.00     0.074 A 
ATOM     69  C   UNL     1       6.622   1.235  19.404  1.00  0.00     0.031 C 
ATOM     70  C   UNL     1       9.087   1.439  19.238  1.00  0.00     0.037 A 
BRANCH  57  71
ATOM     71  C   UNL     1      13.696   2.331  15.215  1.00  0.00     0.064 A 
ATOM     72  C   UNL     1      14.303   3.531  14.812  1.00  0.00     0.173 A 
ATOM     73  C   UNL     1      14.522   1.215  15.417  1.00  0.00     0.173 A 
ATOM     74  F   UNL     1      13.557   4.623  14.588  1.00  0.00    -0.203 F 
ATOM     75  C   UNL     1      15.676   3.601  14.592  1.00  0.00     0.198 A 
ATOM     76  C   UNL     1      15.899   1.298  15.231  1.00  0.00     0.198 A 
ATOM     77  F   UNL     1      13.995   0.044  15.804  1.00  0.00    -0.203 F 
ATOM     78  F   UNL     1      16.226   4.742  14.155  1.00  0.00    -0.200 F 
ATOM     79  C   UNL     1      16.474   2.488  14.810  1.00  0.00     0.200 A 
ATOM     80  F   UNL     1      16.670   0.225  15.456  1.00  0.00    -0.200 F 
ATOM     81  F   UNL     1      17.797   2.559  14.607  1.00  0.00    -0.200 F 
ENDBRANCH  57  71
BRANCH  58  82
ATOM     82  C   UNL     1       3.787   1.563  16.298  1.00  0.00     0.064 A 
ATOM     83  C   UNL     1       3.055   2.478  17.068  1.00  0.00     0.173 A 
ATOM     84  C   UNL     1       3.088   0.492  15.722  1.00  0.00     0.173 A 
ATOM     85  F   UNL     1       3.680   3.505  17.662  1.00  0.00    -0.203 F 
ATOM     86  C   UNL     1       1.687   2.312  17.277  1.00  0.00     0.198 A 
ATOM     87  C   UNL     1       1.714   0.346  15.903  1.00  0.00     0.198 A 
ATOM     88  F   UNL     1       3.739  -0.414  14.978  1.00  0.00    -0.203 F 
ATOM     89  F   UNL     1       1.023   3.169  18.064  1.00  0.00    -0.200 F 
ATOM     90  C   UNL     1       1.016   1.250  16.689  1.00  0.00     0.200 A 
ATOM     91  F   UNL     1       1.069  -0.674  15.322  1.00  0.00    -0.200 F 
ATOM     92  F   UNL     1      -0.299   1.093  16.888  1.00  0.00    -0.200 F 
ENDBRANCH  58  82
BRANCH  70  93
ATOM     93  C   UNL     1       9.165   1.251  20.728  1.00  0.00     0.064 A 
ATOM     94  C   UNL     1       8.846   0.031  21.342  1.00  0.00     0.173 A 
ATOM     95  C   UNL     1       9.597   2.304  21.551  1.00  0.00     0.173 A 
ATOM     96  F   UNL     1       8.418  -1.005  20.604  1.00  0.00    -0.203 F 
ATOM     97  C   UNL     1       8.918  -0.116  22.725  1.00  0.00     0.198 A 
ATOM     98  C   UNL     1       9.705   2.141  22.930  1.00  0.00     0.198 A 
ATOM     99  F   UNL     1       9.926   3.490  21.017  1.00  0.00    -0.203 F 
ATOM    100  F   UNL     1       8.547  -1.272  23.294  1.00  0.00    -0.200 F 
ATOM    101  C   UNL     1       9.354   0.936  23.517  1.00  0.00     0.200 A 
ATOM    102  F   UNL     1      10.146   3.153  23.690  1.00  0.00    -0.200 F 
ATOM    103  F   UNL     1       9.428   0.790  24.847  1.00  0.00    -0.200 F 
ENDBRANCH  70  93
ENDBRANCH  44  45
ENDBRANCH  37  39
ENDBRANCH  36  37
ENDBRANCH  35  36
ENDBRANCH  34  35
ENDBRANCH  33  34
ENDBRANCH  32  33
ENDBRANCH  31  32
ENDBRANCH   1  31
TORSDOF 24
