REMARK SMILES O=C(OCCOCCOCCOCCOC(=O)[C@@H](Cc1ccc(O)cc1)Nc1c2ccccc2nc2ccccc12)c1ccc(-c2c3nc(c(-c4c(F)c(F)c(F)c(F)c4F)c4ccc([nH]4)c(-c4c(F)c(F)c(F)c(F)c4F)c4nc(c(-c5c(F)c(F)c(F)c(F)c5F)c5ccc2[nH]5)C=C4)C=C3)cc1
REMARK SMILES IDX 10 1 9 2 8 3 7 4 6 5 5 6 4 7 3 8 2 9 1 10 42 11 43 12 104 13
REMARK SMILES IDX 44 14 103 15 45 16 46 17 47 18 97 19 48 20 102 21 96 22
REMARK SMILES IDX 98 23 49 24 101 25 95 26 94 27 50 29 82 30 62 31 81 32 63 33
REMARK SMILES IDX 66 34 80 35 99 36 64 37 65 38 79 40 100 41 67 42 51 43 52 44
REMARK SMILES IDX 60 45 53 46 54 47 58 48 61 49 55 50 56 51 59 52 57 53 83 54
REMARK SMILES IDX 84 55 92 56 85 57 86 58 90 59 93 60 87 61 88 62 91 63 89 64
REMARK SMILES IDX 68 65 69 66 77 67 70 68 71 69 75 70 78 71 72 72 73 73 76 74
REMARK SMILES IDX 74 75 11 76 12 77 13 78 14 79 15 80 16 81 17 82 18 83 19 84
REMARK SMILES IDX 20 85 21 86 26 87 22 88 25 89 23 90 24 91 27 93 28 95 29 96
REMARK SMILES IDX 41 97 30 98 34 99 36 100 40 101 31 102 33 103 35 104 37 105
REMARK SMILES IDX 39 106 32 107 38 108
REMARK H PARENT 98 28 66 39 24 92 27 94
REMARK Flexibility Score: inf
ROOT
ATOM      1  C   UNL     1       4.774  -3.241   0.607  1.00  0.00     0.188 C 
ENDROOT
BRANCH   1   2
ATOM      2  O   UNL     1       3.456  -3.256   1.142  1.00  0.00    -0.377 OA
BRANCH   2   3
ATOM      3  C   UNL     1       2.416  -2.546   0.471  1.00  0.00     0.188 C 
BRANCH   3   4
ATOM      4  C   UNL     1       2.493  -1.046   0.677  1.00  0.00     0.188 C 
BRANCH   4   5
ATOM      5  O   UNL     1       3.784  -0.589   0.286  1.00  0.00    -0.376 OA
BRANCH   5   6
ATOM      6  C   UNL     1       4.466   0.155   1.291  1.00  0.00     0.202 C 
BRANCH   6   7
ATOM      7  C   UNL     1       4.204   1.653   1.159  1.00  0.00     0.261 C 
BRANCH   7   8
ATOM      8  O   UNL     1       2.843   1.939   0.799  1.00  0.00    -0.460 OA
BRANCH   8   9
ATOM      9  C   UNL     1       2.293   2.054  -0.436  1.00  0.00     0.338 C 
ATOM     10  O   UNL     1       1.121   2.427  -0.501  1.00  0.00    -0.246 OA
BRANCH   9  11
ATOM     11  C   UNL     1       2.984   1.736  -1.737  1.00  0.00     0.060 A 
ATOM     12  C   UNL     1       4.226   1.113  -1.886  1.00  0.00     0.016 A 
ATOM     13  C   UNL     1       2.285   2.057  -2.920  1.00  0.00     0.016 A 
ATOM     14  C   UNL     1       4.754   0.803  -3.132  1.00  0.00     0.010 A 
ATOM     15  C   UNL     1       2.825   1.793  -4.185  1.00  0.00     0.010 A 
ATOM     16  C   UNL     1       4.076   1.181  -4.284  1.00  0.00    -0.014 A 
BRANCH  16  17
ATOM     17  C   UNL     1       4.849   1.159  -5.535  1.00  0.00     0.031 A 
ATOM     18  C   UNL     1       5.623   2.397  -5.875  1.00  0.00     0.074 A 
ATOM     19  C   UNL     1       5.007   0.014  -6.218  1.00  0.00     0.049 A 
ATOM     20  N   UNL     1       6.405   2.640  -6.890  1.00  0.00    -0.248 NA
ATOM     21  C   UNL     1       5.529   3.506  -4.907  1.00  0.00     0.031 C 
ATOM     22  C   UNL     1       4.424  -1.275  -5.846  1.00  0.00     0.029 A 
ATOM     23  N   UNL     1       5.733  -0.255  -7.346  1.00  0.00    -0.354 N 
ATOM     24  C   UNL     1       6.880   3.929  -6.691  1.00  0.00     0.074 A 
ATOM     25  C   UNL     1       6.314   4.417  -5.456  1.00  0.00     0.031 C 
ATOM     26  C   UNL     1       4.813  -2.201  -6.739  1.00  0.00     0.029 A 
ATOM     27  C   UNL     1       5.625  -1.557  -7.767  1.00  0.00     0.049 A 
ATOM     28  H   UNL     1       6.279   0.420  -7.811  1.00  0.00     0.167 HD
ATOM     29  C   UNL     1       7.705   4.644  -7.488  1.00  0.00     0.037 A 
ATOM     30  C   UNL     1       6.105  -2.135  -8.884  1.00  0.00     0.037 A 
ATOM     31  C   UNL     1       8.225   4.139  -8.727  1.00  0.00     0.049 A 
ATOM     32  C   UNL     1       6.917  -1.281  -9.825  1.00  0.00     0.074 A 
ATOM     33  C   UNL     1       8.983   4.786  -9.682  1.00  0.00     0.029 A 
ATOM     34  N   UNL     1       8.019   2.841  -9.181  1.00  0.00    -0.354 N 
ATOM     35  N   UNL     1       7.300  -0.032  -9.685  1.00  0.00    -0.248 NA
ATOM     36  C   UNL     1       7.350  -1.902 -11.082  1.00  0.00     0.031 C 
ATOM     37  C   UNL     1       9.197   3.892 -10.737  1.00  0.00     0.029 A 
ATOM     38  C   UNL     1       8.616   2.672 -10.415  1.00  0.00     0.049 A 
ATOM     39  H   UNL     1       7.521   2.145  -8.694  1.00  0.00     0.167 HD
ATOM     40  C   UNL     1       8.023   0.281 -10.827  1.00  0.00     0.074 A 
ATOM     41  C   UNL     1       8.045  -0.920 -11.640  1.00  0.00     0.031 C 
ATOM     42  C   UNL     1       8.611   1.451 -11.182  1.00  0.00     0.037 A 
BRANCH  29  43
ATOM     43  C   UNL     1       7.980   6.059  -7.076  1.00  0.00     0.064 A 
ATOM     44  C   UNL     1       8.800   6.370  -5.981  1.00  0.00     0.173 A 
ATOM     45  C   UNL     1       7.341   7.117  -7.739  1.00  0.00     0.173 A 
ATOM     46  F   UNL     1       9.402   5.391  -5.287  1.00  0.00    -0.203 F 
ATOM     47  C   UNL     1       8.941   7.686  -5.543  1.00  0.00     0.198 A 
ATOM     48  C   UNL     1       7.504   8.433  -7.314  1.00  0.00     0.198 A 
ATOM     49  F   UNL     1       6.533   6.872  -8.781  1.00  0.00    -0.203 F 
ATOM     50  F   UNL     1       9.671   7.954  -4.451  1.00  0.00    -0.200 F 
ATOM     51  C   UNL     1       8.294   8.716  -6.211  1.00  0.00     0.200 A 
ATOM     52  F   UNL     1       6.874   9.425  -7.958  1.00  0.00    -0.200 F 
ATOM     53  F   UNL     1       8.413   9.978  -5.776  1.00  0.00    -0.200 F 
ENDBRANCH  29  43
BRANCH  30  54
ATOM     54  C   UNL     1       5.772  -3.551  -9.199  1.00  0.00     0.064 A 
ATOM     55  C   UNL     1       6.760  -4.542  -9.271  1.00  0.00     0.173 A 
ATOM     56  C   UNL     1       4.446  -3.941  -9.447  1.00  0.00     0.173 A 
ATOM     57  F   UNL     1       8.046  -4.222  -9.069  1.00  0.00    -0.203 F 
ATOM     58  C   UNL     1       6.436  -5.862  -9.586  1.00  0.00     0.198 A 
ATOM     59  C   UNL     1       4.119  -5.265  -9.732  1.00  0.00     0.198 A 
ATOM     60  F   UNL     1       3.459  -3.034  -9.403  1.00  0.00    -0.203 F 
ATOM     61  F   UNL     1       7.406  -6.782  -9.689  1.00  0.00    -0.200 F 
ATOM     62  C   UNL     1       5.116  -6.224  -9.809  1.00  0.00     0.200 A 
ATOM     63  F   UNL     1       2.840  -5.610  -9.934  1.00  0.00    -0.200 F 
ATOM     64  F   UNL     1       4.806  -7.494 -10.106  1.00  0.00    -0.200 F 
ENDBRANCH  30  54
BRANCH  42  65
ATOM     65  C   UNL     1       9.336   1.474 -12.492  1.00  0.00     0.064 A 
ATOM     66  C   UNL     1       8.643   1.511 -13.710  1.00  0.00     0.173 A 
ATOM     67  C   UNL     1      10.737   1.530 -12.522  1.00  0.00     0.173 A 
ATOM     68  F   UNL     1       7.303   1.447 -13.727  1.00  0.00    -0.203 F 
ATOM     69  C   UNL     1       9.331   1.587 -14.917  1.00  0.00     0.198 A 
ATOM     70  C   UNL     1      11.419   1.635 -13.729  1.00  0.00     0.198 A 
ATOM     71  F   UNL     1      11.440   1.506 -11.380  1.00  0.00    -0.203 F 
ATOM     72  F   UNL     1       8.653   1.586 -16.073  1.00  0.00    -0.200 F 
ATOM     73  C   UNL     1      10.717   1.659 -14.925  1.00  0.00     0.200 A 
ATOM     74  F   UNL     1      12.757   1.718 -13.735  1.00  0.00    -0.200 F 
ATOM     75  F   UNL     1      11.376   1.746 -16.088  1.00  0.00    -0.200 F 
ENDBRANCH  42  65
ENDBRANCH  16  17
ENDBRANCH   9  11
ENDBRANCH   8   9
ENDBRANCH   7   8
ENDBRANCH   6   7
ENDBRANCH   5   6
ENDBRANCH   4   5
ENDBRANCH   3   4
ENDBRANCH   2   3
ENDBRANCH   1   2
BRANCH   1  76
ATOM     76  C   UNL     1       5.008  -3.868  -0.770  1.00  0.00     0.188 C 
BRANCH  76  77
ATOM     77  O   UNL     1       3.851  -3.892  -1.584  1.00  0.00    -0.376 OA
BRANCH  77  78
ATOM     78  C   UNL     1       3.368  -5.191  -1.891  1.00  0.00     0.202 C 
BRANCH  78  79
ATOM     79  C   UNL     1       2.703  -6.042  -0.782  1.00  0.00     0.261 C 
BRANCH  79  80
ATOM     80  O   UNL     1       3.007  -5.747   0.595  1.00  0.00    -0.462 OA
BRANCH  80  81
ATOM     81  C   UNL     1       4.037  -6.414   1.158  1.00  0.00     0.328 C 
ATOM     82  O   UNL     1       4.746  -7.187   0.507  1.00  0.00    -0.250 OA
BRANCH  81  83
ATOM     83  C   UNL     1       4.294  -6.131   2.666  1.00  0.00     0.194 C 
BRANCH  83  84
ATOM     84  C   UNL     1       3.560  -5.039   3.486  1.00  0.00     0.072 C 
BRANCH  84  85
ATOM     85  C   UNL     1       2.069  -4.803   3.442  1.00  0.00    -0.045 A 
ATOM     86  C   UNL     1       1.608  -3.485   3.642  1.00  0.00     0.007 A 
ATOM     87  C   UNL     1       1.125  -5.819   3.289  1.00  0.00     0.007 A 
ATOM     88  C   UNL     1       0.250  -3.171   3.583  1.00  0.00     0.046 A 
ATOM     89  C   UNL     1      -0.239  -5.510   3.247  1.00  0.00     0.046 A 
ATOM     90  C   UNL     1      -0.663  -4.191   3.366  1.00  0.00     0.115 A 
BRANCH  90  91
ATOM     91  O   UNL     1      -1.997  -3.933   3.257  1.00  0.00    -0.508 OA
ATOM     92  H   UNL     1      -2.312  -3.054   3.333  1.00  0.00     0.293 HD
ENDBRANCH  90  91
ENDBRANCH  84  85
ENDBRANCH  83  84
BRANCH  83  93
ATOM     93  N   UNL     1       4.251  -7.379   3.452  1.00  0.00    -0.371 N 
ATOM     94  H   UNL     1       3.401  -7.651   3.868  1.00  0.00     0.161 HD
BRANCH  93  95
ATOM     95  C   UNL     1       5.383  -8.193   3.624  1.00  0.00     0.054 A 
ATOM     96  C   UNL     1       6.554  -7.740   4.305  1.00  0.00     0.024 A 
ATOM     97  C   UNL     1       5.355  -9.511   3.089  1.00  0.00     0.024 A 
ATOM     98  C   UNL     1       6.753  -6.435   4.835  1.00  0.00     0.012 A 
ATOM     99  C   UNL     1       7.585  -8.681   4.494  1.00  0.00     0.073 A 
ATOM    100  C   UNL     1       6.439 -10.354   3.383  1.00  0.00     0.073 A 
ATOM    101  C   UNL     1       4.313 -10.013   2.265  1.00  0.00     0.012 A 
ATOM    102  C   UNL     1       7.940  -6.062   5.466  1.00  0.00     0.001 A 
ATOM    103  C   UNL     1       8.747  -8.298   5.156  1.00  0.00     0.029 A 
ATOM    104  N   UNL     1       7.510  -9.950   4.076  1.00  0.00    -0.248 NA
ATOM    105  C   UNL     1       6.413 -11.666   2.928  1.00  0.00     0.029 A 
ATOM    106  C   UNL     1       4.325 -11.321   1.788  1.00  0.00     0.001 A 
ATOM    107  C   UNL     1       8.943  -7.000   5.629  1.00  0.00     0.002 A 
ATOM    108  C   UNL     1       5.371 -12.159   2.139  1.00  0.00     0.002 A 
ENDBRANCH  93  95
ENDBRANCH  83  93
ENDBRANCH  81  83
ENDBRANCH  80  81
ENDBRANCH  79  80
ENDBRANCH  78  79
ENDBRANCH  77  78
ENDBRANCH  76  77
ENDBRANCH   1  76
TORSDOF 25
