REMARK SMILES O=C(OCCOCCOCCOCCOC(=O)c1cc(F)cc(-c2cccc(F)c2F)c1)c1ccc(-c2c3nc(c(-c4c(F)c(F)c(F)c(F)c4F)c4ccc([nH]4)c(-c4c(F)c(F)c(F)c(F)c4F)c4nc(c(-c5c(F)c(F)c(F)c(F)c5F)c5ccc2[nH]5)C=C4)C=C3)cc1
REMARK SMILES IDX 8 1 7 2 6 3 5 4 4 5 3 6 2 7 1 8 33 9 34 10 95 11 35 12 94 13
REMARK SMILES IDX 36 14 37 15 38 16 88 17 39 18 93 19 87 20 89 21 40 22 92 23
REMARK SMILES IDX 86 24 85 25 41 27 73 28 53 29 72 30 54 31 57 32 71 33 90 34
REMARK SMILES IDX 55 35 56 36 70 38 91 39 58 40 42 41 43 42 51 43 44 44 45 45
REMARK SMILES IDX 49 46 52 47 46 48 47 49 50 50 48 51 74 52 75 53 83 54 76 55
REMARK SMILES IDX 77 56 81 57 84 58 78 59 79 60 82 61 80 62 59 63 60 64 68 65
REMARK SMILES IDX 61 66 62 67 66 68 69 69 63 70 64 71 67 72 65 73 9 74 10 75
REMARK SMILES IDX 11 76 12 77 13 78 14 79 15 80 16 81 17 82 18 83 19 84 32 85
REMARK SMILES IDX 20 86 23 87 21 88 22 89 24 90 25 91 30 92 26 93 28 94 31 95
REMARK SMILES IDX 27 96 29 97
REMARK H PARENT 89 26 57 37
REMARK Flexibility Score: inf
ROOT
ATOM      1  C   UNL     1       1.791   1.576  -2.198  1.00  0.00     0.188 C 
ENDROOT
BRANCH   1   2
ATOM      2  C   UNL     1       2.231   0.248  -1.585  1.00  0.00     0.188 C 
BRANCH   2   3
ATOM      3  O   UNL     1       3.513   0.408  -0.977  1.00  0.00    -0.376 OA
BRANCH   3   4
ATOM      4  C   UNL     1       4.345  -0.745  -0.923  1.00  0.00     0.202 C 
BRANCH   4   5
ATOM      5  C   UNL     1       3.909  -1.827   0.069  1.00  0.00     0.261 C 
BRANCH   5   6
ATOM      6  O   UNL     1       2.521  -1.757   0.433  1.00  0.00    -0.460 OA
BRANCH   6   7
ATOM      7  C   UNL     1       1.960  -1.102   1.481  1.00  0.00     0.338 C 
ATOM      8  O   UNL     1       0.763  -1.258   1.711  1.00  0.00    -0.246 OA
BRANCH   7   9
ATOM      9  C   UNL     1       2.737  -0.231   2.406  1.00  0.00     0.060 A 
ATOM     10  C   UNL     1       3.789   0.596   2.019  1.00  0.00     0.016 A 
ATOM     11  C   UNL     1       2.323  -0.181   3.745  1.00  0.00     0.016 A 
ATOM     12  C   UNL     1       4.523   1.321   2.943  1.00  0.00     0.010 A 
ATOM     13  C   UNL     1       3.008   0.606   4.675  1.00  0.00     0.010 A 
ATOM     14  C   UNL     1       4.153   1.312   4.283  1.00  0.00    -0.014 A 
BRANCH  14  15
ATOM     15  C   UNL     1       5.098   1.873   5.267  1.00  0.00     0.031 A 
ATOM     16  C   UNL     1       5.829   0.910   6.155  1.00  0.00     0.074 A 
ATOM     17  C   UNL     1       5.416   3.180   5.245  1.00  0.00     0.049 A 
ATOM     18  N   UNL     1       6.634   1.145   7.154  1.00  0.00    -0.248 NA
ATOM     19  C   UNL     1       5.625  -0.523   5.874  1.00  0.00     0.031 C 
ATOM     20  C   UNL     1       4.871   4.164   4.307  1.00  0.00     0.029 A 
ATOM     21  N   UNL     1       6.310   3.896   5.996  1.00  0.00    -0.354 N 
ATOM     22  C   UNL     1       6.984  -0.103   7.651  1.00  0.00     0.074 A 
ATOM     23  C   UNL     1       6.306  -1.095   6.852  1.00  0.00     0.031 C 
ATOM     24  C   UNL     1       5.482   5.343   4.505  1.00  0.00     0.029 A 
ATOM     25  C   UNL     1       6.391   5.219   5.639  1.00  0.00     0.049 A 
ATOM     26  H   UNL     1       6.843   3.499   6.723  1.00  0.00     0.167 HD
ATOM     27  C   UNL     1       7.801  -0.385   8.691  1.00  0.00     0.037 A 
ATOM     28  C   UNL     1       7.100   6.220   6.196  1.00  0.00     0.037 A 
ATOM     29  C   UNL     1       8.486   0.628   9.442  1.00  0.00     0.049 A 
ATOM     30  C   UNL     1       7.943   5.897   7.400  1.00  0.00     0.074 A 
ATOM     31  C   UNL     1       9.268   0.494  10.572  1.00  0.00     0.029 A 
ATOM     32  N   UNL     1       8.479   1.978   9.110  1.00  0.00    -0.354 N 
ATOM     33  N   UNL     1       8.162   4.732   7.964  1.00  0.00    -0.248 NA
ATOM     34  C   UNL     1       8.612   7.022   8.064  1.00  0.00     0.031 C 
ATOM     35  C   UNL     1       9.709   1.769  10.943  1.00  0.00     0.029 A 
ATOM     36  C   UNL     1       9.242   2.691  10.016  1.00  0.00     0.049 A 
ATOM     37  H   UNL     1       8.002   2.369   8.343  1.00  0.00     0.167 HD
ATOM     38  C   UNL     1       8.992   4.979   9.047  1.00  0.00     0.074 A 
ATOM     39  C   UNL     1       9.258   6.406   9.045  1.00  0.00     0.031 C 
ATOM     40  C   UNL     1       9.483   4.112   9.967  1.00  0.00     0.037 A 
BRANCH  27  41
ATOM     41  C   UNL     1       7.923  -1.825   9.094  1.00  0.00     0.064 A 
ATOM     42  C   UNL     1       7.299  -2.282  10.264  1.00  0.00     0.173 A 
ATOM     43  C   UNL     1       8.610  -2.763   8.308  1.00  0.00     0.173 A 
ATOM     44  F   UNL     1       6.619  -1.429  11.045  1.00  0.00    -0.203 F 
ATOM     45  C   UNL     1       7.355  -3.624  10.631  1.00  0.00     0.198 A 
ATOM     46  C   UNL     1       8.640  -4.110   8.664  1.00  0.00     0.198 A 
ATOM     47  F   UNL     1       9.193  -2.385   7.160  1.00  0.00    -0.203 F 
ATOM     48  F   UNL     1       6.752  -4.036  11.755  1.00  0.00    -0.200 F 
ATOM     49  C   UNL     1       8.017  -4.538   9.826  1.00  0.00     0.200 A 
ATOM     50  F   UNL     1       9.245  -4.999   7.863  1.00  0.00    -0.200 F 
ATOM     51  F   UNL     1       8.038  -5.836  10.161  1.00  0.00    -0.200 F 
ENDBRANCH  27  41
BRANCH  28  52
ATOM     52  C   UNL     1       7.002   7.597   5.642  1.00  0.00     0.064 A 
ATOM     53  C   UNL     1       5.795   8.314   5.680  1.00  0.00     0.173 A 
ATOM     54  C   UNL     1       8.098   8.210   5.021  1.00  0.00     0.173 A 
ATOM     55  F   UNL     1       4.714   7.778   6.266  1.00  0.00    -0.203 F 
ATOM     56  C   UNL     1       5.678   9.569   5.085  1.00  0.00     0.198 A 
ATOM     57  C   UNL     1       7.989   9.479   4.452  1.00  0.00     0.198 A 
ATOM     58  F   UNL     1       9.282   7.581   4.978  1.00  0.00    -0.203 F 
ATOM     59  F   UNL     1       4.499  10.205   5.095  1.00  0.00    -0.200 F 
ATOM     60  C   UNL     1       6.776  10.152   4.473  1.00  0.00     0.200 A 
ATOM     61  F   UNL     1       9.059  10.051   3.883  1.00  0.00    -0.200 F 
ATOM     62  F   UNL     1       6.666  11.361   3.906  1.00  0.00    -0.200 F 
ENDBRANCH  28  52
BRANCH  40  63
ATOM     63  C   UNL     1      10.367   4.678  11.034  1.00  0.00     0.064 A 
ATOM     64  C   UNL     1      11.743   4.405  11.028  1.00  0.00     0.173 A 
ATOM     65  C   UNL     1       9.839   5.406  12.108  1.00  0.00     0.173 A 
ATOM     66  F   UNL     1      12.288   3.702  10.024  1.00  0.00    -0.203 F 
ATOM     67  C   UNL     1      12.557   4.828  12.072  1.00  0.00     0.198 A 
ATOM     68  C   UNL     1      10.661   5.850  13.138  1.00  0.00     0.198 A 
ATOM     69  F   UNL     1       8.530   5.698  12.148  1.00  0.00    -0.203 F 
ATOM     70  F   UNL     1      13.862   4.524  12.067  1.00  0.00    -0.200 F 
ATOM     71  C   UNL     1      12.017   5.551  13.125  1.00  0.00     0.200 A 
ATOM     72  F   UNL     1      10.143   6.566  14.145  1.00  0.00    -0.200 F 
ATOM     73  F   UNL     1      12.803   5.962  14.129  1.00  0.00    -0.200 F 
ENDBRANCH  40  63
ENDBRANCH  14  15
ENDBRANCH   7   9
ENDBRANCH   6   7
ENDBRANCH   5   6
ENDBRANCH   4   5
ENDBRANCH   3   4
ENDBRANCH   2   3
ENDBRANCH   1   2
BRANCH   1  74
ATOM     74  O   UNL     1       2.501   1.940  -3.379  1.00  0.00    -0.377 OA
BRANCH  74  75
ATOM     75  C   UNL     1       3.919   1.855  -3.312  1.00  0.00     0.188 C 
BRANCH  75  76
ATOM     76  C   UNL     1       4.665   2.749  -2.301  1.00  0.00     0.188 C 
BRANCH  76  77
ATOM     77  O   UNL     1       3.822   3.593  -1.531  1.00  0.00    -0.376 OA
BRANCH  77  78
ATOM     78  C   UNL     1       3.888   4.977  -1.863  1.00  0.00     0.202 C 
BRANCH  78  79
ATOM     79  C   UNL     1       3.229   5.364  -3.194  1.00  0.00     0.261 C 
BRANCH  79  80
ATOM     80  O   UNL     1       3.739   4.698  -4.364  1.00  0.00    -0.460 OA
BRANCH  80  81
ATOM     81  C   UNL     1       5.006   4.940  -4.774  1.00  0.00     0.338 C 
ATOM     82  O   UNL     1       5.814   5.695  -4.266  1.00  0.00    -0.246 OA
BRANCH  81  83
ATOM     83  C   UNL     1       5.304   3.916  -5.809  1.00  0.00     0.063 A 
ATOM     84  C   UNL     1       4.417   3.730  -6.871  1.00  0.00     0.055 A 
ATOM     85  C   UNL     1       6.334   2.984  -5.569  1.00  0.00     0.024 A 
ATOM     86  C   UNL     1       4.552   2.605  -7.671  1.00  0.00     0.124 A 
ATOM     87  C   UNL     1       6.417   1.807  -6.335  1.00  0.00    -0.012 A 
ATOM     88  F   UNL     1       3.687   2.402  -8.672  1.00  0.00    -0.207 F 
ATOM     89  C   UNL     1       5.524   1.644  -7.407  1.00  0.00     0.048 A 
BRANCH  87  90
ATOM     90  C   UNL     1       7.309   0.700  -5.966  1.00  0.00     0.021 A 
ATOM     91  C   UNL     1       6.862  -0.307  -5.086  1.00  0.00     0.012 A 
ATOM     92  C   UNL     1       8.584   0.561  -6.524  1.00  0.00     0.166 A 
ATOM     93  C   UNL     1       7.663  -1.414  -4.780  1.00  0.00     0.004 A 
ATOM     94  C   UNL     1       9.379  -0.543  -6.221  1.00  0.00     0.159 A 
ATOM     95  F   UNL     1       9.044   1.486  -7.381  1.00  0.00    -0.203 F 
ATOM     96  C   UNL     1       8.926  -1.533  -5.354  1.00  0.00     0.042 A 
ATOM     97  F   UNL     1      10.590  -0.672  -6.780  1.00  0.00    -0.204 F 
ENDBRANCH  87  90
ENDBRANCH  81  83
ENDBRANCH  80  81
ENDBRANCH  79  80
ENDBRANCH  78  79
ENDBRANCH  77  78
ENDBRANCH  76  77
ENDBRANCH  75  76
ENDBRANCH  74  75
ENDBRANCH   1  74
TORSDOF 21
