REMARK SMILES NS(=O)(=O)c1ccc(-n2nc(C(=O)NCCCC(=O)OCCOCCOCCOCCOC(=O)c3ccc(-c4c5nc(c(-c6c(F)c(F)c(F)c(F)c6F)c6ccc([nH]6)c(-c6c(F)c(F)c(F)c(F)c6F)c6nc(c(-c7c(F)c(F)c(F)c(F)c7F)c7ccc4[nH]7)C=C6)C=C5)cc3)cc2-c2ccccc2)cc1
REMARK SMILES IDX 24 1 23 2 22 3 21 4 20 5 18 6 19 7 17 8 16 9 15 10 14 11
REMARK SMILES IDX 12 12 13 13 11 15 9 16 10 17 99 18 98 19 8 20 5 21 6 22
REMARK SMILES IDX 107 23 7 24 106 25 2 26 3 27 4 28 1 29 100 32 101 33 105 34
REMARK SMILES IDX 102 35 104 36 103 37 25 38 26 39 27 40 28 41 29 42 30 43
REMARK SMILES IDX 31 44 32 45 33 46 34 47 35 48 36 49 97 50 37 51 96 52 38 53
REMARK SMILES IDX 39 54 40 55 90 56 41 57 95 58 89 59 91 60 42 61 94 62 88 63
REMARK SMILES IDX 87 64 43 66 75 67 55 68 74 69 56 70 59 71 73 72 92 73 57 74
REMARK SMILES IDX 58 75 72 77 93 78 60 79 44 80 45 81 53 82 46 83 47 84 51 85
REMARK SMILES IDX 54 86 48 87 49 88 52 89 50 90 76 91 77 92 85 93 78 94 79 95
REMARK SMILES IDX 83 96 86 97 80 98 81 99 84 100 82 101 61 102 62 103 70 104
REMARK SMILES IDX 63 105 64 106 68 107 71 108 65 109 66 110 69 111 67 112
REMARK H PARENT 14 14 1 30 1 31 91 65 59 76
REMARK Flexibility Score: inf
ROOT
ATOM      1  C   UNL     1       4.206 -11.030   9.796  1.00  0.00     0.188 C 
ENDROOT
BRANCH   1   2
ATOM      2  O   UNL     1       3.404 -12.163  10.111  1.00  0.00    -0.376 OA
BRANCH   2   3
ATOM      3  C   UNL     1       1.994 -12.087   9.974  1.00  0.00     0.202 C 
BRANCH   3   4
ATOM      4  C   UNL     1       1.234 -10.975  10.705  1.00  0.00     0.261 C 
BRANCH   4   5
ATOM      5  O   UNL     1       1.842  -9.671  10.639  1.00  0.00    -0.463 OA
BRANCH   5   6
ATOM      6  C   UNL     1       2.196  -9.117  11.822  1.00  0.00     0.305 C 
ATOM      7  O   UNL     1       2.070  -9.667  12.911  1.00  0.00    -0.252 OA
BRANCH   6   8
ATOM      8  C   UNL     1       2.734  -7.702  11.722  1.00  0.00     0.124 C 
BRANCH   8   9
ATOM      9  C   UNL     1       3.177  -7.090  10.394  1.00  0.00     0.033 C 
BRANCH   9  10
ATOM     10  C   UNL     1       2.161  -7.040   9.251  1.00  0.00     0.117 C 
BRANCH  10  11
ATOM     11  N   UNL     1       1.178  -5.998   9.435  1.00  0.00    -0.351 N 
ATOM     12  C   UNL     1       0.838  -4.867   8.729  1.00  0.00     0.271 C 
ATOM     13  O   UNL     1      -0.045  -4.184   9.259  1.00  0.00    -0.267 OA
ATOM     14  H   UNL     1       0.631  -6.125  10.243  1.00  0.00     0.163 HD
BRANCH  12  15
ATOM     15  C   UNL     1       1.438  -4.479   7.427  1.00  0.00     0.151 A 
ATOM     16  N   UNL     1       1.627  -3.257   5.670  1.00  0.00    -0.232 N 
ATOM     17  N   UNL     1       1.168  -3.248   6.934  1.00  0.00    -0.162 NA
ATOM     18  C   UNL     1       2.494  -4.311   5.451  1.00  0.00     0.075 A 
ATOM     19  C   UNL     1       2.281  -5.170   6.510  1.00  0.00     0.065 A 
BRANCH  16  20
ATOM     20  C   UNL     1       1.209  -2.291   4.721  1.00  0.00     0.065 A 
ATOM     21  C   UNL     1       0.593  -0.396   2.786  1.00  0.00     0.082 A 
ATOM     22  C   UNL     1       0.612  -1.746   2.436  1.00  0.00     0.024 A 
ATOM     23  C   UNL     1       0.835   0.010   4.105  1.00  0.00     0.024 A 
ATOM     24  C   UNL     1       0.929  -2.692   3.404  1.00  0.00     0.030 A 
ATOM     25  C   UNL     1       1.113  -0.946   5.088  1.00  0.00     0.030 A 
BRANCH  21  26
ATOM     26  S   UNL     1       0.317   0.817   1.532  1.00  0.00     0.238 S 
ATOM     27  O   UNL     1       1.038   2.019   1.869  1.00  0.00    -0.207 OA
ATOM     28  O   UNL     1      -1.085   0.806   1.183  1.00  0.00    -0.207 OA
BRANCH  26  29
ATOM     29  N   UNL     1       1.129   0.184   0.196  1.00  0.00    -0.225 NA
ATOM     30  H   UNL     1       1.029   0.820  -0.595  1.00  0.00     0.137 HD
ATOM     31  H   UNL     1       0.731  -0.724  -0.045  1.00  0.00     0.137 HD
ENDBRANCH  26  29
ENDBRANCH  21  26
ENDBRANCH  16  20
BRANCH  18  32
ATOM     32  C   UNL     1       3.408  -4.382   4.317  1.00  0.00     0.000 A 
ATOM     33  C   UNL     1       4.444  -3.446   4.188  1.00  0.00     0.010 A 
ATOM     34  C   UNL     1       3.197  -5.310   3.300  1.00  0.00     0.010 A 
ATOM     35  C   UNL     1       5.257  -3.441   3.054  1.00  0.00     0.001 A 
ATOM     36  C   UNL     1       3.995  -5.285   2.156  1.00  0.00     0.001 A 
ATOM     37  C   UNL     1       5.031  -4.365   2.042  1.00  0.00     0.000 A 
ENDBRANCH  18  32
ENDBRANCH  12  15
ENDBRANCH  10  11
ENDBRANCH   9  10
ENDBRANCH   8   9
ENDBRANCH   6   8
ENDBRANCH   5   6
ENDBRANCH   4   5
ENDBRANCH   3   4
ENDBRANCH   2   3
ENDBRANCH   1   2
BRANCH   1  38
ATOM     38  C   UNL     1       3.915 -10.182   8.541  1.00  0.00     0.188 C 
BRANCH  38  39
ATOM     39  O   UNL     1       2.707 -10.473   7.860  1.00  0.00    -0.377 OA
BRANCH  39  40
ATOM     40  C   UNL     1       2.874 -11.232   6.665  1.00  0.00     0.188 C 
BRANCH  40  41
ATOM     41  C   UNL     1       3.689 -12.538   6.774  1.00  0.00     0.188 C 
BRANCH  41  42
ATOM     42  O   UNL     1       4.978 -12.359   7.362  1.00  0.00    -0.376 OA
BRANCH  42  43
ATOM     43  C   UNL     1       6.120 -12.453   6.520  1.00  0.00     0.202 C 
BRANCH  43  44
ATOM     44  C   UNL     1       6.418 -11.166   5.753  1.00  0.00     0.261 C 
BRANCH  44  45
ATOM     45  O   UNL     1       5.357 -10.754   4.896  1.00  0.00    -0.460 OA
BRANCH  45  46
ATOM     46  C   UNL     1       4.980 -11.623   3.935  1.00  0.00     0.338 C 
ATOM     47  O   UNL     1       5.414 -12.742   3.739  1.00  0.00    -0.246 OA
BRANCH  46  48
ATOM     48  C   UNL     1       4.026 -10.943   3.049  1.00  0.00     0.060 A 
ATOM     49  C   UNL     1       3.746 -11.572   1.835  1.00  0.00     0.016 A 
ATOM     50  C   UNL     1       3.654  -9.616   3.288  1.00  0.00     0.016 A 
ATOM     51  C   UNL     1       3.367 -10.789   0.765  1.00  0.00     0.010 A 
ATOM     52  C   UNL     1       3.253  -8.851   2.222  1.00  0.00     0.010 A 
ATOM     53  C   UNL     1       3.249  -9.412   0.955  1.00  0.00    -0.014 A 
BRANCH  53  54
ATOM     54  C   UNL     1       3.224  -8.550  -0.204  1.00  0.00     0.031 A 
ATOM     55  C   UNL     1       1.902  -8.261  -0.772  1.00  0.00     0.074 A 
ATOM     56  C   UNL     1       4.326  -7.971  -0.717  1.00  0.00     0.049 A 
ATOM     57  N   UNL     1       1.403  -8.761  -1.850  1.00  0.00    -0.248 NA
ATOM     58  C   UNL     1       1.005  -7.370  -0.031  1.00  0.00     0.031 C 
ATOM     59  C   UNL     1       5.660  -7.840  -0.128  1.00  0.00     0.029 A 
ATOM     60  N   UNL     1       4.435  -7.302  -1.899  1.00  0.00    -0.354 N 
ATOM     61  C   UNL     1       0.179  -8.138  -2.018  1.00  0.00     0.074 A 
ATOM     62  C   UNL     1      -0.077  -7.392  -0.810  1.00  0.00     0.031 C 
ATOM     63  C   UNL     1       6.399  -6.995  -0.888  1.00  0.00     0.029 A 
ATOM     64  C   UNL     1       5.642  -6.649  -2.082  1.00  0.00     0.049 A 
ATOM     65  H   UNL     1       3.714  -7.284  -2.568  1.00  0.00     0.167 HD
ATOM     66  C   UNL     1      -0.445  -8.121  -3.225  1.00  0.00     0.037 A 
ATOM     67  C   UNL     1       5.968  -5.858  -3.134  1.00  0.00     0.037 A 
ATOM     68  C   UNL     1       0.133  -9.059  -4.151  1.00  0.00     0.049 A 
ATOM     69  C   UNL     1       5.070  -6.218  -4.261  1.00  0.00     0.074 A 
ATOM     70  C   UNL     1       0.305 -10.430  -4.161  1.00  0.00     0.029 A 
ATOM     71  N   UNL     1       0.973  -8.575  -5.123  1.00  0.00    -0.354 N 
ATOM     72  N   UNL     1       5.138  -7.339  -4.923  1.00  0.00    -0.248 NA
ATOM     73  C   UNL     1       3.829  -5.475  -4.424  1.00  0.00     0.031 C 
ATOM     74  C   UNL     1       1.560 -10.648  -4.803  1.00  0.00     0.029 A 
ATOM     75  C   UNL     1       2.069  -9.400  -5.162  1.00  0.00     0.049 A 
ATOM     76  H   UNL     1       0.818  -7.783  -5.687  1.00  0.00     0.167 HD
ATOM     77  C   UNL     1       3.824  -7.643  -5.243  1.00  0.00     0.074 A 
ATOM     78  C   UNL     1       3.084  -6.407  -5.024  1.00  0.00     0.031 C 
ATOM     79  C   UNL     1       3.419  -8.938  -5.387  1.00  0.00     0.037 A 
BRANCH  66  80
ATOM     80  C   UNL     1      -1.380  -7.035  -3.656  1.00  0.00     0.064 A 
ATOM     81  C   UNL     1      -2.266  -7.262  -4.722  1.00  0.00     0.173 A 
ATOM     82  C   UNL     1      -1.254  -5.699  -3.223  1.00  0.00     0.173 A 
ATOM     83  F   UNL     1      -2.415  -8.493  -5.234  1.00  0.00    -0.203 F 
ATOM     84  C   UNL     1      -2.958  -6.214  -5.331  1.00  0.00     0.198 A 
ATOM     85  C   UNL     1      -1.989  -4.665  -3.793  1.00  0.00     0.198 A 
ATOM     86  F   UNL     1      -0.341  -5.338  -2.310  1.00  0.00    -0.203 F 
ATOM     87  F   UNL     1      -3.713  -6.455  -6.411  1.00  0.00    -0.200 F 
ATOM     88  C   UNL     1      -2.823  -4.918  -4.863  1.00  0.00     0.200 A 
ATOM     89  F   UNL     1      -1.823  -3.412  -3.345  1.00  0.00    -0.200 F 
ATOM     90  F   UNL     1      -3.453  -3.906  -5.474  1.00  0.00    -0.200 F 
ENDBRANCH  66  80
BRANCH  67  91
ATOM     91  C   UNL     1       6.852  -4.672  -3.181  1.00  0.00     0.064 A 
ATOM     92  C   UNL     1       7.332  -4.161  -4.397  1.00  0.00     0.173 A 
ATOM     93  C   UNL     1       7.010  -3.846  -2.054  1.00  0.00     0.173 A 
ATOM     94  F   UNL     1       7.188  -4.865  -5.529  1.00  0.00    -0.203 F 
ATOM     95  C   UNL     1       7.900  -2.885  -4.482  1.00  0.00     0.198 A 
ATOM     96  C   UNL     1       7.579  -2.576  -2.136  1.00  0.00     0.198 A 
ATOM     97  F   UNL     1       6.525  -4.219  -0.865  1.00  0.00    -0.203 F 
ATOM     98  F   UNL     1       8.286  -2.404  -5.673  1.00  0.00    -0.200 F 
ATOM     99  C   UNL     1       8.011  -2.089  -3.354  1.00  0.00     0.200 A 
ATOM    100  F   UNL     1       7.644  -1.807  -1.041  1.00  0.00    -0.200 F 
ATOM    101  F   UNL     1       8.491  -0.841  -3.447  1.00  0.00    -0.200 F 
ENDBRANCH  67  91
BRANCH  79 102
ATOM    102  C   UNL     1       4.489  -9.985  -5.515  1.00  0.00     0.064 A 
ATOM    103  C   UNL     1       5.417 -10.280  -4.501  1.00  0.00     0.173 A 
ATOM    104  C   UNL     1       4.501 -10.796  -6.658  1.00  0.00     0.173 A 
ATOM    105  F   UNL     1       5.397  -9.618  -3.336  1.00  0.00    -0.203 F 
ATOM    106  C   UNL     1       6.349 -11.304  -4.653  1.00  0.00     0.198 A 
ATOM    107  C   UNL     1       5.409 -11.842  -6.790  1.00  0.00     0.198 A 
ATOM    108  F   UNL     1       3.599 -10.597  -7.632  1.00  0.00    -0.203 F 
ATOM    109  F   UNL     1       7.238 -11.553  -3.679  1.00  0.00    -0.200 F 
ATOM    110  C   UNL     1       6.341 -12.088  -5.795  1.00  0.00     0.200 A 
ATOM    111  F   UNL     1       5.365 -12.630  -7.874  1.00  0.00    -0.200 F 
ATOM    112  F   UNL     1       7.214 -13.097  -5.924  1.00  0.00    -0.200 F 
ENDBRANCH  79 102
ENDBRANCH  53  54
ENDBRANCH  46  48
ENDBRANCH  45  46
ENDBRANCH  44  45
ENDBRANCH  43  44
ENDBRANCH  42  43
ENDBRANCH  41  42
ENDBRANCH  40  41
ENDBRANCH  39  40
ENDBRANCH  38  39
ENDBRANCH   1  38
TORSDOF 28
