REMARK SMILES CC[NH+]1CC[NH+]([C@@H]2CC(=O)N(c3ccc(C(=O)OCCOCCOCCOCCOC(=O)c4ccc(-c5c6nc(c(-c7c(F)c(F)c(F)c(F)c7F)c7ccc([nH]7)c(-c7c(F)c(F)c(F)c(F)c7F)c7nc(c(-c8c(F)c(F)c(F)c(F)c8F)c8ccc5[nH]8)C=C7)C=C6)cc4)cc3)C2=O)CC1
REMARK SMILES IDX 23 1 22 2 21 3 20 4 19 5 18 6 16 7 17 8 15 9 12 10 13 11
REMARK SMILES IDX 97 12 14 13 96 14 11 15 7 16 8 17 98 18 9 19 99 20 10 21
REMARK SMILES IDX 6 22 3 23 4 24 101 25 5 27 100 28 2 30 1 31 24 32 25 33
REMARK SMILES IDX 26 34 27 35 28 36 29 37 30 38 31 39 32 40 33 41 34 42 95 43
REMARK SMILES IDX 35 44 94 45 36 46 37 47 38 48 88 49 39 50 93 51 87 52 89 53
REMARK SMILES IDX 40 54 92 55 86 56 85 57 41 59 73 60 53 61 72 62 54 63 57 64
REMARK SMILES IDX 71 65 90 66 55 67 56 68 70 70 91 71 58 72 42 73 43 74 51 75
REMARK SMILES IDX 44 76 45 77 49 78 52 79 46 80 47 81 50 82 48 83 74 84 75 85
REMARK SMILES IDX 83 86 76 87 77 88 81 89 84 90 78 91 79 92 82 93 80 94 59 95
REMARK SMILES IDX 60 96 68 97 61 98 62 99 66 100 69 101 63 102 64 103 67 104
REMARK SMILES IDX 65 105
REMARK H PARENT 3 26 6 29 89 58 57 69
REMARK Flexibility Score: inf
ROOT
ATOM      1  C   UNL     1       6.787 -10.548  -2.255  1.00  0.00     0.188 C 
ENDROOT
BRANCH   1   2
ATOM      2  C   UNL     1       7.538  -9.878  -3.425  1.00  0.00     0.188 C 
BRANCH   2   3
ATOM      3  O   UNL     1       8.875 -10.328  -3.566  1.00  0.00    -0.376 OA
BRANCH   3   4
ATOM      4  C   UNL     1       9.941  -9.475  -3.198  1.00  0.00     0.202 C 
BRANCH   4   5
ATOM      5  C   UNL     1      10.021  -8.928  -1.765  1.00  0.00     0.261 C 
BRANCH   5   6
ATOM      6  O   UNL     1       8.792  -8.486  -1.185  1.00  0.00    -0.460 OA
BRANCH   6   7
ATOM      7  C   UNL     1       8.274  -7.327  -1.641  1.00  0.00     0.338 C 
ATOM      8  O   UNL     1       8.751  -6.591  -2.486  1.00  0.00    -0.246 OA
BRANCH   7   9
ATOM      9  C   UNL     1       6.905  -7.208  -1.089  1.00  0.00     0.060 A 
ATOM     10  C   UNL     1       4.295  -6.960  -0.091  1.00  0.00     0.052 A 
ATOM     11  C   UNL     1       4.549  -6.779  -1.458  1.00  0.00     0.028 A 
ATOM     12  C   UNL     1       5.348  -7.363   0.744  1.00  0.00     0.028 A 
ATOM     13  C   UNL     1       5.856  -6.865  -1.948  1.00  0.00     0.018 A 
ATOM     14  C   UNL     1       6.644  -7.506   0.248  1.00  0.00     0.018 A 
BRANCH  10  15
ATOM     15  N   UNL     1       3.040  -6.600   0.457  1.00  0.00    -0.245 N 
ATOM     16  C   UNL     1       0.798  -5.881   0.565  1.00  0.00     0.285 C 
ATOM     17  C   UNL     1       1.506  -5.537   1.867  1.00  0.00     0.176 C 
ATOM     18  C   UNL     1       1.835  -6.702  -0.201  1.00  0.00     0.292 C 
ATOM     19  C   UNL     1       2.922  -5.960   1.665  1.00  0.00     0.240 C 
ATOM     20  O   UNL     1       1.600  -7.327  -1.229  1.00  0.00    -0.267 OA
ATOM     21  O   UNL     1       3.799  -5.684   2.474  1.00  0.00    -0.274 OA
BRANCH  16  22
ATOM     22  N   UNL     1       0.224  -4.810  -0.279  1.00  0.00    -0.315 N 
ATOM     23  N   UNL     1       0.864  -1.950   0.404  1.00  0.00    -0.326 N 
ATOM     24  C   UNL     1      -0.200  -2.689   1.103  1.00  0.00     0.324 C 
ATOM     25  C   UNL     1       1.818  -2.842  -0.275  1.00  0.00     0.324 C 
ATOM     26  H   UNL     1       1.385  -1.464   1.133  1.00  0.00     0.348 HD
ATOM     27  C   UNL     1      -0.762  -3.943   0.387  1.00  0.00     0.325 C 
ATOM     28  C   UNL     1       1.159  -3.989  -1.063  1.00  0.00     0.325 C 
ATOM     29  H   UNL     1      -0.266  -5.394  -0.957  1.00  0.00     0.349 HD
BRANCH  23  30
ATOM     30  C   UNL     1       0.347  -0.913  -0.492  1.00  0.00     0.259 C 
ATOM     31  C   UNL     1       0.996   0.407  -0.095  1.00  0.00     0.071 C 
ENDBRANCH  23  30
ENDBRANCH  16  22
ENDBRANCH  10  15
ENDBRANCH   7   9
ENDBRANCH   6   7
ENDBRANCH   5   6
ENDBRANCH   4   5
ENDBRANCH   3   4
ENDBRANCH   2   3
ENDBRANCH   1   2
BRANCH   1  32
ATOM     32  O   UNL     1       7.558 -11.276  -1.309  1.00  0.00    -0.377 OA
BRANCH  32  33
ATOM     33  C   UNL     1       8.407 -12.335  -1.751  1.00  0.00     0.188 C 
BRANCH  33  34
ATOM     34  C   UNL     1       8.300 -12.963  -3.163  1.00  0.00     0.188 C 
BRANCH  34  35
ATOM     35  O   UNL     1       7.118 -12.642  -3.874  1.00  0.00    -0.376 OA
BRANCH  35  36
ATOM     36  C   UNL     1       6.144 -13.654  -4.040  1.00  0.00     0.202 C 
BRANCH  36  37
ATOM     37  C   UNL     1       5.466 -14.167  -2.763  1.00  0.00     0.261 C 
BRANCH  37  38
ATOM     38  O   UNL     1       6.349 -14.633  -1.730  1.00  0.00    -0.460 OA
BRANCH  38  39
ATOM     39  C   UNL     1       7.071 -15.741  -1.995  1.00  0.00     0.338 C 
ATOM     40  O   UNL     1       7.049 -16.411  -3.017  1.00  0.00    -0.246 OA
BRANCH  39  41
ATOM     41  C   UNL     1       8.051 -15.917  -0.906  1.00  0.00     0.060 A 
ATOM     42  C   UNL     1       9.417 -15.902  -1.214  1.00  0.00     0.016 A 
ATOM     43  C   UNL     1       7.624 -16.095   0.413  1.00  0.00     0.016 A 
ATOM     44  C   UNL     1      10.361 -16.107  -0.208  1.00  0.00     0.010 A 
ATOM     45  C   UNL     1       8.570 -16.319   1.417  1.00  0.00     0.010 A 
ATOM     46  C   UNL     1       9.941 -16.363   1.104  1.00  0.00    -0.014 A 
BRANCH  46  47
ATOM     47  C   UNL     1      10.927 -16.857   2.097  1.00  0.00     0.031 A 
ATOM     48  C   UNL     1      11.000 -18.336   2.363  1.00  0.00     0.074 A 
ATOM     49  C   UNL     1      11.775 -16.016   2.714  1.00  0.00     0.049 A 
ATOM     50  N   UNL     1      11.785 -18.999   3.174  1.00  0.00    -0.248 NA
ATOM     51  C   UNL     1      10.058 -19.182   1.613  1.00  0.00     0.031 C 
ATOM     52  C   UNL     1      11.823 -14.569   2.517  1.00  0.00     0.029 A 
ATOM     53  N   UNL     1      12.761 -16.265   3.637  1.00  0.00    -0.354 N 
ATOM     54  C   UNL     1      11.428 -20.334   3.035  1.00  0.00     0.074 A 
ATOM     55  C   UNL     1      10.334 -20.386   2.090  1.00  0.00     0.031 C 
ATOM     56  C   UNL     1      12.786 -14.055   3.301  1.00  0.00     0.029 A 
ATOM     57  C   UNL     1      13.401 -15.132   4.077  1.00  0.00     0.049 A 
ATOM     58  H   UNL     1      12.987 -17.169   3.954  1.00  0.00     0.167 HD
ATOM     59  C   UNL     1      11.971 -21.421   3.633  1.00  0.00     0.037 A 
ATOM     60  C   UNL     1      14.360 -14.984   5.012  1.00  0.00     0.037 A 
ATOM     61  C   UNL     1      13.061 -21.366   4.573  1.00  0.00     0.049 A 
ATOM     62  C   UNL     1      14.905 -16.206   5.710  1.00  0.00     0.074 A 
ATOM     63  C   UNL     1      13.702 -22.413   5.211  1.00  0.00     0.029 A 
ATOM     64  N   UNL     1      13.661 -20.198   5.020  1.00  0.00    -0.354 N 
ATOM     65  N   UNL     1      14.594 -17.469   5.541  1.00  0.00    -0.248 NA
ATOM     66  C   UNL     1      15.944 -15.979   6.726  1.00  0.00     0.031 C 
ATOM     67  C   UNL     1      14.643 -21.876   6.095  1.00  0.00     0.029 A 
ATOM     68  C   UNL     1      14.642 -20.498   5.953  1.00  0.00     0.049 A 
ATOM     69  H   UNL     1      13.426 -19.291   4.719  1.00  0.00     0.167 HD
ATOM     70  C   UNL     1      15.416 -18.186   6.403  1.00  0.00     0.074 A 
ATOM     71  C   UNL     1      16.255 -17.218   7.077  1.00  0.00     0.031 C 
ATOM     72  C   UNL     1      15.471 -19.524   6.618  1.00  0.00     0.037 A 
BRANCH  59  73
ATOM     73  C   UNL     1      11.373 -22.762   3.317  1.00  0.00     0.064 A 
ATOM     74  C   UNL     1      11.517 -23.362   2.057  1.00  0.00     0.173 A 
ATOM     75  C   UNL     1      10.676 -23.474   4.306  1.00  0.00     0.173 A 
ATOM     76  F   UNL     1      12.160 -22.719   1.071  1.00  0.00    -0.203 F 
ATOM     77  C   UNL     1      10.963 -24.613   1.792  1.00  0.00     0.198 A 
ATOM     78  C   UNL     1      10.154 -24.739   4.047  1.00  0.00     0.198 A 
ATOM     79  F   UNL     1      10.512 -22.949   5.529  1.00  0.00    -0.203 F 
ATOM     80  F   UNL     1      11.071 -25.145   0.566  1.00  0.00    -0.200 F 
ATOM     81  C   UNL     1      10.291 -25.303   2.789  1.00  0.00     0.200 A 
ATOM     82  F   UNL     1       9.518 -25.410   5.017  1.00  0.00    -0.200 F 
ATOM     83  F   UNL     1       9.770 -26.512   2.535  1.00  0.00    -0.200 F 
ENDBRANCH  59  73
BRANCH  60  84
ATOM     84  C   UNL     1      14.862 -13.627   5.359  1.00  0.00     0.064 A 
ATOM     85  C   UNL     1      16.186 -13.249   5.093  1.00  0.00     0.173 A 
ATOM     86  C   UNL     1      14.035 -12.691   5.999  1.00  0.00     0.173 A 
ATOM     87  F   UNL     1      17.025 -14.117   4.508  1.00  0.00    -0.203 F 
ATOM     88  C   UNL     1      16.670 -11.999   5.476  1.00  0.00     0.198 A 
ATOM     89  C   UNL     1      14.510 -11.429   6.350  1.00  0.00     0.198 A 
ATOM     90  F   UNL     1      12.761 -13.001   6.281  1.00  0.00    -0.203 F 
ATOM     91  F   UNL     1      17.956 -11.688   5.264  1.00  0.00    -0.200 F 
ATOM     92  C   UNL     1      15.830 -11.088   6.099  1.00  0.00     0.200 A 
ATOM     93  F   UNL     1      13.691 -10.547   6.939  1.00  0.00    -0.200 F 
ATOM     94  F   UNL     1      16.296  -9.887   6.467  1.00  0.00    -0.200 F 
ENDBRANCH  60  84
BRANCH  72  95
ATOM     95  C   UNL     1      16.500 -20.025   7.595  1.00  0.00     0.064 A 
ATOM     96  C   UNL     1      16.405 -19.765   8.971  1.00  0.00     0.173 A 
ATOM     97  C   UNL     1      17.586 -20.795   7.150  1.00  0.00     0.173 A 
ATOM     98  F   UNL     1      15.393 -19.025   9.450  1.00  0.00    -0.203 F 
ATOM     99  C   UNL     1      17.380 -20.219   9.856  1.00  0.00     0.198 A 
ATOM    100  C   UNL     1      18.538 -21.281   8.043  1.00  0.00     0.198 A 
ATOM    101  F   UNL     1      17.722 -21.085   5.847  1.00  0.00    -0.203 F 
ATOM    102  F   UNL     1      17.302 -19.900  11.155  1.00  0.00    -0.200 F 
ATOM    103  C   UNL     1      18.441 -20.981   9.393  1.00  0.00     0.200 A 
ATOM    104  F   UNL     1      19.552 -22.034   7.595  1.00  0.00    -0.200 F 
ATOM    105  F   UNL     1      19.376 -21.419  10.246  1.00  0.00    -0.200 F 
ENDBRANCH  72  95
ENDBRANCH  46  47
ENDBRANCH  39  41
ENDBRANCH  38  39
ENDBRANCH  37  38
ENDBRANCH  36  37
ENDBRANCH  35  36
ENDBRANCH  34  35
ENDBRANCH  33  34
ENDBRANCH  32  33
ENDBRANCH   1  32
TORSDOF 23
