REMARK SMILES CC(C)C[C@H](C(=O)OCCOCCOCCOCCOC(=O)c1ccc(-c2c3nc(c(-c4c(F)c(F)c(F)c(F)c4F)c4ccc([nH]4)c(-c4c(F)c(F)c(F)c(F)c4F)c4nc(c(-c5c(F)c(F)c(F)c(F)c5F)c5ccc2[nH]5)C=C4)C=C3)cc1)N1C(=O)/C(=C2\C(=O)Nc3ccc(Br)cc32)SC1=S
REMARK SMILES IDX 14 1 13 2 12 3 11 4 10 5 9 6 8 7 6 8 7 9 5 10 4 11 2 12 1 13
REMARK SMILES IDX 3 14 86 15 87 16 102 17 88 18 89 19 101 20 103 21 90 22
REMARK SMILES IDX 91 23 100 24 92 25 93 26 94 27 99 28 95 30 97 31 96 32 98 33
REMARK SMILES IDX 15 34 16 35 17 36 18 37 19 38 20 39 21 40 22 41 23 42 24 43
REMARK SMILES IDX 85 44 25 45 84 46 26 47 27 48 28 49 78 50 29 51 83 52 77 53
REMARK SMILES IDX 79 54 30 55 82 56 76 57 75 58 31 60 63 61 43 62 62 63 44 64
REMARK SMILES IDX 47 65 61 66 80 67 45 68 46 69 60 71 81 72 48 73 32 74 33 75
REMARK SMILES IDX 41 76 34 77 35 78 39 79 42 80 36 81 37 82 40 83 38 84 64 85
REMARK SMILES IDX 65 86 73 87 66 88 67 89 71 90 74 91 68 92 69 93 72 94 70 95
REMARK SMILES IDX 49 96 50 97 58 98 51 99 52 100 56 101 59 102 53 103 54 104
REMARK SMILES IDX 57 105 55 106
REMARK H PARENT 93 29 79 59 47 70
REMARK Flexibility Score: inf
ROOT
ATOM      1  O   UNL     1      -2.807   0.099  -3.579  1.00  0.00    -0.377 OA
ENDROOT
BRANCH   1   2
ATOM      2  C   UNL     1      -1.721   0.998  -3.492  1.00  0.00     0.188 C 
BRANCH   2   3
ATOM      3  C   UNL     1      -0.302   0.450  -3.248  1.00  0.00     0.188 C 
BRANCH   3   4
ATOM      4  O   UNL     1      -0.043  -0.892  -3.608  1.00  0.00    -0.376 OA
BRANCH   4   5
ATOM      5  C   UNL     1      -0.387  -1.950  -2.721  1.00  0.00     0.202 C 
BRANCH   5   6
ATOM      6  C   UNL     1      -0.855  -1.721  -1.273  1.00  0.00     0.261 C 
BRANCH   6   7
ATOM      7  O   UNL     1      -1.706  -0.581  -1.082  1.00  0.00    -0.462 OA
BRANCH   7   8
ATOM      8  C   UNL     1      -1.557   0.109   0.086  1.00  0.00     0.329 C 
ATOM      9  O   UNL     1      -0.666  -0.119   0.901  1.00  0.00    -0.250 OA
BRANCH   8  10
ATOM     10  C   UNL     1      -2.465   1.382   0.184  1.00  0.00     0.202 C 
BRANCH  10  11
ATOM     11  C   UNL     1      -1.436   2.516  -0.224  1.00  0.00     0.040 C 
BRANCH  11  12
ATOM     12  C   UNL     1      -1.886   3.966  -0.462  1.00  0.00    -0.015 C 
ATOM     13  C   UNL     1      -1.921   4.733   0.860  1.00  0.00     0.007 C 
ATOM     14  C   UNL     1      -0.962   4.704  -1.442  1.00  0.00     0.007 C 
ENDBRANCH  11  12
ENDBRANCH  10  11
BRANCH  10  15
ATOM     15  N   UNL     1      -3.724   1.325  -0.622  1.00  0.00    -0.278 N 
ATOM     16  C   UNL     1      -4.338   0.096  -0.827  1.00  0.00     0.267 C 
ATOM     17  C   UNL     1      -4.731   2.257  -0.620  1.00  0.00     0.149 C 
ATOM     18  O   UNL     1      -4.180  -0.868  -0.089  1.00  0.00    -0.268 OA
ATOM     19  C   UNL     1      -5.468   0.219  -1.811  1.00  0.00     0.093 C 
ATOM     20  S   UNL     1      -5.833   1.900  -1.945  1.00  0.00    -0.053 SA
ATOM     21  S   UNL     1      -5.137   3.391   0.537  1.00  0.00    -0.052 S 
ATOM     22  C   UNL     1      -6.184  -0.788  -2.327  1.00  0.00     0.069 C 
ATOM     23  C   UNL     1      -5.873  -2.237  -2.063  1.00  0.00     0.257 C 
ATOM     24  C   UNL     1      -7.491  -0.765  -3.017  1.00  0.00     0.013 A 
ATOM     25  O   UNL     1      -4.805  -2.768  -1.844  1.00  0.00    -0.269 OA
ATOM     26  N   UNL     1      -7.074  -2.890  -2.273  1.00  0.00    -0.321 N 
ATOM     27  C   UNL     1      -8.008  -2.058  -2.872  1.00  0.00     0.049 A 
ATOM     28  C   UNL     1      -8.207   0.173  -3.743  1.00  0.00     0.026 A 
ATOM     29  H   UNL     1      -7.244  -3.828  -2.029  1.00  0.00     0.170 HD
ATOM     30  C   UNL     1      -9.241  -2.448  -3.359  1.00  0.00     0.028 A 
ATOM     31  C   UNL     1      -9.448  -0.209  -4.272  1.00  0.00     0.018 A 
ATOM     32  C   UNL     1      -9.975  -1.497  -4.066  1.00  0.00     0.018 A 
ATOM     33  Br  UNL     1     -10.397   1.000  -5.378  1.00  0.00    -0.051 Br
ENDBRANCH  10  15
ENDBRANCH   8  10
ENDBRANCH   7   8
ENDBRANCH   6   7
ENDBRANCH   5   6
ENDBRANCH   4   5
ENDBRANCH   3   4
ENDBRANCH   2   3
ENDBRANCH   1   2
BRANCH   1  34
ATOM     34  C   UNL     1      -2.855  -0.829  -4.654  1.00  0.00     0.188 C 
BRANCH  34  35
ATOM     35  C   UNL     1      -1.992  -0.625  -5.915  1.00  0.00     0.188 C 
BRANCH  35  36
ATOM     36  O   UNL     1      -1.596   0.711  -6.176  1.00  0.00    -0.376 OA
BRANCH  36  37
ATOM     37  C   UNL     1      -2.423   1.507  -7.014  1.00  0.00     0.202 C 
BRANCH  37  38
ATOM     38  C   UNL     1      -3.860   1.759  -6.537  1.00  0.00     0.261 C 
BRANCH  38  39
ATOM     39  O   UNL     1      -4.719   0.607  -6.474  1.00  0.00    -0.460 OA
BRANCH  39  40
ATOM     40  C   UNL     1      -4.817  -0.195  -7.556  1.00  0.00     0.338 C 
ATOM     41  O   UNL     1      -4.314  -0.049  -8.651  1.00  0.00    -0.246 OA
BRANCH  40  42
ATOM     42  C   UNL     1      -5.586  -1.380  -7.139  1.00  0.00     0.060 A 
ATOM     43  C   UNL     1      -4.978  -2.637  -7.012  1.00  0.00     0.016 A 
ATOM     44  C   UNL     1      -6.938  -1.222  -6.872  1.00  0.00     0.016 A 
ATOM     45  C   UNL     1      -5.734  -3.752  -6.622  1.00  0.00     0.010 A 
ATOM     46  C   UNL     1      -7.680  -2.335  -6.489  1.00  0.00     0.010 A 
ATOM     47  C   UNL     1      -7.103  -3.618  -6.374  1.00  0.00    -0.014 A 
BRANCH  47  48
ATOM     48  C   UNL     1      -8.017  -4.778  -6.142  1.00  0.00     0.031 A 
ATOM     49  C   UNL     1      -9.161  -4.981  -7.106  1.00  0.00     0.074 A 
ATOM     50  C   UNL     1      -7.933  -5.575  -5.058  1.00  0.00     0.049 A 
ATOM     51  N   UNL     1     -10.227  -5.733  -6.997  1.00  0.00    -0.248 NA
ATOM     52  C   UNL     1      -9.113  -4.186  -8.344  1.00  0.00     0.031 C 
ATOM     53  C   UNL     1      -6.886  -5.540  -4.040  1.00  0.00     0.029 A 
ATOM     54  N   UNL     1      -8.800  -6.544  -4.602  1.00  0.00    -0.354 N 
ATOM     55  C   UNL     1     -10.976  -5.482  -8.140  1.00  0.00     0.074 A 
ATOM     56  C   UNL     1     -10.305  -4.425  -8.863  1.00  0.00     0.031 C 
ATOM     57  C   UNL     1      -7.209  -6.385  -3.044  1.00  0.00     0.029 A 
ATOM     58  C   UNL     1      -8.483  -7.029  -3.355  1.00  0.00     0.049 A 
ATOM     59  H   UNL     1      -9.575  -6.860  -5.121  1.00  0.00     0.167 HD
ATOM     60  C   UNL     1     -12.085  -6.115  -8.592  1.00  0.00     0.037 A 
ATOM     61  C   UNL     1      -9.149  -7.881  -2.548  1.00  0.00     0.037 A 
ATOM     62  C   UNL     1     -12.716  -7.220  -7.925  1.00  0.00     0.049 A 
ATOM     63  C   UNL     1     -10.414  -8.542  -3.035  1.00  0.00     0.074 A 
ATOM     64  C   UNL     1     -13.776  -7.996  -8.357  1.00  0.00     0.029 A 
ATOM     65  N   UNL     1     -12.336  -7.713  -6.688  1.00  0.00    -0.354 N 
ATOM     66  N   UNL     1     -11.066  -8.358  -4.157  1.00  0.00    -0.248 NA
ATOM     67  C   UNL     1     -11.010  -9.565  -2.161  1.00  0.00     0.031 C 
ATOM     68  C   UNL     1     -14.065  -8.934  -7.362  1.00  0.00     0.029 A 
ATOM     69  C   UNL     1     -13.152  -8.774  -6.333  1.00  0.00     0.049 A 
ATOM     70  H   UNL     1     -11.596  -7.361  -6.141  1.00  0.00     0.167 HD
ATOM     71  C   UNL     1     -12.099  -9.290  -4.156  1.00  0.00     0.074 A 
ATOM     72  C   UNL     1     -12.000 -10.024  -2.914  1.00  0.00     0.031 C 
ATOM     73  C   UNL     1     -13.030  -9.527  -5.112  1.00  0.00     0.037 A 
BRANCH  60  74
ATOM     74  C   UNL     1     -12.652  -5.655  -9.905  1.00  0.00     0.064 A 
ATOM     75  C   UNL     1     -11.949  -5.830 -11.109  1.00  0.00     0.173 A 
ATOM     76  C   UNL     1     -13.915  -5.051  -9.966  1.00  0.00     0.173 A 
ATOM     77  F   UNL     1     -10.732  -6.395 -11.104  1.00  0.00    -0.203 F 
ATOM     78  C   UNL     1     -12.467  -5.371 -12.315  1.00  0.00     0.198 A 
ATOM     79  C   UNL     1     -14.449  -4.631 -11.182  1.00  0.00     0.198 A 
ATOM     80  F   UNL     1     -14.634  -4.869  -8.848  1.00  0.00    -0.203 F 
ATOM     81  F   UNL     1     -11.744  -5.483 -13.438  1.00  0.00    -0.200 F 
ATOM     82  C   UNL     1     -13.720  -4.779 -12.352  1.00  0.00     0.200 A 
ATOM     83  F   UNL     1     -15.668  -4.074 -11.220  1.00  0.00    -0.200 F 
ATOM     84  F   UNL     1     -14.220  -4.342 -13.516  1.00  0.00    -0.200 F 
ENDBRANCH  60  74
BRANCH  61  85
ATOM     85  C   UNL     1      -8.619  -8.201  -1.196  1.00  0.00     0.064 A 
ATOM     86  C   UNL     1      -8.059  -9.457  -0.920  1.00  0.00     0.173 A 
ATOM     87  C   UNL     1      -8.712  -7.282  -0.141  1.00  0.00     0.173 A 
ATOM     88  F   UNL     1      -7.976 -10.377  -1.892  1.00  0.00    -0.203 F 
ATOM     89  C   UNL     1      -7.644  -9.794   0.366  1.00  0.00     0.198 A 
ATOM     90  C   UNL     1      -8.276  -7.614   1.142  1.00  0.00     0.198 A 
ATOM     91  F   UNL     1      -9.237  -6.066  -0.355  1.00  0.00    -0.203 F 
ATOM     92  F   UNL     1      -7.168 -11.023   0.612  1.00  0.00    -0.200 F 
ATOM     93  C   UNL     1      -7.752  -8.873   1.396  1.00  0.00     0.200 A 
ATOM     94  F   UNL     1      -8.382  -6.721   2.135  1.00  0.00    -0.200 F 
ATOM     95  F   UNL     1      -7.366  -9.204   2.636  1.00  0.00    -0.200 F 
ENDBRANCH  61  85
BRANCH  73  96
ATOM     96  C   UNL     1     -13.973 -10.679  -4.906  1.00  0.00     0.064 A 
ATOM     97  C   UNL     1     -14.995 -10.644  -3.946  1.00  0.00     0.173 A 
ATOM     98  C   UNL     1     -13.883 -11.816  -5.725  1.00  0.00     0.173 A 
ATOM     99  F   UNL     1     -15.116  -9.587  -3.129  1.00  0.00    -0.203 F 
ATOM    100  C   UNL     1     -15.876 -11.712  -3.800  1.00  0.00     0.198 A 
ATOM    101  C   UNL     1     -14.786 -12.868  -5.598  1.00  0.00     0.198 A 
ATOM    102  F   UNL     1     -12.929 -11.899  -6.665  1.00  0.00    -0.203 F 
ATOM    103  F   UNL     1     -16.817 -11.676  -2.846  1.00  0.00    -0.200 F 
ATOM    104  C   UNL     1     -15.777 -12.818  -4.631  1.00  0.00     0.200 A 
ATOM    105  F   UNL     1     -14.698 -13.927  -6.415  1.00  0.00    -0.200 F 
ATOM    106  F   UNL     1     -16.636 -13.839  -4.497  1.00  0.00    -0.200 F 
ENDBRANCH  73  96
ENDBRANCH  47  48
ENDBRANCH  40  42
ENDBRANCH  39  40
ENDBRANCH  38  39
ENDBRANCH  37  38
ENDBRANCH  36  37
ENDBRANCH  35  36
ENDBRANCH  34  35
ENDBRANCH   1  34
TORSDOF 23
