REMARK SMILES C[C@@H]1C[N@@H+](Cc2cccc(C(=O)OCCOCCOCCOCCOC(=O)c3ccc(-c4c5nc(c(-c6c(F)c(F)c(F)c(F)c6F)c6ccc([nH]6)c(-c6c(F)c(F)c(F)c(F)c6F)c6nc(c(-c7c(F)c(F)c(F)c(F)c7F)c7ccc4[nH]7)C=C6)C=C5)cc3)c2)CCN1C(=O)OC(C)(C)C
REMARK SMILES IDX 17 1 16 2 15 3 14 4 13 5 11 6 12 7 10 8 6 9 7 10 91 11 8 12
REMARK SMILES IDX 9 13 5 14 4 15 1 16 2 17 3 18 94 19 93 20 92 21 95 23 96 24
REMARK SMILES IDX 97 25 98 26 99 27 100 28 101 29 18 30 19 31 20 32 21 33
REMARK SMILES IDX 22 34 23 35 24 36 25 37 26 38 27 39 28 40 29 41 90 42 30 43
REMARK SMILES IDX 89 44 31 45 32 46 33 47 83 48 34 49 88 50 82 51 84 52 35 53
REMARK SMILES IDX 87 54 81 55 80 56 36 58 68 59 48 60 67 61 49 62 52 63 66 64
REMARK SMILES IDX 85 65 50 66 51 67 65 69 86 70 53 71 37 72 38 73 46 74 39 75
REMARK SMILES IDX 40 76 44 77 47 78 41 79 42 80 45 81 43 82 69 83 70 84 78 85
REMARK SMILES IDX 71 86 72 87 76 88 79 89 73 90 74 91 77 92 75 93 54 94 55 95
REMARK SMILES IDX 63 96 56 97 57 98 61 99 64 100 58 101 59 102 62 103 60 104
REMARK H PARENT 4 22 84 57 52 68
REMARK Flexibility Score: inf
ROOT
ATOM      1  C   UNL     1      -5.465  -6.312   2.820  1.00  0.00     0.188 C 
ENDROOT
BRANCH   1   2
ATOM      2  O   UNL     1      -6.651  -5.551   2.990  1.00  0.00    -0.376 OA
BRANCH   2   3
ATOM      3  C   UNL     1      -6.620  -4.330   3.706  1.00  0.00     0.202 C 
BRANCH   3   4
ATOM      4  C   UNL     1      -5.667  -3.208   3.278  1.00  0.00     0.261 C 
BRANCH   4   5
ATOM      5  O   UNL     1      -4.368  -3.627   2.869  1.00  0.00    -0.460 OA
BRANCH   5   6
ATOM      6  C   UNL     1      -3.498  -4.064   3.805  1.00  0.00     0.338 C 
ATOM      7  O   UNL     1      -3.678  -4.093   5.008  1.00  0.00    -0.246 OA
BRANCH   6   8
ATOM      8  C   UNL     1      -2.327  -4.647   3.094  1.00  0.00     0.060 A 
ATOM      9  C   UNL     1      -0.836  -4.586   1.161  1.00  0.00     0.007 A 
ATOM     10  C   UNL     1      -0.066  -5.591   1.754  1.00  0.00     0.009 A 
ATOM     11  C   UNL     1      -2.030  -4.241   1.792  1.00  0.00     0.025 A 
ATOM     12  C   UNL     1      -0.440  -6.138   2.991  1.00  0.00     0.001 A 
ATOM     13  C   UNL     1      -1.539  -5.627   3.689  1.00  0.00     0.016 A 
BRANCH   9  14
ATOM     14  C   UNL     1      -0.398  -3.848  -0.093  1.00  0.00     0.299 C 
BRANCH  14  15
ATOM     15  N   UNL     1      -0.299  -2.367   0.006  1.00  0.00    -0.328 N 
ATOM     16  C   UNL     1       1.477   0.268   0.197  1.00  0.00     0.037 C 
ATOM     17  C   UNL     1       0.621  -0.364   1.298  1.00  0.00     0.140 C 
ATOM     18  C   UNL     1       0.540  -1.915   1.144  1.00  0.00     0.287 C 
ATOM     19  N   UNL     1      -0.743   0.191   1.290  1.00  0.00    -0.294 N 
ATOM     20  C   UNL     1      -1.519  -0.145   0.099  1.00  0.00     0.185 C 
ATOM     21  C   UNL     1      -1.605  -1.672  -0.023  1.00  0.00     0.284 C 
ATOM     22  H   UNL     1       0.184  -2.090  -0.849  1.00  0.00     0.348 HD
BRANCH  19  23
ATOM     23  C   UNL     1      -1.401   0.672   2.411  1.00  0.00     0.410 C 
ATOM     24  O   UNL     1      -2.607   0.893   2.432  1.00  0.00    -0.224 OA
BRANCH  23  25
ATOM     25  O   UNL     1      -0.570   0.890   3.466  1.00  0.00    -0.444 OA
BRANCH  25  26
ATOM     26  C   UNL     1      -1.067   1.533   4.674  1.00  0.00     0.106 C 
ATOM     27  C   UNL     1      -1.623   2.931   4.369  1.00  0.00     0.056 C 
ATOM     28  C   UNL     1      -2.092   0.659   5.408  1.00  0.00     0.056 C 
ATOM     29  C   UNL     1       0.162   1.698   5.583  1.00  0.00     0.056 C 
ENDBRANCH  25  26
ENDBRANCH  23  25
ENDBRANCH  19  23
ENDBRANCH  14  15
ENDBRANCH   9  14
ENDBRANCH   6   8
ENDBRANCH   5   6
ENDBRANCH   4   5
ENDBRANCH   3   4
ENDBRANCH   2   3
ENDBRANCH   1   2
BRANCH   1  30
ATOM     30  C   UNL     1      -4.907  -6.252   1.383  1.00  0.00     0.188 C 
BRANCH  30  31
ATOM     31  O   UNL     1      -5.404  -5.212   0.554  1.00  0.00    -0.377 OA
BRANCH  31  32
ATOM     32  C   UNL     1      -6.798  -5.182   0.242  1.00  0.00     0.188 C 
BRANCH  32  33
ATOM     33  C   UNL     1      -7.773  -6.325   0.628  1.00  0.00     0.188 C 
BRANCH  33  34
ATOM     34  O   UNL     1      -7.163  -7.572   0.911  1.00  0.00    -0.376 OA
BRANCH  34  35
ATOM     35  C   UNL     1      -7.258  -8.604  -0.054  1.00  0.00     0.202 C 
BRANCH  35  36
ATOM     36  C   UNL     1      -6.607  -8.341  -1.417  1.00  0.00     0.261 C 
BRANCH  36  37
ATOM     37  O   UNL     1      -7.037  -7.153  -2.101  1.00  0.00    -0.460 OA
BRANCH  37  38
ATOM     38  C   UNL     1      -8.332  -7.091  -2.494  1.00  0.00     0.338 C 
ATOM     39  O   UNL     1      -9.188  -7.933  -2.354  1.00  0.00    -0.246 OA
BRANCH  38  40
ATOM     40  C   UNL     1      -8.566  -5.708  -2.968  1.00  0.00     0.060 A 
ATOM     41  C   UNL     1      -9.450  -4.878  -2.265  1.00  0.00     0.016 A 
ATOM     42  C   UNL     1      -7.873  -5.224  -4.079  1.00  0.00     0.016 A 
ATOM     43  C   UNL     1      -9.636  -3.554  -2.669  1.00  0.00     0.010 A 
ATOM     44  C   UNL     1      -8.084  -3.909  -4.499  1.00  0.00     0.010 A 
ATOM     45  C   UNL     1      -8.974  -3.070  -3.804  1.00  0.00    -0.014 A 
BRANCH  45  46
ATOM     46  C   UNL     1      -9.295  -1.732  -4.354  1.00  0.00     0.031 A 
ATOM     47  C   UNL     1     -10.250  -1.638  -5.509  1.00  0.00     0.074 A 
ATOM     48  C   UNL     1      -8.721  -0.621  -3.857  1.00  0.00     0.049 A 
ATOM     49  N   UNL     1     -10.575  -0.602  -6.239  1.00  0.00    -0.248 NA
ATOM     50  C   UNL     1     -10.929  -2.885  -5.895  1.00  0.00     0.031 C 
ATOM     51  C   UNL     1      -7.814  -0.579  -2.712  1.00  0.00     0.029 A 
ATOM     52  N   UNL     1      -8.799   0.685  -4.276  1.00  0.00    -0.354 N 
ATOM     53  C   UNL     1     -11.481  -1.074  -7.178  1.00  0.00     0.074 A 
ATOM     54  C   UNL     1     -11.645  -2.492  -6.938  1.00  0.00     0.031 C 
ATOM     55  C   UNL     1      -7.394   0.686  -2.537  1.00  0.00     0.029 A 
ATOM     56  C   UNL     1      -7.965   1.532  -3.585  1.00  0.00     0.049 A 
ATOM     57  H   UNL     1      -9.394   0.986  -5.000  1.00  0.00     0.167 HD
ATOM     58  C   UNL     1     -12.117  -0.384  -8.154  1.00  0.00     0.037 A 
ATOM     59  C   UNL     1      -7.665   2.828  -3.805  1.00  0.00     0.037 A 
ATOM     60  C   UNL     1     -11.949   1.027  -8.387  1.00  0.00     0.049 A 
ATOM     61  C   UNL     1      -8.322   3.553  -4.956  1.00  0.00     0.074 A 
ATOM     62  C   UNL     1     -12.579   1.825  -9.325  1.00  0.00     0.029 A 
ATOM     63  N   UNL     1     -11.078   1.846  -7.684  1.00  0.00    -0.354 N 
ATOM     64  N   UNL     1      -9.207   3.113  -5.817  1.00  0.00    -0.248 NA
ATOM     65  C   UNL     1      -7.932   4.955  -5.168  1.00  0.00     0.031 C 
ATOM     66  C   UNL     1     -12.038   3.111  -9.239  1.00  0.00     0.029 A 
ATOM     67  C   UNL     1     -11.121   3.132  -8.200  1.00  0.00     0.049 A 
ATOM     68  H   UNL     1     -10.514   1.558  -6.931  1.00  0.00     0.167 HD
ATOM     69  C   UNL     1      -9.495   4.185  -6.654  1.00  0.00     0.074 A 
ATOM     70  C   UNL     1      -8.709   5.304  -6.184  1.00  0.00     0.031 C 
ATOM     71  C   UNL     1     -10.332   4.237  -7.720  1.00  0.00     0.037 A 
BRANCH  58  72
ATOM     72  C   UNL     1     -13.027  -1.144  -9.073  1.00  0.00     0.064 A 
ATOM     73  C   UNL     1     -14.264  -1.645  -8.645  1.00  0.00     0.173 A 
ATOM     74  C   UNL     1     -12.680  -1.316 -10.422  1.00  0.00     0.173 A 
ATOM     75  F   UNL     1     -14.637  -1.518  -7.363  1.00  0.00    -0.203 F 
ATOM     76  C   UNL     1     -15.115  -2.303  -9.530  1.00  0.00     0.198 A 
ATOM     77  C   UNL     1     -13.545  -1.947 -11.311  1.00  0.00     0.198 A 
ATOM     78  F   UNL     1     -11.508  -0.854 -10.884  1.00  0.00    -0.203 F 
ATOM     79  F   UNL     1     -16.277  -2.805  -9.092  1.00  0.00    -0.200 F 
ATOM     80  C   UNL     1     -14.759  -2.444 -10.864  1.00  0.00     0.200 A 
ATOM     81  F   UNL     1     -13.206  -2.069 -12.602  1.00  0.00    -0.200 F 
ATOM     82  F   UNL     1     -15.587  -3.062 -11.718  1.00  0.00    -0.200 F 
ENDBRANCH  58  72
BRANCH  59  83
ATOM     83  C   UNL     1      -6.657   3.519  -2.955  1.00  0.00     0.064 A 
ATOM     84  C   UNL     1      -7.013   4.599  -2.136  1.00  0.00     0.173 A 
ATOM     85  C   UNL     1      -5.304   3.145  -2.982  1.00  0.00     0.173 A 
ATOM     86  F   UNL     1      -8.287   5.017  -2.097  1.00  0.00    -0.203 F 
ATOM     87  C   UNL     1      -6.054   5.296  -1.402  1.00  0.00     0.198 A 
ATOM     88  C   UNL     1      -4.351   3.819  -2.220  1.00  0.00     0.198 A 
ATOM     89  F   UNL     1      -4.904   2.124  -3.755  1.00  0.00    -0.203 F 
ATOM     90  F   UNL     1      -6.414   6.368  -0.683  1.00  0.00    -0.200 F 
ATOM     91  C   UNL     1      -4.725   4.902  -1.441  1.00  0.00     0.200 A 
ATOM     92  F   UNL     1      -3.070   3.428  -2.256  1.00  0.00    -0.200 F 
ATOM     93  F   UNL     1      -3.803   5.579  -0.744  1.00  0.00    -0.200 F 
ENDBRANCH  59  83
BRANCH  71  94
ATOM     94  C   UNL     1     -10.461   5.551  -8.440  1.00  0.00     0.064 A 
ATOM     95  C   UNL     1      -9.418   6.065  -9.225  1.00  0.00     0.173 A 
ATOM     96  C   UNL     1     -11.661   6.277  -8.389  1.00  0.00     0.173 A 
ATOM     97  F   UNL     1      -8.246   5.418  -9.299  1.00  0.00    -0.203 F 
ATOM     98  C   UNL     1      -9.564   7.269  -9.912  1.00  0.00     0.198 A 
ATOM     99  C   UNL     1     -11.816   7.461  -9.104  1.00  0.00     0.198 A 
ATOM    100  F   UNL     1     -12.694   5.826  -7.662  1.00  0.00    -0.203 F 
ATOM    101  F   UNL     1      -8.537   7.764 -10.617  1.00  0.00    -0.200 F 
ATOM    102  C   UNL     1     -10.765   7.960  -9.859  1.00  0.00     0.200 A 
ATOM    103  F   UNL     1     -12.984   8.118  -9.067  1.00  0.00    -0.200 F 
ATOM    104  F   UNL     1     -10.908   9.111 -10.531  1.00  0.00    -0.200 F 
ENDBRANCH  71  94
ENDBRANCH  45  46
ENDBRANCH  38  40
ENDBRANCH  37  38
ENDBRANCH  36  37
ENDBRANCH  35  36
ENDBRANCH  34  35
ENDBRANCH  33  34
ENDBRANCH  32  33
ENDBRANCH  31  32
ENDBRANCH  30  31
ENDBRANCH   1  30
TORSDOF 25
