REMARK SMILES C[C@@H](C(=O)OCCOCCOCCOCCOC(=O)c1ccc(-c2c3nc(c(-c4c(F)c(F)c(F)c(F)c4F)c4ccc([nH]4)c(-c4c(F)c(F)c(F)c(F)c4F)c4nc(c(-c5c(F)c(F)c(F)c(F)c5F)c5ccc2[nH]5)C=C4)C=C3)cc1)c1ccc(-c2cccc(OC(=O)NC3CC3)c2)c(F)c1
REMARK SMILES IDX 9 1 8 2 7 3 6 4 5 5 3 6 4 7 2 8 1 9 83 10 84 11 102 12 85 13
REMARK SMILES IDX 100 14 86 15 101 16 87 17 88 18 99 19 89 20 91 21 90 22
REMARK SMILES IDX 92 23 93 24 94 25 95 26 96 28 97 29 98 30 10 31 11 32 12 33
REMARK SMILES IDX 13 34 14 35 15 36 16 37 17 38 18 39 19 40 20 41 21 42 82 43
REMARK SMILES IDX 22 44 81 45 23 46 24 47 25 48 75 49 26 50 80 51 74 52 76 53
REMARK SMILES IDX 27 54 79 55 73 56 72 57 28 59 60 60 40 61 59 62 41 63 44 64
REMARK SMILES IDX 58 65 77 66 42 67 43 68 57 70 78 71 45 72 29 73 30 74 38 75
REMARK SMILES IDX 31 76 32 77 36 78 39 79 33 80 34 81 37 82 35 83 61 84 62 85
REMARK SMILES IDX 70 86 63 87 64 88 68 89 71 90 65 91 66 92 69 93 67 94 46 95
REMARK SMILES IDX 47 96 55 97 48 98 49 99 53 100 56 101 50 102 51 103 54 104
REMARK SMILES IDX 52 105
REMARK H PARENT 95 27 76 58 44 69
REMARK Flexibility Score: inf
ROOT
ATOM      1  C   UNL     1       0.117   1.861  -3.150  1.00  0.00     0.188 C 
ENDROOT
BRANCH   1   2
ATOM      2  O   UNL     1       0.807   2.731  -4.024  1.00  0.00    -0.376 OA
BRANCH   2   3
ATOM      3  C   UNL     1       1.955   3.451  -3.601  1.00  0.00     0.202 C 
BRANCH   3   4
ATOM      4  C   UNL     1       2.469   3.571  -2.150  1.00  0.00     0.261 C 
BRANCH   4   5
ATOM      5  O   UNL     1       1.971   2.621  -1.204  1.00  0.00    -0.463 OA
BRANCH   5   6
ATOM      6  C   UNL     1       1.278   3.103  -0.146  1.00  0.00     0.313 C 
ATOM      7  O   UNL     1       1.105   4.298   0.072  1.00  0.00    -0.252 OA
BRANCH   6   8
ATOM      8  C   UNL     1       0.643   1.995   0.709  1.00  0.00     0.126 C 
ATOM      9  C   UNL     1       1.521   0.738   0.830  1.00  0.00     0.025 C 
BRANCH   8  10
ATOM     10  C   UNL     1      -0.843   1.789   0.391  1.00  0.00    -0.031 A 
ATOM     11  C   UNL     1      -1.679   2.918   0.315  1.00  0.00     0.005 A 
ATOM     12  C   UNL     1      -1.450   0.535   0.225  1.00  0.00     0.044 A 
ATOM     13  C   UNL     1      -3.057   2.806   0.113  1.00  0.00     0.012 A 
ATOM     14  C   UNL     1      -2.834   0.428   0.028  1.00  0.00     0.131 A 
ATOM     15  C   UNL     1      -3.668   1.553   0.002  1.00  0.00     0.018 A 
ATOM     16  F   UNL     1      -3.361  -0.801  -0.093  1.00  0.00    -0.206 F 
BRANCH  15  17
ATOM     17  C   UNL     1      -5.134   1.460   0.046  1.00  0.00    -0.012 A 
ATOM     18  C   UNL     1      -5.961   2.116  -0.879  1.00  0.00     0.009 A 
ATOM     19  C   UNL     1      -5.736   0.809   1.137  1.00  0.00     0.056 A 
ATOM     20  C   UNL     1      -7.350   2.134  -0.708  1.00  0.00     0.004 A 
ATOM     21  C   UNL     1      -7.115   0.843   1.316  1.00  0.00     0.133 A 
ATOM     22  C   UNL     1      -7.927   1.506   0.396  1.00  0.00     0.047 A 
BRANCH  21  23
ATOM     23  O   UNL     1      -7.787   0.267   2.422  1.00  0.00    -0.410 OA
BRANCH  23  24
ATOM     24  C   UNL     1      -7.210  -0.510   3.424  1.00  0.00     0.412 C 
ATOM     25  O   UNL     1      -6.020  -0.781   3.539  1.00  0.00    -0.224 OA
ATOM     26  N   UNL     1      -8.106  -1.006   4.335  1.00  0.00    -0.318 N 
ATOM     27  H   UNL     1      -7.718  -1.605   5.013  1.00  0.00     0.167 HD
BRANCH  26  28
ATOM     28  C   UNL     1      -9.507  -0.791   4.457  1.00  0.00     0.085 C 
ATOM     29  C   UNL     1     -10.468  -0.411   3.368  1.00  0.00     0.027 C 
ATOM     30  C   UNL     1     -10.442  -1.820   3.873  1.00  0.00     0.027 C 
ENDBRANCH  26  28
ENDBRANCH  23  24
ENDBRANCH  21  23
ENDBRANCH  15  17
ENDBRANCH   8  10
ENDBRANCH   6   8
ENDBRANCH   5   6
ENDBRANCH   4   5
ENDBRANCH   3   4
ENDBRANCH   2   3
ENDBRANCH   1   2
BRANCH   1  31
ATOM     31  C   UNL     1       0.809   0.551  -2.744  1.00  0.00     0.188 C 
BRANCH  31  32
ATOM     32  O   UNL     1       2.223   0.573  -2.788  1.00  0.00    -0.377 OA
BRANCH  32  33
ATOM     33  C   UNL     1       2.868   0.273  -4.018  1.00  0.00     0.188 C 
BRANCH  33  34
ATOM     34  C   UNL     1       2.096   0.319  -5.353  1.00  0.00     0.188 C 
BRANCH  34  35
ATOM     35  O   UNL     1       0.777  -0.200  -5.301  1.00  0.00    -0.376 OA
BRANCH  35  36
ATOM     36  C   UNL     1       0.551  -1.540  -5.709  1.00  0.00     0.202 C 
BRANCH  36  37
ATOM     37  C   UNL     1       1.212  -2.657  -4.885  1.00  0.00     0.261 C 
BRANCH  37  38
ATOM     38  O   UNL     1       2.646  -2.626  -4.804  1.00  0.00    -0.460 OA
BRANCH  38  39
ATOM     39  C   UNL     1       3.345  -2.675  -5.960  1.00  0.00     0.338 C 
ATOM     40  O   UNL     1       2.906  -2.808  -7.082  1.00  0.00    -0.246 OA
BRANCH  39  41
ATOM     41  C   UNL     1       4.752  -2.339  -5.646  1.00  0.00     0.060 A 
ATOM     42  C   UNL     1       5.332  -1.220  -6.256  1.00  0.00     0.016 A 
ATOM     43  C   UNL     1       5.492  -3.124  -4.759  1.00  0.00     0.016 A 
ATOM     44  C   UNL     1       6.670  -0.906  -6.013  1.00  0.00     0.010 A 
ATOM     45  C   UNL     1       6.838  -2.822  -4.534  1.00  0.00     0.010 A 
ATOM     46  C   UNL     1       7.442  -1.734  -5.189  1.00  0.00    -0.014 A 
BRANCH  46  47
ATOM     47  C   UNL     1       8.919  -1.589  -5.180  1.00  0.00     0.031 A 
ATOM     48  C   UNL     1       9.730  -2.516  -6.043  1.00  0.00     0.074 A 
ATOM     49  C   UNL     1       9.530  -0.643  -4.445  1.00  0.00     0.049 A 
ATOM     50  N   UNL     1      11.029  -2.627  -6.160  1.00  0.00    -0.248 NA
ATOM     51  C   UNL     1       8.968  -3.447  -6.891  1.00  0.00     0.031 C 
ATOM     52  C   UNL     1       8.855   0.343  -3.606  1.00  0.00     0.029 A 
ATOM     53  N   UNL     1      10.866  -0.370  -4.281  1.00  0.00    -0.354 N 
ATOM     54  C   UNL     1      11.237  -3.642  -7.085  1.00  0.00     0.074 A 
ATOM     55  C   UNL     1       9.936  -4.139  -7.472  1.00  0.00     0.031 C 
ATOM     56  C   UNL     1       9.783   1.105  -3.000  1.00  0.00     0.029 A 
ATOM     57  C   UNL     1      11.115   0.635  -3.380  1.00  0.00     0.049 A 
ATOM     58  H   UNL     1      11.578  -0.850  -4.763  1.00  0.00     0.167 HD
ATOM     59  C   UNL     1      12.409  -4.110  -7.576  1.00  0.00     0.037 A 
ATOM     60  C   UNL     1      12.285   1.099  -2.897  1.00  0.00     0.037 A 
ATOM     61  C   UNL     1      13.703  -3.618  -7.184  1.00  0.00     0.049 A 
ATOM     62  C   UNL     1      13.579   0.502  -3.393  1.00  0.00     0.074 A 
ATOM     63  C   UNL     1      14.950  -4.020  -7.627  1.00  0.00     0.029 A 
ATOM     64  N   UNL     1      13.916  -2.619  -6.244  1.00  0.00    -0.354 N 
ATOM     65  N   UNL     1      13.771  -0.443  -4.282  1.00  0.00    -0.248 NA
ATOM     66  C   UNL     1      14.822   1.042  -2.821  1.00  0.00     0.031 C 
ATOM     67  C   UNL     1      15.919  -3.310  -6.910  1.00  0.00     0.029 A 
ATOM     68  C   UNL     1      15.275  -2.413  -6.073  1.00  0.00     0.049 A 
ATOM     69  H   UNL     1      13.206  -2.129  -5.769  1.00  0.00     0.167 HD
ATOM     70  C   UNL     1      15.149  -0.587  -4.400  1.00  0.00     0.074 A 
ATOM     71  C   UNL     1      15.745   0.379  -3.501  1.00  0.00     0.031 C 
ATOM     72  C   UNL     1      15.856  -1.440  -5.182  1.00  0.00     0.037 A 
BRANCH  59  73
ATOM     73  C   UNL     1      12.345  -5.234  -8.570  1.00  0.00     0.064 A 
ATOM     74  C   UNL     1      11.840  -5.048  -9.867  1.00  0.00     0.173 A 
ATOM     75  C   UNL     1      12.819  -6.510  -8.229  1.00  0.00     0.173 A 
ATOM     76  F   UNL     1      11.360  -3.853 -10.240  1.00  0.00    -0.203 F 
ATOM     77  C   UNL     1      11.786  -6.104 -10.773  1.00  0.00     0.198 A 
ATOM     78  C   UNL     1      12.795  -7.555  -9.149  1.00  0.00     0.198 A 
ATOM     79  F   UNL     1      13.314  -6.743  -7.004  1.00  0.00    -0.203 F 
ATOM     80  F   UNL     1      11.250  -5.916 -11.987  1.00  0.00    -0.200 F 
ATOM     81  C   UNL     1      12.271  -7.354 -10.417  1.00  0.00     0.200 A 
ATOM     82  F   UNL     1      13.278  -8.757  -8.807  1.00  0.00    -0.200 F 
ATOM     83  F   UNL     1      12.226  -8.367 -11.293  1.00  0.00    -0.200 F 
ENDBRANCH  59  73
BRANCH  60  84
ATOM     84  C   UNL     1      12.293   2.173  -1.866  1.00  0.00     0.064 A 
ATOM     85  C   UNL     1      12.818   3.443  -2.143  1.00  0.00     0.173 A 
ATOM     86  C   UNL     1      11.803   1.941  -0.572  1.00  0.00     0.173 A 
ATOM     87  F   UNL     1      13.325   3.708  -3.356  1.00  0.00    -0.203 F 
ATOM     88  C   UNL     1      12.874   4.430  -1.160  1.00  0.00     0.198 A 
ATOM     89  C   UNL     1      11.828   2.939   0.400  1.00  0.00     0.198 A 
ATOM     90  F   UNL     1      11.293   0.743  -0.252  1.00  0.00    -0.203 F 
ATOM     91  F   UNL     1      13.434   5.616  -1.436  1.00  0.00    -0.200 F 
ATOM     92  C   UNL     1      12.373   4.180   0.108  1.00  0.00     0.200 A 
ATOM     93  F   UNL     1      11.330   2.696   1.620  1.00  0.00    -0.200 F 
ATOM     94  F   UNL     1      12.425   5.130   1.052  1.00  0.00    -0.200 F 
ENDBRANCH  60  84
BRANCH  72  95
ATOM     95  C   UNL     1      17.356  -1.340  -5.142  1.00  0.00     0.064 A 
ATOM     96  C   UNL     1      18.098  -1.734  -4.018  1.00  0.00     0.173 A 
ATOM     97  C   UNL     1      18.065  -0.884  -6.266  1.00  0.00     0.173 A 
ATOM     98  F   UNL     1      17.471  -2.167  -2.914  1.00  0.00    -0.203 F 
ATOM     99  C   UNL     1      19.488  -1.647  -4.010  1.00  0.00     0.198 A 
ATOM    100  C   UNL     1      19.456  -0.833  -6.267  1.00  0.00     0.198 A 
ATOM    101  F   UNL     1      17.407  -0.503  -7.371  1.00  0.00    -0.203 F 
ATOM    102  F   UNL     1      20.172  -1.978  -2.906  1.00  0.00    -0.200 F 
ATOM    103  C   UNL     1      20.166  -1.205  -5.137  1.00  0.00     0.200 A 
ATOM    104  F   UNL     1      20.109  -0.423  -7.364  1.00  0.00    -0.200 F 
ATOM    105  F   UNL     1      21.504  -1.131  -5.130  1.00  0.00    -0.200 F 
ENDBRANCH  72  95
ENDBRANCH  46  47
ENDBRANCH  39  41
ENDBRANCH  38  39
ENDBRANCH  37  38
ENDBRANCH  36  37
ENDBRANCH  35  36
ENDBRANCH  34  35
ENDBRANCH  33  34
ENDBRANCH  32  33
ENDBRANCH  31  32
ENDBRANCH   1  31
TORSDOF 25
