REMARK SMILES CCN1C(=O)C[C@@H](C(=O)Nc2cccc(C(=O)OCCOCCOCCOCCOC(=O)c3ccc(-c4c5nc(c(-c6c(F)c(F)c(F)c(F)c6F)c6ccc([nH]6)c(-c6c(F)c(F)c(F)c(F)c6F)c6nc(c(-c7c(F)c(F)c(F)c(F)c7F)c7ccc4[nH]7)C=C6)C=C5)cc3)c2)S/C1=[NH+]/c1ccccc1
REMARK SMILES IDX 23 1 22 2 21 3 20 4 19 5 18 6 16 7 17 8 15 9 11 10 12 11
REMARK SMILES IDX 96 12 13 13 14 14 10 15 8 16 9 17 7 19 3 20 4 21 98 22 5 23
REMARK SMILES IDX 6 24 97 25 99 26 2 28 1 29 100 30 101 31 105 32 102 33
REMARK SMILES IDX 104 34 103 35 24 36 25 37 26 38 27 39 28 40 29 41 30 42
REMARK SMILES IDX 31 43 32 44 33 45 34 46 95 47 35 48 94 49 36 50 37 51 38 52
REMARK SMILES IDX 88 53 39 54 93 55 87 56 89 57 40 58 92 59 86 60 85 61 41 63
REMARK SMILES IDX 73 64 53 65 72 66 54 67 57 68 71 69 90 70 55 71 56 72 70 74
REMARK SMILES IDX 91 75 58 76 42 77 43 78 51 79 44 80 45 81 49 82 52 83 46 84
REMARK SMILES IDX 47 85 50 86 48 87 74 88 75 89 83 90 76 91 77 92 81 93 84 94
REMARK SMILES IDX 78 95 79 96 82 97 80 98 59 99 60 100 68 101 61 102 62 103
REMARK SMILES IDX 66 104 69 105 63 106 64 107 67 108 65 109
REMARK H PARENT 10 18 99 27 89 62 57 73
REMARK Flexibility Score: inf
ROOT
ATOM      1  C   UNL     1      -4.304  -1.718  -3.938  1.00  0.00     0.188 C 
ENDROOT
BRANCH   1   2
ATOM      2  C   UNL     1      -4.647  -0.417  -3.183  1.00  0.00     0.188 C 
BRANCH   2   3
ATOM      3  O   UNL     1      -4.294   0.759  -3.892  1.00  0.00    -0.376 OA
BRANCH   3   4
ATOM      4  C   UNL     1      -3.033   1.373  -3.700  1.00  0.00     0.202 C 
BRANCH   4   5
ATOM      5  C   UNL     1      -1.727   0.579  -3.578  1.00  0.00     0.261 C 
BRANCH   5   6
ATOM      6  O   UNL     1      -1.772  -0.673  -2.891  1.00  0.00    -0.460 OA
BRANCH   6   7
ATOM      7  C   UNL     1      -1.984  -0.714  -1.563  1.00  0.00     0.338 C 
ATOM      8  O   UNL     1      -2.094   0.234  -0.809  1.00  0.00    -0.246 OA
BRANCH   7   9
ATOM      9  C   UNL     1      -2.171  -2.143  -1.189  1.00  0.00     0.062 A 
ATOM     10  C   UNL     1      -1.632  -4.486  -1.553  1.00  0.00     0.042 A 
ATOM     11  C   UNL     1      -2.540  -4.833  -0.552  1.00  0.00     0.026 A 
ATOM     12  C   UNL     1      -1.539  -3.153  -1.924  1.00  0.00     0.041 A 
ATOM     13  C   UNL     1      -3.232  -3.837   0.151  1.00  0.00     0.003 A 
ATOM     14  C   UNL     1      -3.018  -2.487  -0.140  1.00  0.00     0.016 A 
BRANCH  10  15
ATOM     15  N   UNL     1      -0.847  -5.496  -2.129  1.00  0.00    -0.325 N 
ATOM     16  C   UNL     1       0.409  -5.502  -2.677  1.00  0.00     0.238 C 
ATOM     17  O   UNL     1       0.765  -6.568  -3.199  1.00  0.00    -0.273 OA
ATOM     18  H   UNL     1      -1.287  -6.377  -2.142  1.00  0.00     0.169 HD
BRANCH  16  19
ATOM     19  C   UNL     1       1.416  -4.337  -2.595  1.00  0.00     0.160 C 
ATOM     20  N   UNL     1       1.658  -1.440  -2.013  1.00  0.00    -0.191 N 
ATOM     21  C   UNL     1       2.248  -2.408  -1.226  1.00  0.00     0.311 C 
ATOM     22  C   UNL     1       1.581  -1.629  -3.389  1.00  0.00     0.319 C 
ATOM     23  O   UNL     1       3.204  -2.192  -0.485  1.00  0.00    -0.247 OA
ATOM     24  C   UNL     1       1.556  -3.736  -1.220  1.00  0.00     0.153 C 
ATOM     25  S   UNL     1       1.207  -3.234  -4.000  1.00  0.00    -0.024 SA
ATOM     26  N   UNL     1       1.735  -0.778  -4.355  1.00  0.00    -0.235 N 
ATOM     27  H   UNL     1       1.427  -1.052  -5.250  1.00  0.00     0.313 HD
BRANCH  20  28
ATOM     28  C   UNL     1       1.432  -0.120  -1.401  1.00  0.00     0.243 C 
ATOM     29  C   UNL     1       1.275  -0.070   0.116  1.00  0.00     0.054 C 
ENDBRANCH  20  28
BRANCH  26  30
ATOM     30  C   UNL     1       2.300   0.491  -4.236  1.00  0.00     0.125 A 
ATOM     31  C   UNL     1       1.659   1.591  -4.811  1.00  0.00     0.051 A 
ATOM     32  C   UNL     1       3.562   0.674  -3.659  1.00  0.00     0.051 A 
ATOM     33  C   UNL     1       2.221   2.867  -4.721  1.00  0.00     0.004 A 
ATOM     34  C   UNL     1       4.112   1.950  -3.535  1.00  0.00     0.004 A 
ATOM     35  C   UNL     1       3.436   3.048  -4.061  1.00  0.00     0.000 A 
ENDBRANCH  26  30
ENDBRANCH  16  19
ENDBRANCH  10  15
ENDBRANCH   7   9
ENDBRANCH   6   7
ENDBRANCH   5   6
ENDBRANCH   4   5
ENDBRANCH   3   4
ENDBRANCH   2   3
ENDBRANCH   1   2
BRANCH   1  36
ATOM     36  O   UNL     1      -3.362  -1.548  -4.985  1.00  0.00    -0.377 OA
BRANCH  36  37
ATOM     37  C   UNL     1      -3.811  -0.993  -6.222  1.00  0.00     0.188 C 
BRANCH  37  38
ATOM     38  C   UNL     1      -5.147  -0.218  -6.346  1.00  0.00     0.188 C 
BRANCH  38  39
ATOM     39  O   UNL     1      -6.184  -0.673  -5.493  1.00  0.00    -0.376 OA
BRANCH  39  40
ATOM     40  C   UNL     1      -7.232  -1.463  -6.020  1.00  0.00     0.202 C 
BRANCH  40  41
ATOM     41  C   UNL     1      -6.857  -2.843  -6.575  1.00  0.00     0.261 C 
BRANCH  41  42
ATOM     42  O   UNL     1      -5.836  -2.854  -7.580  1.00  0.00    -0.460 OA
BRANCH  42  43
ATOM     43  C   UNL     1      -6.104  -2.213  -8.736  1.00  0.00     0.338 C 
ATOM     44  O   UNL     1      -7.137  -1.639  -9.043  1.00  0.00    -0.246 OA
BRANCH  43  45
ATOM     45  C   UNL     1      -4.854  -2.162  -9.516  1.00  0.00     0.060 A 
ATOM     46  C   UNL     1      -4.317  -0.916  -9.865  1.00  0.00     0.016 A 
ATOM     47  C   UNL     1      -4.214  -3.344  -9.895  1.00  0.00     0.016 A 
ATOM     48  C   UNL     1      -3.155  -0.850 -10.632  1.00  0.00     0.010 A 
ATOM     49  C   UNL     1      -3.064  -3.277 -10.682  1.00  0.00     0.010 A 
ATOM     50  C   UNL     1      -2.552  -2.030 -11.084  1.00  0.00    -0.014 A 
BRANCH  50  51
ATOM     51  C   UNL     1      -1.520  -1.968 -12.146  1.00  0.00     0.031 A 
ATOM     52  C   UNL     1      -1.951  -2.204 -13.567  1.00  0.00     0.074 A 
ATOM     53  C   UNL     1      -0.236  -1.694 -11.860  1.00  0.00     0.049 A 
ATOM     54  N   UNL     1      -1.232  -2.269 -14.657  1.00  0.00    -0.248 NA
ATOM     55  C   UNL     1      -3.394  -2.398 -13.785  1.00  0.00     0.031 C 
ATOM     56  C   UNL     1       0.291  -1.405 -10.529  1.00  0.00     0.029 A 
ATOM     57  N   UNL     1       0.861  -1.629 -12.682  1.00  0.00    -0.354 N 
ATOM     58  C   UNL     1      -2.131  -2.521 -15.685  1.00  0.00     0.074 A 
ATOM     59  C   UNL     1      -3.444  -2.628 -15.088  1.00  0.00     0.031 C 
ATOM     60  C   UNL     1       1.618  -1.208 -10.622  1.00  0.00     0.029 A 
ATOM     61  C   UNL     1       2.035  -1.395 -12.011  1.00  0.00     0.049 A 
ATOM     62  H   UNL     1       0.810  -1.738 -13.659  1.00  0.00     0.167 HD
ATOM     63  C   UNL     1      -1.884  -2.643 -17.010  1.00  0.00     0.037 A 
ATOM     64  C   UNL     1       3.303  -1.367 -12.468  1.00  0.00     0.037 A 
ATOM     65  C   UNL     1      -0.575  -2.539 -17.598  1.00  0.00     0.049 A 
ATOM     66  C   UNL     1       3.561  -1.588 -13.939  1.00  0.00     0.074 A 
ATOM     67  C   UNL     1      -0.218  -2.631 -18.931  1.00  0.00     0.029 A 
ATOM     68  N   UNL     1       0.596  -2.330 -16.883  1.00  0.00    -0.354 N 
ATOM     69  N   UNL     1       2.707  -1.798 -14.912  1.00  0.00    -0.248 NA
ATOM     70  C   UNL     1       4.965  -1.565 -14.375  1.00  0.00     0.031 C 
ATOM     71  C   UNL     1       1.174  -2.543 -19.017  1.00  0.00     0.029 A 
ATOM     72  C   UNL     1       1.680  -2.322 -17.746  1.00  0.00     0.049 A 
ATOM     73  H   UNL     1       0.649  -2.206 -15.908  1.00  0.00     0.167 HD
ATOM     74  C   UNL     1       3.463  -1.897 -16.074  1.00  0.00     0.074 A 
ATOM     75  C   UNL     1       4.845  -1.710 -15.687  1.00  0.00     0.031 C 
ATOM     76  C   UNL     1       3.051  -2.121 -17.347  1.00  0.00     0.037 A 
BRANCH  63  77
ATOM     77  C   UNL     1      -3.049  -2.939 -17.910  1.00  0.00     0.064 A 
ATOM     78  C   UNL     1      -4.050  -1.989 -18.164  1.00  0.00     0.173 A 
ATOM     79  C   UNL     1      -3.147  -4.182 -18.554  1.00  0.00     0.173 A 
ATOM     80  F   UNL     1      -4.013  -0.790 -17.562  1.00  0.00    -0.203 F 
ATOM     81  C   UNL     1      -5.119  -2.282 -19.008  1.00  0.00     0.198 A 
ATOM     82  C   UNL     1      -4.199  -4.459 -19.423  1.00  0.00     0.198 A 
ATOM     83  F   UNL     1      -2.217  -5.126 -18.349  1.00  0.00    -0.203 F 
ATOM     84  F   UNL     1      -6.090  -1.377 -19.195  1.00  0.00    -0.200 F 
ATOM     85  C   UNL     1      -5.188  -3.512 -19.643  1.00  0.00     0.200 A 
ATOM     86  F   UNL     1      -4.256  -5.644 -20.047  1.00  0.00    -0.200 F 
ATOM     87  F   UNL     1      -6.211  -3.789 -20.463  1.00  0.00    -0.200 F 
ENDBRANCH  63  77
BRANCH  64  88
ATOM     88  C   UNL     1       4.431  -1.138 -11.526  1.00  0.00     0.064 A 
ATOM     89  C   UNL     1       5.219   0.019 -11.605  1.00  0.00     0.173 A 
ATOM     90  C   UNL     1       4.768  -2.089 -10.551  1.00  0.00     0.173 A 
ATOM     91  F   UNL     1       4.957   0.944 -12.540  1.00  0.00    -0.203 F 
ATOM     92  C   UNL     1       6.313   0.205 -10.762  1.00  0.00     0.198 A 
ATOM     93  C   UNL     1       5.842  -1.887  -9.686  1.00  0.00     0.198 A 
ATOM     94  F   UNL     1       4.054  -3.219 -10.439  1.00  0.00    -0.203 F 
ATOM     95  F   UNL     1       7.085   1.291 -10.901  1.00  0.00    -0.200 F 
ATOM     96  C   UNL     1       6.620  -0.745  -9.799  1.00  0.00     0.200 A 
ATOM     97  F   UNL     1       6.133  -2.805  -8.755  1.00  0.00    -0.200 F 
ATOM     98  F   UNL     1       7.676  -0.568  -8.993  1.00  0.00    -0.200 F 
ENDBRANCH  64  88
BRANCH  76  99
ATOM     99  C   UNL     1       4.097  -2.126 -18.426  1.00  0.00     0.064 A 
ATOM    100  C   UNL     1       5.042  -3.156 -18.540  1.00  0.00     0.173 A 
ATOM    101  C   UNL     1       4.122  -1.105 -19.390  1.00  0.00     0.173 A 
ATOM    102  F   UNL     1       5.070  -4.150 -17.640  1.00  0.00    -0.203 F 
ATOM    103  C   UNL     1       5.991  -3.147 -19.560  1.00  0.00     0.198 A 
ATOM    104  C   UNL     1       5.048  -1.119 -20.429  1.00  0.00     0.198 A 
ATOM    105  F   UNL     1       3.234  -0.100 -19.336  1.00  0.00    -0.203 F 
ATOM    106  F   UNL     1       6.918  -4.114 -19.617  1.00  0.00    -0.200 F 
ATOM    107  C   UNL     1       5.988  -2.135 -20.508  1.00  0.00     0.200 A 
ATOM    108  F   UNL     1       5.030  -0.150 -21.355  1.00  0.00    -0.200 F 
ATOM    109  F   UNL     1       6.896  -2.135 -21.494  1.00  0.00    -0.200 F 
ENDBRANCH  76  99
ENDBRANCH  50  51
ENDBRANCH  43  45
ENDBRANCH  42  43
ENDBRANCH  41  42
ENDBRANCH  40  41
ENDBRANCH  39  40
ENDBRANCH  38  39
ENDBRANCH  37  38
ENDBRANCH  36  37
ENDBRANCH   1  36
TORSDOF 24
