REMARK SMILES O=C(OCCOCCOCCOCCOC(=O)C1CCN(C(=O)CCN2C(=O)[C@H]3Cc4ccccc4CN3C2=O)CC1)c1ccc(-c2c3nc(c(-c4c(F)c(F)c(F)c(F)c4F)c4ccc([nH]4)c(-c4c(F)c(F)c(F)c(F)c4F)c4nc(c(-c5c(F)c(F)c(F)c(F)c5F)c5ccc2[nH]5)C=C4)C=C3)cc1
REMARK SMILES IDX 10 1 9 2 8 3 7 4 6 5 5 6 4 7 3 8 2 9 1 10 43 11 44 12 105 13
REMARK SMILES IDX 45 14 104 15 46 16 47 17 48 18 98 19 49 20 103 21 97 22
REMARK SMILES IDX 99 23 50 24 102 25 96 26 95 27 51 29 83 30 63 31 82 32 64 33
REMARK SMILES IDX 67 34 81 35 100 36 65 37 66 38 80 40 101 41 68 42 52 43
REMARK SMILES IDX 53 44 61 45 54 46 55 47 59 48 62 49 56 50 57 51 60 52 58 53
REMARK SMILES IDX 84 54 85 55 93 56 86 57 87 58 91 59 94 60 88 61 89 62 92 63
REMARK SMILES IDX 90 64 69 65 70 66 78 67 71 68 72 69 76 70 79 71 73 72 74 73
REMARK SMILES IDX 77 74 75 75 11 76 12 77 13 78 14 79 15 80 16 81 17 82 18 83
REMARK SMILES IDX 19 84 42 85 20 86 41 87 21 88 22 89 23 90 24 91 25 92 26 93
REMARK SMILES IDX 27 94 39 95 28 96 29 97 38 98 40 99 30 100 37 101 31 102
REMARK SMILES IDX 36 103 32 104 35 105 33 106 34 107
REMARK H PARENT 99 28 67 39
REMARK Flexibility Score: inf
ROOT
ATOM      1  C   UNL     1       3.913   1.368  -2.928  1.00  0.00     0.188 C 
ENDROOT
BRANCH   1   2
ATOM      2  O   UNL     1       2.751   0.674  -3.363  1.00  0.00    -0.377 OA
BRANCH   2   3
ATOM      3  C   UNL     1       1.675   0.462  -2.453  1.00  0.00     0.188 C 
BRANCH   3   4
ATOM      4  C   UNL     1       1.940   0.609  -0.960  1.00  0.00     0.188 C 
BRANCH   4   5
ATOM      5  O   UNL     1       3.233   0.156  -0.569  1.00  0.00    -0.376 OA
BRANCH   5   6
ATOM      6  C   UNL     1       3.386  -1.253  -0.551  1.00  0.00     0.202 C 
BRANCH   6   7
ATOM      7  C   UNL     1       3.673  -1.720   0.869  1.00  0.00     0.261 C 
BRANCH   7   8
ATOM      8  O   UNL     1       2.576  -1.458   1.775  1.00  0.00    -0.460 OA
BRANCH   8   9
ATOM      9  C   UNL     1       2.044  -0.305   2.239  1.00  0.00     0.338 C 
ATOM     10  O   UNL     1       0.908  -0.355   2.712  1.00  0.00    -0.246 OA
BRANCH   9  11
ATOM     11  C   UNL     1       2.711   1.044   2.219  1.00  0.00     0.060 A 
ATOM     12  C   UNL     1       1.898   2.147   2.558  1.00  0.00     0.016 A 
ATOM     13  C   UNL     1       4.050   1.304   1.919  1.00  0.00     0.016 A 
ATOM     14  C   UNL     1       2.394   3.456   2.567  1.00  0.00     0.010 A 
ATOM     15  C   UNL     1       4.549   2.614   1.908  1.00  0.00     0.010 A 
ATOM     16  C   UNL     1       3.728   3.698   2.233  1.00  0.00    -0.014 A 
BRANCH  16  17
ATOM     17  C   UNL     1       4.324   5.029   2.481  1.00  0.00     0.031 A 
ATOM     18  C   UNL     1       4.382   6.095   1.435  1.00  0.00     0.074 A 
ATOM     19  C   UNL     1       4.830   5.236   3.710  1.00  0.00     0.049 A 
ATOM     20  N   UNL     1       4.788   7.335   1.548  1.00  0.00    -0.248 NA
ATOM     21  C   UNL     1       3.957   5.723   0.080  1.00  0.00     0.031 C 
ATOM     22  C   UNL     1       4.855   4.228   4.772  1.00  0.00     0.029 A 
ATOM     23  N   UNL     1       5.400   6.341   4.280  1.00  0.00    -0.354 N 
ATOM     24  C   UNL     1       4.668   7.897   0.284  1.00  0.00     0.074 A 
ATOM     25  C   UNL     1       4.185   6.847  -0.591  1.00  0.00     0.031 C 
ATOM     26  C   UNL     1       5.385   4.768   5.875  1.00  0.00     0.029 A 
ATOM     27  C   UNL     1       5.734   6.157   5.598  1.00  0.00     0.049 A 
ATOM     28  H   UNL     1       5.555   7.183   3.794  1.00  0.00     0.167 HD
ATOM     29  C   UNL     1       4.933   9.174  -0.090  1.00  0.00     0.037 A 
ATOM     30  C   UNL     1       6.233   7.022   6.498  1.00  0.00     0.037 A 
ATOM     31  C   UNL     1       5.395  10.196   0.824  1.00  0.00     0.049 A 
ATOM     32  C   UNL     1       6.452   8.444   6.078  1.00  0.00     0.074 A 
ATOM     33  C   UNL     1       5.604  11.543   0.581  1.00  0.00     0.029 A 
ATOM     34  N   UNL     1       5.725   9.980   2.157  1.00  0.00    -0.354 N 
ATOM     35  N   UNL     1       6.243   8.995   4.907  1.00  0.00    -0.248 NA
ATOM     36  C   UNL     1       6.955   9.367   7.101  1.00  0.00     0.031 C 
ATOM     37  C   UNL     1       6.109  12.128   1.747  1.00  0.00     0.029 A 
ATOM     38  C   UNL     1       6.165  11.160   2.738  1.00  0.00     0.049 A 
ATOM     39  H   UNL     1       5.657   9.114   2.621  1.00  0.00     0.167 HD
ATOM     40  C   UNL     1       6.589  10.329   5.046  1.00  0.00     0.074 A 
ATOM     41  C   UNL     1       6.988  10.511   6.429  1.00  0.00     0.031 C 
ATOM     42  C   UNL     1       6.585  11.311   4.112  1.00  0.00     0.037 A 
BRANCH  29  43
ATOM     43  C   UNL     1       4.729   9.557  -1.534  1.00  0.00     0.064 A 
ATOM     44  C   UNL     1       3.454   9.586  -2.119  1.00  0.00     0.173 A 
ATOM     45  C   UNL     1       5.812   9.979  -2.323  1.00  0.00     0.173 A 
ATOM     46  F   UNL     1       2.378   9.203  -1.415  1.00  0.00    -0.203 F 
ATOM     47  C   UNL     1       3.274   9.992  -3.441  1.00  0.00     0.198 A 
ATOM     48  C   UNL     1       5.625  10.418  -3.634  1.00  0.00     0.198 A 
ATOM     49  F   UNL     1       7.055   9.990  -1.818  1.00  0.00    -0.203 F 
ATOM     50  F   UNL     1       2.050   9.969  -3.986  1.00  0.00    -0.200 F 
ATOM     51  C   UNL     1       4.358  10.416  -4.194  1.00  0.00     0.200 A 
ATOM     52  F   UNL     1       6.672  10.850  -4.351  1.00  0.00    -0.200 F 
ATOM     53  F   UNL     1       4.181  10.822  -5.459  1.00  0.00    -0.200 F 
ENDBRANCH  29  43
BRANCH  30  54
ATOM     54  C   UNL     1       6.447   6.554   7.889  1.00  0.00     0.064 A 
ATOM     55  C   UNL     1       5.566   6.933   8.910  1.00  0.00     0.173 A 
ATOM     56  C   UNL     1       7.445   5.617   8.197  1.00  0.00     0.173 A 
ATOM     57  F   UNL     1       4.598   7.826   8.662  1.00  0.00    -0.203 F 
ATOM     58  C   UNL     1       5.670   6.385  10.187  1.00  0.00     0.198 A 
ATOM     59  C   UNL     1       7.530   5.050   9.466  1.00  0.00     0.198 A 
ATOM     60  F   UNL     1       8.295   5.204   7.245  1.00  0.00    -0.203 F 
ATOM     61  F   UNL     1       4.816   6.764  11.147  1.00  0.00    -0.200 F 
ATOM     62  C   UNL     1       6.642   5.434  10.460  1.00  0.00     0.200 A 
ATOM     63  F   UNL     1       8.452   4.110   9.717  1.00  0.00    -0.200 F 
ATOM     64  F   UNL     1       6.716   4.879  11.677  1.00  0.00    -0.200 F 
ENDBRANCH  30  54
BRANCH  42  65
ATOM     65  C   UNL     1       7.064  12.666   4.545  1.00  0.00     0.064 A 
ATOM     66  C   UNL     1       8.423  12.907   4.797  1.00  0.00     0.173 A 
ATOM     67  C   UNL     1       6.175  13.746   4.644  1.00  0.00     0.173 A 
ATOM     68  F   UNL     1       9.310  11.902   4.732  1.00  0.00    -0.203 F 
ATOM     69  C   UNL     1       8.873  14.178   5.143  1.00  0.00     0.198 A 
ATOM     70  C   UNL     1       6.633  15.023   4.960  1.00  0.00     0.198 A 
ATOM     71  F   UNL     1       4.866  13.569   4.409  1.00  0.00    -0.203 F 
ATOM     72  F   UNL     1      10.170  14.377   5.413  1.00  0.00    -0.200 F 
ATOM     73  C   UNL     1       7.979  15.236   5.213  1.00  0.00     0.200 A 
ATOM     74  F   UNL     1       5.771  16.048   5.014  1.00  0.00    -0.200 F 
ATOM     75  F   UNL     1       8.417  16.463   5.528  1.00  0.00    -0.200 F 
ENDBRANCH  42  65
ENDBRANCH  16  17
ENDBRANCH   9  11
ENDBRANCH   8   9
ENDBRANCH   7   8
ENDBRANCH   6   7
ENDBRANCH   5   6
ENDBRANCH   4   5
ENDBRANCH   3   4
ENDBRANCH   2   3
ENDBRANCH   1   2
BRANCH   1  76
ATOM     76  C   UNL     1       4.485   2.303  -3.995  1.00  0.00     0.188 C 
BRANCH  76  77
ATOM     77  O   UNL     1       3.654   3.424  -4.274  1.00  0.00    -0.376 OA
BRANCH  77  78
ATOM     78  C   UNL     1       2.352   3.108  -4.767  1.00  0.00     0.202 C 
BRANCH  78  79
ATOM     79  C   UNL     1       2.281   2.279  -6.070  1.00  0.00     0.261 C 
BRANCH  79  80
ATOM     80  O   UNL     1       2.750   0.896  -5.992  1.00  0.00    -0.463 OA
BRANCH  80  81
ATOM     81  C   UNL     1       3.713   0.539  -6.885  1.00  0.00     0.309 C 
ATOM     82  O   UNL     1       4.194   1.316  -7.706  1.00  0.00    -0.252 OA
BRANCH  81  83
ATOM     83  C   UNL     1       4.261  -0.891  -6.754  1.00  0.00     0.103 C 
ATOM     84  C   UNL     1       3.271  -2.058  -6.950  1.00  0.00     0.037 C 
ATOM     85  C   UNL     1       5.248  -1.060  -5.595  1.00  0.00     0.037 C 
ATOM     86  C   UNL     1       3.139  -3.100  -5.819  1.00  0.00     0.120 C 
ATOM     87  C   UNL     1       4.636  -1.823  -4.439  1.00  0.00     0.120 C 
ATOM     88  N   UNL     1       4.270  -3.133  -4.896  1.00  0.00    -0.343 N 
ATOM     89  C   UNL     1       4.858  -4.326  -4.495  1.00  0.00     0.224 C 
ATOM     90  O   UNL     1       4.562  -5.395  -5.036  1.00  0.00    -0.275 OA
BRANCH  89  91
ATOM     91  C   UNL     1       5.791  -4.357  -3.269  1.00  0.00     0.122 C 
BRANCH  91  92
ATOM     92  C   UNL     1       7.261  -3.910  -3.412  1.00  0.00     0.140 C 
BRANCH  92  93
ATOM     93  N   UNL     1       7.563  -2.549  -2.962  1.00  0.00    -0.262 N 
ATOM     94  C   UNL     1       7.040  -1.936  -1.847  1.00  0.00     0.253 C 
ATOM     95  C   UNL     1       8.521  -1.715  -3.503  1.00  0.00     0.327 C 
ATOM     96  O   UNL     1       6.403  -2.442  -0.937  1.00  0.00    -0.272 OA
ATOM     97  C   UNL     1       7.196  -0.457  -2.106  1.00  0.00     0.181 C 
ATOM     98  N   UNL     1       8.401  -0.481  -2.871  1.00  0.00    -0.308 N 
ATOM     99  O   UNL     1       9.334  -1.994  -4.372  1.00  0.00    -0.248 OA
ATOM    100  C   UNL     1       7.133   0.524  -0.974  1.00  0.00     0.071 C 
ATOM    101  C   UNL     1       9.131   0.746  -3.150  1.00  0.00     0.158 C 
ATOM    102  C   UNL     1       7.474   1.877  -1.552  1.00  0.00    -0.040 A 
ATOM    103  C   UNL     1       8.493   1.980  -2.525  1.00  0.00    -0.025 A 
ATOM    104  C   UNL     1       6.782   3.024  -1.141  1.00  0.00     0.004 A 
ATOM    105  C   UNL     1       8.888   3.257  -2.950  1.00  0.00     0.006 A 
ATOM    106  C   UNL     1       7.154   4.279  -1.613  1.00  0.00     0.000 A 
ATOM    107  C   UNL     1       8.228   4.399  -2.488  1.00  0.00     0.000 A 
ENDBRANCH  92  93
ENDBRANCH  91  92
ENDBRANCH  89  91
ENDBRANCH  81  83
ENDBRANCH  80  81
ENDBRANCH  79  80
ENDBRANCH  78  79
ENDBRANCH  77  78
ENDBRANCH  76  77
ENDBRANCH   1  76
TORSDOF 23
