REMARK SMILES Cc1cccc(OC2(C(=O)OCCOCCOCCOCCOC(=O)c3ccc(-c4c5nc(c(-c6c(F)c(F)c(F)c(F)c6F)c6ccc([nH]6)c(-c6c(F)c(F)c(F)c(F)c6F)c6nc(c(-c7c(F)c(F)c(F)c(F)c7F)c7ccc4[nH]7)C=C6)C=C5)cc3)CCN(C(=O)c3cnc[nH]c3=O)CC2)c1
REMARK SMILES IDX 17 1 16 2 15 3 14 4 13 5 12 6 11 7 9 8 10 9 8 10 89 11
REMARK SMILES IDX 102 12 90 13 101 14 91 15 92 16 93 17 7 18 6 19 1 20 2 21
REMARK SMILES IDX 3 22 103 23 4 24 5 25 94 26 95 27 99 28 96 29 98 30 100 31
REMARK SMILES IDX 97 32 18 34 19 35 20 36 21 37 22 38 23 39 24 40 25 41 26 42
REMARK SMILES IDX 27 43 88 44 28 45 87 46 29 47 30 48 31 49 81 50 32 51 86 52
REMARK SMILES IDX 80 53 82 54 33 55 85 56 79 57 78 58 34 60 66 61 46 62 65 63
REMARK SMILES IDX 47 64 50 65 64 66 83 67 48 68 49 69 63 71 84 72 51 73 35 74
REMARK SMILES IDX 36 75 44 76 37 77 38 78 42 79 45 80 39 81 40 82 43 83 41 84
REMARK SMILES IDX 67 85 68 86 76 87 69 88 70 89 74 90 77 91 71 92 72 93 75 94
REMARK SMILES IDX 73 95 52 96 53 97 61 98 54 99 55 100 59 101 62 102 56 103
REMARK SMILES IDX 57 104 60 105 58 106
REMARK H PARENT 98 33 82 59 50 70
REMARK Flexibility Score: inf
ROOT
ATOM      1  O   UNL     1       4.562   4.204  -1.786  1.00  0.00    -0.377 OA
ENDROOT
BRANCH   1   2
ATOM      2  C   UNL     1       3.214   3.783  -1.755  1.00  0.00     0.188 C 
BRANCH   2   3
ATOM      3  C   UNL     1       2.384   3.819  -3.116  1.00  0.00     0.188 C 
BRANCH   3   4
ATOM      4  O   UNL     1       1.580   5.022  -3.573  1.00  0.00    -0.376 OA
BRANCH   4   5
ATOM      5  C   UNL     1       0.075   5.155  -4.083  1.00  0.00     0.202 C 
BRANCH   5   6
ATOM      6  C   UNL     1      -1.670   4.894  -3.518  1.00  0.00     0.261 C 
BRANCH   6   7
ATOM      7  O   UNL     1      -2.546   3.747  -2.364  1.00  0.00    -0.460 OA
BRANCH   7   8
ATOM      8  C   UNL     1      -2.664   2.746  -1.210  1.00  0.00     0.350 C 
ATOM      9  O   UNL     1      -3.565   1.898  -1.347  1.00  0.00    -0.247 OA
BRANCH   8  10
ATOM     10  C   UNL     1      -1.771   2.666   0.386  1.00  0.00     0.209 C 
ATOM     11  C   UNL     1      -0.201   2.860   0.583  1.00  0.00     0.082 C 
ATOM     12  C   UNL     1      -2.532   3.575   1.466  1.00  0.00     0.082 C 
ATOM     13  C   UNL     1       0.369   3.162   1.962  1.00  0.00     0.124 C 
ATOM     14  C   UNL     1      -1.801   3.807   2.820  1.00  0.00     0.124 C 
ATOM     15  N   UNL     1      -0.410   4.173   2.624  1.00  0.00    -0.338 N 
ATOM     16  C   UNL     1       0.225   5.333   3.029  1.00  0.00     0.261 C 
ATOM     17  O   UNL     1       1.050   5.932   2.340  1.00  0.00    -0.269 OA
BRANCH  10  18
ATOM     18  O   UNL     1      -2.077   1.327   0.990  1.00  0.00    -0.475 OA
BRANCH  18  19
ATOM     19  C   UNL     1      -1.350   0.249   0.573  1.00  0.00     0.121 A 
ATOM     20  C   UNL     1       2.160  -1.129   0.993  1.00  0.00     0.044 C 
ATOM     21  C   UNL     1       0.718  -1.050   0.583  1.00  0.00    -0.047 A 
ATOM     22  C   UNL     1       0.123  -1.978  -0.264  1.00  0.00     0.003 A 
ATOM     23  C   UNL     1      -0.077  -0.019   1.082  1.00  0.00     0.050 A 
ATOM     24  C   UNL     1      -1.212  -1.814  -0.653  1.00  0.00     0.004 A 
ATOM     25  C   UNL     1      -1.939  -0.686  -0.259  1.00  0.00     0.046 A 
ENDBRANCH  18  19
ENDBRANCH  10  18
BRANCH  16  26
ATOM     26  C   UNL     1       0.052   5.739   4.437  1.00  0.00     0.123 A 
ATOM     27  C   UNL     1      -0.348   6.982   4.745  1.00  0.00     0.132 A 
ATOM     28  C   UNL     1       0.588   4.922   5.543  1.00  0.00     0.263 A 
ATOM     29  N   UNL     1      -0.401   7.509   6.016  1.00  0.00    -0.246 NA
ATOM     30  N   UNL     1       0.559   5.512   6.775  1.00  0.00    -0.312 N 
ATOM     31  O   UNL     1       1.060   3.797   5.387  1.00  0.00    -0.269 OA
ATOM     32  C   UNL     1       0.063   6.768   6.964  1.00  0.00     0.199 A 
ATOM     33  H   UNL     1       0.906   5.015   7.551  1.00  0.00     0.171 HD
ENDBRANCH  16  26
ENDBRANCH   8  10
ENDBRANCH   7   8
ENDBRANCH   6   7
ENDBRANCH   5   6
ENDBRANCH   4   5
ENDBRANCH   3   4
ENDBRANCH   2   3
ENDBRANCH   1   2
BRANCH   1  34
ATOM     34  C   UNL     1       5.309   3.756  -2.904  1.00  0.00     0.188 C 
BRANCH  34  35
ATOM     35  C   UNL     1       5.543   2.240  -3.040  1.00  0.00     0.188 C 
BRANCH  35  36
ATOM     36  O   UNL     1       4.354   1.444  -3.018  1.00  0.00    -0.376 OA
BRANCH  36  37
ATOM     37  C   UNL     1       4.620   0.042  -2.839  1.00  0.00     0.202 C 
BRANCH  37  38
ATOM     38  C   UNL     1       5.186  -0.643  -4.097  1.00  0.00     0.261 C 
BRANCH  38  39
ATOM     39  O   UNL     1       4.158  -0.835  -5.087  1.00  0.00    -0.460 OA
BRANCH  39  40
ATOM     40  C   UNL     1       3.842   0.280  -5.792  1.00  0.00     0.338 C 
ATOM     41  O   UNL     1       4.626   0.954  -6.439  1.00  0.00    -0.246 OA
BRANCH  40  42
ATOM     42  C   UNL     1       2.454   0.687  -5.436  1.00  0.00     0.060 A 
ATOM     43  C   UNL     1       1.961   1.891  -5.908  1.00  0.00     0.016 A 
ATOM     44  C   UNL     1       1.760   0.029  -4.412  1.00  0.00     0.016 A 
ATOM     45  C   UNL     1       0.897   2.490  -5.224  1.00  0.00     0.010 A 
ATOM     46  C   UNL     1       0.851   0.728  -3.614  1.00  0.00     0.010 A 
ATOM     47  C   UNL     1       0.476   2.030  -3.946  1.00  0.00    -0.014 A 
BRANCH  47  48
ATOM     48  C   UNL     1      -0.503   2.797  -2.977  1.00  0.00     0.031 A 
ATOM     49  C   UNL     1      -1.931   2.180  -3.862  1.00  0.00     0.074 A 
ATOM     50  C   UNL     1      -0.336   3.994  -1.887  1.00  0.00     0.049 A 
ATOM     51  N   UNL     1      -2.881   2.924  -4.382  1.00  0.00    -0.248 NA
ATOM     52  C   UNL     1      -2.133   0.811  -4.400  1.00  0.00     0.031 C 
ATOM     53  C   UNL     1      -1.409   4.883  -0.934  1.00  0.00     0.029 A 
ATOM     54  N   UNL     1       0.672   5.027  -1.523  1.00  0.00    -0.354 N 
ATOM     55  C   UNL     1      -3.964   2.168  -4.667  1.00  0.00     0.074 A 
ATOM     56  C   UNL     1      -3.363   0.887  -4.950  1.00  0.00     0.031 C 
ATOM     57  C   UNL     1      -0.967   5.961  -0.301  1.00  0.00     0.029 A 
ATOM     58  C   UNL     1       0.185   6.277  -1.014  1.00  0.00     0.049 A 
ATOM     59  H   UNL     1       1.636   4.859  -1.628  1.00  0.00     0.167 HD
ATOM     60  C   UNL     1      -5.235   2.630  -4.419  1.00  0.00     0.037 A 
ATOM     61  C   UNL     1       0.287   7.531  -1.561  1.00  0.00     0.037 A 
ATOM     62  C   UNL     1      -5.282   3.899  -3.614  1.00  0.00     0.049 A 
ATOM     63  C   UNL     1      -1.115   8.106  -1.973  1.00  0.00     0.074 A 
ATOM     64  C   UNL     1      -5.550   4.092  -2.261  1.00  0.00     0.029 A 
ATOM     65  N   UNL     1      -4.800   5.152  -4.051  1.00  0.00    -0.354 N 
ATOM     66  N   UNL     1      -2.179   7.364  -2.198  1.00  0.00    -0.248 NA
ATOM     67  C   UNL     1      -1.462   9.515  -2.101  1.00  0.00     0.031 C 
ATOM     68  C   UNL     1      -5.170   5.406  -1.873  1.00  0.00     0.029 A 
ATOM     69  C   UNL     1      -4.705   6.087  -2.988  1.00  0.00     0.049 A 
ATOM     70  H   UNL     1      -4.558   5.354  -4.983  1.00  0.00     0.167 HD
ATOM     71  C   UNL     1      -3.258   8.092  -2.643  1.00  0.00     0.074 A 
ATOM     72  C   UNL     1      -2.768   9.454  -2.446  1.00  0.00     0.031 C 
ATOM     73  C   UNL     1      -4.429   7.542  -3.158  1.00  0.00     0.037 A 
BRANCH  60  74
ATOM     74  C   UNL     1      -6.380   1.621  -4.515  1.00  0.00     0.064 A 
ATOM     75  C   UNL     1      -7.433   1.548  -3.580  1.00  0.00     0.173 A 
ATOM     76  C   UNL     1      -6.418   0.623  -5.513  1.00  0.00     0.173 A 
ATOM     77  F   UNL     1      -7.659   2.525  -2.696  1.00  0.00    -0.203 F 
ATOM     78  C   UNL     1      -8.316   0.461  -3.529  1.00  0.00     0.198 A 
ATOM     79  C   UNL     1      -7.269  -0.487  -5.438  1.00  0.00     0.198 A 
ATOM     80  F   UNL     1      -5.623   0.707  -6.592  1.00  0.00    -0.203 F 
ATOM     81  F   UNL     1      -9.276   0.425  -2.593  1.00  0.00    -0.200 F 
ATOM     82  C   UNL     1      -8.200  -0.582  -4.425  1.00  0.00     0.200 A 
ATOM     83  F   UNL     1      -7.167  -1.470  -6.344  1.00  0.00    -0.200 F 
ATOM     84  F   UNL     1      -9.001  -1.653  -4.333  1.00  0.00    -0.200 F 
ENDBRANCH  60  74
BRANCH  61  85
ATOM     85  C   UNL     1       1.629   7.838  -2.127  1.00  0.00     0.064 A 
ATOM     86  C   UNL     1       2.747   7.628  -1.284  1.00  0.00     0.173 A 
ATOM     87  C   UNL     1       1.895   8.016  -3.486  1.00  0.00     0.173 A 
ATOM     88  F   UNL     1       2.573   7.540   0.044  1.00  0.00    -0.203 F 
ATOM     89  C   UNL     1       4.028   7.425  -1.791  1.00  0.00     0.198 A 
ATOM     90  C   UNL     1       3.181   7.791  -3.998  1.00  0.00     0.198 A 
ATOM     91  F   UNL     1       0.900   8.290  -4.341  1.00  0.00    -0.203 F 
ATOM     92  F   UNL     1       5.043   7.142  -0.962  1.00  0.00    -0.200 F 
ATOM     93  C   UNL     1       4.235   7.458  -3.156  1.00  0.00     0.200 A 
ATOM     94  F   UNL     1       3.386   7.831  -5.323  1.00  0.00    -0.200 F 
ATOM     95  F   UNL     1       5.440   7.160  -3.663  1.00  0.00    -0.200 F 
ENDBRANCH  61  85
BRANCH  73  96
ATOM     96  C   UNL     1      -5.578   8.355  -3.767  1.00  0.00     0.064 A 
ATOM     97  C   UNL     1      -5.431   9.616  -4.364  1.00  0.00     0.173 A 
ATOM     98  C   UNL     1      -6.892   7.812  -3.857  1.00  0.00     0.173 A 
ATOM     99  F   UNL     1      -4.230  10.195  -4.486  1.00  0.00    -0.203 F 
ATOM    100  C   UNL     1      -6.511  10.310  -4.926  1.00  0.00     0.198 A 
ATOM    101  C   UNL     1      -7.949   8.473  -4.484  1.00  0.00     0.198 A 
ATOM    102  F   UNL     1      -7.203   6.609  -3.359  1.00  0.00    -0.203 F 
ATOM    103  F   UNL     1      -6.317  11.539  -5.425  1.00  0.00    -0.200 F 
ATOM    104  C   UNL     1      -7.764   9.735  -4.999  1.00  0.00     0.200 A 
ATOM    105  F   UNL     1      -9.141   7.870  -4.594  1.00  0.00    -0.200 F 
ATOM    106  F   UNL     1      -8.779  10.382  -5.586  1.00  0.00    -0.200 F 
ENDBRANCH  73  96
ENDBRANCH  47  48
ENDBRANCH  40  42
ENDBRANCH  39  40
ENDBRANCH  38  39
ENDBRANCH  37  38
ENDBRANCH  36  37
ENDBRANCH  35  36
ENDBRANCH  34  35
ENDBRANCH   1  34
TORSDOF 23
