REMARK SMILES CC(C)(C)c1csc(C[NH2+][C@H]2CCC[C@@H](C(=O)OCCOCCOCCOCCOC(=O)c3ccc(-c4c5nc(c(-c6c(F)c(F)c(F)c(F)c6F)c6ccc([nH]6)c(-c6c(F)c(F)c(F)c(F)c6F)c6nc(c(-c7c(F)c(F)c(F)c(F)c7F)c7ccc4[nH]7)C=C6)C=C5)cc3)C2)n1
REMARK SMILES IDX 23 1 22 2 21 3 20 4 19 5 18 6 16 7 17 8 15 9 11 10 12 11
REMARK SMILES IDX 96 12 13 13 14 14 10 15 9 18 8 19 5 20 6 21 97 22 7 23 2 24
REMARK SMILES IDX 1 25 3 26 4 27 24 28 25 29 26 30 27 31 28 32 29 33 30 34
REMARK SMILES IDX 31 35 32 36 33 37 34 38 95 39 35 40 94 41 36 42 37 43 38 44
REMARK SMILES IDX 88 45 39 46 93 47 87 48 89 49 40 50 92 51 86 52 85 53 41 55
REMARK SMILES IDX 73 56 53 57 72 58 54 59 57 60 71 61 90 62 55 63 56 64 70 66
REMARK SMILES IDX 91 67 58 68 42 69 43 70 51 71 44 72 45 73 49 74 52 75 46 76
REMARK SMILES IDX 47 77 50 78 48 79 74 80 75 81 83 82 76 83 77 84 81 85 84 86
REMARK SMILES IDX 78 87 79 88 82 89 80 90 59 91 60 92 68 93 61 94 62 95 66 96
REMARK SMILES IDX 69 97 63 98 64 99 67 100 65 101
REMARK H PARENT 10 16 10 17 89 54 57 65
REMARK Flexibility Score: inf
ROOT
ATOM      1  C   UNL     1      -1.506   5.996   1.163  1.00  0.00     0.188 C 
ENDROOT
BRANCH   1   2
ATOM      2  C   UNL     1      -0.986   7.049   2.151  1.00  0.00     0.188 C 
BRANCH   2   3
ATOM      3  O   UNL     1      -1.962   8.026   2.502  1.00  0.00    -0.376 OA
BRANCH   3   4
ATOM      4  C   UNL     1      -2.272   8.960   1.474  1.00  0.00     0.202 C 
BRANCH   4   5
ATOM      5  C   UNL     1      -1.531  10.289   1.587  1.00  0.00     0.261 C 
BRANCH   5   6
ATOM      6  O   UNL     1      -0.396  10.261   0.696  1.00  0.00    -0.463 OA
BRANCH   6   7
ATOM      7  C   UNL     1       0.821  10.066   1.241  1.00  0.00     0.309 C 
ATOM      8  O   UNL     1       1.060  10.071   2.442  1.00  0.00    -0.252 OA
BRANCH   7   9
ATOM      9  C   UNL     1       1.874   9.750   0.185  1.00  0.00     0.105 C 
ATOM     10  C   UNL     1       1.099   8.398  -1.910  1.00  0.00     0.183 C 
ATOM     11  C   UNL     1       1.989   9.304  -2.754  1.00  0.00     0.065 C 
ATOM     12  C   UNL     1       1.641   8.389  -0.475  1.00  0.00     0.080 C 
ATOM     13  C   UNL     1       2.052  10.739  -2.258  1.00  0.00     0.007 C 
ATOM     14  C   UNL     1       2.220  10.920  -0.745  1.00  0.00     0.016 C 
BRANCH  10  15
ATOM     15  N   UNL     1      -0.357   8.523  -2.009  1.00  0.00    -0.338 N 
ATOM     16  H   UNL     1      -0.647   7.913  -2.773  1.00  0.00     0.346 HD
ATOM     17  H   UNL     1      -0.660   8.299  -1.061  1.00  0.00     0.346 HD
BRANCH  15  18
ATOM     18  C   UNL     1      -1.000   9.816  -2.247  1.00  0.00     0.329 C 
BRANCH  18  19
ATOM     19  C   UNL     1      -2.520   9.758  -2.095  1.00  0.00     0.147 A 
ATOM     20  C   UNL     1      -4.613  10.005  -1.290  1.00  0.00     0.057 A 
ATOM     21  C   UNL     1      -4.869   9.257  -2.426  1.00  0.00     0.091 A 
ATOM     22  N   UNL     1      -3.246  10.271  -1.110  1.00  0.00    -0.240 NA
ATOM     23  S   UNL     1      -3.439   8.985  -3.313  1.00  0.00    -0.121 S 
BRANCH  20  24
ATOM     24  C   UNL     1      -5.664  10.597  -0.335  1.00  0.00     0.005 C 
ATOM     25  C   UNL     1      -5.612  10.000   1.082  1.00  0.00     0.017 C 
ATOM     26  C   UNL     1      -7.102  10.348  -0.846  1.00  0.00     0.017 C 
ATOM     27  C   UNL     1      -5.446  12.117  -0.218  1.00  0.00     0.017 C 
ENDBRANCH  20  24
ENDBRANCH  18  19
ENDBRANCH  15  18
ENDBRANCH  10  15
ENDBRANCH   7   9
ENDBRANCH   6   7
ENDBRANCH   5   6
ENDBRANCH   4   5
ENDBRANCH   3   4
ENDBRANCH   2   3
ENDBRANCH   1   2
BRANCH   1  28
ATOM     28  O   UNL     1      -1.486   6.495  -0.174  1.00  0.00    -0.377 OA
BRANCH  28  29
ATOM     29  C   UNL     1      -2.666   6.263  -0.949  1.00  0.00     0.188 C 
BRANCH  29  30
ATOM     30  C   UNL     1      -3.242   4.847  -0.974  1.00  0.00     0.188 C 
BRANCH  30  31
ATOM     31  O   UNL     1      -2.325   3.761  -0.965  1.00  0.00    -0.376 OA
BRANCH  31  32
ATOM     32  C   UNL     1      -1.117   3.877  -1.708  1.00  0.00     0.202 C 
BRANCH  32  33
ATOM     33  C   UNL     1      -1.228   3.647  -3.213  1.00  0.00     0.261 C 
BRANCH  33  34
ATOM     34  O   UNL     1      -1.771   4.777  -3.918  1.00  0.00    -0.460 OA
BRANCH  34  35
ATOM     35  C   UNL     1      -3.025   4.614  -4.397  1.00  0.00     0.338 C 
ATOM     36  O   UNL     1      -3.780   3.681  -4.189  1.00  0.00    -0.246 OA
BRANCH  35  37
ATOM     37  C   UNL     1      -3.417   5.779  -5.215  1.00  0.00     0.060 A 
ATOM     38  C   UNL     1      -4.717   6.277  -5.070  1.00  0.00     0.016 A 
ATOM     39  C   UNL     1      -2.564   6.304  -6.192  1.00  0.00     0.016 A 
ATOM     40  C   UNL     1      -5.174   7.293  -5.912  1.00  0.00     0.010 A 
ATOM     41  C   UNL     1      -3.029   7.307  -7.049  1.00  0.00     0.010 A 
ATOM     42  C   UNL     1      -4.343   7.790  -6.927  1.00  0.00    -0.014 A 
BRANCH  42  43
ATOM     43  C   UNL     1      -4.920   8.659  -7.981  1.00  0.00     0.031 A 
ATOM     44  C   UNL     1      -5.550   7.998  -9.173  1.00  0.00     0.074 A 
ATOM     45  C   UNL     1      -4.902   9.999  -7.879  1.00  0.00     0.049 A 
ATOM     46  N   UNL     1      -6.123   8.536 -10.218  1.00  0.00    -0.248 NA
ATOM     47  C   UNL     1      -5.530   6.526  -9.187  1.00  0.00     0.031 C 
ATOM     48  C   UNL     1      -4.344  10.752  -6.762  1.00  0.00     0.029 A 
ATOM     49  N   UNL     1      -5.365  10.966  -8.738  1.00  0.00    -0.354 N 
ATOM     50  C   UNL     1      -6.542   7.472 -11.005  1.00  0.00     0.074 A 
ATOM     51  C   UNL     1      -6.130   6.258 -10.336  1.00  0.00     0.031 C 
ATOM     52  C   UNL     1      -4.492  12.066  -7.000  1.00  0.00     0.029 A 
ATOM     53  C   UNL     1      -5.124  12.248  -8.305  1.00  0.00     0.049 A 
ATOM     54  H   UNL     1      -5.826  10.760  -9.583  1.00  0.00     0.167 HD
ATOM     55  C   UNL     1      -7.214   7.506 -12.180  1.00  0.00     0.037 A 
ATOM     56  C   UNL     1      -5.367  13.428  -8.908  1.00  0.00     0.037 A 
ATOM     57  C   UNL     1      -7.583   8.716 -12.863  1.00  0.00     0.049 A 
ATOM     58  C   UNL     1      -6.033  13.436 -10.262  1.00  0.00     0.074 A 
ATOM     59  C   UNL     1      -8.257   8.860 -14.062  1.00  0.00     0.029 A 
ATOM     60  N   UNL     1      -7.286   9.996 -12.414  1.00  0.00    -0.354 N 
ATOM     61  N   UNL     1      -6.465  12.428 -10.981  1.00  0.00    -0.248 NA
ATOM     62  C   UNL     1      -6.245  14.749 -10.889  1.00  0.00     0.031 C 
ATOM     63  C   UNL     1      -8.313  10.223 -14.370  1.00  0.00     0.029 A 
ATOM     64  C   UNL     1      -7.737  10.934 -13.329  1.00  0.00     0.049 A 
ATOM     65  H   UNL     1      -6.824  10.206 -11.571  1.00  0.00     0.167 HD
ATOM     66  C   UNL     1      -7.028  12.983 -12.123  1.00  0.00     0.074 A 
ATOM     67  C   UNL     1      -6.894  14.419 -11.996  1.00  0.00     0.031 C 
ATOM     68  C   UNL     1      -7.604  12.361 -13.182  1.00  0.00     0.037 A 
BRANCH  55  69
ATOM     69  C   UNL     1      -7.551   6.189 -12.815  1.00  0.00     0.064 A 
ATOM     70  C   UNL     1      -8.513   5.329 -12.262  1.00  0.00     0.173 A 
ATOM     71  C   UNL     1      -6.911   5.785 -13.995  1.00  0.00     0.173 A 
ATOM     72  F   UNL     1      -9.141   5.661 -11.123  1.00  0.00    -0.203 F 
ATOM     73  C   UNL     1      -8.799   4.101 -12.852  1.00  0.00     0.198 A 
ATOM     74  C   UNL     1      -7.222   4.570 -14.600  1.00  0.00     0.198 A 
ATOM     75  F   UNL     1      -5.984   6.569 -14.565  1.00  0.00    -0.203 F 
ATOM     76  F   UNL     1      -9.681   3.272 -12.276  1.00  0.00    -0.200 F 
ATOM     77  C   UNL     1      -8.159   3.725 -14.023  1.00  0.00     0.200 A 
ATOM     78  F   UNL     1      -6.610   4.213 -15.737  1.00  0.00    -0.200 F 
ATOM     79  F   UNL     1      -8.437   2.544 -14.591  1.00  0.00    -0.200 F 
ENDBRANCH  55  69
BRANCH  56  80
ATOM     80  C   UNL     1      -4.970  14.704  -8.251  1.00  0.00     0.064 A 
ATOM     81  C   UNL     1      -5.931  15.632  -7.827  1.00  0.00     0.173 A 
ATOM     82  C   UNL     1      -3.620  15.038  -8.068  1.00  0.00     0.173 A 
ATOM     83  F   UNL     1      -7.235  15.374  -8.005  1.00  0.00    -0.203 F 
ATOM     84  C   UNL     1      -5.558  16.854  -7.269  1.00  0.00     0.198 A 
ATOM     85  C   UNL     1      -3.248  16.246  -7.480  1.00  0.00     0.198 A 
ATOM     86  F   UNL     1      -2.658  14.189  -8.459  1.00  0.00    -0.203 F 
ATOM     87  F   UNL     1      -6.497  17.747  -6.926  1.00  0.00    -0.200 F 
ATOM     88  C   UNL     1      -4.217  17.157  -7.091  1.00  0.00     0.200 A 
ATOM     89  F   UNL     1      -1.950  16.529  -7.300  1.00  0.00    -0.200 F 
ATOM     90  F   UNL     1      -3.858  18.332  -6.556  1.00  0.00    -0.200 F 
ENDBRANCH  56  80
BRANCH  68  91
ATOM     91  C   UNL     1      -8.176  13.228 -14.269  1.00  0.00     0.064 A 
ATOM     92  C   UNL     1      -7.357  13.960 -15.141  1.00  0.00     0.173 A 
ATOM     93  C   UNL     1      -9.564  13.284 -14.470  1.00  0.00     0.173 A 
ATOM     94  F   UNL     1      -6.025  13.952 -14.984  1.00  0.00    -0.203 F 
ATOM     95  C   UNL     1      -7.909  14.738 -16.157  1.00  0.00     0.198 A 
ATOM     96  C   UNL     1     -10.110  14.034 -15.508  1.00  0.00     0.198 A 
ATOM     97  F   UNL     1     -10.392  12.596 -13.670  1.00  0.00    -0.203 F 
ATOM     98  F   UNL     1      -7.110  15.469 -16.947  1.00  0.00    -0.200 F 
ATOM     99  C   UNL     1      -9.283  14.766 -16.345  1.00  0.00     0.200 A 
ATOM    100  F   UNL     1     -11.436  14.045 -15.699  1.00  0.00    -0.200 F 
ATOM    101  F   UNL     1      -9.810  15.505 -17.331  1.00  0.00    -0.200 F 
ENDBRANCH  68  91
ENDBRANCH  42  43
ENDBRANCH  35  37
ENDBRANCH  34  35
ENDBRANCH  33  34
ENDBRANCH  32  33
ENDBRANCH  31  32
ENDBRANCH  30  31
ENDBRANCH  29  30
ENDBRANCH  28  29
ENDBRANCH   1  28
TORSDOF 24
