REMARK SMILES Cc1cnn(C2(C(=O)OCCOCCOCCOCCOC(=O)c3ccc(-c4c5nc(c(-c6c(F)c(F)c(F)c(F)c6F)c6ccc([nH]6)c(-c6c(F)c(F)c(F)c(F)c6F)c6nc(c(-c7c(F)c(F)c(F)c(F)c7F)c7ccc4[nH]7)C=C6)C=C5)cc3)CCN(C(=O)c3cc4ccccc4[nH]3)CC2)c1
REMARK SMILES IDX 16 1 15 2 14 3 13 4 12 5 11 6 10 7 9 8 7 9 8 10 6 11 87 12
REMARK SMILES IDX 102 13 88 14 101 15 89 16 90 17 91 18 5 19 1 20 2 21 3 22
REMARK SMILES IDX 103 23 4 24 92 25 93 26 100 27 94 28 99 29 95 31 98 32 96 33
REMARK SMILES IDX 97 34 17 35 18 36 19 37 20 38 21 39 22 40 23 41 24 42 25 43
REMARK SMILES IDX 86 44 26 45 85 46 27 47 28 48 29 49 79 50 30 51 84 52 78 53
REMARK SMILES IDX 80 54 31 55 83 56 77 57 76 58 32 60 64 61 44 62 63 63 45 64
REMARK SMILES IDX 48 65 62 66 81 67 46 68 47 69 61 71 82 72 49 73 33 74 34 75
REMARK SMILES IDX 42 76 35 77 36 78 40 79 43 80 37 81 38 82 41 83 39 84 65 85
REMARK SMILES IDX 66 86 74 87 67 88 68 89 72 90 75 91 69 92 70 93 73 94 71 95
REMARK SMILES IDX 50 96 51 97 59 98 52 99 53 100 57 101 60 102 54 103 55 104
REMARK SMILES IDX 58 105 56 106
REMARK H PARENT 100 30 80 59 48 70
REMARK Flexibility Score: inf
ROOT
ATOM      1  C   UNL     1       1.169   5.643  -7.189  1.00  0.00     0.188 C 
ENDROOT
BRANCH   1   2
ATOM      2  O   UNL     1       1.043   5.426  -5.789  1.00  0.00    -0.377 OA
BRANCH   2   3
ATOM      3  C   UNL     1       0.974   4.083  -5.342  1.00  0.00     0.188 C 
BRANCH   3   4
ATOM      4  C   UNL     1      -0.405   3.427  -5.503  1.00  0.00     0.188 C 
BRANCH   4   5
ATOM      5  O   UNL     1      -1.258   4.175  -6.351  1.00  0.00    -0.376 OA
BRANCH   5   6
ATOM      6  C   UNL     1      -2.029   5.223  -5.793  1.00  0.00     0.202 C 
BRANCH   6   7
ATOM      7  C   UNL     1      -1.619   6.073  -4.568  1.00  0.00     0.261 C 
BRANCH   7   8
ATOM      8  O   UNL     1      -0.684   5.545  -3.615  1.00  0.00    -0.461 OA
BRANCH   8   9
ATOM      9  C   UNL     1      -1.156   4.732  -2.639  1.00  0.00     0.334 C 
ATOM     10  O   UNL     1      -2.341   4.424  -2.545  1.00  0.00    -0.249 OA
BRANCH   9  11
ATOM     11  C   UNL     1      -0.080   4.388  -1.569  1.00  0.00     0.163 C 
ATOM     12  C   UNL     1       1.394   4.744  -1.912  1.00  0.00     0.064 C 
ATOM     13  C   UNL     1      -0.570   5.282  -0.413  1.00  0.00     0.064 C 
ATOM     14  C   UNL     1       2.296   4.857  -0.689  1.00  0.00     0.123 C 
ATOM     15  C   UNL     1       0.406   5.532   0.718  1.00  0.00     0.123 C 
ATOM     16  N   UNL     1       1.758   5.814   0.257  1.00  0.00    -0.337 N 
ATOM     17  C   UNL     1       2.562   6.893   0.645  1.00  0.00     0.270 C 
ATOM     18  O   UNL     1       3.652   7.106   0.114  1.00  0.00    -0.267 OA
BRANCH  11  19
ATOM     19  N   UNL     1      -0.133   2.935  -1.339  1.00  0.00    -0.255 N 
ATOM     20  C   UNL     1       0.742  -0.238   0.259  1.00  0.00     0.048 C 
ATOM     21  C   UNL     1       0.321   0.908  -0.573  1.00  0.00    -0.013 A 
ATOM     22  C   UNL     1       0.015   0.899  -1.945  1.00  0.00     0.138 A 
ATOM     23  C   UNL     1       0.183   2.232  -0.206  1.00  0.00     0.113 A 
ATOM     24  N   UNL     1      -0.200   2.123  -2.421  1.00  0.00    -0.180 NA
ENDBRANCH  11  19
BRANCH  17  25
ATOM     25  C   UNL     1       2.046   7.822   1.624  1.00  0.00     0.105 A 
ATOM     26  C   UNL     1       1.265   7.655   2.755  1.00  0.00     0.042 A 
ATOM     27  N   UNL     1       2.323   9.170   1.554  1.00  0.00    -0.351 N 
ATOM     28  C   UNL     1       0.774   8.931   3.128  1.00  0.00     0.000 A 
ATOM     29  C   UNL     1       1.480   9.872   2.383  1.00  0.00     0.046 A 
ATOM     30  H   UNL     1       3.024   9.573   0.993  1.00  0.00     0.167 HD
ATOM     31  C   UNL     1      -0.226   9.367   4.014  1.00  0.00     0.010 A 
ATOM     32  C   UNL     1       1.276  11.247   2.519  1.00  0.00     0.026 A 
ATOM     33  C   UNL     1      -0.478  10.737   4.127  1.00  0.00     0.001 A 
ATOM     34  C   UNL     1       0.275  11.661   3.403  1.00  0.00     0.002 A 
ENDBRANCH  17  25
ENDBRANCH   9  11
ENDBRANCH   8   9
ENDBRANCH   7   8
ENDBRANCH   6   7
ENDBRANCH   5   6
ENDBRANCH   4   5
ENDBRANCH   3   4
ENDBRANCH   2   3
ENDBRANCH   1   2
BRANCH   1  35
ATOM     35  C   UNL     1       0.891   4.534  -8.243  1.00  0.00     0.188 C 
BRANCH  35  36
ATOM     36  O   UNL     1       1.033   3.187  -7.802  1.00  0.00    -0.376 OA
BRANCH  36  37
ATOM     37  C   UNL     1       2.089   2.361  -8.261  1.00  0.00     0.202 C 
BRANCH  37  38
ATOM     38  C   UNL     1       3.445   2.599  -7.593  1.00  0.00     0.261 C 
BRANCH  38  39
ATOM     39  O   UNL     1       3.792   3.971  -7.548  1.00  0.00    -0.460 OA
BRANCH  39  40
ATOM     40  C   UNL     1       3.913   4.545  -8.759  1.00  0.00     0.338 C 
ATOM     41  O   UNL     1       3.774   4.019  -9.847  1.00  0.00    -0.246 OA
BRANCH  40  42
ATOM     42  C   UNL     1       4.331   5.936  -8.572  1.00  0.00     0.060 A 
ATOM     43  C   UNL     1       4.502   6.655  -9.752  1.00  0.00     0.016 A 
ATOM     44  C   UNL     1       4.915   6.308  -7.351  1.00  0.00     0.016 A 
ATOM     45  C   UNL     1       5.585   7.484  -9.804  1.00  0.00     0.010 A 
ATOM     46  C   UNL     1       5.998   7.137  -7.403  1.00  0.00     0.010 A 
ATOM     47  C   UNL     1       6.391   7.567  -8.663  1.00  0.00    -0.014 A 
BRANCH  47  48
ATOM     48  C   UNL     1       7.753   7.972  -8.882  1.00  0.00     0.031 A 
ATOM     49  C   UNL     1       7.913   9.421  -9.021  1.00  0.00     0.074 A 
ATOM     50  C   UNL     1       8.741   7.060  -8.936  1.00  0.00     0.049 A 
ATOM     51  N   UNL     1       8.245  10.087 -10.074  1.00  0.00    -0.248 NA
ATOM     52  C   UNL     1       7.490  10.238  -7.875  1.00  0.00     0.031 C 
ATOM     53  C   UNL     1       8.715   5.652  -8.524  1.00  0.00     0.029 A 
ATOM     54  N   UNL     1      10.033   7.252  -9.295  1.00  0.00    -0.354 N 
ATOM     55  C   UNL     1       8.254  11.412  -9.667  1.00  0.00     0.074 A 
ATOM     56  C   UNL     1       7.614  11.464  -8.377  1.00  0.00     0.031 C 
ATOM     57  C   UNL     1       9.986   5.194  -8.439  1.00  0.00     0.029 A 
ATOM     58  C   UNL     1      10.886   6.230  -8.918  1.00  0.00     0.049 A 
ATOM     59  H   UNL     1      10.340   8.050  -9.783  1.00  0.00     0.167 HD
ATOM     60  C   UNL     1       9.031  12.330 -10.294  1.00  0.00     0.037 A 
ATOM     61  C   UNL     1      12.237   6.312  -8.899  1.00  0.00     0.037 A 
ATOM     62  C   UNL     1       9.405  11.911 -11.617  1.00  0.00     0.049 A 
ATOM     63  C   UNL     1      12.627   7.461  -9.761  1.00  0.00     0.074 A 
ATOM     64  C   UNL     1       8.703  11.611 -12.769  1.00  0.00     0.029 A 
ATOM     65  N   UNL     1      10.662  11.392 -11.803  1.00  0.00    -0.354 N 
ATOM     66  N   UNL     1      12.478   7.489 -11.057  1.00  0.00    -0.248 NA
ATOM     67  C   UNL     1      12.781   8.763  -9.127  1.00  0.00     0.031 C 
ATOM     68  C   UNL     1       9.426  10.548 -13.386  1.00  0.00     0.029 A 
ATOM     69  C   UNL     1      10.538  10.274 -12.589  1.00  0.00     0.049 A 
ATOM     70  H   UNL     1      11.501  11.756 -11.438  1.00  0.00     0.167 HD
ATOM     71  C   UNL     1      12.120   8.799 -11.351  1.00  0.00     0.074 A 
ATOM     72  C   UNL     1      12.416   9.555 -10.139  1.00  0.00     0.031 C 
ATOM     73  C   UNL     1      11.358   9.093 -12.445  1.00  0.00     0.037 A 
BRANCH  60  74
ATOM     74  C   UNL     1       9.736  13.419  -9.541  1.00  0.00     0.064 A 
ATOM     75  C   UNL     1      10.294  14.496 -10.245  1.00  0.00     0.173 A 
ATOM     76  C   UNL     1      10.114  13.304  -8.183  1.00  0.00     0.173 A 
ATOM     77  F   UNL     1      10.033  14.665 -11.550  1.00  0.00    -0.203 F 
ATOM     78  C   UNL     1      11.198  15.372  -9.641  1.00  0.00     0.198 A 
ATOM     79  C   UNL     1      10.964  14.216  -7.568  1.00  0.00     0.198 A 
ATOM     80  F   UNL     1       9.771  12.248  -7.434  1.00  0.00    -0.203 F 
ATOM     81  F   UNL     1      11.797  16.318 -10.377  1.00  0.00    -0.200 F 
ATOM     82  C   UNL     1      11.529  15.234  -8.304  1.00  0.00     0.200 A 
ATOM     83  F   UNL     1      11.289  14.048  -6.278  1.00  0.00    -0.200 F 
ATOM     84  F   UNL     1      12.432  16.044  -7.738  1.00  0.00    -0.200 F 
ENDBRANCH  60  74
BRANCH  61  85
ATOM     85  C   UNL     1      13.137   5.743  -7.870  1.00  0.00     0.064 A 
ATOM     86  C   UNL     1      14.509   5.596  -8.115  1.00  0.00     0.173 A 
ATOM     87  C   UNL     1      12.715   5.584  -6.534  1.00  0.00     0.173 A 
ATOM     88  F   UNL     1      14.995   5.783  -9.350  1.00  0.00    -0.203 F 
ATOM     89  C   UNL     1      15.410   5.321  -7.081  1.00  0.00     0.198 A 
ATOM     90  C   UNL     1      13.612   5.300  -5.505  1.00  0.00     0.198 A 
ATOM     91  F   UNL     1      11.438   5.795  -6.183  1.00  0.00    -0.203 F 
ATOM     92  F   UNL     1      16.723   5.245  -7.341  1.00  0.00    -0.200 F 
ATOM     93  C   UNL     1      14.962   5.181  -5.777  1.00  0.00     0.200 A 
ATOM     94  F   UNL     1      13.168   5.205  -4.244  1.00  0.00    -0.200 F 
ATOM     95  F   UNL     1      15.831   4.975  -4.778  1.00  0.00    -0.200 F 
ENDBRANCH  61  85
BRANCH  73  96
ATOM     96  C   UNL     1      11.155   7.997 -13.454  1.00  0.00     0.064 A 
ATOM     97  C   UNL     1      10.446   6.814 -13.183  1.00  0.00     0.173 A 
ATOM     98  C   UNL     1      11.575   8.210 -14.773  1.00  0.00     0.173 A 
ATOM     99  F   UNL     1       9.921   6.590 -11.972  1.00  0.00    -0.203 F 
ATOM    100  C   UNL     1      10.217   5.864 -14.178  1.00  0.00     0.198 A 
ATOM    101  C   UNL     1      11.314   7.277 -15.773  1.00  0.00     0.198 A 
ATOM    102  F   UNL     1      12.202   9.350 -15.103  1.00  0.00    -0.203 F 
ATOM    103  F   UNL     1       9.552   4.736 -13.890  1.00  0.00    -0.200 F 
ATOM    104  C   UNL     1      10.646   6.100 -15.473  1.00  0.00     0.200 A 
ATOM    105  F   UNL     1      11.686   7.531 -17.035  1.00  0.00    -0.200 F 
ATOM    106  F   UNL     1      10.392   5.206 -16.439  1.00  0.00    -0.200 F 
ENDBRANCH  73  96
ENDBRANCH  47  48
ENDBRANCH  40  42
ENDBRANCH  39  40
ENDBRANCH  38  39
ENDBRANCH  37  38
ENDBRANCH  36  37
ENDBRANCH  35  36
ENDBRANCH   1  35
TORSDOF 22
