REMARK SMILES O=C(OCCOCCOCCOCCOC(=O)[C@H]1CC[C@H]2CCCC[C@@H]2[N@H+]1C[C@H]1CCCCO1)c1ccc(-c2c3nc(c(-c4c(F)c(F)c(F)c(F)c4F)c4ccc([nH]4)c(-c4c(F)c(F)c(F)c(F)c4F)c4nc(c(-c5c(F)c(F)c(F)c(F)c5F)c5ccc2[nH]5)C=C4)C=C3)cc1
REMARK SMILES IDX 9 1 8 2 7 3 6 4 5 5 4 6 3 7 2 8 1 9 35 10 36 11 97 12 37 13
REMARK SMILES IDX 96 14 38 15 39 16 40 17 90 18 41 19 95 20 89 21 91 22 42 23
REMARK SMILES IDX 94 24 88 25 87 26 43 28 75 29 55 30 74 31 56 32 59 33 73 34
REMARK SMILES IDX 92 35 57 36 58 37 72 39 93 40 60 41 44 42 45 43 53 44 46 45
REMARK SMILES IDX 47 46 51 47 54 48 48 49 49 50 52 51 50 52 76 53 77 54 85 55
REMARK SMILES IDX 78 56 79 57 83 58 86 59 80 60 81 61 84 62 82 63 61 64 62 65
REMARK SMILES IDX 70 66 63 67 64 68 68 69 71 70 65 71 66 72 69 73 67 74 10 75
REMARK SMILES IDX 11 76 12 77 13 78 14 79 15 80 16 81 17 82 18 83 19 84 27 85
REMARK SMILES IDX 20 86 26 87 21 89 25 90 22 91 24 92 23 93 28 94 29 95 30 96
REMARK SMILES IDX 34 97 31 98 33 99 32 100
REMARK H PARENT 91 27 59 38 27 88
REMARK Flexibility Score: inf
ROOT
ATOM      1  O   UNL     1       2.378   3.482  -0.800  1.00  0.00    -0.377 OA
ENDROOT
BRANCH   1   2
ATOM      2  C   UNL     1       1.651   2.415  -0.223  1.00  0.00     0.188 C 
BRANCH   2   3
ATOM      3  C   UNL     1       2.265   1.001  -0.192  1.00  0.00     0.188 C 
BRANCH   3   4
ATOM      4  O   UNL     1       3.668   0.895  -0.030  1.00  0.00    -0.376 OA
BRANCH   4   5
ATOM      5  C   UNL     1       4.620   0.252  -0.872  1.00  0.00     0.202 C 
BRANCH   5   6
ATOM      6  C   UNL     1       4.323  -1.145  -1.347  1.00  0.00     0.261 C 
BRANCH   6   7
ATOM      7  O   UNL     1       3.061  -1.703  -0.962  1.00  0.00    -0.460 OA
BRANCH   7   8
ATOM      8  C   UNL     1       2.465  -1.859   0.239  1.00  0.00     0.338 C 
ATOM      9  O   UNL     1       1.265  -2.132   0.251  1.00  0.00    -0.246 OA
BRANCH   8  10
ATOM     10  C   UNL     1       3.158  -1.764   1.558  1.00  0.00     0.060 A 
ATOM     11  C   UNL     1       4.243  -0.955   1.869  1.00  0.00     0.016 A 
ATOM     12  C   UNL     1       2.584  -2.473   2.618  1.00  0.00     0.016 A 
ATOM     13  C   UNL     1       4.879  -0.961   3.075  1.00  0.00     0.010 A 
ATOM     14  C   UNL     1       3.139  -2.408   3.898  1.00  0.00     0.010 A 
ATOM     15  C   UNL     1       4.317  -1.684   4.096  1.00  0.00    -0.014 A 
BRANCH  15  16
ATOM     16  C   UNL     1       5.174  -1.813   5.261  1.00  0.00     0.031 A 
ATOM     17  C   UNL     1       5.932  -3.089   5.363  1.00  0.00     0.074 A 
ATOM     18  C   UNL     1       5.443  -0.725   6.000  1.00  0.00     0.049 A 
ATOM     19  N   UNL     1       6.726  -3.498   6.306  1.00  0.00    -0.248 NA
ATOM     20  C   UNL     1       5.788  -4.032   4.234  1.00  0.00     0.031 C 
ATOM     21  C   UNL     1       4.904   0.623   5.766  1.00  0.00     0.029 A 
ATOM     22  N   UNL     1       6.272  -0.571   7.070  1.00  0.00    -0.354 N 
ATOM     23  C   UNL     1       7.140  -4.756   5.904  1.00  0.00     0.074 A 
ATOM     24  C   UNL     1       6.500  -5.063   4.650  1.00  0.00     0.031 C 
ATOM     25  C   UNL     1       5.402   1.459   6.690  1.00  0.00     0.029 A 
ATOM     26  C   UNL     1       6.226   0.689   7.611  1.00  0.00     0.049 A 
ATOM     27  H   UNL     1       6.846  -1.290   7.420  1.00  0.00     0.167 HD
ATOM     28  C   UNL     1       7.991  -5.573   6.553  1.00  0.00     0.037 A 
ATOM     29  C   UNL     1       6.752   1.121   8.768  1.00  0.00     0.037 A 
ATOM     30  C   UNL     1       8.588  -5.212   7.804  1.00  0.00     0.049 A 
ATOM     31  C   UNL     1       7.545   0.119   9.567  1.00  0.00     0.074 A 
ATOM     32  C   UNL     1       9.388  -5.971   8.631  1.00  0.00     0.029 A 
ATOM     33  N   UNL     1       8.434  -3.968   8.408  1.00  0.00    -0.354 N 
ATOM     34  N   UNL     1       7.865  -1.119   9.262  1.00  0.00    -0.248 NA
ATOM     35  C   UNL     1       8.047   0.564  10.868  1.00  0.00     0.031 C 
ATOM     36  C   UNL     1       9.660  -5.208   9.771  1.00  0.00     0.029 A 
ATOM     37  C   UNL     1       9.107  -3.944   9.613  1.00  0.00     0.049 A 
ATOM     38  H   UNL     1       7.921  -3.216   8.031  1.00  0.00     0.167 HD
ATOM     39  C   UNL     1       8.636  -1.589  10.314  1.00  0.00     0.074 A 
ATOM     40  C   UNL     1       8.752  -0.489  11.253  1.00  0.00     0.031 C 
ATOM     41  C   UNL     1       9.199  -2.810  10.499  1.00  0.00     0.037 A 
BRANCH  28  42
ATOM     42  C   UNL     1       8.218  -6.925   5.959  1.00  0.00     0.064 A 
ATOM     43  C   UNL     1       8.899  -7.103   4.745  1.00  0.00     0.173 A 
ATOM     44  C   UNL     1       7.690  -8.059   6.591  1.00  0.00     0.173 A 
ATOM     45  F   UNL     1       9.376  -6.043   4.074  1.00  0.00    -0.203 F 
ATOM     46  C   UNL     1       9.023  -8.367   4.175  1.00  0.00     0.198 A 
ATOM     47  C   UNL     1       7.851  -9.325   6.039  1.00  0.00     0.198 A 
ATOM     48  F   UNL     1       7.002  -7.938   7.735  1.00  0.00    -0.203 F 
ATOM     49  F   UNL     1       9.612  -8.505   2.979  1.00  0.00    -0.200 F 
ATOM     50  C   UNL     1       8.510  -9.477   4.828  1.00  0.00     0.200 A 
ATOM     51  F   UNL     1       7.354 -10.396   6.671  1.00  0.00    -0.200 F 
ATOM     52  F   UNL     1       8.635 -10.694   4.281  1.00  0.00    -0.200 F 
ENDBRANCH  28  42
BRANCH  29  53
ATOM     53  C   UNL     1       6.478   2.493   9.273  1.00  0.00     0.064 A 
ATOM     54  C   UNL     1       7.518   3.393   9.540  1.00  0.00     0.173 A 
ATOM     55  C   UNL     1       5.169   2.910   9.571  1.00  0.00     0.173 A 
ATOM     56  F   UNL     1       8.787   3.043   9.286  1.00  0.00    -0.203 F 
ATOM     57  C   UNL     1       7.268   4.629  10.134  1.00  0.00     0.198 A 
ATOM     58  C   UNL     1       4.916   4.163  10.124  1.00  0.00     0.198 A 
ATOM     59  F   UNL     1       4.130   2.095   9.336  1.00  0.00    -0.203 F 
ATOM     60  F   UNL     1       8.291   5.431  10.459  1.00  0.00    -0.200 F 
ATOM     61  C   UNL     1       5.968   5.014  10.425  1.00  0.00     0.200 A 
ATOM     62  F   UNL     1       3.656   4.535  10.387  1.00  0.00    -0.200 F 
ATOM     63  F   UNL     1       5.730   6.194  11.012  1.00  0.00    -0.200 F 
ENDBRANCH  29  53
BRANCH  41  64
ATOM     64  C   UNL     1      10.041  -2.984  11.727  1.00  0.00     0.064 A 
ATOM     65  C   UNL     1       9.486  -2.990  13.014  1.00  0.00     0.173 A 
ATOM     66  C   UNL     1      11.423  -3.194  11.601  1.00  0.00     0.173 A 
ATOM     67  F   UNL     1       8.171  -2.786  13.185  1.00  0.00    -0.203 F 
ATOM     68  C   UNL     1      10.293  -3.152  14.135  1.00  0.00     0.198 A 
ATOM     69  C   UNL     1      12.217  -3.410  12.720  1.00  0.00     0.198 A 
ATOM     70  F   UNL     1      11.999  -3.215  10.389  1.00  0.00    -0.203 F 
ATOM     71  F   UNL     1       9.754  -3.078  15.359  1.00  0.00    -0.200 F 
ATOM     72  C   UNL     1      11.654  -3.373  13.986  1.00  0.00     0.200 A 
ATOM     73  F   UNL     1      13.526  -3.654  12.572  1.00  0.00    -0.200 F 
ATOM     74  F   UNL     1      12.427  -3.542  15.067  1.00  0.00    -0.200 F 
ENDBRANCH  41  64
ENDBRANCH  15  16
ENDBRANCH   8  10
ENDBRANCH   7   8
ENDBRANCH   6   7
ENDBRANCH   5   6
ENDBRANCH   4   5
ENDBRANCH   3   4
ENDBRANCH   2   3
ENDBRANCH   1   2
BRANCH   1  75
ATOM     75  C   UNL     1       3.768   3.252  -0.886  1.00  0.00     0.188 C 
BRANCH  75  76
ATOM     76  C   UNL     1       4.592   3.215   0.458  1.00  0.00     0.188 C 
BRANCH  76  77
ATOM     77  O   UNL     1       3.802   2.933   1.619  1.00  0.00    -0.376 OA
BRANCH  77  78
ATOM     78  C   UNL     1       3.484   4.015   2.489  1.00  0.00     0.202 C 
BRANCH  78  79
ATOM     79  C   UNL     1       2.660   5.179   1.915  1.00  0.00     0.261 C 
BRANCH  79  80
ATOM     80  O   UNL     1       3.129   5.709   0.670  1.00  0.00    -0.459 OA
BRANCH  80  81
ATOM     81  C   UNL     1       4.435   6.085   0.574  1.00  0.00     0.364 C 
ATOM     82  O   UNL     1       5.162   6.319   1.528  1.00  0.00    -0.245 OA
BRANCH  81  83
ATOM     83  C   UNL     1       4.823   6.116  -0.928  1.00  0.00     0.295 C 
ATOM     84  C   UNL     1       5.374   8.054  -1.244  1.00  0.00     0.078 C 
ATOM     85  N   UNL     1       6.066   4.819  -1.594  1.00  0.00    -0.318 N 
ATOM     86  C   UNL     1       6.516   7.902  -3.104  1.00  0.00     0.016 C 
ATOM     87  C   UNL     1       6.487   4.938  -3.190  1.00  0.00     0.187 C 
ATOM     88  H   UNL     1       5.620   3.947  -1.309  1.00  0.00     0.349 HD
ATOM     89  C   UNL     1       6.511   6.306  -4.015  1.00  0.00     0.048 C 
ATOM     90  C   UNL     1       6.224   3.715  -4.107  1.00  0.00     0.065 C 
ATOM     91  C   UNL     1       7.471   6.290  -5.211  1.00  0.00     0.010 C 
ATOM     92  C   UNL     1       7.149   3.768  -5.364  1.00  0.00     0.006 C 
ATOM     93  C   UNL     1       7.108   5.099  -6.117  1.00  0.00     0.001 C 
BRANCH  85  94
ATOM     94  C   UNL     1       7.697   5.309  -1.094  1.00  0.00     0.295 C 
BRANCH  94  95
ATOM     95  C   UNL     1       8.072   6.963  -1.806  1.00  0.00     0.173 C 
ATOM     96  C   UNL     1       6.607   6.778  -1.554  1.00  0.00     0.038 C 
ATOM     97  O   UNL     1       7.816   8.715  -1.397  1.00  0.00    -0.372 OA
ATOM     98  C   UNL     1       4.848   7.229  -2.730  1.00  0.00     0.005 C 
ATOM     99  C   UNL     1       6.590   9.794  -2.107  1.00  0.00     0.161 C 
ATOM    100  C   UNL     1       4.930   9.205  -2.909  1.00  0.00     0.029 C 
ENDBRANCH  94  95
ENDBRANCH  85  94
ENDBRANCH  81  83
ENDBRANCH  80  81
ENDBRANCH  79  80
ENDBRANCH  78  79
ENDBRANCH  77  78
ENDBRANCH  76  77
ENDBRANCH  75  76
ENDBRANCH   1  75
TORSDOF 22
