REMARK SMILES Cc1ccc(-c2csc(NC(=O)[C@H]3[C@@H](C(=O)OCCOCCOCCOCCOC(=O)c4ccc(-c5c6nc(c(-c7c(F)c(F)c(F)c(F)c7F)c7ccc([nH]7)c(-c7c(F)c(F)c(F)c(F)c7F)c7nc(c(-c8c(F)c(F)c(F)c(F)c8F)c8ccc5[nH]8)C=C7)C=C6)cc4)[C@H]4C=C[C@@H]3C4)c2C(=O)NC2CC2)cc1
REMARK SMILES IDX 22 1 21 2 20 3 19 4 18 5 17 6 15 7 16 8 14 9 13 10 98 11
REMARK SMILES IDX 95 12 97 13 99 14 96 15 11 16 10 17 12 19 9 20 6 21 7 22
REMARK SMILES IDX 100 23 8 24 5 25 1 26 2 27 3 28 108 29 4 30 107 31 101 32
REMARK SMILES IDX 102 33 103 34 104 36 105 37 106 38 23 39 24 40 25 41 26 42
REMARK SMILES IDX 27 43 28 44 29 45 30 46 31 47 32 48 33 49 94 50 34 51 93 52
REMARK SMILES IDX 35 53 36 54 37 55 87 56 38 57 92 58 86 59 88 60 39 61 91 62
REMARK SMILES IDX 85 63 84 64 40 66 72 67 52 68 71 69 53 70 56 71 70 72 89 73
REMARK SMILES IDX 54 74 55 75 69 77 90 78 57 79 41 80 42 81 50 82 43 83 44 84
REMARK SMILES IDX 48 85 51 86 45 87 46 88 49 89 47 90 73 91 74 92 82 93 75 94
REMARK SMILES IDX 76 95 80 96 83 97 77 98 78 99 81 100 79 101 58 102 59 103
REMARK SMILES IDX 67 104 60 105 61 106 65 107 68 108 62 109 63 110 66 111
REMARK SMILES IDX 64 112
REMARK H PARENT 10 18 103 35 88 65 56 76
REMARK Flexibility Score: inf
ROOT
ATOM      1  C   UNL     1      -6.917  -1.870  -2.054  1.00  0.00     0.188 C 
ENDROOT
BRANCH   1   2
ATOM      2  C   UNL     1      -6.772  -1.547  -3.736  1.00  0.00     0.188 C 
BRANCH   2   3
ATOM      3  O   UNL     1      -5.776  -0.535  -4.854  1.00  0.00    -0.376 OA
BRANCH   3   4
ATOM      4  C   UNL     1      -4.760   0.904  -4.691  1.00  0.00     0.202 C 
BRANCH   4   5
ATOM      5  C   UNL     1      -4.982   2.354  -3.496  1.00  0.00     0.261 C 
BRANCH   5   6
ATOM      6  O   UNL     1      -6.499   2.670  -2.527  1.00  0.00    -0.463 OA
BRANCH   6   7
ATOM      7  C   UNL     1      -7.977   2.466  -2.360  1.00  0.00     0.310 C 
ATOM      8  O   UNL     1      -8.832   2.439  -3.250  1.00  0.00    -0.252 OA
BRANCH   7   9
ATOM      9  C   UNL     1      -8.593   2.218  -0.927  1.00  0.00     0.119 C 
ATOM     10  C   UNL     1      -9.442   0.927  -0.510  1.00  0.00     0.100 C 
ATOM     11  C   UNL     1     -10.709   1.579   0.095  1.00  0.00     0.025 C 
ATOM     12  C   UNL     1      -9.530   3.373  -0.504  1.00  0.00     0.027 C 
ATOM     13  C   UNL     1     -11.478   2.266  -0.997  1.00  0.00    -0.027 C 
ATOM     14  C   UNL     1     -10.103   2.794   0.795  1.00  0.00     0.017 C 
ATOM     15  C   UNL     1     -10.777   3.353  -1.343  1.00  0.00    -0.027 C 
BRANCH  10  16
ATOM     16  C   UNL     1      -9.764  -0.211  -1.462  1.00  0.00     0.229 C 
ATOM     17  N   UNL     1      -9.971  -1.461  -0.873  1.00  0.00    -0.317 N 
ATOM     18  H   UNL     1      -9.252  -2.130  -0.806  1.00  0.00     0.170 HD
ATOM     19  O   UNL     1      -9.735  -0.135  -2.685  1.00  0.00    -0.274 OA
BRANCH  17  20
ATOM     20  C   UNL     1     -11.248  -1.705  -0.387  1.00  0.00     0.108 A 
ATOM     21  C   UNL     1     -13.517  -1.943  -0.247  1.00  0.00     0.007 A 
ATOM     22  C   UNL     1     -13.159  -1.487   1.019  1.00  0.00     0.076 A 
ATOM     23  C   UNL     1     -12.338  -2.252  -1.069  1.00  0.00     0.082 A 
ATOM     24  S   UNL     1     -11.480  -1.528   1.274  1.00  0.00    -0.125 S 
BRANCH  21  25
ATOM     25  C   UNL     1     -14.950  -2.150  -0.417  1.00  0.00    -0.017 A 
ATOM     26  C   UNL     1     -18.932  -3.375  -1.389  1.00  0.00     0.044 C 
ATOM     27  C   UNL     1     -17.634  -2.818  -0.880  1.00  0.00    -0.051 A 
ATOM     28  C   UNL     1     -16.860  -3.594  -0.014  1.00  0.00     0.004 A 
ATOM     29  C   UNL     1     -17.104  -1.620  -1.384  1.00  0.00     0.004 A 
ATOM     30  C   UNL     1     -15.538  -3.242   0.239  1.00  0.00     0.009 A 
ATOM     31  C   UNL     1     -15.762  -1.279  -1.149  1.00  0.00     0.009 A 
ENDBRANCH  21  25
BRANCH  23  32
ATOM     32  C   UNL     1     -12.023  -2.868  -2.390  1.00  0.00     0.255 C 
ATOM     33  O   UNL     1     -10.841  -3.031  -2.733  1.00  0.00    -0.269 OA
ATOM     34  N   UNL     1     -12.927  -3.233  -3.355  1.00  0.00    -0.349 N 
ATOM     35  H   UNL     1     -12.997  -2.642  -4.139  1.00  0.00     0.164 HD
BRANCH  34  36
ATOM     36  C   UNL     1     -13.780  -4.387  -3.345  1.00  0.00     0.082 C 
ATOM     37  C   UNL     1     -14.340  -5.014  -2.117  1.00  0.00     0.027 C 
ATOM     38  C   UNL     1     -15.217  -4.179  -3.017  1.00  0.00     0.027 C 
ENDBRANCH  34  36
ENDBRANCH  23  32
ENDBRANCH  17  20
ENDBRANCH  10  16
ENDBRANCH   7   9
ENDBRANCH   6   7
ENDBRANCH   5   6
ENDBRANCH   4   5
ENDBRANCH   3   4
ENDBRANCH   2   3
ENDBRANCH   1   2
BRANCH   1  39
ATOM     39  O   UNL     1      -6.102  -1.699  -0.884  1.00  0.00    -0.377 OA
BRANCH  39  40
ATOM     40  C   UNL     1      -5.156  -2.595  -0.333  1.00  0.00     0.188 C 
BRANCH  40  41
ATOM     41  C   UNL     1      -5.267  -4.059  -0.599  1.00  0.00     0.188 C 
BRANCH  41  42
ATOM     42  O   UNL     1      -5.745  -4.212  -1.916  1.00  0.00    -0.376 OA
BRANCH  42  43
ATOM     43  C   UNL     1      -6.162  -5.522  -2.217  1.00  0.00     0.202 C 
BRANCH  43  44
ATOM     44  C   UNL     1      -4.944  -6.438  -2.349  1.00  0.00     0.261 C 
BRANCH  44  45
ATOM     45  O   UNL     1      -3.997  -5.860  -3.286  1.00  0.00    -0.460 OA
BRANCH  45  46
ATOM     46  C   UNL     1      -2.913  -5.187  -2.756  1.00  0.00     0.338 C 
ATOM     47  O   UNL     1      -2.189  -5.614  -1.887  1.00  0.00    -0.246 OA
BRANCH  46  48
ATOM     48  C   UNL     1      -2.952  -3.751  -3.204  1.00  0.00     0.060 A 
ATOM     49  C   UNL     1      -2.449  -2.652  -2.486  1.00  0.00     0.016 A 
ATOM     50  C   UNL     1      -3.793  -3.446  -4.212  1.00  0.00     0.016 A 
ATOM     51  C   UNL     1      -3.113  -1.345  -2.486  1.00  0.00     0.010 A 
ATOM     52  C   UNL     1      -4.419  -2.205  -4.141  1.00  0.00     0.010 A 
ATOM     53  C   UNL     1      -4.345  -1.135  -3.114  1.00  0.00    -0.014 A 
BRANCH  53  54
ATOM     54  C   UNL     1      -5.599   0.207  -2.695  1.00  0.00     0.031 A 
ATOM     55  C   UNL     1      -6.912   0.940  -4.015  1.00  0.00     0.074 A 
ATOM     56  C   UNL     1      -5.312   0.711  -1.382  1.00  0.00     0.049 A 
ATOM     57  N   UNL     1      -6.766   2.183  -4.584  1.00  0.00    -0.248 NA
ATOM     58  C   UNL     1      -7.868   0.393  -5.199  1.00  0.00     0.031 C 
ATOM     59  C   UNL     1      -5.933   1.716  -0.494  1.00  0.00     0.029 A 
ATOM     60  N   UNL     1      -4.245   0.395  -0.493  1.00  0.00    -0.354 N 
ATOM     61  C   UNL     1      -7.607   2.607  -5.549  1.00  0.00     0.074 A 
ATOM     62  C   UNL     1      -8.124   1.392  -6.064  1.00  0.00     0.031 C 
ATOM     63  C   UNL     1      -5.402   1.912   0.708  1.00  0.00     0.029 A 
ATOM     64  C   UNL     1      -4.115   1.387   0.517  1.00  0.00     0.049 A 
ATOM     65  H   UNL     1      -3.674  -0.403  -0.568  1.00  0.00     0.167 HD
ATOM     66  C   UNL     1      -7.869   3.938  -5.735  1.00  0.00     0.037 A 
ATOM     67  C   UNL     1      -3.064   2.240   0.594  1.00  0.00     0.037 A 
ATOM     68  C   UNL     1      -7.447   4.813  -4.608  1.00  0.00     0.049 A 
ATOM     69  C   UNL     1      -3.276   3.631  -0.063  1.00  0.00     0.074 A 
ATOM     70  C   UNL     1      -8.157   5.266  -3.503  1.00  0.00     0.029 A 
ATOM     71  N   UNL     1      -6.113   5.117  -4.308  1.00  0.00    -0.354 N 
ATOM     72  N   UNL     1      -4.133   3.939  -1.026  1.00  0.00    -0.248 NA
ATOM     73  C   UNL     1      -2.600   4.823   0.444  1.00  0.00     0.031 C 
ATOM     74  C   UNL     1      -7.244   5.611  -2.467  1.00  0.00     0.029 A 
ATOM     75  C   UNL     1      -5.950   5.486  -2.953  1.00  0.00     0.049 A 
ATOM     76  H   UNL     1      -5.377   5.078  -4.961  1.00  0.00     0.167 HD
ATOM     77  C   UNL     1      -4.052   5.292  -1.341  1.00  0.00     0.074 A 
ATOM     78  C   UNL     1      -3.122   5.791  -0.330  1.00  0.00     0.031 C 
ATOM     79  C   UNL     1      -4.684   5.974  -2.374  1.00  0.00     0.037 A 
BRANCH  66  80
ATOM     80  C   UNL     1      -8.922   4.267  -6.763  1.00  0.00     0.064 A 
ATOM     81  C   UNL     1     -10.070   5.023  -6.473  1.00  0.00     0.173 A 
ATOM     82  C   UNL     1      -8.855   3.729  -8.066  1.00  0.00     0.173 A 
ATOM     83  F   UNL     1     -10.220   5.651  -5.302  1.00  0.00    -0.203 F 
ATOM     84  C   UNL     1     -11.125   5.139  -7.383  1.00  0.00     0.198 A 
ATOM     85  C   UNL     1      -9.925   3.816  -8.962  1.00  0.00     0.198 A 
ATOM     86  F   UNL     1      -7.759   3.067  -8.473  1.00  0.00    -0.203 F 
ATOM     87  F   UNL     1     -12.214   5.849  -7.053  1.00  0.00    -0.200 F 
ATOM     88  C   UNL     1     -11.067   4.510  -8.613  1.00  0.00     0.200 A 
ATOM     89  F   UNL     1      -9.855   3.202 -10.152  1.00  0.00    -0.200 F 
ATOM     90  F   UNL     1     -12.105   4.577  -9.458  1.00  0.00    -0.200 F 
ENDBRANCH  66  80
BRANCH  67  91
ATOM     91  C   UNL     1      -1.896   1.382   0.936  1.00  0.00     0.064 A 
ATOM     92  C   UNL     1      -2.095   0.550   2.081  1.00  0.00     0.173 A 
ATOM     93  C   UNL     1      -1.097   0.873  -0.086  1.00  0.00     0.173 A 
ATOM     94  F   UNL     1      -2.869   0.985   3.092  1.00  0.00    -0.203 F 
ATOM     95  C   UNL     1      -1.772  -0.805   2.054  1.00  0.00     0.198 A 
ATOM     96  C   UNL     1      -0.702  -0.471  -0.065  1.00  0.00     0.198 A 
ATOM     97  F   UNL     1      -0.898   1.591  -1.200  1.00  0.00    -0.203 F 
ATOM     98  F   UNL     1      -2.236  -1.627   3.008  1.00  0.00    -0.200 F 
ATOM     99  C   UNL     1      -1.107  -1.322   0.959  1.00  0.00     0.200 A 
ATOM    100  F   UNL     1      -0.068  -0.987  -1.127  1.00  0.00    -0.200 F 
ATOM    101  F   UNL     1      -0.932  -2.647   0.848  1.00  0.00    -0.200 F 
ENDBRANCH  67  91
BRANCH  79 102
ATOM    102  C   UNL     1      -4.232   7.347  -2.893  1.00  0.00     0.064 A 
ATOM    103  C   UNL     1      -2.911   7.816  -2.808  1.00  0.00     0.173 A 
ATOM    104  C   UNL     1      -5.097   8.159  -3.681  1.00  0.00     0.173 A 
ATOM    105  F   UNL     1      -1.952   7.104  -2.203  1.00  0.00    -0.203 F 
ATOM    106  C   UNL     1      -2.504   9.014  -3.404  1.00  0.00     0.198 A 
ATOM    107  C   UNL     1      -4.664   9.305  -4.347  1.00  0.00     0.198 A 
ATOM    108  F   UNL     1      -6.390   7.861  -3.865  1.00  0.00    -0.203 F 
ATOM    109  F   UNL     1      -1.243   9.438  -3.237  1.00  0.00    -0.200 F 
ATOM    110  C   UNL     1      -3.371   9.744  -4.193  1.00  0.00     0.200 A 
ATOM    111  F   UNL     1      -5.507   9.960  -5.158  1.00  0.00    -0.200 F 
ATOM    112  F   UNL     1      -2.954  10.851  -4.820  1.00  0.00    -0.200 F 
ENDBRANCH  79 102
ENDBRANCH  53  54
ENDBRANCH  46  48
ENDBRANCH  45  46
ENDBRANCH  44  45
ENDBRANCH  43  44
ENDBRANCH  42  43
ENDBRANCH  41  42
ENDBRANCH  40  41
ENDBRANCH  39  40
ENDBRANCH   1  39
TORSDOF 25
