REMARK SMILES CC1=C(C)C[C@@H](C(=O)OCCOCCOCCOCCOC(=O)c2ccc(-c3c4nc(c(-c5c(F)c(F)c(F)c(F)c5F)c5ccc([nH]5)c(-c5c(F)c(F)c(F)c(F)c5F)c5nc(c(-c6c(F)c(F)c(F)c(F)c6F)c6ccc3[nH]6)C=C5)C=C4)cc2)[C@@H](C(=O)NCC[NH+]2CCOCC2)C1
REMARK SMILES IDX 14 1 13 2 12 3 11 4 10 5 9 6 7 7 8 8 6 9 1 10 2 11 3 12
REMARK SMILES IDX 99 13 4 14 5 15 87 16 88 17 89 18 90 19 91 21 92 22 93 23
REMARK SMILES IDX 94 24 98 25 95 27 97 28 96 29 15 30 16 31 17 32 18 33 19 34
REMARK SMILES IDX 20 35 21 36 22 37 23 38 24 39 25 40 86 41 26 42 85 43 27 44
REMARK SMILES IDX 28 45 29 46 79 47 30 48 84 49 78 50 80 51 31 52 83 53 77 54
REMARK SMILES IDX 76 55 32 57 64 58 44 59 63 60 45 61 48 62 62 63 81 64 46 65
REMARK SMILES IDX 47 66 61 68 82 69 49 70 33 71 34 72 42 73 35 74 36 75 40 76
REMARK SMILES IDX 43 77 37 78 38 79 41 80 39 81 65 82 66 83 74 84 67 85 68 86
REMARK SMILES IDX 72 87 75 88 69 89 70 90 73 91 71 92 50 93 51 94 59 95 52 96
REMARK SMILES IDX 53 97 57 98 60 99 54 100 55 101 58 102 56 103
REMARK H PARENT 90 20 93 26 80 56 48 67
REMARK Flexibility Score: inf
ROOT
ATOM      1  C   UNL     1      -0.123   1.172   6.555  1.00  0.00     0.188 C 
ENDROOT
BRANCH   1   2
ATOM      2  C   UNL     1       0.345   0.140   7.592  1.00  0.00     0.188 C 
BRANCH   2   3
ATOM      3  O   UNL     1       1.746   0.158   7.761  1.00  0.00    -0.376 OA
BRANCH   3   4
ATOM      4  C   UNL     1       2.515  -0.963   7.391  1.00  0.00     0.202 C 
BRANCH   4   5
ATOM      5  C   UNL     1       2.591  -1.360   5.910  1.00  0.00     0.261 C 
BRANCH   5   6
ATOM      6  O   UNL     1       1.569  -0.852   5.041  1.00  0.00    -0.463 OA
BRANCH   6   7
ATOM      7  C   UNL     1       0.602  -1.715   4.688  1.00  0.00     0.310 C 
ATOM      8  O   UNL     1       0.412  -2.768   5.296  1.00  0.00    -0.252 OA
BRANCH   7   9
ATOM      9  C   UNL     1      -0.291  -1.312   3.507  1.00  0.00     0.116 C 
ATOM     10  C   UNL     1       1.005  -0.745  -0.690  1.00  0.00     0.039 C 
ATOM     11  C   UNL     1       0.368  -1.089   0.628  1.00  0.00    -0.074 C 
ATOM     12  C   UNL     1       0.434  -2.290   1.228  1.00  0.00    -0.073 C 
ATOM     13  C   UNL     1      -0.455  -0.009   1.267  1.00  0.00     0.045 C 
ATOM     14  C   UNL     1       1.143  -3.494   0.677  1.00  0.00     0.039 C 
ATOM     15  C   UNL     1      -0.301  -2.511   2.526  1.00  0.00     0.046 C 
ATOM     16  C   UNL     1      -0.309   0.077   2.797  1.00  0.00     0.097 C 
BRANCH  16  17
ATOM     17  C   UNL     1       0.760   1.119   3.105  1.00  0.00     0.224 C 
ATOM     18  O   UNL     1       1.958   0.895   3.227  1.00  0.00    -0.275 OA
ATOM     19  N   UNL     1       0.283   2.419   3.180  1.00  0.00    -0.350 N 
ATOM     20  H   UNL     1       0.049   2.806   4.054  1.00  0.00     0.163 HD
BRANCH  19  21
ATOM     21  C   UNL     1       0.126   3.218   1.962  1.00  0.00     0.177 C 
BRANCH  21  22
ATOM     22  C   UNL     1      -0.099   4.731   2.160  1.00  0.00     0.283 C 
BRANCH  22  23
ATOM     23  N   UNL     1       1.001   5.618   2.541  1.00  0.00    -0.330 N 
ATOM     24  C   UNL     1       1.863   6.118   1.458  1.00  0.00     0.291 C 
ATOM     25  C   UNL     1       1.816   5.181   3.671  1.00  0.00     0.291 C 
ATOM     26  H   UNL     1       0.448   6.416   2.853  1.00  0.00     0.348 HD
ATOM     27  C   UNL     1       3.081   5.239   1.133  1.00  0.00     0.221 C 
ATOM     28  C   UNL     1       3.024   4.305   3.288  1.00  0.00     0.221 C 
ATOM     29  O   UNL     1       3.843   4.954   2.310  1.00  0.00    -0.370 OA
ENDBRANCH  22  23
ENDBRANCH  21  22
ENDBRANCH  19  21
ENDBRANCH  16  17
ENDBRANCH   7   9
ENDBRANCH   6   7
ENDBRANCH   5   6
ENDBRANCH   4   5
ENDBRANCH   3   4
ENDBRANCH   2   3
ENDBRANCH   1   2
BRANCH   1  30
ATOM     30  O   UNL     1       0.515   2.439   6.438  1.00  0.00    -0.377 OA
BRANCH  30  31
ATOM     31  C   UNL     1       1.920   2.532   6.621  1.00  0.00     0.188 C 
BRANCH  31  32
ATOM     32  C   UNL     1       2.373   2.892   8.055  1.00  0.00     0.188 C 
BRANCH  32  33
ATOM     33  O   UNL     1       1.548   3.656   8.932  1.00  0.00    -0.376 OA
BRANCH  33  34
ATOM     34  C   UNL     1       0.479   4.423   8.416  1.00  0.00     0.202 C 
BRANCH  34  35
ATOM     35  C   UNL     1       0.827   5.636   7.547  1.00  0.00     0.261 C 
BRANCH  35  36
ATOM     36  O   UNL     1       2.070   5.556   6.841  1.00  0.00    -0.460 OA
BRANCH  36  37
ATOM     37  C   UNL     1       3.146   6.109   7.460  1.00  0.00     0.338 C 
ATOM     38  O   UNL     1       3.201   6.632   8.545  1.00  0.00    -0.246 OA
BRANCH  37  39
ATOM     39  C   UNL     1       4.292   5.963   6.538  1.00  0.00     0.060 A 
ATOM     40  C   UNL     1       5.332   5.076   6.829  1.00  0.00     0.016 A 
ATOM     41  C   UNL     1       4.324   6.725   5.372  1.00  0.00     0.016 A 
ATOM     42  C   UNL     1       6.416   4.961   5.950  1.00  0.00     0.010 A 
ATOM     43  C   UNL     1       5.371   6.560   4.465  1.00  0.00     0.010 A 
ATOM     44  C   UNL     1       6.457   5.721   4.770  1.00  0.00    -0.014 A 
BRANCH  44  45
ATOM     45  C   UNL     1       7.715   5.839   3.978  1.00  0.00     0.031 A 
ATOM     46  C   UNL     1       8.427   7.171   3.981  1.00  0.00     0.074 A 
ATOM     47  C   UNL     1       8.239   4.812   3.282  1.00  0.00     0.049 A 
ATOM     48  N   UNL     1       9.505   7.548   3.339  1.00  0.00    -0.248 NA
ATOM     49  C   UNL     1       7.818   8.238   4.794  1.00  0.00     0.031 C 
ATOM     50  C   UNL     1       7.660   3.476   3.164  1.00  0.00     0.029 A 
ATOM     51  N   UNL     1       9.394   4.741   2.537  1.00  0.00    -0.354 N 
ATOM     52  C   UNL     1       9.670   8.893   3.646  1.00  0.00     0.074 A 
ATOM     53  C   UNL     1       8.549   9.287   4.464  1.00  0.00     0.031 C 
ATOM     54  C   UNL     1       8.476   2.709   2.417  1.00  0.00     0.029 A 
ATOM     55  C   UNL     1       9.622   3.506   1.979  1.00  0.00     0.049 A 
ATOM     56  H   UNL     1      10.002   5.506   2.415  1.00  0.00     0.167 HD
ATOM     57  C   UNL     1      10.685   9.726   3.318  1.00  0.00     0.037 A 
ATOM     58  C   UNL     1      10.639   3.075   1.205  1.00  0.00     0.037 A 
ATOM     59  C   UNL     1      11.841   9.333   2.563  1.00  0.00     0.049 A 
ATOM     60  C   UNL     1      11.762   4.021   0.847  1.00  0.00     0.074 A 
ATOM     61  C   UNL     1      12.952  10.087   2.234  1.00  0.00     0.029 A 
ATOM     62  N   UNL     1      12.037   8.069   2.030  1.00  0.00    -0.354 N 
ATOM     63  N   UNL     1      11.938   5.273   1.192  1.00  0.00    -0.248 NA
ATOM     64  C   UNL     1      12.835   3.486  -0.007  1.00  0.00     0.031 C 
ATOM     65  C   UNL     1      13.805   9.290   1.466  1.00  0.00     0.029 A 
ATOM     66  C   UNL     1      13.247   8.026   1.359  1.00  0.00     0.049 A 
ATOM     67  H   UNL     1      11.410   7.315   2.116  1.00  0.00     0.167 HD
ATOM     68  C   UNL     1      13.150   5.661   0.632  1.00  0.00     0.074 A 
ATOM     69  C   UNL     1      13.675   4.509  -0.068  1.00  0.00     0.031 C 
ATOM     70  C   UNL     1      13.772   6.864   0.692  1.00  0.00     0.037 A 
BRANCH  57  71
ATOM     71  C   UNL     1      10.586  11.146   3.791  1.00  0.00     0.064 A 
ATOM     72  C   UNL     1      10.694  11.480   5.150  1.00  0.00     0.173 A 
ATOM     73  C   UNL     1      10.376  12.185   2.873  1.00  0.00     0.173 A 
ATOM     74  F   UNL     1      10.876  10.519   6.069  1.00  0.00    -0.203 F 
ATOM     75  C   UNL     1      10.551  12.796   5.577  1.00  0.00     0.198 A 
ATOM     76  C   UNL     1      10.270  13.506   3.301  1.00  0.00     0.198 A 
ATOM     77  F   UNL     1      10.270  11.921   1.563  1.00  0.00    -0.203 F 
ATOM     78  F   UNL     1      10.588  13.081   6.886  1.00  0.00    -0.200 F 
ATOM     79  C   UNL     1      10.346  13.809   4.653  1.00  0.00     0.200 A 
ATOM     80  F   UNL     1      10.085  14.485   2.406  1.00  0.00    -0.200 F 
ATOM     81  F   UNL     1      10.210  15.076   5.065  1.00  0.00    -0.200 F 
ENDBRANCH  57  71
BRANCH  58  82
ATOM     82  C   UNL     1      10.677   1.666   0.724  1.00  0.00     0.064 A 
ATOM     83  C   UNL     1      11.650   0.771   1.194  1.00  0.00     0.173 A 
ATOM     84  C   UNL     1       9.785   1.201  -0.252  1.00  0.00     0.173 A 
ATOM     85  F   UNL     1      12.549   1.177   2.104  1.00  0.00    -0.203 F 
ATOM     86  C   UNL     1      11.747  -0.523   0.687  1.00  0.00     0.198 A 
ATOM     87  C   UNL     1       9.864  -0.103  -0.739  1.00  0.00     0.198 A 
ATOM     88  F   UNL     1       8.841   2.018  -0.744  1.00  0.00    -0.203 F 
ATOM     89  F   UNL     1      12.725  -1.336   1.109  1.00  0.00    -0.200 F 
ATOM     90  C   UNL     1      10.851  -0.961  -0.277  1.00  0.00     0.200 A 
ATOM     91  F   UNL     1       8.995  -0.524  -1.668  1.00  0.00    -0.200 F 
ATOM     92  F   UNL     1      10.949  -2.202  -0.772  1.00  0.00    -0.200 F 
ENDBRANCH  58  82
BRANCH  70  93
ATOM     93  C   UNL     1      15.114   6.996   0.032  1.00  0.00     0.064 A 
ATOM     94  C   UNL     1      15.251   7.032  -1.363  1.00  0.00     0.173 A 
ATOM     95  C   UNL     1      16.271   7.164   0.809  1.00  0.00     0.173 A 
ATOM     96  F   UNL     1      14.178   6.867  -2.151  1.00  0.00    -0.203 F 
ATOM     97  C   UNL     1      16.498   7.213  -1.956  1.00  0.00     0.198 A 
ATOM     98  C   UNL     1      17.512   7.375   0.214  1.00  0.00     0.198 A 
ATOM     99  F   UNL     1      16.194   7.148   2.148  1.00  0.00    -0.203 F 
ATOM    100  F   UNL     1      16.610   7.207  -3.291  1.00  0.00    -0.200 F 
ATOM    101  C   UNL     1      17.625   7.394  -1.167  1.00  0.00     0.200 A 
ATOM    102  F   UNL     1      18.596   7.567   0.978  1.00  0.00    -0.200 F 
ATOM    103  F   UNL     1      18.822   7.583  -1.740  1.00  0.00    -0.200 F 
ENDBRANCH  70  93
ENDBRANCH  44  45
ENDBRANCH  37  39
ENDBRANCH  36  37
ENDBRANCH  35  36
ENDBRANCH  34  35
ENDBRANCH  33  34
ENDBRANCH  32  33
ENDBRANCH  31  32
ENDBRANCH  30  31
ENDBRANCH   1  30
TORSDOF 24
