REMARK SMILES N#C/C(=C\c1ccc(Oc2ccccc2Cl)c([N+](=O)[O-])c1)C(=O)OCCOCCOCCOCCOC(=O)c1ccc(-c2c3nc(c(-c4c(F)c(F)c(F)c(F)c4F)c4ccc([nH]4)c(-c4c(F)c(F)c(F)c(F)c4F)c4nc(c(-c5c(F)c(F)c(F)c(F)c5F)c5ccc2[nH]5)C=C4)C=C3)cc1
REMARK SMILES IDX 29 1 28 2 27 3 26 4 25 5 24 6 22 7 23 8 3 9 4 10 2 11 1 12
REMARK SMILES IDX 5 13 6 14 21 15 7 16 17 17 8 18 18 19 19 20 20 21 9 22 10 23
REMARK SMILES IDX 11 24 15 25 12 26 14 27 16 28 13 29 30 30 31 31 32 32 33 33
REMARK SMILES IDX 34 34 35 35 36 36 37 37 38 38 39 39 40 40 101 41 41 42
REMARK SMILES IDX 100 43 42 44 43 45 44 46 94 47 45 48 99 49 93 50 95 51 46 52
REMARK SMILES IDX 98 53 92 54 91 55 47 57 79 58 59 59 78 60 60 61 63 62 77 63
REMARK SMILES IDX 96 64 61 65 62 66 76 68 97 69 64 70 48 71 49 72 57 73 50 74
REMARK SMILES IDX 51 75 55 76 58 77 52 78 53 79 56 80 54 81 80 82 81 83 89 84
REMARK SMILES IDX 82 85 83 86 87 87 90 88 84 89 85 90 88 91 86 92 65 93 66 94
REMARK SMILES IDX 74 95 67 96 68 97 72 98 75 99 69 100 70 101 73 102 71 103
REMARK H PARENT 95 56 63 67
REMARK Flexibility Score: inf
ROOT
ATOM      1  C   UNL     1       4.541   1.688   2.369  1.00  0.00     0.188 C 
ENDROOT
BRANCH   1   2
ATOM      2  C   UNL     1       3.931   0.506   3.153  1.00  0.00     0.188 C 
BRANCH   2   3
ATOM      3  O   UNL     1       4.747  -0.296   3.986  1.00  0.00    -0.376 OA
BRANCH   3   4
ATOM      4  C   UNL     1       5.847  -1.089   3.566  1.00  0.00     0.202 C 
BRANCH   4   5
ATOM      5  C   UNL     1       6.159  -1.577   2.140  1.00  0.00     0.261 C 
BRANCH   5   6
ATOM      6  O   UNL     1       5.684  -0.752   1.090  1.00  0.00    -0.459 OA
BRANCH   6   7
ATOM      7  C   UNL     1       4.465  -1.103   0.640  1.00  0.00     0.348 C 
ATOM      8  O   UNL     1       3.880  -2.149   0.878  1.00  0.00    -0.245 OA
BRANCH   7   9
ATOM      9  C   UNL     1       3.839   0.026  -0.077  1.00  0.00     0.138 C 
ATOM     10  C   UNL     1       4.518   0.578  -1.113  1.00  0.00     0.035 C 
BRANCH   9  11
ATOM     11  C   UNL     1       2.319   0.026  -0.077  1.00  0.00     0.107 C 
ATOM     12  N   UNL     1       1.058   0.026  -0.077  1.00  0.00    -0.192 NA
ENDBRANCH   9  11
BRANCH  10  13
ATOM     13  C   UNL     1       3.855   1.200  -2.282  1.00  0.00    -0.017 A 
ATOM     14  C   UNL     1       4.221   0.792  -3.570  1.00  0.00     0.012 A 
ATOM     15  C   UNL     1       2.772   2.071  -2.151  1.00  0.00     0.098 A 
ATOM     16  C   UNL     1       3.493   1.220  -4.692  1.00  0.00     0.055 A 
ATOM     17  C   UNL     1       1.983   2.404  -3.269  1.00  0.00     0.312 A 
ATOM     18  C   UNL     1       2.351   2.029  -4.565  1.00  0.00     0.204 A 
BRANCH  17  19
ATOM     19  N   UNL     1       0.705   3.006  -2.944  1.00  0.00     0.066 N 
ATOM     20  O   UNL     1      -0.314   2.361  -3.221  1.00  0.00    -0.258 OA
ATOM     21  O   UNL     1       0.734   4.086  -2.335  1.00  0.00    -0.258 OA
ENDBRANCH  17  19
BRANCH  18  22
ATOM     22  O   UNL     1       1.774   2.308  -5.785  1.00  0.00    -0.449 OA
BRANCH  22  23
ATOM     23  C   UNL     1       0.760   3.223  -5.904  1.00  0.00     0.146 A 
ATOM     24  C   UNL     1      -0.457   2.719  -6.377  1.00  0.00     0.049 A 
ATOM     25  C   UNL     1       0.890   4.591  -5.639  1.00  0.00     0.083 A 
ATOM     26  C   UNL     1      -1.569   3.554  -6.478  1.00  0.00     0.004 A 
ATOM     27  C   UNL     1      -0.234   5.418  -5.711  1.00  0.00     0.024 A 
ATOM     28  Cl  UNL     1       2.402   5.302  -5.205  1.00  0.00    -0.080 Cl
ATOM     29  C   UNL     1      -1.465   4.896  -6.118  1.00  0.00     0.002 A 
ENDBRANCH  22  23
ENDBRANCH  18  22
ENDBRANCH  10  13
ENDBRANCH   7   9
ENDBRANCH   6   7
ENDBRANCH   5   6
ENDBRANCH   4   5
ENDBRANCH   3   4
ENDBRANCH   2   3
ENDBRANCH   1   2
BRANCH   1  30
ATOM     30  O   UNL     1       5.932   1.598   2.168  1.00  0.00    -0.377 OA
BRANCH  30  31
ATOM     31  C   UNL     1       6.763   2.116   3.199  1.00  0.00     0.188 C 
BRANCH  31  32
ATOM     32  C   UNL     1       6.213   2.306   4.635  1.00  0.00     0.188 C 
BRANCH  32  33
ATOM     33  O   UNL     1       4.859   2.719   4.734  1.00  0.00    -0.376 OA
BRANCH  33  34
ATOM     34  C   UNL     1       4.535   4.092   4.888  1.00  0.00     0.202 C 
BRANCH  34  35
ATOM     35  C   UNL     1       4.955   5.083   3.788  1.00  0.00     0.261 C 
BRANCH  35  36
ATOM     36  O   UNL     1       6.346   5.088   3.443  1.00  0.00    -0.460 OA
BRANCH  36  37
ATOM     37  C   UNL     1       7.220   5.401   4.421  1.00  0.00     0.338 C 
ATOM     38  O   UNL     1       6.961   5.726   5.568  1.00  0.00    -0.246 OA
BRANCH  37  39
ATOM     39  C   UNL     1       8.574   5.085   3.930  1.00  0.00     0.060 A 
ATOM     40  C   UNL     1       9.341   4.139   4.624  1.00  0.00     0.016 A 
ATOM     41  C   UNL     1       9.078   5.706   2.786  1.00  0.00     0.016 A 
ATOM     42  C   UNL     1      10.634   3.842   4.200  1.00  0.00     0.010 A 
ATOM     43  C   UNL     1      10.385   5.430   2.378  1.00  0.00     0.010 A 
ATOM     44  C   UNL     1      11.179   4.527   3.107  1.00  0.00    -0.014 A 
BRANCH  44  45
ATOM     45  C   UNL     1      12.639   4.468   2.870  1.00  0.00     0.031 A 
ATOM     46  C   UNL     1      13.488   5.586   3.410  1.00  0.00     0.074 A 
ATOM     47  C   UNL     1      13.205   3.439   2.219  1.00  0.00     0.049 A 
ATOM     48  N   UNL     1      14.773   5.795   3.282  1.00  0.00    -0.248 NA
ATOM     49  C   UNL     1      12.785   6.611   4.199  1.00  0.00     0.031 C 
ATOM     50  C   UNL     1      12.493   2.278   1.693  1.00  0.00     0.029 A 
ATOM     51  N   UNL     1      14.516   3.218   1.878  1.00  0.00    -0.354 N 
ATOM     52  C   UNL     1      15.030   6.973   3.970  1.00  0.00     0.074 A 
ATOM     53  C   UNL     1      13.764   7.456   4.478  1.00  0.00     0.031 C 
ATOM     54  C   UNL     1      13.375   1.473   1.074  1.00  0.00     0.029 A 
ATOM     55  C   UNL     1      14.703   2.083   1.130  1.00  0.00     0.049 A 
ATOM     56  H   UNL     1      15.251   3.816   2.145  1.00  0.00     0.167 HD
ATOM     57  C   UNL     1      16.217   7.591   4.172  1.00  0.00     0.037 A 
ATOM     58  C   UNL     1      15.816   1.612   0.534  1.00  0.00     0.037 A 
ATOM     59  C   UNL     1      17.471   7.114   3.651  1.00  0.00     0.049 A 
ATOM     60  C   UNL     1      17.114   2.364   0.695  1.00  0.00     0.074 A 
ATOM     61  C   UNL     1      18.731   7.665   3.795  1.00  0.00     0.029 A 
ATOM     62  N   UNL     1      17.618   5.975   2.872  1.00  0.00    -0.354 N 
ATOM     63  N   UNL     1      17.357   3.468   1.360  1.00  0.00    -0.248 NA
ATOM     64  C   UNL     1      18.295   1.799   0.025  1.00  0.00     0.031 C 
ATOM     65  C   UNL     1      19.631   6.894   3.052  1.00  0.00     0.029 A 
ATOM     66  C   UNL     1      18.945   5.821   2.504  1.00  0.00     0.049 A 
ATOM     67  H   UNL     1      16.887   5.366   2.618  1.00  0.00     0.167 HD
ATOM     68  C   UNL     1      18.718   3.713   1.215  1.00  0.00     0.074 A 
ATOM     69  C   UNL     1      19.250   2.633   0.410  1.00  0.00     0.031 C 
ATOM     70  C   UNL     1      19.460   4.737   1.705  1.00  0.00     0.037 A 
BRANCH  57  71
ATOM     71  C   UNL     1      16.203   8.870   4.960  1.00  0.00     0.064 A 
ATOM     72  C   UNL     1      15.904   8.890   6.332  1.00  0.00     0.173 A 
ATOM     73  C   UNL     1      16.500  10.092   4.338  1.00  0.00     0.173 A 
ATOM     74  F   UNL     1      15.596   7.753   6.973  1.00  0.00    -0.203 F 
ATOM     75  C   UNL     1      15.866  10.089   7.040  1.00  0.00     0.198 A 
ATOM     76  C   UNL     1      16.497  11.284   5.057  1.00  0.00     0.198 A 
ATOM     77  F   UNL     1      16.795  10.131   3.030  1.00  0.00    -0.203 F 
ATOM     78  F   UNL     1      15.515  10.090   8.334  1.00  0.00    -0.200 F 
ATOM     79  C   UNL     1      16.169  11.283   6.404  1.00  0.00     0.200 A 
ATOM     80  F   UNL     1      16.804  12.435   4.443  1.00  0.00    -0.200 F 
ATOM     81  F   UNL     1      16.136  12.435   7.087  1.00  0.00    -0.200 F 
ENDBRANCH  57  71
BRANCH  58  82
ATOM     82  C   UNL     1      15.746   0.378  -0.293  1.00  0.00     0.064 A 
ATOM     83  C   UNL     1      16.398  -0.799   0.099  1.00  0.00     0.173 A 
ATOM     84  C   UNL     1      15.034   0.355  -1.501  1.00  0.00     0.173 A 
ATOM     85  F   UNL     1      17.113  -0.823   1.234  1.00  0.00    -0.203 F 
ATOM     86  C   UNL     1      16.355  -1.945  -0.694  1.00  0.00     0.198 A 
ATOM     87  C   UNL     1      14.964  -0.800  -2.277  1.00  0.00     0.198 A 
ATOM     88  F   UNL     1      14.392   1.455  -1.924  1.00  0.00    -0.203 F 
ATOM     89  F   UNL     1      17.027  -3.042  -0.319  1.00  0.00    -0.200 F 
ATOM     90  C   UNL     1      15.632  -1.947  -1.877  1.00  0.00     0.200 A 
ATOM     91  F   UNL     1      14.250  -0.801  -3.411  1.00  0.00    -0.200 F 
ATOM     92  F   UNL     1      15.584  -3.051  -2.635  1.00  0.00    -0.200 F 
ENDBRANCH  58  82
BRANCH  70  93
ATOM     93  C   UNL     1      20.938   4.721   1.424  1.00  0.00     0.064 A 
ATOM     94  C   UNL     1      21.451   4.947   0.138  1.00  0.00     0.173 A 
ATOM     95  C   UNL     1      21.855   4.522   2.469  1.00  0.00     0.173 A 
ATOM     96  F   UNL     1      20.619   5.132  -0.898  1.00  0.00    -0.203 F 
ATOM     97  C   UNL     1      22.824   4.944  -0.096  1.00  0.00     0.198 A 
ATOM     98  C   UNL     1      23.227   4.556   2.237  1.00  0.00     0.198 A 
ATOM     99  F   UNL     1      21.419   4.310   3.720  1.00  0.00    -0.203 F 
ATOM    100  F   UNL     1      23.289   5.109  -1.342  1.00  0.00    -0.200 F 
ATOM    101  C   UNL     1      23.710   4.758   0.954  1.00  0.00     0.200 A 
ATOM    102  F   UNL     1      24.081   4.394   3.257  1.00  0.00    -0.200 F 
ATOM    103  F   UNL     1      25.031   4.765   0.728  1.00  0.00    -0.200 F 
ENDBRANCH  70  93
ENDBRANCH  44  45
ENDBRANCH  37  39
ENDBRANCH  36  37
ENDBRANCH  35  36
ENDBRANCH  34  35
ENDBRANCH  33  34
ENDBRANCH  32  33
ENDBRANCH  31  32
ENDBRANCH  30  31
ENDBRANCH   1  30
TORSDOF 25
