REMARK SMILES O=C(OCCOCCOCCOCCOC(=O)[C@H]1[C@H]2CC[C@H](CC2)[C@@H]1C(=O)Nc1sc2c(c1C(=O)N1CCCCC1)CCCC2)c1ccc(-c2c3nc(c(-c4c(F)c(F)c(F)c(F)c4F)c4ccc([nH]4)c(-c4c(F)c(F)c(F)c(F)c4F)c4nc(c(-c5c(F)c(F)c(F)c(F)c5F)c5ccc2[nH]5)C=C4)C=C3)cc1
REMARK SMILES IDX 10 1 9 2 8 3 7 4 6 5 5 6 4 7 3 8 2 9 1 10 46 11 47 12 108 13
REMARK SMILES IDX 48 14 107 15 49 16 50 17 51 18 101 19 52 20 106 21 100 22
REMARK SMILES IDX 102 23 53 24 105 25 99 26 98 27 54 29 86 30 66 31 85 32
REMARK SMILES IDX 67 33 70 34 84 35 103 36 68 37 69 38 83 40 104 41 71 42
REMARK SMILES IDX 55 43 56 44 64 45 57 46 58 47 62 48 65 49 59 50 60 51 63 52
REMARK SMILES IDX 61 53 87 54 88 55 96 56 89 57 90 58 94 59 97 60 91 61 92 62
REMARK SMILES IDX 95 63 93 64 72 65 73 66 81 67 74 68 75 69 79 70 82 71 76 72
REMARK SMILES IDX 77 73 80 74 78 75 11 76 12 77 13 78 14 79 15 80 16 81 17 82
REMARK SMILES IDX 18 83 19 84 25 85 24 86 20 87 22 88 23 89 21 90 26 91 27 92
REMARK SMILES IDX 28 93 29 95 30 96 33 97 31 98 32 99 45 100 42 101 44 102
REMARK SMILES IDX 43 103 34 104 35 105 36 106 37 107 41 108 38 109 40 110
REMARK SMILES IDX 39 111
REMARK H PARENT 102 28 70 39 28 94
REMARK Flexibility Score: inf
ROOT
ATOM      1  C   UNL     1       4.353   3.442   0.950  1.00  0.00     0.188 C 
ENDROOT
BRANCH   1   2
ATOM      2  O   UNL     1       2.974   3.796   0.946  1.00  0.00    -0.377 OA
BRANCH   2   3
ATOM      3  C   UNL     1       2.049   2.715   0.811  1.00  0.00     0.188 C 
BRANCH   3   4
ATOM      4  C   UNL     1       2.371   1.757  -0.338  1.00  0.00     0.188 C 
BRANCH   4   5
ATOM      5  O   UNL     1       3.556   1.041  -0.006  1.00  0.00    -0.376 OA
BRANCH   5   6
ATOM      6  C   UNL     1       4.405   0.652  -1.075  1.00  0.00     0.202 C 
BRANCH   6   7
ATOM      7  C   UNL     1       3.907  -0.551  -1.870  1.00  0.00     0.261 C 
BRANCH   7   8
ATOM      8  O   UNL     1       2.513  -0.846  -1.657  1.00  0.00    -0.460 OA
BRANCH   8   9
ATOM      9  C   UNL     1       1.980  -1.684  -0.732  1.00  0.00     0.338 C 
ATOM     10  O   UNL     1       0.782  -1.951  -0.765  1.00  0.00    -0.246 OA
BRANCH   9  11
ATOM     11  C   UNL     1       2.822  -2.364   0.285  1.00  0.00     0.060 A 
ATOM     12  C   UNL     1       3.799  -1.711   1.026  1.00  0.00     0.016 A 
ATOM     13  C   UNL     1       2.560  -3.707   0.581  1.00  0.00     0.016 A 
ATOM     14  C   UNL     1       4.647  -2.397   1.872  1.00  0.00     0.010 A 
ATOM     15  C   UNL     1       3.329  -4.383   1.537  1.00  0.00     0.010 A 
ATOM     16  C   UNL     1       4.418  -3.740   2.144  1.00  0.00    -0.014 A 
BRANCH  16  17
ATOM     17  C   UNL     1       5.422  -4.453   2.961  1.00  0.00     0.031 A 
ATOM     18  C   UNL     1       6.240  -5.522   2.301  1.00  0.00     0.074 A 
ATOM     19  C   UNL     1       5.712  -4.020   4.204  1.00  0.00     0.049 A 
ATOM     20  N   UNL     1       7.121  -6.333   2.821  1.00  0.00    -0.248 NA
ATOM     21  C   UNL     1       6.043  -5.700   0.851  1.00  0.00     0.031 C 
ATOM     22  C   UNL     1       5.064  -2.891   4.880  1.00  0.00     0.029 A 
ATOM     23  N   UNL     1       6.660  -4.437   5.101  1.00  0.00    -0.354 N 
ATOM     24  C   UNL     1       7.544  -7.144   1.776  1.00  0.00     0.074 A 
ATOM     25  C   UNL     1       6.824  -6.736   0.593  1.00  0.00     0.031 C 
ATOM     26  C   UNL     1       5.674  -2.669   6.054  1.00  0.00     0.029 A 
ATOM     27  C   UNL     1       6.677  -3.703   6.263  1.00  0.00     0.049 A 
ATOM     28  H   UNL     1       7.270  -5.191   4.930  1.00  0.00     0.167 HD
ATOM     29  C   UNL     1       8.454  -8.143   1.814  1.00  0.00     0.037 A 
ATOM     30  C   UNL     1       7.395  -3.884   7.388  1.00  0.00     0.037 A 
ATOM     31  C   UNL     1       9.172  -8.505   3.004  1.00  0.00     0.049 A 
ATOM     32  C   UNL     1       8.341  -5.054   7.428  1.00  0.00     0.074 A 
ATOM     33  C   UNL     1      10.039  -9.560   3.211  1.00  0.00     0.029 A 
ATOM     34  N   UNL     1       9.110  -7.791   4.194  1.00  0.00    -0.354 N 
ATOM     35  N   UNL     1       8.642  -5.907   6.477  1.00  0.00    -0.248 NA
ATOM     36  C   UNL     1       9.026  -5.306   8.701  1.00  0.00     0.031 C 
ATOM     37  C   UNL     1      10.481  -9.500   4.538  1.00  0.00     0.029 A 
ATOM     38  C   UNL     1       9.923  -8.383   5.144  1.00  0.00     0.049 A 
ATOM     39  H   UNL     1       8.566  -6.983   4.341  1.00  0.00     0.167 HD
ATOM     40  C   UNL     1       9.546  -6.798   7.034  1.00  0.00     0.074 A 
ATOM     41  C   UNL     1       9.777  -6.354   8.395  1.00  0.00     0.031 C 
ATOM     42  C   UNL     1      10.122  -7.896   6.485  1.00  0.00     0.037 A 
BRANCH  29  43
ATOM     43  C   UNL     1       8.654  -8.931   0.555  1.00  0.00     0.064 A 
ATOM     44  C   UNL     1       9.328  -8.400  -0.555  1.00  0.00     0.173 A 
ATOM     45  C   UNL     1       8.119 -10.223   0.441  1.00  0.00     0.173 A 
ATOM     46  F   UNL     1       9.826  -7.155  -0.511  1.00  0.00    -0.203 F 
ATOM     47  C   UNL     1       9.435  -9.124  -1.741  1.00  0.00     0.198 A 
ATOM     48  C   UNL     1       8.249 -10.953  -0.737  1.00  0.00     0.198 A 
ATOM     49  F   UNL     1       7.454 -10.771   1.469  1.00  0.00    -0.203 F 
ATOM     50  F   UNL     1      10.030  -8.574  -2.809  1.00  0.00    -0.200 F 
ATOM     51  C   UNL     1       8.899 -10.400  -1.830  1.00  0.00     0.200 A 
ATOM     52  F   UNL     1       7.730 -12.185  -0.821  1.00  0.00    -0.200 F 
ATOM     53  F   UNL     1       8.995 -11.091  -2.974  1.00  0.00    -0.200 F 
ENDBRANCH  29  43
BRANCH  30  54
ATOM     54  C   UNL     1       7.186  -3.008   8.574  1.00  0.00     0.064 A 
ATOM     55  C   UNL     1       8.219  -2.215   9.093  1.00  0.00     0.173 A 
ATOM     56  C   UNL     1       5.948  -2.969   9.238  1.00  0.00     0.173 A 
ATOM     57  F   UNL     1       9.429  -2.229   8.515  1.00  0.00    -0.203 F 
ATOM     58  C   UNL     1       8.029  -1.439  10.237  1.00  0.00     0.198 A 
ATOM     59  C   UNL     1       5.748  -2.165  10.358  1.00  0.00     0.198 A 
ATOM     60  F   UNL     1       4.922  -3.711   8.793  1.00  0.00    -0.203 F 
ATOM     61  F   UNL     1       9.052  -0.736  10.743  1.00  0.00    -0.200 F 
ATOM     62  C   UNL     1       6.793  -1.409  10.864  1.00  0.00     0.200 A 
ATOM     63  F   UNL     1       4.546  -2.129  10.949  1.00  0.00    -0.200 F 
ATOM     64  F   UNL     1       6.612  -0.664  11.963  1.00  0.00    -0.200 F 
ENDBRANCH  30  54
BRANCH  42  65
ATOM     65  C   UNL     1      11.064  -8.663   7.360  1.00  0.00     0.064 A 
ATOM     66  C   UNL     1      10.595  -9.459   8.415  1.00  0.00     0.173 A 
ATOM     67  C   UNL     1      12.445  -8.622   7.120  1.00  0.00     0.173 A 
ATOM     68  F   UNL     1       9.283  -9.512   8.689  1.00  0.00    -0.203 F 
ATOM     69  C   UNL     1      11.482 -10.165   9.220  1.00  0.00     0.198 A 
ATOM     70  C   UNL     1      13.325  -9.353   7.909  1.00  0.00     0.198 A 
ATOM     71  F   UNL     1      12.936  -7.878   6.118  1.00  0.00    -0.203 F 
ATOM     72  F   UNL     1      11.020 -10.878  10.256  1.00  0.00    -0.200 F 
ATOM     73  C   UNL     1      12.845 -10.117   8.962  1.00  0.00     0.200 A 
ATOM     74  F   UNL     1      14.640  -9.315   7.653  1.00  0.00    -0.200 F 
ATOM     75  F   UNL     1      13.697 -10.801   9.737  1.00  0.00    -0.200 F 
ENDBRANCH  42  65
ENDBRANCH  16  17
ENDBRANCH   9  11
ENDBRANCH   8   9
ENDBRANCH   7   8
ENDBRANCH   6   7
ENDBRANCH   5   6
ENDBRANCH   4   5
ENDBRANCH   3   4
ENDBRANCH   2   3
ENDBRANCH   1   2
BRANCH   1  76
ATOM     76  C   UNL     1       4.917   2.678   2.162  1.00  0.00     0.188 C 
BRANCH  76  77
ATOM     77  O   UNL     1       3.951   1.950   2.914  1.00  0.00    -0.376 OA
BRANCH  77  78
ATOM     78  C   UNL     1       3.765   2.424   4.249  1.00  0.00     0.202 C 
BRANCH  78  79
ATOM     79  C   UNL     1       2.970   3.735   4.383  1.00  0.00     0.261 C 
BRANCH  79  80
ATOM     80  O   UNL     1       3.427   4.801   3.534  1.00  0.00    -0.463 OA
BRANCH  80  81
ATOM     81  C   UNL     1       4.551   5.471   3.901  1.00  0.00     0.310 C 
ATOM     82  O   UNL     1       5.125   5.316   4.959  1.00  0.00    -0.252 OA
BRANCH  81  83
ATOM     83  C   UNL     1       5.019   6.381   2.755  1.00  0.00     0.115 C 
ATOM     84  C   UNL     1       4.486   7.819   2.913  1.00  0.00     0.004 C 
ATOM     85  C   UNL     1       6.574   6.376   2.642  1.00  0.00     0.096 C 
ATOM     86  C   UNL     1       5.049   8.462   4.188  1.00  0.00     0.005 C 
ATOM     87  C   UNL     1       4.990   8.629   1.702  1.00  0.00     0.005 C 
ATOM     88  C   UNL     1       7.089   7.824   2.852  1.00  0.00     0.002 C 
ATOM     89  C   UNL     1       6.576   8.319   4.217  1.00  0.00     0.005 C 
ATOM     90  C   UNL     1       6.520   8.749   1.756  1.00  0.00     0.005 C 
BRANCH  85  91
ATOM     91  C   UNL     1       7.144   5.850   1.304  1.00  0.00     0.229 C 
ATOM     92  O   UNL     1       6.484   5.914   0.262  1.00  0.00    -0.274 OA
ATOM     93  N   UNL     1       8.464   5.493   1.191  1.00  0.00    -0.317 N 
ATOM     94  H   UNL     1       8.817   5.470   0.272  1.00  0.00     0.170 HD
BRANCH  93  95
ATOM     95  C   UNL     1       9.370   5.161   2.178  1.00  0.00     0.108 A 
ATOM     96  S   UNL     1       8.860   4.131   3.427  1.00  0.00    -0.122 S 
ATOM     97  C   UNL     1      10.737   5.438   2.221  1.00  0.00     0.078 A 
ATOM     98  C   UNL     1      10.298   4.371   4.273  1.00  0.00     0.011 A 
ATOM     99  C   UNL     1      11.260   5.020   3.518  1.00  0.00    -0.019 A 
ATOM    100  C   UNL     1      10.461   3.888   5.679  1.00  0.00     0.047 C 
ATOM    101  C   UNL     1      12.620   5.276   4.096  1.00  0.00     0.037 C 
ATOM    102  C   UNL     1      11.619   4.633   6.350  1.00  0.00     0.006 C 
ATOM    103  C   UNL     1      12.860   4.605   5.457  1.00  0.00     0.005 C 
BRANCH  97 104
ATOM    104  C   UNL     1      11.387   6.184   1.121  1.00  0.00     0.257 C 
ATOM    105  O   UNL     1      10.829   6.345   0.035  1.00  0.00    -0.269 OA
ATOM    106  N   UNL     1      12.588   6.826   1.409  1.00  0.00    -0.339 N 
ATOM    107  C   UNL     1      12.640   8.252   1.121  1.00  0.00     0.120 C 
ATOM    108  C   UNL     1      13.847   6.139   1.146  1.00  0.00     0.120 C 
ATOM    109  C   UNL     1      13.679   8.922   2.010  1.00  0.00     0.022 C 
ATOM    110  C   UNL     1      14.982   6.742   1.979  1.00  0.00     0.022 C 
ATOM    111  C   UNL     1      15.052   8.266   1.849  1.00  0.00     0.004 C 
ENDBRANCH  97 104
ENDBRANCH  93  95
ENDBRANCH  85  91
ENDBRANCH  81  83
ENDBRANCH  80  81
ENDBRANCH  79  80
ENDBRANCH  78  79
ENDBRANCH  77  78
ENDBRANCH  76  77
ENDBRANCH   1  76
TORSDOF 23
