REMARK SMILES O=C(Cc1ccccc1Nc1c(F)cccc1C(F)(F)F)OCCOCCOCCOCCOC(=O)c1ccc(-c2c3nc(c(-c4c(F)c(F)c(F)c(F)c4F)c4ccc([nH]4)c(-c4c(F)c(F)c(F)c(F)c4F)c4nc(c(-c5c(F)c(F)c(F)c(F)c5F)c5ccc2[nH]5)C=C4)C=C3)cc1
REMARK SMILES IDX 27 1 26 2 25 3 24 4 23 5 22 6 2 7 1 8 3 9 4 10 5 11 9 12
REMARK SMILES IDX 6 13 8 14 7 15 10 16 11 18 12 19 17 20 13 21 14 22 16 23
REMARK SMILES IDX 15 24 18 25 19 26 20 27 21 28 28 29 29 30 30 31 31 32 32 33
REMARK SMILES IDX 33 34 34 35 35 36 36 37 37 38 38 39 99 40 39 41 98 42 40 43
REMARK SMILES IDX 41 44 42 45 92 46 43 47 97 48 91 49 93 50 44 51 96 52 90 53
REMARK SMILES IDX 89 54 45 56 77 57 57 58 76 59 58 60 61 61 75 62 94 63 59 64
REMARK SMILES IDX 60 65 74 67 95 68 62 69 46 70 47 71 55 72 48 73 49 74 53 75
REMARK SMILES IDX 56 76 50 77 51 78 54 79 52 80 78 81 79 82 87 83 80 84 81 85
REMARK SMILES IDX 85 86 88 87 82 88 83 89 86 90 84 91 63 92 64 93 72 94 65 95
REMARK SMILES IDX 66 96 70 97 73 98 67 99 68 100 71 101 69 102
REMARK H PARENT 10 17 93 55 61 66
REMARK Flexibility Score: inf
ROOT
ATOM      1  C   UNL     1       2.152  -0.085  -2.473  1.00  0.00     0.188 C 
ENDROOT
BRANCH   1   2
ATOM      2  C   UNL     1       2.789   1.030  -1.633  1.00  0.00     0.188 C 
BRANCH   2   3
ATOM      3  O   UNL     1       4.182   0.890  -1.425  1.00  0.00    -0.376 OA
BRANCH   3   4
ATOM      4  C   UNL     1       4.773   0.348  -0.264  1.00  0.00     0.202 C 
BRANCH   4   5
ATOM      5  C   UNL     1       4.258  -0.976   0.287  1.00  0.00     0.261 C 
BRANCH   5   6
ATOM      6  O   UNL     1       2.842  -1.088   0.526  1.00  0.00    -0.463 OA
BRANCH   6   7
ATOM      7  C   UNL     1       2.057  -0.322   1.308  1.00  0.00     0.310 C 
ATOM      8  O   UNL     1       0.882  -0.650   1.473  1.00  0.00    -0.252 OA
BRANCH   7   9
ATOM      9  C   UNL     1       2.569   0.982   1.862  1.00  0.00     0.160 C 
BRANCH   9  10
ATOM     10  C   UNL     1       3.678   0.962   2.882  1.00  0.00    -0.013 A 
ATOM     11  C   UNL     1       3.961  -0.219   3.591  1.00  0.00     0.006 A 
ATOM     12  C   UNL     1       4.397   2.152   3.172  1.00  0.00     0.042 A 
ATOM     13  C   UNL     1       4.968  -0.249   4.547  1.00  0.00     0.000 A 
ATOM     14  C   UNL     1       5.351   2.105   4.193  1.00  0.00     0.026 A 
ATOM     15  C   UNL     1       5.651   0.917   4.859  1.00  0.00     0.002 A 
BRANCH  12  16
ATOM     16  N   UNL     1       4.199   3.325   2.402  1.00  0.00    -0.352 N 
ATOM     17  H   UNL     1       3.469   3.259   1.744  1.00  0.00     0.167 HD
BRANCH  16  18
ATOM     18  C   UNL     1       4.863   4.576   2.409  1.00  0.00     0.087 A 
ATOM     19  C   UNL     1       4.044   5.720   2.535  1.00  0.00     0.147 A 
ATOM     20  C   UNL     1       6.255   4.765   2.403  1.00  0.00     0.082 A 
ATOM     21  F   UNL     1       2.710   5.574   2.461  1.00  0.00    -0.205 F 
ATOM     22  C   UNL     1       4.559   6.993   2.754  1.00  0.00     0.041 A 
ATOM     23  C   UNL     1       6.770   6.059   2.670  1.00  0.00     0.015 A 
ATOM     24  C   UNL     1       5.931   7.158   2.859  1.00  0.00     0.004 A 
BRANCH  20  25
ATOM     25  C   UNL     1       7.258   3.686   2.068  1.00  0.00     0.418 C 
ATOM     26  F   UNL     1       8.287   4.171   1.308  1.00  0.00    -0.166 F 
ATOM     27  F   UNL     1       7.861   3.168   3.175  1.00  0.00    -0.166 F 
ATOM     28  F   UNL     1       6.771   2.630   1.361  1.00  0.00    -0.166 F 
ENDBRANCH  20  25
ENDBRANCH  16  18
ENDBRANCH  12  16
ENDBRANCH   9  10
ENDBRANCH   7   9
ENDBRANCH   6   7
ENDBRANCH   5   6
ENDBRANCH   4   5
ENDBRANCH   3   4
ENDBRANCH   2   3
ENDBRANCH   1   2
BRANCH   1  29
ATOM     29  O   UNL     1       2.825  -0.420  -3.682  1.00  0.00    -0.377 OA
BRANCH  29  30
ATOM     30  C   UNL     1       4.194  -0.758  -3.528  1.00  0.00     0.188 C 
BRANCH  30  31
ATOM     31  C   UNL     1       5.187   0.358  -3.930  1.00  0.00     0.188 C 
BRANCH  31  32
ATOM     32  O   UNL     1       4.766   1.689  -4.184  1.00  0.00    -0.376 OA
BRANCH  32  33
ATOM     33  C   UNL     1       3.591   1.965  -4.925  1.00  0.00     0.202 C 
BRANCH  33  34
ATOM     34  C   UNL     1       3.221   1.232  -6.227  1.00  0.00     0.261 C 
BRANCH  34  35
ATOM     35  O   UNL     1       3.599  -0.143  -6.333  1.00  0.00    -0.460 OA
BRANCH  35  36
ATOM     36  C   UNL     1       4.753  -0.389  -6.989  1.00  0.00     0.338 C 
ATOM     37  O   UNL     1       5.488   0.421  -7.533  1.00  0.00    -0.246 OA
BRANCH  36  38
ATOM     38  C   UNL     1       5.116  -1.804  -6.769  1.00  0.00     0.060 A 
ATOM     39  C   UNL     1       6.354  -2.089  -6.174  1.00  0.00     0.016 A 
ATOM     40  C   UNL     1       4.241  -2.836  -7.114  1.00  0.00     0.016 A 
ATOM     41  C   UNL     1       6.727  -3.407  -5.931  1.00  0.00     0.010 A 
ATOM     42  C   UNL     1       4.638  -4.160  -6.916  1.00  0.00     0.010 A 
ATOM     43  C   UNL     1       5.893  -4.448  -6.351  1.00  0.00    -0.014 A 
BRANCH  43  44
ATOM     44  C   UNL     1       6.441  -5.821  -6.416  1.00  0.00     0.031 A 
ATOM     45  C   UNL     1       7.030  -6.276  -7.721  1.00  0.00     0.074 A 
ATOM     46  C   UNL     1       6.447  -6.628  -5.343  1.00  0.00     0.049 A 
ATOM     47  N   UNL     1       7.516  -7.444  -8.054  1.00  0.00    -0.248 NA
ATOM     48  C   UNL     1       7.078  -5.274  -8.800  1.00  0.00     0.031 C 
ATOM     49  C   UNL     1       5.958  -6.274  -4.013  1.00  0.00     0.029 A 
ATOM     50  N   UNL     1       6.875  -7.926  -5.212  1.00  0.00    -0.354 N 
ATOM     51  C   UNL     1       7.915  -7.319  -9.378  1.00  0.00     0.074 A 
ATOM     52  C   UNL     1       7.595  -5.973  -9.798  1.00  0.00     0.031 C 
ATOM     53  C   UNL     1       6.093  -7.339  -3.203  1.00  0.00     0.029 A 
ATOM     54  C   UNL     1       6.642  -8.457  -3.967  1.00  0.00     0.049 A 
ATOM     55  H   UNL     1       7.307  -8.427  -5.940  1.00  0.00     0.167 HD
ATOM     56  C   UNL     1       8.499  -8.246 -10.171  1.00  0.00     0.037 A 
ATOM     57  C   UNL     1       6.824  -9.714  -3.517  1.00  0.00     0.037 A 
ATOM     58  C   UNL     1       8.811  -9.585  -9.746  1.00  0.00     0.049 A 
ATOM     59  C   UNL     1       7.397 -10.754  -4.450  1.00  0.00     0.074 A 
ATOM     60  C   UNL     1       9.417 -10.597 -10.468  1.00  0.00     0.029 A 
ATOM     61  N   UNL     1       8.530 -10.099  -8.489  1.00  0.00    -0.354 N 
ATOM     62  N   UNL     1       7.796 -10.627  -5.693  1.00  0.00    -0.248 NA
ATOM     63  C   UNL     1       7.547 -12.115  -3.914  1.00  0.00     0.031 C 
ATOM     64  C   UNL     1       9.444 -11.744  -9.669  1.00  0.00     0.029 A 
ATOM     65  C   UNL     1       8.921 -11.426  -8.425  1.00  0.00     0.049 A 
ATOM     66  H   UNL     1       8.114  -9.595  -7.753  1.00  0.00     0.167 HD
ATOM     67  C   UNL     1       8.273 -11.876  -6.074  1.00  0.00     0.074 A 
ATOM     68  C   UNL     1       8.131 -12.743  -4.924  1.00  0.00     0.031 C 
ATOM     69  C   UNL     1       8.784 -12.271  -7.266  1.00  0.00     0.037 A 
BRANCH  56  70
ATOM     70  C   UNL     1       8.807  -7.860 -11.587  1.00  0.00     0.064 A 
ATOM     71  C   UNL     1       9.828  -6.951 -11.902  1.00  0.00     0.173 A 
ATOM     72  C   UNL     1       8.100  -8.447 -12.647  1.00  0.00     0.173 A 
ATOM     73  F   UNL     1      10.522  -6.348 -10.925  1.00  0.00    -0.203 F 
ATOM     74  C   UNL     1      10.119  -6.632 -13.226  1.00  0.00     0.198 A 
ATOM     75  C   UNL     1       8.415  -8.150 -13.970  1.00  0.00     0.198 A 
ATOM     76  F   UNL     1       7.114  -9.322 -12.400  1.00  0.00    -0.203 F 
ATOM     77  F   UNL     1      11.071  -5.731 -13.503  1.00  0.00    -0.200 F 
ATOM     78  C   UNL     1       9.419  -7.240 -14.259  1.00  0.00     0.200 A 
ATOM     79  F   UNL     1       7.747  -8.749 -14.966  1.00  0.00    -0.200 F 
ATOM     80  F   UNL     1       9.712  -6.945 -15.533  1.00  0.00    -0.200 F 
ENDBRANCH  56  70
BRANCH  57  81
ATOM     81  C   UNL     1       6.435 -10.079  -2.127  1.00  0.00     0.064 A 
ATOM     82  C   UNL     1       7.393 -10.483  -1.187  1.00  0.00     0.173 A 
ATOM     83  C   UNL     1       5.090 -10.083  -1.727  1.00  0.00     0.173 A 
ATOM     84  F   UNL     1       8.690 -10.523  -1.527  1.00  0.00    -0.203 F 
ATOM     85  C   UNL     1       7.020 -10.904   0.088  1.00  0.00     0.198 A 
ATOM     86  C   UNL     1       4.721 -10.471  -0.440  1.00  0.00     0.198 A 
ATOM     87  F   UNL     1       4.131  -9.711  -2.587  1.00  0.00    -0.203 F 
ATOM     88  F   UNL     1       7.951 -11.347   0.945  1.00  0.00    -0.200 F 
ATOM     89  C   UNL     1       5.685 -10.894   0.462  1.00  0.00     0.200 A 
ATOM     90  F   UNL     1       3.431 -10.447  -0.080  1.00  0.00    -0.200 F 
ATOM     91  F   UNL     1       5.326 -11.303   1.687  1.00  0.00    -0.200 F 
ENDBRANCH  57  81
BRANCH  69  92
ATOM     92  C   UNL     1       9.275 -13.687  -7.377  1.00  0.00     0.064 A 
ATOM     93  C   UNL     1       8.394 -14.779  -7.377  1.00  0.00     0.173 A 
ATOM     94  C   UNL     1      10.645 -13.951  -7.531  1.00  0.00     0.173 A 
ATOM     95  F   UNL     1       7.076 -14.584  -7.221  1.00  0.00    -0.203 F 
ATOM     96  C   UNL     1       8.870 -16.083  -7.494  1.00  0.00     0.198 A 
ATOM     97  C   UNL     1      11.114 -15.252  -7.686  1.00  0.00     0.198 A 
ATOM     98  F   UNL     1      11.531 -12.943  -7.550  1.00  0.00    -0.203 F 
ATOM     99  F   UNL     1       8.016 -17.114  -7.435  1.00  0.00    -0.200 F 
ATOM    100  C   UNL     1      10.228 -16.318  -7.657  1.00  0.00     0.200 A 
ATOM    101  F   UNL     1      12.423 -15.475  -7.864  1.00  0.00    -0.200 F 
ATOM    102  F   UNL     1      10.682 -17.572  -7.780  1.00  0.00    -0.200 F 
ENDBRANCH  69  92
ENDBRANCH  43  44
ENDBRANCH  36  38
ENDBRANCH  35  36
ENDBRANCH  34  35
ENDBRANCH  33  34
ENDBRANCH  32  33
ENDBRANCH  31  32
ENDBRANCH  30  31
ENDBRANCH  29  30
ENDBRANCH   1  29
TORSDOF 24
