REMARK SMILES O=C(CCOc1cc(-c2ccncc2)nc(-c2ccc(C(F)(F)F)cc2)n1)OCCOCCOCCOCCOC(=O)c1ccc(-c2c3nc(c(-c4c(F)c(F)c(F)c(F)c4F)c4ccc([nH]4)c(-c4c(F)c(F)c(F)c(F)c4F)c4nc(c(-c5c(F)c(F)c(F)c(F)c5F)c5ccc2[nH]5)C=C4)C=C3)cc1
REMARK SMILES IDX 32 1 31 2 30 3 29 4 28 5 2 6 1 7 3 8 4 9 5 10 6 11 7 12
REMARK SMILES IDX 27 13 8 14 16 15 15 16 9 17 10 18 14 19 11 20 13 21 12 22
REMARK SMILES IDX 17 23 18 24 26 25 19 26 25 27 20 28 21 29 22 30 23 31 24 32
REMARK SMILES IDX 33 33 34 34 35 35 36 36 37 37 38 38 39 39 40 40 41 41 42 42
REMARK SMILES IDX 43 43 44 44 105 45 45 46 104 47 46 48 47 49 48 50 98 51
REMARK SMILES IDX 49 52 103 53 97 54 99 55 50 56 102 57 96 58 95 59 51 61
REMARK SMILES IDX 83 62 63 63 82 64 64 65 67 66 81 67 100 68 65 69 66 70 80 72
REMARK SMILES IDX 101 73 68 74 52 75 53 76 61 77 54 78 55 79 59 80 62 81 56 82
REMARK SMILES IDX 57 83 60 84 58 85 84 86 85 87 93 88 86 89 87 90 91 91 94 92
REMARK SMILES IDX 88 93 89 94 92 95 90 96 69 97 70 98 78 99 71 100 72 101
REMARK SMILES IDX 76 102 79 103 73 104 74 105 77 106 75 107
REMARK H PARENT 99 60 67 71
REMARK Flexibility Score: inf
ROOT
ATOM      1  C   UNL     1       3.176  -2.547   0.492  1.00  0.00     0.188 C 
ENDROOT
BRANCH   1   2
ATOM      2  O   UNL     1       4.562  -2.251   0.617  1.00  0.00    -0.376 OA
BRANCH   2   3
ATOM      3  C   UNL     1       5.183  -1.241  -0.151  1.00  0.00     0.202 C 
BRANCH   3   4
ATOM      4  C   UNL     1       4.689   0.187   0.046  1.00  0.00     0.261 C 
BRANCH   4   5
ATOM      5  O   UNL     1       3.260   0.306   0.029  1.00  0.00    -0.463 OA
BRANCH   5   6
ATOM      6  C   UNL     1       2.454   0.181  -1.041  1.00  0.00     0.309 C 
ATOM      7  O   UNL     1       1.238   0.107  -0.888  1.00  0.00    -0.252 OA
BRANCH   6   8
ATOM      8  C   UNL     1       3.072   0.153  -2.395  1.00  0.00     0.164 C 
BRANCH   8   9
ATOM      9  C   UNL     1       3.557   1.495  -2.942  1.00  0.00     0.243 C 
BRANCH   9  10
ATOM     10  O   UNL     1       2.893   2.679  -2.487  1.00  0.00    -0.477 OA
BRANCH  10  11
ATOM     11  C   UNL     1       3.252   3.103  -1.221  1.00  0.00     0.217 A 
ATOM     12  C   UNL     1       2.261   3.056  -0.279  1.00  0.00     0.097 A 
ATOM     13  N   UNL     1       4.483   3.577  -0.984  1.00  0.00    -0.193 NA
ATOM     14  C   UNL     1       2.658   3.268   1.022  1.00  0.00     0.078 A 
ATOM     15  C   UNL     1       4.709   3.977   0.294  1.00  0.00     0.163 A 
ATOM     16  N   UNL     1       3.886   3.727   1.333  1.00  0.00    -0.228 NA
BRANCH  14  17
ATOM     17  C   UNL     1       1.762   2.899   2.120  1.00  0.00     0.003 A 
ATOM     18  C   UNL     1       2.112   1.887   3.021  1.00  0.00     0.030 A 
ATOM     19  C   UNL     1       0.477   3.445   2.214  1.00  0.00     0.030 A 
ATOM     20  C   UNL     1       1.170   1.452   3.939  1.00  0.00     0.111 A 
ATOM     21  C   UNL     1      -0.390   2.956   3.177  1.00  0.00     0.111 A 
ATOM     22  N   UNL     1      -0.072   1.970   4.040  1.00  0.00    -0.265 NA
ENDBRANCH  14  17
BRANCH  15  23
ATOM     23  C   UNL     1       5.747   5.008   0.523  1.00  0.00     0.019 A 
ATOM     24  C   UNL     1       6.031   5.942  -0.490  1.00  0.00     0.012 A 
ATOM     25  C   UNL     1       6.376   5.205   1.769  1.00  0.00     0.012 A 
ATOM     26  C   UNL     1       6.870   7.038  -0.270  1.00  0.00     0.014 A 
ATOM     27  C   UNL     1       7.234   6.297   1.991  1.00  0.00     0.014 A 
ATOM     28  C   UNL     1       7.477   7.233   0.976  1.00  0.00     0.056 A 
BRANCH  28  29
ATOM     29  C   UNL     1       8.348   8.448   1.193  1.00  0.00     0.416 C 
ATOM     30  F   UNL     1       9.402   8.493   0.331  1.00  0.00    -0.166 F 
ATOM     31  F   UNL     1       7.668   9.615   1.011  1.00  0.00    -0.166 F 
ATOM     32  F   UNL     1       8.884   8.519   2.444  1.00  0.00    -0.166 F 
ENDBRANCH  28  29
ENDBRANCH  15  23
ENDBRANCH  10  11
ENDBRANCH   9  10
ENDBRANCH   8   9
ENDBRANCH   6   8
ENDBRANCH   5   6
ENDBRANCH   4   5
ENDBRANCH   3   4
ENDBRANCH   2   3
ENDBRANCH   1   2
BRANCH   1  33
ATOM     33  C   UNL     1       2.295  -1.940   1.608  1.00  0.00     0.188 C 
BRANCH  33  34
ATOM     34  O   UNL     1       2.737  -2.135   2.950  1.00  0.00    -0.377 OA
BRANCH  34  35
ATOM     35  C   UNL     1       4.076  -1.756   3.219  1.00  0.00     0.188 C 
BRANCH  35  36
ATOM     36  C   UNL     1       5.112  -2.908   3.190  1.00  0.00     0.188 C 
BRANCH  36  37
ATOM     37  O   UNL     1       4.731  -4.263   2.990  1.00  0.00    -0.376 OA
BRANCH  37  38
ATOM     38  C   UNL     1       3.467  -4.729   3.432  1.00  0.00     0.202 C 
BRANCH  38  39
ATOM     39  C   UNL     1       3.093  -4.621   4.918  1.00  0.00     0.261 C 
BRANCH  39  40
ATOM     40  O   UNL     1       3.425  -3.381   5.562  1.00  0.00    -0.460 OA
BRANCH  40  41
ATOM     41  C   UNL     1       4.584  -3.388   6.250  1.00  0.00     0.338 C 
ATOM     42  O   UNL     1       5.347  -4.340   6.416  1.00  0.00    -0.246 OA
BRANCH  41  43
ATOM     43  C   UNL     1       4.943  -2.021   6.670  1.00  0.00     0.060 A 
ATOM     44  C   UNL     1       6.224  -1.549   6.343  1.00  0.00     0.016 A 
ATOM     45  C   UNL     1       4.082  -1.248   7.453  1.00  0.00     0.016 A 
ATOM     46  C   UNL     1       6.685  -0.351   6.869  1.00  0.00     0.010 A 
ATOM     47  C   UNL     1       4.560  -0.061   8.017  1.00  0.00     0.010 A 
ATOM     48  C   UNL     1       5.888   0.345   7.784  1.00  0.00    -0.014 A 
BRANCH  48  49
ATOM     49  C   UNL     1       6.579   1.249   8.734  1.00  0.00     0.031 A 
ATOM     50  C   UNL     1       7.027   0.661  10.048  1.00  0.00     0.074 A 
ATOM     51  C   UNL     1       6.901   2.510   8.404  1.00  0.00     0.049 A 
ATOM     52  N   UNL     1       7.680   1.218  11.035  1.00  0.00    -0.248 NA
ATOM     53  C   UNL     1       6.694  -0.756  10.277  1.00  0.00     0.031 C 
ATOM     54  C   UNL     1       6.585   3.160   7.135  1.00  0.00     0.029 A 
ATOM     55  N   UNL     1       7.579   3.464   9.117  1.00  0.00    -0.354 N 
ATOM     56  C   UNL     1       7.821   0.227  11.999  1.00  0.00     0.074 A 
ATOM     57  C   UNL     1       7.161  -0.956  11.498  1.00  0.00     0.031 C 
ATOM     58  C   UNL     1       7.066   4.416   7.161  1.00  0.00     0.029 A 
ATOM     59  C   UNL     1       7.699   4.661   8.457  1.00  0.00     0.049 A 
ATOM     60  H   UNL     1       7.945   3.306  10.017  1.00  0.00     0.167 HD
ATOM     61  C   UNL     1       8.454   0.292  13.194  1.00  0.00     0.037 A 
ATOM     62  C   UNL     1       8.247   5.821   8.867  1.00  0.00     0.037 A 
ATOM     63  C   UNL     1       9.117   1.470  13.685  1.00  0.00     0.049 A 
ATOM     64  C   UNL     1       8.884   5.890  10.234  1.00  0.00     0.074 A 
ATOM     65  C   UNL     1       9.794   1.645  14.877  1.00  0.00     0.029 A 
ATOM     66  N   UNL     1       9.177   2.678  13.006  1.00  0.00    -0.354 N 
ATOM     67  N   UNL     1       9.026   4.947  11.136  1.00  0.00    -0.248 NA
ATOM     68  C   UNL     1       9.448   7.186  10.633  1.00  0.00     0.031 C 
ATOM     69  C   UNL     1      10.213   2.978  14.947  1.00  0.00     0.029 A 
ATOM     70  C   UNL     1       9.861   3.612  13.765  1.00  0.00     0.049 A 
ATOM     71  H   UNL     1       8.791   2.846  12.116  1.00  0.00     0.167 HD
ATOM     72  C   UNL     1       9.732   5.523  12.186  1.00  0.00     0.074 A 
ATOM     73  C   UNL     1       9.996   6.894  11.804  1.00  0.00     0.031 C 
ATOM     74  C   UNL     1      10.131   4.968  13.358  1.00  0.00     0.037 A 
BRANCH  61  75
ATOM     75  C   UNL     1       8.418  -0.930  14.065  1.00  0.00     0.064 A 
ATOM     76  C   UNL     1       9.119  -2.101  13.738  1.00  0.00     0.173 A 
ATOM     77  C   UNL     1       7.676  -0.924  15.256  1.00  0.00     0.173 A 
ATOM     78  F   UNL     1       9.827  -2.168  12.600  1.00  0.00    -0.203 F 
ATOM     79  C   UNL     1       9.054  -3.228  14.554  1.00  0.00     0.198 A 
ATOM     80  C   UNL     1       7.641  -2.040  16.087  1.00  0.00     0.198 A 
ATOM     81  F   UNL     1       6.986   0.169  15.617  1.00  0.00    -0.203 F 
ATOM     82  F   UNL     1       9.687  -4.353  14.193  1.00  0.00    -0.200 F 
ATOM     83  C   UNL     1       8.322  -3.193  15.732  1.00  0.00     0.200 A 
ATOM     84  F   UNL     1       6.944  -2.000  17.231  1.00  0.00    -0.200 F 
ATOM     85  F   UNL     1       8.267  -4.276  16.521  1.00  0.00    -0.200 F 
ENDBRANCH  61  75
BRANCH  62  86
ATOM     86  C   UNL     1       8.223   7.014   7.980  1.00  0.00     0.064 A 
ATOM     87  C   UNL     1       9.406   7.553   7.455  1.00  0.00     0.173 A 
ATOM     88  C   UNL     1       7.019   7.660   7.664  1.00  0.00     0.173 A 
ATOM     89  F   UNL     1      10.586   6.986   7.747  1.00  0.00    -0.203 F 
ATOM     90  C   UNL     1       9.389   8.705   6.671  1.00  0.00     0.198 A 
ATOM     91  C   UNL     1       6.999   8.793   6.853  1.00  0.00     0.198 A 
ATOM     92  F   UNL     1       5.858   7.188   8.140  1.00  0.00    -0.203 F 
ATOM     93  F   UNL     1      10.541   9.231   6.233  1.00  0.00    -0.200 F 
ATOM     94  C   UNL     1       8.185   9.321   6.366  1.00  0.00     0.200 A 
ATOM     95  F   UNL     1       5.832   9.377   6.551  1.00  0.00    -0.200 F 
ATOM     96  F   UNL     1       8.168  10.430   5.614  1.00  0.00    -0.200 F 
ENDBRANCH  62  86
BRANCH  74  97
ATOM     97  C   UNL     1      10.956   5.820  14.282  1.00  0.00     0.064 A 
ATOM     98  C   UNL     1      10.416   6.922  14.961  1.00  0.00     0.173 A 
ATOM     99  C   UNL     1      12.306   5.507  14.510  1.00  0.00     0.173 A 
ATOM    100  F   UNL     1       9.134   7.271  14.773  1.00  0.00    -0.203 F 
ATOM    101  C   UNL     1      11.207   7.704  15.799  1.00  0.00     0.198 A 
ATOM    102  C   UNL     1      13.083   6.268  15.379  1.00  0.00     0.198 A 
ATOM    103  F   UNL     1      12.870   4.455  13.897  1.00  0.00    -0.203 F 
ATOM    104  F   UNL     1      10.687   8.791  16.386  1.00  0.00    -0.200 F 
ATOM    105  C   UNL     1      12.537   7.373  16.012  1.00  0.00     0.200 A 
ATOM    106  F   UNL     1      14.362   5.933  15.598  1.00  0.00    -0.200 F 
ATOM    107  F   UNL     1      13.296   8.125  16.822  1.00  0.00    -0.200 F 
ENDBRANCH  74  97
ENDBRANCH  48  49
ENDBRANCH  41  43
ENDBRANCH  40  41
ENDBRANCH  39  40
ENDBRANCH  38  39
ENDBRANCH  37  38
ENDBRANCH  36  37
ENDBRANCH  35  36
ENDBRANCH  34  35
ENDBRANCH  33  34
ENDBRANCH   1  33
TORSDOF 26
