REMARK SMILES CC(C)Oc1ccc([C@@H]2CC(=O)Nc3c(C(=O)OCCOCCOCCOCCOC(=O)c4ccc(-c5c6nc(c(-c7c(F)c(F)c(F)c(F)c7F)c7ccc([nH]7)c(-c7c(F)c(F)c(F)c(F)c7F)c7nc(c(-c8c(F)c(F)c(F)c(F)c8F)c8ccc5[nH]8)C=C7)C=C6)cc4)nsc32)cc1
REMARK SMILES IDX 23 1 22 2 21 3 20 4 19 5 18 6 16 7 17 8 15 9 9 10 10 11
REMARK SMILES IDX 98 12 11 13 14 14 97 15 12 16 13 17 96 18 8 20 5 21 6 22
REMARK SMILES IDX 100 23 7 24 99 25 4 26 2 27 1 28 3 29 24 30 25 31 26 32
REMARK SMILES IDX 27 33 28 34 29 35 30 36 31 37 32 38 33 39 34 40 95 41 35 42
REMARK SMILES IDX 94 43 36 44 37 45 38 46 88 47 39 48 93 49 87 50 89 51 40 52
REMARK SMILES IDX 92 53 86 54 85 55 41 57 73 58 53 59 72 60 54 61 57 62 71 63
REMARK SMILES IDX 90 64 55 65 56 66 70 68 91 69 58 70 42 71 43 72 51 73 44 74
REMARK SMILES IDX 45 75 49 76 52 77 46 78 47 79 50 80 48 81 74 82 75 83 83 84
REMARK SMILES IDX 76 85 77 86 81 87 84 88 78 89 79 90 82 91 80 92 59 93 60 94
REMARK SMILES IDX 68 95 61 96 62 97 66 98 69 99 63 100 64 101 67 102 65 103
REMARK H PARENT 13 19 89 56 57 67
REMARK Flexibility Score: inf
ROOT
ATOM      1  C   UNL     1      -3.268  -2.853   9.424  1.00  0.00     0.188 C 
ENDROOT
BRANCH   1   2
ATOM      2  C   UNL     1      -1.790  -3.038   9.833  1.00  0.00     0.188 C 
BRANCH   2   3
ATOM      3  O   UNL     1      -1.239  -2.375  10.960  1.00  0.00    -0.376 OA
BRANCH   3   4
ATOM      4  C   UNL     1      -1.375  -0.992  11.230  1.00  0.00     0.202 C 
BRANCH   4   5
ATOM      5  C   UNL     1      -1.404   0.117  10.168  1.00  0.00     0.261 C 
BRANCH   5   6
ATOM      6  O   UNL     1      -1.863  -0.248   8.873  1.00  0.00    -0.458 OA
BRANCH   6   7
ATOM      7  C   UNL     1      -0.886  -0.683   8.026  1.00  0.00     0.360 C 
ATOM      8  O   UNL     1       0.311  -0.629   8.273  1.00  0.00    -0.244 OA
BRANCH   7   9
ATOM      9  C   UNL     1      -1.458  -1.319   6.834  1.00  0.00     0.185 A 
ATOM     10  C   UNL     1      -3.919  -1.468   4.022  1.00  0.00     0.073 C 
ATOM     11  C   UNL     1      -4.736  -0.219   4.414  1.00  0.00     0.114 C 
ATOM     12  C   UNL     1      -2.868  -1.720   5.055  1.00  0.00     0.058 A 
ATOM     13  C   UNL     1      -4.888   0.005   5.914  1.00  0.00     0.225 C 
ATOM     14  C   UNL     1      -2.747  -1.056   6.248  1.00  0.00     0.091 A 
ATOM     15  S   UNL     1      -1.597  -2.840   4.913  1.00  0.00    -0.038 S 
ATOM     16  O   UNL     1      -5.893   0.531   6.390  1.00  0.00    -0.275 OA
ATOM     17  N   UNL     1      -3.790  -0.266   6.696  1.00  0.00    -0.323 N 
ATOM     18  N   UNL     1      -0.753  -2.280   6.217  1.00  0.00    -0.183 NA
ATOM     19  H   UNL     1      -3.745   0.115   7.602  1.00  0.00     0.170 HD
BRANCH  10  20
ATOM     20  C   UNL     1      -3.251  -1.259   2.666  1.00  0.00    -0.039 A 
ATOM     21  C   UNL     1      -1.712  -1.058   0.320  1.00  0.00     0.119 A 
ATOM     22  C   UNL     1      -2.775  -1.962   0.397  1.00  0.00     0.047 A 
ATOM     23  C   UNL     1      -1.473  -0.196   1.380  1.00  0.00     0.047 A 
ATOM     24  C   UNL     1      -3.539  -2.073   1.567  1.00  0.00     0.008 A 
ATOM     25  C   UNL     1      -2.226  -0.301   2.543  1.00  0.00     0.008 A 
BRANCH  21  26
ATOM     26  O   UNL     1      -1.025  -0.989  -0.856  1.00  0.00    -0.491 OA
BRANCH  26  27
ATOM     27  C   UNL     1       0.404  -1.174  -0.832  1.00  0.00     0.167 C 
ATOM     28  C   UNL     1       1.196   0.001  -0.260  1.00  0.00     0.052 C 
ATOM     29  C   UNL     1       0.838  -2.510  -0.232  1.00  0.00     0.052 C 
ENDBRANCH  26  27
ENDBRANCH  21  26
ENDBRANCH  10  20
ENDBRANCH   7   9
ENDBRANCH   6   7
ENDBRANCH   5   6
ENDBRANCH   4   5
ENDBRANCH   3   4
ENDBRANCH   2   3
ENDBRANCH   1   2
BRANCH   1  30
ATOM     30  O   UNL     1      -3.882  -1.703   9.979  1.00  0.00    -0.377 OA
BRANCH  30  31
ATOM     31  C   UNL     1      -4.617  -1.905  11.188  1.00  0.00     0.188 C 
BRANCH  31  32
ATOM     32  C   UNL     1      -4.076  -2.882  12.270  1.00  0.00     0.188 C 
BRANCH  32  33
ATOM     33  O   UNL     1      -3.406  -4.025  11.763  1.00  0.00    -0.376 OA
BRANCH  33  34
ATOM     34  C   UNL     1      -3.952  -5.331  11.780  1.00  0.00     0.202 C 
BRANCH  34  35
ATOM     35  C   UNL     1      -5.235  -5.591  11.001  1.00  0.00     0.261 C 
BRANCH  35  36
ATOM     36  O   UNL     1      -6.158  -4.526  11.072  1.00  0.00    -0.460 OA
BRANCH  36  37
ATOM     37  C   UNL     1      -6.745  -4.383  12.275  1.00  0.00     0.338 C 
ATOM     38  O   UNL     1      -6.437  -4.918  13.321  1.00  0.00    -0.246 OA
BRANCH  37  39
ATOM     39  C   UNL     1      -7.946  -3.572  12.079  1.00  0.00     0.060 A 
ATOM     40  C   UNL     1      -8.656  -3.263  13.237  1.00  0.00     0.016 A 
ATOM     41  C   UNL     1      -8.524  -3.566  10.801  1.00  0.00     0.016 A 
ATOM     42  C   UNL     1     -10.023  -3.254  13.148  1.00  0.00     0.010 A 
ATOM     43  C   UNL     1      -9.886  -3.597  10.719  1.00  0.00     0.010 A 
ATOM     44  C   UNL     1     -10.605  -3.541  11.908  1.00  0.00    -0.014 A 
BRANCH  44  45
ATOM     45  C   UNL     1     -12.035  -3.682  11.851  1.00  0.00     0.031 A 
ATOM     46  C   UNL     1     -12.707  -2.372  11.906  1.00  0.00     0.074 A 
ATOM     47  C   UNL     1     -12.623  -4.877  11.672  1.00  0.00     0.049 A 
ATOM     48  N   UNL     1     -13.437  -1.919  12.866  1.00  0.00    -0.248 NA
ATOM     49  C   UNL     1     -12.347  -1.367  10.891  1.00  0.00     0.031 C 
ATOM     50  C   UNL     1     -11.998  -6.168  11.376  1.00  0.00     0.029 A 
ATOM     51  N   UNL     1     -13.949  -5.159  11.617  1.00  0.00    -0.354 N 
ATOM     52  C   UNL     1     -13.808  -0.643  12.469  1.00  0.00     0.074 A 
ATOM     53  C   UNL     1     -12.940  -0.281  11.383  1.00  0.00     0.031 C 
ATOM     54  C   UNL     1     -12.948  -7.032  10.948  1.00  0.00     0.029 A 
ATOM     55  C   UNL     1     -14.247  -6.390  11.044  1.00  0.00     0.049 A 
ATOM     56  H   UNL     1     -14.641  -4.545  11.954  1.00  0.00     0.167 HD
ATOM     57  C   UNL     1     -14.998  -0.125  12.869  1.00  0.00     0.037 A 
ATOM     58  C   UNL     1     -15.473  -6.763  10.596  1.00  0.00     0.037 A 
ATOM     59  C   UNL     1     -15.494  -0.817  14.034  1.00  0.00     0.049 A 
ATOM     60  C   UNL     1     -16.470  -5.869  11.254  1.00  0.00     0.074 A 
ATOM     61  C   UNL     1     -14.993  -1.035  15.305  1.00  0.00     0.029 A 
ATOM     62  N   UNL     1     -16.485  -1.752  13.856  1.00  0.00    -0.354 N 
ATOM     63  N   UNL     1     -16.743  -5.916  12.530  1.00  0.00    -0.248 NA
ATOM     64  C   UNL     1     -16.777  -4.602  10.600  1.00  0.00     0.031 C 
ATOM     65  C   UNL     1     -15.369  -2.371  15.629  1.00  0.00     0.029 A 
ATOM     66  C   UNL     1     -16.141  -2.867  14.578  1.00  0.00     0.049 A 
ATOM     67  H   UNL     1     -17.296  -1.642  13.309  1.00  0.00     0.167 HD
ATOM     68  C   UNL     1     -16.829  -4.587  12.922  1.00  0.00     0.074 A 
ATOM     69  C   UNL     1     -16.912  -3.824  11.678  1.00  0.00     0.031 C 
ATOM     70  C   UNL     1     -16.513  -4.207  14.195  1.00  0.00     0.037 A 
BRANCH  57  71
ATOM     71  C   UNL     1     -15.886   0.691  11.965  1.00  0.00     0.064 A 
ATOM     72  C   UNL     1     -17.058   1.249  12.507  1.00  0.00     0.173 A 
ATOM     73  C   UNL     1     -15.809   0.688  10.553  1.00  0.00     0.173 A 
ATOM     74  F   UNL     1     -17.242   1.293  13.835  1.00  0.00    -0.203 F 
ATOM     75  C   UNL     1     -18.111   1.677  11.697  1.00  0.00     0.198 A 
ATOM     76  C   UNL     1     -16.837   1.169   9.749  1.00  0.00     0.198 A 
ATOM     77  F   UNL     1     -14.801   0.120   9.883  1.00  0.00    -0.203 F 
ATOM     78  F   UNL     1     -19.262   2.068  12.258  1.00  0.00    -0.200 F 
ATOM     79  C   UNL     1     -18.003   1.629  10.319  1.00  0.00     0.200 A 
ATOM     80  F   UNL     1     -16.717   1.095   8.416  1.00  0.00    -0.200 F 
ATOM     81  F   UNL     1     -19.037   1.973   9.541  1.00  0.00    -0.200 F 
ENDBRANCH  57  71
BRANCH  58  82
ATOM     82  C   UNL     1     -15.804  -7.603   9.417  1.00  0.00     0.064 A 
ATOM     83  C   UNL     1     -17.111  -8.076   9.208  1.00  0.00     0.173 A 
ATOM     84  C   UNL     1     -14.915  -7.744   8.332  1.00  0.00     0.173 A 
ATOM     85  F   UNL     1     -18.039  -7.941  10.167  1.00  0.00    -0.203 F 
ATOM     86  C   UNL     1     -17.507  -8.634   7.987  1.00  0.00     0.198 A 
ATOM     87  C   UNL     1     -15.308  -8.310   7.118  1.00  0.00     0.198 A 
ATOM     88  F   UNL     1     -13.670  -7.253   8.388  1.00  0.00    -0.203 F 
ATOM     89  F   UNL     1     -18.779  -9.017   7.807  1.00  0.00    -0.200 F 
ATOM     90  C   UNL     1     -16.607  -8.743   6.940  1.00  0.00     0.200 A 
ATOM     91  F   UNL     1     -14.433  -8.376   6.104  1.00  0.00    -0.200 F 
ATOM     92  F   UNL     1     -16.999  -9.223   5.752  1.00  0.00    -0.200 F 
ENDBRANCH  58  82
BRANCH  70  93
ATOM     93  C   UNL     1     -16.309  -5.284  15.224  1.00  0.00     0.064 A 
ATOM     94  C   UNL     1     -15.305  -6.265  15.149  1.00  0.00     0.173 A 
ATOM     95  C   UNL     1     -17.058  -5.219  16.407  1.00  0.00     0.173 A 
ATOM     96  F   UNL     1     -14.473  -6.323  14.101  1.00  0.00    -0.203 F 
ATOM     97  C   UNL     1     -15.095  -7.167  16.191  1.00  0.00     0.198 A 
ATOM     98  C   UNL     1     -16.820  -6.094  17.462  1.00  0.00     0.198 A 
ATOM     99  F   UNL     1     -17.990  -4.265  16.560  1.00  0.00    -0.203 F 
ATOM    100  F   UNL     1     -14.139  -8.101  16.090  1.00  0.00    -0.200 F 
ATOM    101  C   UNL     1     -15.848  -7.075  17.350  1.00  0.00     0.200 A 
ATOM    102  F   UNL     1     -17.513  -5.965  18.602  1.00  0.00    -0.200 F 
ATOM    103  F   UNL     1     -15.617  -7.912  18.371  1.00  0.00    -0.200 F 
ENDBRANCH  70  93
ENDBRANCH  44  45
ENDBRANCH  37  39
ENDBRANCH  36  37
ENDBRANCH  35  36
ENDBRANCH  34  35
ENDBRANCH  33  34
ENDBRANCH  32  33
ENDBRANCH  31  32
ENDBRANCH  30  31
ENDBRANCH   1  30
TORSDOF 23
