REMARK SMILES CC[C@H]1CCC[C@H](O[C@@H]2CC[C@]([NH2+]C(C)C)(C(=O)OCCOCCOCCOCCOC(=O)c3ccc(-c4c5nc(c(-c6c(F)c(F)c(F)c(F)c6F)c6ccc([nH]6)c(-c6c(F)c(F)c(F)c(F)c6F)c6nc(c(-c7c(F)c(F)c(F)c(F)c7F)c7ccc4[nH]7)C=C6)C=C5)cc3)C2)C1
REMARK SMILES IDX 24 1 23 2 22 3 21 4 20 5 19 6 17 7 18 8 12 9 9 10 10 11
REMARK SMILES IDX 97 12 11 13 8 14 7 15 3 16 4 17 98 18 5 19 6 20 2 21 1 22
REMARK SMILES IDX 13 23 14 26 15 27 16 28 25 29 26 30 27 31 28 32 29 33 30 34
REMARK SMILES IDX 31 35 32 36 33 37 34 38 35 39 96 40 36 41 95 42 37 43 38 44
REMARK SMILES IDX 39 45 89 46 40 47 94 48 88 49 90 50 41 51 93 52 87 53 86 54
REMARK SMILES IDX 42 56 74 57 54 58 73 59 55 60 58 61 72 62 91 63 56 64 57 65
REMARK SMILES IDX 71 67 92 68 59 69 43 70 44 71 52 72 45 73 46 74 50 75 53 76
REMARK SMILES IDX 47 77 48 78 51 79 49 80 75 81 76 82 84 83 77 84 78 85 82 86
REMARK SMILES IDX 85 87 79 88 80 89 83 90 81 91 60 92 61 93 69 94 62 95 63 96
REMARK SMILES IDX 67 97 70 98 64 99 65 100 68 101 66 102
REMARK H PARENT 13 24 13 25 90 55 58 66
REMARK Flexibility Score: inf
ROOT
ATOM      1  C   UNL     1      -4.183   1.909   4.414  1.00  0.00     0.188 C 
ENDROOT
BRANCH   1   2
ATOM      2  C   UNL     1      -3.121   1.292   3.479  1.00  0.00     0.188 C 
BRANCH   2   3
ATOM      3  O   UNL     1      -2.122   0.400   3.968  1.00  0.00    -0.376 OA
BRANCH   3   4
ATOM      4  C   UNL     1      -1.849   0.341   5.357  1.00  0.00     0.202 C 
BRANCH   4   5
ATOM      5  C   UNL     1      -1.426   1.636   6.089  1.00  0.00     0.261 C 
BRANCH   5   6
ATOM      6  O   UNL     1      -1.974   2.877   5.573  1.00  0.00    -0.459 OA
BRANCH   6   7
ATOM      7  C   UNL     1      -1.144   3.587   4.786  1.00  0.00     0.368 C 
ATOM      8  O   UNL     1       0.053   3.295   4.706  1.00  0.00    -0.245 OA
BRANCH   7   9
ATOM      9  C   UNL     1      -1.727   4.819   3.978  1.00  0.00     0.197 C 
ATOM     10  C   UNL     1      -0.634   6.005   2.148  1.00  0.00     0.125 C 
ATOM     11  C   UNL     1      -0.167   6.687   3.430  1.00  0.00     0.039 C 
ATOM     12  C   UNL     1      -1.128   4.657   2.599  1.00  0.00     0.113 C 
ATOM     13  C   UNL     1      -0.973   6.046   4.568  1.00  0.00     0.084 C 
BRANCH  10  14
ATOM     14  O   UNL     1       0.290   5.976   1.066  1.00  0.00    -0.375 OA
BRANCH  14  15
ATOM     15  C   UNL     1       1.203   4.880   0.872  1.00  0.00     0.118 C 
ATOM     16  C   UNL     1       1.496   2.369   0.279  1.00  0.00    -0.009 C 
ATOM     17  C   UNL     1       2.372   2.260   1.541  1.00  0.00     0.004 C 
ATOM     18  C   UNL     1       0.543   3.565   0.385  1.00  0.00     0.035 C 
ATOM     19  C   UNL     1       3.131   3.546   1.855  1.00  0.00     0.003 C 
ATOM     20  C   UNL     1       2.184   4.722   2.037  1.00  0.00     0.032 C 
BRANCH  16  21
ATOM     21  C   UNL     1       2.325   2.358  -1.012  1.00  0.00     0.000 C 
ATOM     22  C   UNL     1       1.499   2.640  -2.261  1.00  0.00     0.004 C 
ENDBRANCH  16  21
ENDBRANCH  14  15
ENDBRANCH  10  14
BRANCH   9  23
ATOM     23  N   UNL     1      -3.204   5.096   3.933  1.00  0.00    -0.330 N 
ATOM     24  H   UNL     1      -3.312   6.091   4.130  1.00  0.00     0.347 HD
ATOM     25  H   UNL     1      -3.567   4.413   4.597  1.00  0.00     0.347 HD
BRANCH  23  26
ATOM     26  C   UNL     1      -4.031   4.819   2.723  1.00  0.00     0.176 C 
ATOM     27  C   UNL     1      -5.516   4.939   3.116  1.00  0.00     0.075 C 
ATOM     28  C   UNL     1      -3.873   5.731   1.489  1.00  0.00     0.075 C 
ENDBRANCH  23  26
ENDBRANCH   9  23
ENDBRANCH   7   9
ENDBRANCH   6   7
ENDBRANCH   5   6
ENDBRANCH   4   5
ENDBRANCH   3   4
ENDBRANCH   2   3
ENDBRANCH   1   2
BRANCH   1  29
ATOM     29  O   UNL     1      -4.248   1.307   5.691  1.00  0.00    -0.377 OA
BRANCH  29  30
ATOM     30  C   UNL     1      -5.371   0.497   5.934  1.00  0.00     0.188 C 
BRANCH  30  31
ATOM     31  C   UNL     1      -5.689  -0.559   4.868  1.00  0.00     0.188 C 
BRANCH  31  32
ATOM     32  O   UNL     1      -5.777  -0.024   3.552  1.00  0.00    -0.376 OA
BRANCH  32  33
ATOM     33  C   UNL     1      -7.058   0.208   2.991  1.00  0.00     0.202 C 
BRANCH  33  34
ATOM     34  C   UNL     1      -7.901   1.379   3.531  1.00  0.00     0.261 C 
BRANCH  34  35
ATOM     35  O   UNL     1      -8.037   1.494   4.954  1.00  0.00    -0.460 OA
BRANCH  35  36
ATOM     36  C   UNL     1      -8.729   0.533   5.603  1.00  0.00     0.338 C 
ATOM     37  O   UNL     1      -9.283  -0.431   5.103  1.00  0.00    -0.246 OA
BRANCH  36  38
ATOM     38  C   UNL     1      -8.523   0.724   7.059  1.00  0.00     0.060 A 
ATOM     39  C   UNL     1      -7.936  -0.319   7.792  1.00  0.00     0.016 A 
ATOM     40  C   UNL     1      -8.842   1.930   7.690  1.00  0.00     0.016 A 
ATOM     41  C   UNL     1      -7.692  -0.169   9.158  1.00  0.00     0.010 A 
ATOM     42  C   UNL     1      -8.634   2.065   9.068  1.00  0.00     0.010 A 
ATOM     43  C   UNL     1      -8.089   1.004   9.813  1.00  0.00    -0.014 A 
BRANCH  43  44
ATOM     44  C   UNL     1      -8.165   1.012  11.295  1.00  0.00     0.031 A 
ATOM     45  C   UNL     1      -9.480   0.645  11.928  1.00  0.00     0.074 A 
ATOM     46  C   UNL     1      -7.098   1.292  12.064  1.00  0.00     0.049 A 
ATOM     47  N   UNL     1      -9.817   0.600  13.191  1.00  0.00    -0.248 NA
ATOM     48  C   UNL     1     -10.565   0.278  11.002  1.00  0.00     0.031 C 
ATOM     49  C   UNL     1      -5.760   1.608  11.574  1.00  0.00     0.029 A 
ATOM     50  N   UNL     1      -6.982   1.357  13.432  1.00  0.00    -0.354 N 
ATOM     51  C   UNL     1     -11.148   0.203  13.209  1.00  0.00     0.074 A 
ATOM     52  C   UNL     1     -11.569   0.053  11.834  1.00  0.00     0.031 C 
ATOM     53  C   UNL     1      -4.957   1.849  12.626  1.00  0.00     0.029 A 
ATOM     54  C   UNL     1      -5.733   1.734  13.861  1.00  0.00     0.049 A 
ATOM     55  H   UNL     1      -7.724   1.154  14.046  1.00  0.00     0.167 HD
ATOM     56  C   UNL     1     -11.948  -0.023  14.277  1.00  0.00     0.037 A 
ATOM     57  C   UNL     1      -5.282   1.980  15.108  1.00  0.00     0.037 A 
ATOM     58  C   UNL     1     -11.530   0.138  15.644  1.00  0.00     0.049 A 
ATOM     59  C   UNL     1      -6.220   1.808  16.279  1.00  0.00     0.074 A 
ATOM     60  C   UNL     1     -12.261  -0.072  16.799  1.00  0.00     0.029 A 
ATOM     61  N   UNL     1     -10.270   0.563  16.037  1.00  0.00    -0.354 N 
ATOM     62  N   UNL     1      -7.469   1.410  16.293  1.00  0.00    -0.248 NA
ATOM     63  C   UNL     1      -5.680   2.118  17.612  1.00  0.00     0.031 C 
ATOM     64  C   UNL     1     -11.463   0.286  17.890  1.00  0.00     0.029 A 
ATOM     65  C   UNL     1     -10.212   0.652  17.419  1.00  0.00     0.049 A 
ATOM     66  H   UNL     1      -9.527   0.771  15.426  1.00  0.00     0.167 HD
ATOM     67  C   UNL     1      -7.852   1.388  17.629  1.00  0.00     0.074 A 
ATOM     68  C   UNL     1      -6.698   1.800  18.399  1.00  0.00     0.031 C 
ATOM     69  C   UNL     1      -9.050   1.053  18.171  1.00  0.00     0.037 A 
BRANCH  56  70
ATOM     70  C   UNL     1     -13.366  -0.433  14.005  1.00  0.00     0.064 A 
ATOM     71  C   UNL     1     -13.685  -1.692  13.474  1.00  0.00     0.173 A 
ATOM     72  C   UNL     1     -14.424   0.441  14.302  1.00  0.00     0.173 A 
ATOM     73  F   UNL     1     -12.711  -2.557  13.155  1.00  0.00    -0.203 F 
ATOM     74  C   UNL     1     -15.008  -2.050  13.225  1.00  0.00     0.198 A 
ATOM     75  C   UNL     1     -15.746   0.066  14.082  1.00  0.00     0.198 A 
ATOM     76  F   UNL     1     -14.175   1.657  14.810  1.00  0.00    -0.203 F 
ATOM     77  F   UNL     1     -15.285  -3.236  12.667  1.00  0.00    -0.200 F 
ATOM     78  C   UNL     1     -16.037  -1.175  13.537  1.00  0.00     0.200 A 
ATOM     79  F   UNL     1     -16.740   0.909  14.396  1.00  0.00    -0.200 F 
ATOM     80  F   UNL     1     -17.310  -1.524  13.304  1.00  0.00    -0.200 F 
ENDBRANCH  56  70
BRANCH  57  81
ATOM     81  C   UNL     1      -3.880   2.431  15.323  1.00  0.00     0.064 A 
ATOM     82  C   UNL     1      -2.954   1.629  16.006  1.00  0.00     0.173 A 
ATOM     83  C   UNL     1      -3.447   3.691  14.882  1.00  0.00     0.173 A 
ATOM     84  F   UNL     1      -3.326   0.429  16.475  1.00  0.00    -0.203 F 
ATOM     85  C   UNL     1      -1.659   2.078  16.258  1.00  0.00     0.198 A 
ATOM     86  C   UNL     1      -2.142   4.125  15.107  1.00  0.00     0.198 A 
ATOM     87  F   UNL     1      -4.293   4.503  14.230  1.00  0.00    -0.203 F 
ATOM     88  F   UNL     1      -0.813   1.314  16.963  1.00  0.00    -0.200 F 
ATOM     89  C   UNL     1      -1.252   3.323  15.803  1.00  0.00     0.200 A 
ATOM     90  F   UNL     1      -1.751   5.325  14.657  1.00  0.00    -0.200 F 
ATOM     91  F   UNL     1      -0.007   3.754  16.047  1.00  0.00    -0.200 F 
ENDBRANCH  57  81
BRANCH  69  92
ATOM     92  C   UNL     1      -9.165   1.071  19.670  1.00  0.00     0.064 A 
ATOM     93  C   UNL     1      -9.160   2.267  20.401  1.00  0.00     0.173 A 
ATOM     94  C   UNL     1      -9.333  -0.130  20.380  1.00  0.00     0.173 A 
ATOM     95  F   UNL     1      -8.992   3.441  19.774  1.00  0.00    -0.203 F 
ATOM     96  C   UNL     1      -9.287   2.260  21.788  1.00  0.00     0.198 A 
ATOM     97  C   UNL     1      -9.497  -0.130  21.762  1.00  0.00     0.198 A 
ATOM     98  F   UNL     1      -9.357  -1.303  19.729  1.00  0.00    -0.203 F 
ATOM     99  F   UNL     1      -9.226   3.412  22.471  1.00  0.00    -0.200 F 
ATOM    100  C   UNL     1      -9.464   1.063  22.466  1.00  0.00     0.200 A 
ATOM    101  F   UNL     1      -9.688  -1.287  22.412  1.00  0.00    -0.200 F 
ATOM    102  F   UNL     1      -9.598   1.059  23.799  1.00  0.00    -0.200 F 
ENDBRANCH  69  92
ENDBRANCH  43  44
ENDBRANCH  36  38
ENDBRANCH  35  36
ENDBRANCH  34  35
ENDBRANCH  33  34
ENDBRANCH  32  33
ENDBRANCH  31  32
ENDBRANCH  30  31
ENDBRANCH  29  30
ENDBRANCH   1  29
TORSDOF 25
