REMARK SMILES CCCC1CN(c2cc(C(=O)OCCOCCOCCOCCOC(=O)c3ccc(-c4c5nc(c(-c6c(F)c(F)c(F)c(F)c6F)c6ccc([nH]6)c(-c6c(F)c(F)c(F)c(F)c6F)c6nc(c(-c7c(F)c(F)c(F)c(F)c7F)c7ccc4[nH]7)C=C6)C=C5)cc3)ccc2F)C1
REMARK SMILES IDX 17 1 16 2 15 3 14 4 13 5 12 6 10 7 11 8 9 9 7 10 8 11 92 12
REMARK SMILES IDX 91 13 93 14 90 15 6 16 4 17 5 18 94 19 3 20 2 21 1 22 18 23
REMARK SMILES IDX 19 24 20 25 21 26 22 27 23 28 24 29 25 30 26 31 27 32 28 33
REMARK SMILES IDX 89 34 29 35 88 36 30 37 31 38 32 39 82 40 33 41 87 42 81 43
REMARK SMILES IDX 83 44 34 45 86 46 80 47 79 48 35 50 67 51 47 52 66 53 48 54
REMARK SMILES IDX 51 55 65 56 84 57 49 58 50 59 64 61 85 62 52 63 36 64 37 65
REMARK SMILES IDX 45 66 38 67 39 68 43 69 46 70 40 71 41 72 44 73 42 74 68 75
REMARK SMILES IDX 69 76 77 77 70 78 71 79 75 80 78 81 72 82 73 83 76 84 74 85
REMARK SMILES IDX 53 86 54 87 62 88 55 89 56 90 60 91 63 92 57 93 58 94 61 95
REMARK SMILES IDX 59 96
REMARK H PARENT 83 49 51 60
REMARK Flexibility Score: inf
ROOT
ATOM      1  C   UNL     1       3.316  -0.646   8.854  1.00  0.00     0.188 C 
ENDROOT
BRANCH   1   2
ATOM      2  C   UNL     1       4.646  -0.399   8.113  1.00  0.00     0.188 C 
BRANCH   2   3
ATOM      3  O   UNL     1       5.647   0.167   8.942  1.00  0.00    -0.376 OA
BRANCH   3   4
ATOM      4  C   UNL     1       5.961   1.540   8.824  1.00  0.00     0.202 C 
BRANCH   4   5
ATOM      5  C   UNL     1       4.860   2.609   8.905  1.00  0.00     0.261 C 
BRANCH   5   6
ATOM      6  O   UNL     1       3.615   2.304   8.270  1.00  0.00    -0.460 OA
BRANCH   6   7
ATOM      7  C   UNL     1       3.555   2.362   6.923  1.00  0.00     0.338 C 
ATOM      8  O   UNL     1       4.460   2.664   6.162  1.00  0.00    -0.246 OA
BRANCH   7   9
ATOM      9  C   UNL     1       2.246   1.793   6.514  1.00  0.00     0.062 A 
ATOM     10  C   UNL     1       0.979   0.292   5.089  1.00  0.00     0.074 A 
ATOM     11  C   UNL     1       2.198   0.873   5.450  1.00  0.00     0.044 A 
ATOM     12  C   UNL     1      -0.175   0.652   5.809  1.00  0.00     0.146 A 
ATOM     13  C   UNL     1      -0.130   1.538   6.878  1.00  0.00     0.042 A 
ATOM     14  F   UNL     1      -1.362   0.127   5.467  1.00  0.00    -0.205 F 
ATOM     15  C   UNL     1       1.085   2.112   7.236  1.00  0.00     0.019 A 
BRANCH  10  16
ATOM     16  N   UNL     1       0.833  -0.575   4.004  1.00  0.00    -0.368 N 
ATOM     17  C   UNL     1       0.601  -1.686   2.318  1.00  0.00     0.028 C 
ATOM     18  C   UNL     1       1.445  -1.804   3.619  1.00  0.00     0.122 C 
ATOM     19  C   UNL     1       0.556  -0.188   2.660  1.00  0.00     0.122 C 
BRANCH  17  20
ATOM     20  C   UNL     1       1.216  -2.149   1.007  1.00  0.00     0.007 C 
BRANCH  20  21
ATOM     21  C   UNL     1       0.496  -1.561  -0.213  1.00  0.00    -0.003 C 
ATOM     22  C   UNL     1       0.887  -0.119  -0.515  1.00  0.00     0.004 C 
ENDBRANCH  20  21
ENDBRANCH  17  20
ENDBRANCH  10  16
ENDBRANCH   7   9
ENDBRANCH   6   7
ENDBRANCH   5   6
ENDBRANCH   4   5
ENDBRANCH   3   4
ENDBRANCH   2   3
ENDBRANCH   1   2
BRANCH   1  23
ATOM     23  O   UNL     1       3.163  -0.035  10.126  1.00  0.00    -0.377 OA
BRANCH  23  24
ATOM     24  C   UNL     1       4.083  -0.339  11.174  1.00  0.00     0.188 C 
BRANCH  24  25
ATOM     25  C   UNL     1       5.128  -1.479  11.078  1.00  0.00     0.188 C 
BRANCH  25  26
ATOM     26  O   UNL     1       4.895  -2.426  10.050  1.00  0.00    -0.376 OA
BRANCH  26  27
ATOM     27  C   UNL     1       4.445  -3.718  10.412  1.00  0.00     0.202 C 
BRANCH  27  28
ATOM     28  C   UNL     1       3.051  -3.804  11.047  1.00  0.00     0.261 C 
BRANCH  28  29
ATOM     29  O   UNL     1       2.841  -2.973  12.200  1.00  0.00    -0.460 OA
BRANCH  29  30
ATOM     30  C   UNL     1       3.561  -3.273  13.299  1.00  0.00     0.338 C 
ATOM     31  O   UNL     1       4.366  -4.183  13.432  1.00  0.00    -0.246 OA
BRANCH  30  32
ATOM     32  C   UNL     1       3.357  -2.199  14.288  1.00  0.00     0.060 A 
ATOM     33  C   UNL     1       4.472  -1.488  14.750  1.00  0.00     0.016 A 
ATOM     34  C   UNL     1       2.079  -1.909  14.770  1.00  0.00     0.016 A 
ATOM     35  C   UNL     1       4.317  -0.525  15.744  1.00  0.00     0.010 A 
ATOM     36  C   UNL     1       1.926  -0.954  15.778  1.00  0.00     0.010 A 
ATOM     37  C   UNL     1       3.052  -0.294  16.302  1.00  0.00    -0.014 A 
BRANCH  37  38
ATOM     38  C   UNL     1       2.954   0.476  17.565  1.00  0.00     0.031 A 
ATOM     39  C   UNL     1       2.854  -0.282  18.860  1.00  0.00     0.074 A 
ATOM     40  C   UNL     1       3.021   1.818  17.569  1.00  0.00     0.049 A 
ATOM     41  N   UNL     1       2.790   0.170  20.086  1.00  0.00    -0.248 NA
ATOM     42  C   UNL     1       2.824  -1.750  18.759  1.00  0.00     0.031 C 
ATOM     43  C   UNL     1       3.163   2.657  16.383  1.00  0.00     0.029 A 
ATOM     44  N   UNL     1       2.989   2.708  18.613  1.00  0.00    -0.354 N 
ATOM     45  C   UNL     1       2.712  -0.954  20.897  1.00  0.00     0.074 A 
ATOM     46  C   UNL     1       2.694  -2.108  20.027  1.00  0.00     0.031 C 
ATOM     47  C   UNL     1       3.215   3.945  16.766  1.00  0.00     0.029 A 
ATOM     48  C   UNL     1       3.079   4.020  18.221  1.00  0.00     0.049 A 
ATOM     49  H   UNL     1       2.909   2.432  19.555  1.00  0.00     0.167 HD
ATOM     50  C   UNL     1       2.675  -1.017  22.249  1.00  0.00     0.037 A 
ATOM     51  C   UNL     1       3.047   5.152  18.952  1.00  0.00     0.037 A 
ATOM     52  C   UNL     1       2.700   0.135  23.110  1.00  0.00     0.049 A 
ATOM     53  C   UNL     1       2.933   5.060  20.452  1.00  0.00     0.074 A 
ATOM     54  C   UNL     1       2.690   0.175  24.493  1.00  0.00     0.029 A 
ATOM     55  N   UNL     1       2.732   1.451  22.672  1.00  0.00    -0.354 N 
ATOM     56  N   UNL     1       2.883   3.995  21.215  1.00  0.00    -0.248 NA
ATOM     57  C   UNL     1       2.876   6.328  21.194  1.00  0.00     0.031 C 
ATOM     58  C   UNL     1       2.647   1.513  24.890  1.00  0.00     0.029 A 
ATOM     59  C   UNL     1       2.706   2.311  23.758  1.00  0.00     0.049 A 
ATOM     60  H   UNL     1       2.768   1.732  21.729  1.00  0.00     0.167 HD
ATOM     61  C   UNL     1       2.813   4.460  22.522  1.00  0.00     0.074 A 
ATOM     62  C   UNL     1       2.842   5.906  22.451  1.00  0.00     0.031 C 
ATOM     63  C   UNL     1       2.734   3.750  23.675  1.00  0.00     0.037 A 
BRANCH  50  64
ATOM     64  C   UNL     1       2.582  -2.373  22.885  1.00  0.00     0.064 A 
ATOM     65  C   UNL     1       1.422  -2.752  23.578  1.00  0.00     0.173 A 
ATOM     66  C   UNL     1       3.656  -3.276  22.865  1.00  0.00     0.173 A 
ATOM     67  F   UNL     1       0.365  -1.926  23.630  1.00  0.00    -0.203 F 
ATOM     68  C   UNL     1       1.347  -3.973  24.241  1.00  0.00     0.198 A 
ATOM     69  C   UNL     1       3.566  -4.512  23.501  1.00  0.00     0.198 A 
ATOM     70  F   UNL     1       4.783  -2.971  22.204  1.00  0.00    -0.203 F 
ATOM     71  F   UNL     1       0.241  -4.295  24.927  1.00  0.00    -0.200 F 
ATOM     72  C   UNL     1       2.417  -4.854  24.198  1.00  0.00     0.200 A 
ATOM     73  F   UNL     1       4.589  -5.374  23.435  1.00  0.00    -0.200 F 
ATOM     74  F   UNL     1       2.339  -6.036  24.826  1.00  0.00    -0.200 F 
ENDBRANCH  50  64
BRANCH  51  75
ATOM     75  C   UNL     1       3.146   6.466  18.266  1.00  0.00     0.064 A 
ATOM     76  C   UNL     1       2.117   6.930  17.432  1.00  0.00     0.173 A 
ATOM     77  C   UNL     1       4.288   7.268  18.398  1.00  0.00     0.173 A 
ATOM     78  F   UNL     1       1.001   6.203  17.274  1.00  0.00    -0.203 F 
ATOM     79  C   UNL     1       2.241   8.129  16.733  1.00  0.00     0.198 A 
ATOM     80  C   UNL     1       4.399   8.480  17.720  1.00  0.00     0.198 A 
ATOM     81  F   UNL     1       5.287   6.881  19.204  1.00  0.00    -0.203 F 
ATOM     82  F   UNL     1       1.262   8.526  15.909  1.00  0.00    -0.200 F 
ATOM     83  C   UNL     1       3.381   8.904  16.878  1.00  0.00     0.200 A 
ATOM     84  F   UNL     1       5.491   9.239  17.883  1.00  0.00    -0.200 F 
ATOM     85  F   UNL     1       3.499  10.058  16.209  1.00  0.00    -0.200 F 
ENDBRANCH  51  75
BRANCH  63  86
ATOM     86  C   UNL     1       2.693   4.514  24.970  1.00  0.00     0.064 A 
ATOM     87  C   UNL     1       3.763   4.434  25.876  1.00  0.00     0.173 A 
ATOM     88  C   UNL     1       1.564   5.253  25.353  1.00  0.00     0.173 A 
ATOM     89  F   UNL     1       4.862   3.732  25.565  1.00  0.00    -0.203 F 
ATOM     90  C   UNL     1       3.695   5.048  27.124  1.00  0.00     0.198 A 
ATOM     91  C   UNL     1       1.514   5.895  26.588  1.00  0.00     0.198 A 
ATOM     92  F   UNL     1       0.518   5.369  24.521  1.00  0.00    -0.203 F 
ATOM     93  F   UNL     1       4.711   4.920  27.988  1.00  0.00    -0.200 F 
ATOM     94  C   UNL     1       2.574   5.783  27.476  1.00  0.00     0.200 A 
ATOM     95  F   UNL     1       0.440   6.626  26.918  1.00  0.00    -0.200 F 
ATOM     96  F   UNL     1       2.514   6.384  28.673  1.00  0.00    -0.200 F 
ENDBRANCH  63  86
ENDBRANCH  37  38
ENDBRANCH  30  32
ENDBRANCH  29  30
ENDBRANCH  28  29
ENDBRANCH  27  28
ENDBRANCH  26  27
ENDBRANCH  25  26
ENDBRANCH  24  25
ENDBRANCH  23  24
ENDBRANCH   1  23
TORSDOF 23
