REMARK SMILES CCCN(C(=O)NCC(=O)OCCOCCOCCOCCOC(=O)c1ccc(-c2c3nc(c(-c4c(F)c(F)c(F)c(F)c4F)c4ccc([nH]4)c(-c4c(F)c(F)c(F)c(F)c4F)c4nc(c(-c5c(F)c(F)c(F)c(F)c5F)c5ccc2[nH]5)C=C4)C=C3)cc1)C(C)C
REMARK SMILES IDX 16 1 15 2 14 3 13 4 12 5 11 6 9 7 10 8 8 9 7 10 5 11 6 12
REMARK SMILES IDX 4 14 3 15 2 16 1 17 89 18 90 19 91 20 17 21 18 22 19 23
REMARK SMILES IDX 20 24 21 25 22 26 23 27 24 28 25 29 26 30 27 31 88 32 28 33
REMARK SMILES IDX 87 34 29 35 30 36 31 37 81 38 32 39 86 40 80 41 82 42 33 43
REMARK SMILES IDX 85 44 79 45 78 46 34 48 66 49 46 50 65 51 47 52 50 53 64 54
REMARK SMILES IDX 83 55 48 56 49 57 63 59 84 60 51 61 35 62 36 63 44 64 37 65
REMARK SMILES IDX 38 66 42 67 45 68 39 69 40 70 43 71 41 72 67 73 68 74 76 75
REMARK SMILES IDX 69 76 70 77 74 78 77 79 71 80 72 81 75 82 73 83 52 84 53 85
REMARK SMILES IDX 61 86 54 87 55 88 59 89 62 90 56 91 57 92 60 93 58 94
REMARK H PARENT 7 13 82 47 50 58
REMARK Flexibility Score: inf
ROOT
ATOM      1  C   UNL     1      -0.496  -7.370  -0.260  1.00  0.00     0.188 C 
ENDROOT
BRANCH   1   2
ATOM      2  C   UNL     1      -0.426  -7.611  -1.779  1.00  0.00     0.188 C 
BRANCH   2   3
ATOM      3  O   UNL     1       0.713  -8.215  -2.376  1.00  0.00    -0.376 OA
BRANCH   3   4
ATOM      4  C   UNL     1       2.030  -7.885  -1.958  1.00  0.00     0.202 C 
BRANCH   4   5
ATOM      5  C   UNL     1       2.483  -6.427  -1.746  1.00  0.00     0.261 C 
BRANCH   5   6
ATOM      6  O   UNL     1       1.521  -5.543  -1.150  1.00  0.00    -0.462 OA
BRANCH   6   7
ATOM      7  C   UNL     1       0.937  -4.646  -1.980  1.00  0.00     0.325 C 
ATOM      8  O   UNL     1       1.239  -4.490  -3.159  1.00  0.00    -0.250 OA
BRANCH   7   9
ATOM      9  C   UNL     1      -0.283  -3.951  -1.362  1.00  0.00     0.240 C 
BRANCH   9  10
ATOM     10  N   UNL     1      -0.520  -3.917   0.078  1.00  0.00    -0.327 N 
ATOM     11  C   UNL     1      -0.150  -3.197   1.144  1.00  0.00     0.318 C 
ATOM     12  O   UNL     1      -0.758  -3.496   2.179  1.00  0.00    -0.249 OA
ATOM     13  H   UNL     1      -1.136  -4.637   0.344  1.00  0.00     0.166 HD
BRANCH  11  14
ATOM     14  N   UNL     1       0.802  -2.212   1.109  1.00  0.00    -0.322 N 
BRANCH  14  15
ATOM     15  C   UNL     1       1.521  -1.775  -0.088  1.00  0.00     0.121 C 
BRANCH  15  16
ATOM     16  C   UNL     1       0.715  -0.871  -1.027  1.00  0.00     0.018 C 
ATOM     17  C   UNL     1       0.880   0.615  -0.779  1.00  0.00     0.006 C 
ENDBRANCH  15  16
ENDBRANCH  14  15
BRANCH  14  18
ATOM     18  C   UNL     1       1.096  -1.545   2.405  1.00  0.00     0.080 C 
ATOM     19  C   UNL     1       2.587  -1.444   2.736  1.00  0.00     0.031 C 
ATOM     20  C   UNL     1       0.407  -0.189   2.525  1.00  0.00     0.031 C 
ENDBRANCH  14  18
ENDBRANCH  11  14
ENDBRANCH   9  10
ENDBRANCH   7   9
ENDBRANCH   6   7
ENDBRANCH   5   6
ENDBRANCH   4   5
ENDBRANCH   3   4
ENDBRANCH   2   3
ENDBRANCH   1   2
BRANCH   1  21
ATOM     21  O   UNL     1       0.717  -7.591   0.428  1.00  0.00    -0.377 OA
BRANCH  21  22
ATOM     22  C   UNL     1       0.846  -8.841   1.087  1.00  0.00     0.188 C 
BRANCH  22  23
ATOM     23  C   UNL     1       0.285 -10.084   0.368  1.00  0.00     0.188 C 
BRANCH  23  24
ATOM     24  O   UNL     1      -1.069  -9.952  -0.049  1.00  0.00    -0.376 OA
BRANCH  24  25
ATOM     25  C   UNL     1      -2.099 -10.476   0.778  1.00  0.00     0.202 C 
BRANCH  25  26
ATOM     26  C   UNL     1      -2.315  -9.831   2.158  1.00  0.00     0.261 C 
BRANCH  26  27
ATOM     27  O   UNL     1      -1.193  -9.845   3.054  1.00  0.00    -0.460 OA
BRANCH  27  28
ATOM     28  C   UNL     1      -0.652 -11.037   3.374  1.00  0.00     0.338 C 
ATOM     29  O   UNL     1      -1.054 -12.141   3.046  1.00  0.00    -0.246 OA
BRANCH  28  30
ATOM     30  C   UNL     1       0.650 -10.783   4.024  1.00  0.00     0.060 A 
ATOM     31  C   UNL     1       1.806 -11.330   3.451  1.00  0.00     0.016 A 
ATOM     32  C   UNL     1       0.733 -10.012   5.185  1.00  0.00     0.016 A 
ATOM     33  C   UNL     1       3.044 -11.147   4.064  1.00  0.00     0.010 A 
ATOM     34  C   UNL     1       1.972  -9.849   5.813  1.00  0.00     0.010 A 
ATOM     35  C   UNL     1       3.124 -10.450   5.276  1.00  0.00    -0.014 A 
BRANCH  35  36
ATOM     36  C   UNL     1       4.364 -10.537   6.084  1.00  0.00     0.031 A 
ATOM     37  C   UNL     1       4.415 -11.539   7.203  1.00  0.00     0.074 A 
ATOM     38  C   UNL     1       5.429  -9.761   5.822  1.00  0.00     0.049 A 
ATOM     39  N   UNL     1       5.363 -11.770   8.075  1.00  0.00    -0.248 NA
ATOM     40  C   UNL     1       3.228 -12.393   7.362  1.00  0.00     0.031 C 
ATOM     41  C   UNL     1       5.514  -8.780   4.745  1.00  0.00     0.029 A 
ATOM     42  N   UNL     1       6.641  -9.672   6.461  1.00  0.00    -0.354 N 
ATOM     43  C   UNL     1       4.878 -12.780   8.896  1.00  0.00     0.074 A 
ATOM     44  C   UNL     1       3.544 -13.098   8.436  1.00  0.00     0.031 C 
ATOM     45  C   UNL     1       6.708  -8.166   4.811  1.00  0.00     0.029 A 
ATOM     46  C   UNL     1       7.454  -8.689   5.956  1.00  0.00     0.049 A 
ATOM     47  H   UNL     1       6.902 -10.256   7.210  1.00  0.00     0.167 HD
ATOM     48  C   UNL     1       5.493 -13.389   9.938  1.00  0.00     0.037 A 
ATOM     49  C   UNL     1       8.649  -8.241   6.391  1.00  0.00     0.037 A 
ATOM     50  C   UNL     1       6.820 -13.066  10.391  1.00  0.00     0.049 A 
ATOM     51  C   UNL     1       9.294  -8.893   7.588  1.00  0.00     0.074 A 
ATOM     52  C   UNL     1       7.551 -13.652  11.408  1.00  0.00     0.029 A 
ATOM     53  N   UNL     1       7.608 -12.051   9.866  1.00  0.00    -0.354 N 
ATOM     54  N   UNL     1       8.853  -9.877   8.334  1.00  0.00    -0.248 NA
ATOM     55  C   UNL     1      10.607  -8.376   7.997  1.00  0.00     0.031 C 
ATOM     56  C   UNL     1       8.749 -12.944  11.548  1.00  0.00     0.029 A 
ATOM     57  C   UNL     1       8.801 -11.966  10.567  1.00  0.00     0.049 A 
ATOM     58  H   UNL     1       7.357 -11.475   9.107  1.00  0.00     0.167 HD
ATOM     59  C   UNL     1       9.839 -10.113   9.284  1.00  0.00     0.074 A 
ATOM     60  C   UNL     1      10.911  -9.178   9.009  1.00  0.00     0.031 C 
ATOM     61  C   UNL     1       9.858 -11.025  10.289  1.00  0.00     0.037 A 
BRANCH  48  62
ATOM     62  C   UNL     1       4.709 -14.427  10.691  1.00  0.00     0.064 A 
ATOM     63  C   UNL     1       4.352 -15.657  10.117  1.00  0.00     0.173 A 
ATOM     64  C   UNL     1       4.306 -14.181  12.013  1.00  0.00     0.173 A 
ATOM     65  F   UNL     1       4.698 -15.939   8.852  1.00  0.00    -0.203 F 
ATOM     66  C   UNL     1       3.584 -16.581  10.823  1.00  0.00     0.198 A 
ATOM     67  C   UNL     1       3.571 -15.123  12.728  1.00  0.00     0.198 A 
ATOM     68  F   UNL     1       4.622 -13.023  12.613  1.00  0.00    -0.203 F 
ATOM     69  F   UNL     1       3.196 -17.719  10.230  1.00  0.00    -0.200 F 
ATOM     70  C   UNL     1       3.200 -16.316  12.128  1.00  0.00     0.200 A 
ATOM     71  F   UNL     1       3.215 -14.870  13.994  1.00  0.00    -0.200 F 
ATOM     72  F   UNL     1       2.462 -17.206  12.806  1.00  0.00    -0.200 F 
ENDBRANCH  48  62
BRANCH  49  73
ATOM     73  C   UNL     1       9.296  -7.096   5.698  1.00  0.00     0.064 A 
ATOM     74  C   UNL     1      10.468  -7.264   4.949  1.00  0.00     0.173 A 
ATOM     75  C   UNL     1       8.741  -5.808   5.762  1.00  0.00     0.173 A 
ATOM     76  F   UNL     1      11.052  -8.469   4.880  1.00  0.00    -0.203 F 
ATOM     77  C   UNL     1      11.065  -6.187   4.296  1.00  0.00     0.198 A 
ATOM     78  C   UNL     1       9.321  -4.739   5.083  1.00  0.00     0.198 A 
ATOM     79  F   UNL     1       7.622  -5.593   6.469  1.00  0.00    -0.203 F 
ATOM     80  F   UNL     1      12.205  -6.367   3.617  1.00  0.00    -0.200 F 
ATOM     81  C   UNL     1      10.485  -4.928   4.355  1.00  0.00     0.200 A 
ATOM     82  F   UNL     1       8.749  -3.528   5.132  1.00  0.00    -0.200 F 
ATOM     83  F   UNL     1      11.051  -3.896   3.714  1.00  0.00    -0.200 F 
ENDBRANCH  49  73
BRANCH  61  84
ATOM     84  C   UNL     1      11.089 -11.083  11.152  1.00  0.00     0.064 A 
ATOM     85  C   UNL     1      11.410 -10.059  12.056  1.00  0.00     0.173 A 
ATOM     86  C   UNL     1      11.933 -12.204  11.109  1.00  0.00     0.173 A 
ATOM     87  F   UNL     1      10.645  -8.959  12.130  1.00  0.00    -0.203 F 
ATOM     88  C   UNL     1      12.544 -10.142  12.860  1.00  0.00     0.198 A 
ATOM     89  C   UNL     1      13.045 -12.301  11.941  1.00  0.00     0.198 A 
ATOM     90  F   UNL     1      11.668 -13.218  10.270  1.00  0.00    -0.203 F 
ATOM     91  F   UNL     1      12.860  -9.128  13.678  1.00  0.00    -0.200 F 
ATOM     92  C   UNL     1      13.355 -11.266  12.809  1.00  0.00     0.200 A 
ATOM     93  F   UNL     1      13.815 -13.397  11.902  1.00  0.00    -0.200 F 
ATOM     94  F   UNL     1      14.440 -11.349  13.591  1.00  0.00    -0.200 F 
ENDBRANCH  61  84
ENDBRANCH  35  36
ENDBRANCH  28  30
ENDBRANCH  27  28
ENDBRANCH  26  27
ENDBRANCH  25  26
ENDBRANCH  24  25
ENDBRANCH  23  24
ENDBRANCH  22  23
ENDBRANCH  21  22
ENDBRANCH   1  21
TORSDOF 25
