REMARK SMILES O=C(OCCOCCOCCOCCOC(=O)[C@H]1O[C@@H](Oc2c(-c3cc(O)c(O)c(O)c3)oc3cc(O)cc(O)c3c2=O)[C@H](O)[C@@H](O)[C@@H]1O)c1ccc(-c2c3nc(c(-c4c(F)c(F)c(F)c(F)c4F)c4ccc([nH]4)c(-c4c(F)c(F)c(F)c(F)c4F)c4nc(c(-c5c(F)c(F)c(F)c(F)c5F)c5ccc2[nH]5)C=C4)C=C3)cc1
REMARK SMILES IDX 10 1 9 2 8 3 7 4 6 5 5 6 4 7 3 8 2 9 1 10 50 11 51 12 112 13
REMARK SMILES IDX 52 14 111 15 53 16 54 17 55 18 105 19 56 20 110 21 104 22
REMARK SMILES IDX 106 23 57 24 109 25 103 26 102 27 58 29 90 30 70 31 89 32
REMARK SMILES IDX 71 33 74 34 88 35 107 36 72 37 73 38 87 40 108 41 75 42
REMARK SMILES IDX 59 43 60 44 68 45 61 46 62 47 66 48 69 49 63 50 64 51 67 52
REMARK SMILES IDX 65 53 91 54 92 55 100 56 93 57 94 58 98 59 101 60 95 61
REMARK SMILES IDX 96 62 99 63 97 64 76 65 77 66 85 67 78 68 79 69 83 70 86 71
REMARK SMILES IDX 80 72 81 73 84 74 82 75 11 76 12 77 13 78 14 79 15 80 16 81
REMARK SMILES IDX 17 82 18 83 19 84 48 85 20 86 46 87 44 88 49 89 21 91 22 92
REMARK SMILES IDX 23 93 42 94 33 95 41 96 43 97 34 98 39 99 35 100 38 101
REMARK SMILES IDX 36 102 24 103 25 104 32 105 26 106 30 107 28 108 27 109
REMARK SMILES IDX 31 111 29 113 40 115 37 117 47 119 45 121
REMARK H PARENT 106 28 74 39 49 90 27 110 31 112 29 114 40 116 37 118 47 120
REMARK H PARENT 45 122
REMARK Flexibility Score: inf
ROOT
ATOM      1  C   UNL     1       6.459  -7.117   3.930  1.00  0.00     0.188 C 
ENDROOT
BRANCH   1   2
ATOM      2  O   UNL     1       6.456  -8.341   3.224  1.00  0.00    -0.377 OA
BRANCH   2   3
ATOM      3  C   UNL     1       6.722  -9.492   4.013  1.00  0.00     0.188 C 
BRANCH   3   4
ATOM      4  C   UNL     1       7.773  -9.324   5.117  1.00  0.00     0.188 C 
BRANCH   4   5
ATOM      5  O   UNL     1       7.349  -8.450   6.172  1.00  0.00    -0.376 OA
BRANCH   5   6
ATOM      6  C   UNL     1       8.279  -7.461   6.625  1.00  0.00     0.202 C 
BRANCH   6   7
ATOM      7  C   UNL     1       9.504  -7.972   7.382  1.00  0.00     0.261 C 
BRANCH   7   8
ATOM      8  O   UNL     1       9.877  -9.317   7.059  1.00  0.00    -0.460 OA
BRANCH   8   9
ATOM      9  C   UNL     1       9.372 -10.480   7.534  1.00  0.00     0.338 C 
ATOM     10  O   UNL     1       9.879 -11.530   7.139  1.00  0.00    -0.246 OA
BRANCH   9  11
ATOM     11  C   UNL     1       8.199 -10.587   8.462  1.00  0.00     0.060 A 
ATOM     12  C   UNL     1       7.324  -9.552   8.784  1.00  0.00     0.016 A 
ATOM     13  C   UNL     1       7.925 -11.855   9.005  1.00  0.00     0.016 A 
ATOM     14  C   UNL     1       6.214  -9.740   9.580  1.00  0.00     0.010 A 
ATOM     15  C   UNL     1       6.836 -12.055   9.858  1.00  0.00     0.010 A 
ATOM     16  C   UNL     1       5.994 -10.981  10.154  1.00  0.00    -0.014 A 
BRANCH  16  17
ATOM     17  C   UNL     1       5.050 -10.985  11.274  1.00  0.00     0.031 A 
ATOM     18  C   UNL     1       5.635 -10.812  12.640  1.00  0.00     0.074 A 
ATOM     19  C   UNL     1       3.733 -10.882  11.033  1.00  0.00     0.049 A 
ATOM     20  N   UNL     1       5.047 -10.800  13.802  1.00  0.00    -0.248 NA
ATOM     21  C   UNL     1       7.093 -10.584  12.702  1.00  0.00     0.031 C 
ATOM     22  C   UNL     1       3.123 -10.801   9.703  1.00  0.00     0.029 A 
ATOM     23  N   UNL     1       2.679 -10.780  11.894  1.00  0.00    -0.354 N 
ATOM     24  C   UNL     1       6.063 -10.608  14.728  1.00  0.00     0.074 A 
ATOM     25  C   UNL     1       7.303 -10.490  14.003  1.00  0.00     0.031 C 
ATOM     26  C   UNL     1       1.794 -10.664   9.840  1.00  0.00     0.029 A 
ATOM     27  C   UNL     1       1.463 -10.729  11.258  1.00  0.00     0.049 A 
ATOM     28  H   UNL     1       2.780 -10.746  12.872  1.00  0.00     0.167 HD
ATOM     29  C   UNL     1       5.950 -10.559  16.073  1.00  0.00     0.037 A 
ATOM     30  C   UNL     1       0.229 -10.790  11.789  1.00  0.00     0.037 A 
ATOM     31  C   UNL     1       4.685 -10.688  16.740  1.00  0.00     0.049 A 
ATOM     32  C   UNL     1       0.136 -10.893  13.290  1.00  0.00     0.074 A 
ATOM     33  C   UNL     1       4.415 -10.764  18.091  1.00  0.00     0.029 A 
ATOM     34  N   UNL     1       3.465 -10.763  16.075  1.00  0.00    -0.354 N 
ATOM     35  N   UNL     1       1.098 -10.841  14.183  1.00  0.00    -0.248 NA
ATOM     36  C   UNL     1      -1.202 -11.084  13.857  1.00  0.00     0.031 C 
ATOM     37  C   UNL     1       3.035 -10.942  18.240  1.00  0.00     0.029 A 
ATOM     38  C   UNL     1       2.437 -10.908  16.986  1.00  0.00     0.049 A 
ATOM     39  H   UNL     1       3.351 -10.719  15.098  1.00  0.00     0.167 HD
ATOM     40  C   UNL     1       0.484 -10.971  15.419  1.00  0.00     0.074 A 
ATOM     41  C   UNL     1      -0.939 -11.085  15.156  1.00  0.00     0.031 C 
ATOM     42  C   UNL     1       1.035 -11.001  16.659  1.00  0.00     0.037 A 
BRANCH  29  43
ATOM     43  C   UNL     1       7.222 -10.484  16.862  1.00  0.00     0.064 A 
ATOM     44  C   UNL     1       8.025  -9.332  16.889  1.00  0.00     0.173 A 
ATOM     45  C   UNL     1       7.685 -11.618  17.547  1.00  0.00     0.173 A 
ATOM     46  F   UNL     1       7.652  -8.233  16.215  1.00  0.00    -0.203 F 
ATOM     47  C   UNL     1       9.255  -9.331  17.544  1.00  0.00     0.198 A 
ATOM     48  C   UNL     1       8.901 -11.604  18.225  1.00  0.00     0.198 A 
ATOM     49  F   UNL     1       6.968 -12.752  17.538  1.00  0.00    -0.203 F 
ATOM     50  F   UNL     1      10.038  -8.244  17.494  1.00  0.00    -0.200 F 
ATOM     51  C   UNL     1       9.690 -10.465  18.214  1.00  0.00     0.200 A 
ATOM     52  F   UNL     1       9.319 -12.702  18.869  1.00  0.00    -0.200 F 
ATOM     53  F   UNL     1      10.879 -10.466  18.832  1.00  0.00    -0.200 F 
ENDBRANCH  29  43
BRANCH  30  54
ATOM     54  C   UNL     1      -0.973 -10.843  10.914  1.00  0.00     0.064 A 
ATOM     55  C   UNL     1      -1.959  -9.849  10.963  1.00  0.00     0.173 A 
ATOM     56  C   UNL     1      -1.176 -11.911  10.023  1.00  0.00     0.173 A 
ATOM     57  F   UNL     1      -1.829  -8.817  11.809  1.00  0.00    -0.203 F 
ATOM     58  C   UNL     1      -3.108  -9.932  10.175  1.00  0.00     0.198 A 
ATOM     59  C   UNL     1      -2.307 -11.976   9.213  1.00  0.00     0.198 A 
ATOM     60  F   UNL     1      -0.271 -12.897   9.937  1.00  0.00    -0.203 F 
ATOM     61  F   UNL     1      -4.061  -8.996  10.284  1.00  0.00    -0.200 F 
ATOM     62  C   UNL     1      -3.279 -10.993   9.297  1.00  0.00     0.200 A 
ATOM     63  F   UNL     1      -2.459 -12.998   8.358  1.00  0.00    -0.200 F 
ATOM     64  F   UNL     1      -4.385 -11.074   8.545  1.00  0.00    -0.200 F 
ENDBRANCH  30  54
BRANCH  42  65
ATOM     65  C   UNL     1       0.086 -11.110  17.812  1.00  0.00     0.064 A 
ATOM     66  C   UNL     1      -0.589 -12.304  18.099  1.00  0.00     0.173 A 
ATOM     67  C   UNL     1      -0.097 -10.019  18.674  1.00  0.00     0.173 A 
ATOM     68  F   UNL     1      -0.455 -13.368  17.293  1.00  0.00    -0.203 F 
ATOM     69  C   UNL     1      -1.435 -12.393  19.199  1.00  0.00     0.198 A 
ATOM     70  C   UNL     1      -0.913 -10.124  19.793  1.00  0.00     0.198 A 
ATOM     71  F   UNL     1       0.538  -8.860  18.442  1.00  0.00    -0.203 F 
ATOM     72  F   UNL     1      -2.111 -13.527  19.431  1.00  0.00    -0.200 F 
ATOM     73  C   UNL     1      -1.588 -11.308  20.050  1.00  0.00     0.200 A 
ATOM     74  F   UNL     1      -1.043  -9.082  20.625  1.00  0.00    -0.200 F 
ATOM     75  F   UNL     1      -2.390 -11.402  21.119  1.00  0.00    -0.200 F 
ENDBRANCH  42  65
ENDBRANCH  16  17
ENDBRANCH   9  11
ENDBRANCH   8   9
ENDBRANCH   7   8
ENDBRANCH   6   7
ENDBRANCH   5   6
ENDBRANCH   4   5
ENDBRANCH   3   4
ENDBRANCH   2   3
ENDBRANCH   1   2
BRANCH   1  76
ATOM     76  C   UNL     1       5.315  -6.823   4.926  1.00  0.00     0.188 C 
BRANCH  76  77
ATOM     77  O   UNL     1       4.612  -7.985   5.333  1.00  0.00    -0.376 OA
BRANCH  77  78
ATOM     78  C   UNL     1       3.399  -8.293   4.650  1.00  0.00     0.202 C 
BRANCH  78  79
ATOM     79  C   UNL     1       3.325  -8.158   3.118  1.00  0.00     0.261 C 
BRANCH  79  80
ATOM     80  O   UNL     1       3.813  -6.911   2.592  1.00  0.00    -0.461 OA
BRANCH  80  81
ATOM     81  C   UNL     1       3.039  -5.801   2.679  1.00  0.00     0.338 C 
ATOM     82  O   UNL     1       1.893  -5.813   3.112  1.00  0.00    -0.249 OA
BRANCH  81  83
ATOM     83  C   UNL     1       3.778  -4.520   2.204  1.00  0.00     0.263 C 
ATOM     84  O   UNL     1       3.695  -3.508   3.234  1.00  0.00    -0.322 OA
ATOM     85  C   UNL     1       5.267  -4.693   1.905  1.00  0.00     0.186 C 
ATOM     86  C   UNL     1       4.103  -2.220   2.772  1.00  0.00     0.340 C 
ATOM     87  C   UNL     1       5.895  -3.436   1.344  1.00  0.00     0.181 C 
ATOM     88  C   UNL     1       5.538  -2.223   2.186  1.00  0.00     0.214 C 
BRANCH  85  89
ATOM     89  O   UNL     1       5.578  -5.742   0.998  1.00  0.00    -0.387 OA
ATOM     90  H   UNL     1       5.218  -5.531   0.123  1.00  0.00     0.211 HD
ENDBRANCH  85  89
BRANCH  86  91
ATOM     91  O   UNL     1       3.980  -1.151   3.742  1.00  0.00    -0.454 OA
BRANCH  91  92
ATOM     92  C   UNL     1       4.324  -1.348   5.073  1.00  0.00     0.214 A 
ATOM     93  C   UNL     1       5.507  -0.965   5.610  1.00  0.00     0.181 A 
ATOM     94  C   UNL     1       3.239  -1.730   6.037  1.00  0.00     0.239 A 
ATOM     95  O   UNL     1       5.822  -1.013   6.952  1.00  0.00    -0.452 OA
ATOM     96  C   UNL     1       3.512  -1.521   7.486  1.00  0.00     0.111 A 
ATOM     97  O   UNL     1       2.166  -2.164   5.621  1.00  0.00    -0.285 OA
ATOM     98  C   UNL     1       4.807  -1.158   7.854  1.00  0.00     0.146 A 
ATOM     99  C   UNL     1       2.545  -1.639   8.499  1.00  0.00     0.134 A 
ATOM    100  C   UNL     1       5.142  -0.912   9.189  1.00  0.00     0.094 A 
ATOM    101  C   UNL     1       2.871  -1.389   9.841  1.00  0.00     0.093 A 
ATOM    102  C   UNL     1       4.170  -1.022  10.172  1.00  0.00     0.123 A 
BRANCH  93 103
ATOM    103  C   UNL     1       6.662  -0.529   4.807  1.00  0.00     0.029 A 
ATOM    104  C   UNL     1       7.819  -1.332   4.818  1.00  0.00     0.062 A 
ATOM    105  C   UNL     1       6.589   0.571   3.941  1.00  0.00     0.062 A 
ATOM    106  C   UNL     1       8.816  -1.124   3.872  1.00  0.00     0.162 A 
ATOM    107  C   UNL     1       7.614   0.784   3.024  1.00  0.00     0.162 A 
ATOM    108  C   UNL     1       8.706  -0.080   2.962  1.00  0.00     0.200 A 
BRANCH 106 109
ATOM    109  O   UNL     1       9.845  -2.019   3.819  1.00  0.00    -0.504 OA
ATOM    110  H   UNL     1       9.894  -2.714   4.445  1.00  0.00     0.293 HD
ENDBRANCH 106 109
BRANCH 107 111
ATOM    111  O   UNL     1       7.469   1.778   2.098  1.00  0.00    -0.504 OA
ATOM    112  H   UNL     1       8.148   1.938   1.472  1.00  0.00     0.293 HD
ENDBRANCH 107 111
BRANCH 108 113
ATOM    113  O   UNL     1       9.607   0.073   1.944  1.00  0.00    -0.502 OA
ATOM    114  H   UNL     1      10.348  -0.497   1.885  1.00  0.00     0.293 HD
ENDBRANCH 108 113
ENDBRANCH  93 103
BRANCH  99 115
ATOM    115  O   UNL     1       1.258  -1.982   8.198  1.00  0.00    -0.507 OA
ATOM    116  H   UNL     1       0.621  -2.058   8.881  1.00  0.00     0.293 HD
ENDBRANCH  99 115
BRANCH 102 117
ATOM    117  O   UNL     1       4.538  -0.753  11.456  1.00  0.00    -0.508 OA
ATOM    118  H   UNL     1       5.422  -0.508  11.648  1.00  0.00     0.293 HD
ENDBRANCH 102 117
ENDBRANCH  91  92
ENDBRANCH  86  91
BRANCH  87 119
ATOM    119  O   UNL     1       7.335  -3.632   1.313  1.00  0.00    -0.387 OA
ATOM    120  H   UNL     1       7.658  -3.797   2.213  1.00  0.00     0.211 HD
ENDBRANCH  87 119
BRANCH  88 121
ATOM    121  O   UNL     1       5.820  -1.053   1.414  1.00  0.00    -0.384 OA
ATOM    122  H   UNL     1       5.261  -1.047   0.621  1.00  0.00     0.211 HD
ENDBRANCH  88 121
ENDBRANCH  81  83
ENDBRANCH  80  81
ENDBRANCH  79  80
ENDBRANCH  78  79
ENDBRANCH  77  78
ENDBRANCH  76  77
ENDBRANCH   1  76
TORSDOF 31
