REMARK SMILES O=C(OCCOCCOCCOCCOC(=O)c1ccc(-c2c3nc(c(-c4c(F)c(F)c(F)c(F)c4F)c4ccc([nH]4)c(-c4c(F)c(F)c(F)c(F)c4F)c4nc(c(-c5c(F)c(F)c(F)c(F)c5F)c5ccc2[nH]5)C=C4)C=C3)cc1)C1=Cc2cc(S(F)(F)(F)(F)F)ccc2O[C@H]1C(F)(F)F
REMARK SMILES IDX 10 1 9 2 8 3 7 4 6 5 5 6 4 7 3 8 2 9 1 10 81 11 82 12 96 13
REMARK SMILES IDX 83 14 95 15 84 16 94 17 85 18 93 19 92 20 97 21 98 22 99 23
REMARK SMILES IDX 100 24 86 25 87 26 88 27 89 28 90 29 91 30 11 31 12 32 13 33
REMARK SMILES IDX 14 34 15 35 16 36 17 37 18 38 19 39 80 40 20 41 79 42 21 43
REMARK SMILES IDX 22 44 23 45 73 46 24 47 78 48 72 49 74 50 25 51 77 52 71 53
REMARK SMILES IDX 70 54 26 56 58 57 38 58 57 59 39 60 42 61 56 62 75 63 40 64
REMARK SMILES IDX 41 65 55 67 76 68 43 69 27 70 28 71 36 72 29 73 30 74 34 75
REMARK SMILES IDX 37 76 31 77 32 78 35 79 33 80 59 81 60 82 68 83 61 84 62 85
REMARK SMILES IDX 66 86 69 87 63 88 64 89 67 90 65 91 44 92 45 93 53 94 46 95
REMARK SMILES IDX 47 96 51 97 54 98 48 99 49 100 52 101 50 102
REMARK H PARENT 74 55 42 66
REMARK Flexibility Score: inf
ROOT
ATOM      1  C   UNL     1       4.455   2.099   1.678  1.00  0.00     0.188 C 
ENDROOT
BRANCH   1   2
ATOM      2  O   UNL     1       3.035   2.099   1.678  1.00  0.00    -0.377 OA
BRANCH   2   3
ATOM      3  C   UNL     1       2.562   0.883   2.237  1.00  0.00     0.188 C 
BRANCH   3   4
ATOM      4  C   UNL     1       3.069  -0.286   1.408  1.00  0.00     0.188 C 
BRANCH   4   5
ATOM      5  O   UNL     1       4.489  -0.286   1.408  1.00  0.00    -0.376 OA
BRANCH   5   6
ATOM      6  C   UNL     1       4.962   0.930   0.849  1.00  0.00     0.202 C 
BRANCH   6   7
ATOM      7  C   UNL     1       4.455   1.064  -0.577  1.00  0.00     0.261 C 
BRANCH   7   8
ATOM      8  O   UNL     1       3.035   1.064  -0.577  1.00  0.00    -0.460 OA
BRANCH   8   9
ATOM      9  C   UNL     1       2.325  -0.054  -0.064  1.00  0.00     0.338 C 
ATOM     10  O   UNL     1       1.054  -0.054  -0.064  1.00  0.00    -0.246 OA
BRANCH   9  11
ATOM     11  C   UNL     1       3.085  -1.250   0.485  1.00  0.00     0.087 C 
ATOM     12  C   UNL     1       4.446  -1.250   0.485  1.00  0.00     0.027 C 
ATOM     13  C   UNL     1       2.325  -2.446   1.034  1.00  0.00     0.316 C 
ATOM     14  C   UNL     1       5.206  -0.054  -0.064  1.00  0.00     0.019 A 
ATOM     15  O   UNL     1       3.584   1.243   1.093  1.00  0.00    -0.475 OA
ATOM     16  C   UNL     1       6.264  -0.184  -0.949  1.00  0.00     0.036 A 
ATOM     17  C   UNL     1       4.768   1.141   0.315  1.00  0.00     0.128 A 
ATOM     18  C   UNL     1       6.988   1.013  -1.157  1.00  0.00     0.107 A 
ATOM     19  C   UNL     1       5.450   2.280  -0.039  1.00  0.00     0.048 A 
ATOM     20  C   UNL     1       6.540   2.220  -0.863  1.00  0.00     0.028 A 
BRANCH  13  21
ATOM     21  C   UNL     1       0.831  -2.194   0.918  1.00  0.00     0.430 C 
ATOM     22  F   UNL     1       0.282  -3.397   1.056  1.00  0.00    -0.167 F 
ATOM     23  F   UNL     1       0.414  -1.401   1.901  1.00  0.00    -0.167 F 
ATOM     24  F   UNL     1       0.472  -1.675  -0.253  1.00  0.00    -0.167 F 
ENDBRANCH  13  21
BRANCH  18  25
ATOM     25  S   UNL     1       8.643   0.882  -1.877  1.00  0.00     0.310 S 
ATOM     26  F   UNL     1       9.332   0.858  -0.448  1.00  0.00    -0.094 F 
ATOM     27  F   UNL     1       8.758   2.453  -1.829  1.00  0.00    -0.094 F 
ATOM     28  F   UNL     1      10.065   0.769  -2.496  1.00  0.00    -0.094 F 
ATOM     29  F   UNL     1       8.567  -0.693  -1.786  1.00  0.00    -0.094 F 
ATOM     30  F   UNL     1       7.246   0.978  -1.143  1.00  0.00    -0.094 F 
ENDBRANCH  18  25
ENDBRANCH   9  11
ENDBRANCH   8   9
ENDBRANCH   7   8
ENDBRANCH   6   7
ENDBRANCH   5   6
ENDBRANCH   4   5
ENDBRANCH   3   4
ENDBRANCH   2   3
ENDBRANCH   1   2
BRANCH   1  31
ATOM     31  C   UNL     1       4.962   1.966   3.105  1.00  0.00     0.188 C 
BRANCH  31  32
ATOM     32  O   UNL     1       4.489   0.749   3.664  1.00  0.00    -0.376 OA
BRANCH  32  33
ATOM     33  C   UNL     1       3.069   0.749   3.664  1.00  0.00     0.202 C 
BRANCH  33  34
ATOM     34  C   UNL     1       2.562   1.918   4.493  1.00  0.00     0.261 C 
BRANCH  34  35
ATOM     35  O   UNL     1       3.035   3.135   3.934  1.00  0.00    -0.460 OA
BRANCH  35  36
ATOM     36  C   UNL     1       4.431   3.371   3.826  1.00  0.00     0.338 C 
ATOM     37  O   UNL     1       5.257   2.493   4.229  1.00  0.00    -0.246 OA
BRANCH  36  38
ATOM     38  C   UNL     1       4.938   4.673   3.228  1.00  0.00     0.060 A 
ATOM     39  C   UNL     1       5.911   4.737   2.244  1.00  0.00     0.016 A 
ATOM     40  C   UNL     1       4.324   5.768   3.661  1.00  0.00     0.016 A 
ATOM     41  C   UNL     1       6.375   6.048   1.981  1.00  0.00     0.010 A 
ATOM     42  C   UNL     1       4.744   7.012   3.257  1.00  0.00     0.010 A 
ATOM     43  C   UNL     1       5.740   7.151   2.331  1.00  0.00    -0.014 A 
BRANCH  43  44
ATOM     44  C   UNL     1       6.098   8.504   1.737  1.00  0.00     0.031 A 
ATOM     45  C   UNL     1       6.511   9.458   2.669  1.00  0.00     0.074 A 
ATOM     46  C   UNL     1       5.905   8.769   0.392  1.00  0.00     0.049 A 
ATOM     47  N   UNL     1       6.816  10.737   2.443  1.00  0.00    -0.248 NA
ATOM     48  C   UNL     1       6.685   9.187   4.104  1.00  0.00     0.031 C 
ATOM     49  C   UNL     1       5.497   7.810  -0.555  1.00  0.00     0.029 A 
ATOM     50  N   UNL     1       6.063   9.969  -0.264  1.00  0.00    -0.354 N 
ATOM     51  C   UNL     1       7.188  11.329   3.580  1.00  0.00     0.074 A 
ATOM     52  C   UNL     1       7.103  10.343   4.665  1.00  0.00     0.031 C 
ATOM     53  C   UNL     1       5.399   8.425  -1.763  1.00  0.00     0.029 A 
ATOM     54  C   UNL     1       5.745   9.779  -1.591  1.00  0.00     0.049 A 
ATOM     55  H   UNL     1       6.353  10.816   0.144  1.00  0.00     0.167 HD
ATOM     56  C   UNL     1       7.596  12.653   3.753  1.00  0.00     0.037 A 
ATOM     57  C   UNL     1       5.749  10.721  -2.608  1.00  0.00     0.037 A 
ATOM     58  C   UNL     1       7.642  13.584   2.728  1.00  0.00     0.049 A 
ATOM     59  C   UNL     1       6.102  12.060  -2.423  1.00  0.00     0.074 A 
ATOM     60  C   UNL     1       8.058  14.919   2.884  1.00  0.00     0.029 A 
ATOM     61  N   UNL     1       7.301  13.400   1.406  1.00  0.00    -0.354 N 
ATOM     62  N   UNL     1       6.511  12.642  -1.295  1.00  0.00    -0.248 NA
ATOM     63  C   UNL     1       6.079  13.073  -3.486  1.00  0.00     0.031 C 
ATOM     64  C   UNL     1       7.961  15.536   1.675  1.00  0.00     0.029 A 
ATOM     65  C   UNL     1       7.481  14.595   0.745  1.00  0.00     0.049 A 
ATOM     66  H   UNL     1       6.982  12.559   1.003  1.00  0.00     0.167 HD
ATOM     67  C   UNL     1       6.776  13.931  -1.513  1.00  0.00     0.074 A 
ATOM     68  C   UNL     1       6.495  14.229  -2.924  1.00  0.00     0.031 C 
ATOM     69  C   UNL     1       7.245  14.871  -0.593  1.00  0.00     0.037 A 
BRANCH  56  70
ATOM     70  C   UNL     1       8.015  13.098   5.145  1.00  0.00     0.064 A 
ATOM     71  C   UNL     1       9.005  12.405   5.822  1.00  0.00     0.173 A 
ATOM     72  C   UNL     1       7.346  14.087   5.726  1.00  0.00     0.173 A 
ATOM     73  F   UNL     1       9.864  11.591   5.215  1.00  0.00    -0.203 F 
ATOM     74  C   UNL     1       9.019  12.642   7.217  1.00  0.00     0.198 A 
ATOM     75  C   UNL     1       7.510  14.351   7.065  1.00  0.00     0.198 A 
ATOM     76  F   UNL     1       6.510  14.830   5.006  1.00  0.00    -0.203 F 
ATOM     77  F   UNL     1       9.672  11.775   7.985  1.00  0.00    -0.200 F 
ATOM     78  C   UNL     1       8.429  13.664   7.809  1.00  0.00     0.200 A 
ATOM     79  F   UNL     1       6.764  15.287   7.645  1.00  0.00    -0.200 F 
ATOM     80  F   UNL     1       8.714  14.008   9.062  1.00  0.00    -0.200 F 
ENDBRANCH  56  70
BRANCH  57  81
ATOM     81  C   UNL     1       5.347  10.271  -4.003  1.00  0.00     0.064 A 
ATOM     82  C   UNL     1       6.262  10.290  -5.042  1.00  0.00     0.173 A 
ATOM     83  C   UNL     1       4.129   9.769  -4.167  1.00  0.00     0.173 A 
ATOM     84  F   UNL     1       7.556  10.543  -4.865  1.00  0.00    -0.203 F 
ATOM     85  C   UNL     1       5.696  10.015  -6.310  1.00  0.00     0.198 A 
ATOM     86  C   UNL     1       3.688   9.394  -5.413  1.00  0.00     0.198 A 
ATOM     87  F   UNL     1       3.327   9.628  -3.115  1.00  0.00    -0.203 F 
ATOM     88  F   UNL     1       6.396  10.357  -7.388  1.00  0.00    -0.200 F 
ATOM     89  C   UNL     1       4.521   9.442  -6.497  1.00  0.00     0.200 A 
ATOM     90  F   UNL     1       2.435   8.978  -5.568  1.00  0.00    -0.200 F 
ATOM     91  F   UNL     1       4.166   8.939  -7.676  1.00  0.00    -0.200 F 
ENDBRANCH  57  81
BRANCH  69  92
ATOM     92  C   UNL     1       7.513  16.283  -1.089  1.00  0.00     0.064 A 
ATOM     93  C   UNL     1       6.520  17.103  -1.598  1.00  0.00     0.173 A 
ATOM     94  C   UNL     1       8.762  16.715  -0.953  1.00  0.00     0.173 A 
ATOM     95  F   UNL     1       5.226  16.810  -1.518  1.00  0.00    -0.203 F 
ATOM     96  C   UNL     1       7.008  18.280  -2.212  1.00  0.00     0.198 A 
ATOM     97  C   UNL     1       9.138  17.936  -1.458  1.00  0.00     0.198 A 
ATOM     98  F   UNL     1       9.656  15.958  -0.324  1.00  0.00    -0.203 F 
ATOM     99  F   UNL     1       6.191  18.937  -3.030  1.00  0.00    -0.200 F 
ATOM    100  C   UNL     1       8.220  18.774  -2.029  1.00  0.00     0.200 A 
ATOM    101  F   UNL     1      10.412  18.309  -1.391  1.00  0.00    -0.200 F 
ATOM    102  F   UNL     1       8.530  20.018  -2.380  1.00  0.00    -0.200 F 
ENDBRANCH  69  92
ENDBRANCH  43  44
ENDBRANCH  36  38
ENDBRANCH  35  36
ENDBRANCH  34  35
ENDBRANCH  33  34
ENDBRANCH  32  33
ENDBRANCH  31  32
ENDBRANCH   1  31
TORSDOF 22
