REMARK SMILES COc1ccccc1[C@@H]1C[N@@H+](Cc2cn3cc(C)ccc3n2)C[C@H]1C(=O)OCCOCCOCCOCCOC(=O)c1ccc(-c2c3nc(c(-c4c(F)c(F)c(F)c(F)c4F)c4ccc([nH]4)c(-c4c(F)c(F)c(F)c(F)c4F)c4nc(c(-c5c(F)c(F)c(F)c(F)c5F)c5ccc2[nH]5)C=C4)C=C3)cc1
REMARK SMILES IDX 33 1 32 2 31 3 30 4 29 5 28 6 27 7 25 8 26 9 24 10 9 11
REMARK SMILES IDX 10 12 11 13 23 14 8 16 3 17 4 18 5 19 7 20 6 21 2 22 1 23
REMARK SMILES IDX 12 24 13 25 14 26 22 27 15 28 21 29 16 30 20 31 17 32 19 33
REMARK SMILES IDX 18 34 34 35 35 36 36 37 37 38 38 39 39 40 40 41 41 42 42 43
REMARK SMILES IDX 43 44 104 45 44 46 103 47 45 48 46 49 47 50 97 51 48 52
REMARK SMILES IDX 102 53 96 54 98 55 49 56 101 57 95 58 94 59 50 61 82 62
REMARK SMILES IDX 62 63 81 64 63 65 66 66 80 67 99 68 64 69 65 70 79 72 100 73
REMARK SMILES IDX 67 74 51 75 52 76 60 77 53 78 54 79 58 80 61 81 55 82 56 83
REMARK SMILES IDX 59 84 57 85 83 86 84 87 92 88 85 89 86 90 90 91 93 92 87 93
REMARK SMILES IDX 88 94 91 95 89 96 68 97 69 98 77 99 70 100 71 101 75 102
REMARK SMILES IDX 78 103 72 104 73 105 76 106 74 107
REMARK H PARENT 11 15 98 60 66 71
REMARK Flexibility Score: inf
ROOT
ATOM      1  O   UNL     1       3.684  -3.702   4.163  1.00  0.00    -0.377 OA
ENDROOT
BRANCH   1   2
ATOM      2  C   UNL     1       2.647  -3.322   3.272  1.00  0.00     0.188 C 
BRANCH   2   3
ATOM      3  C   UNL     1       1.785  -4.326   2.489  1.00  0.00     0.188 C 
BRANCH   3   4
ATOM      4  O   UNL     1       2.394  -5.535   2.064  1.00  0.00    -0.376 OA
BRANCH   4   5
ATOM      5  C   UNL     1       3.635  -5.425   1.381  1.00  0.00     0.202 C 
BRANCH   5   6
ATOM      6  C   UNL     1       3.601  -4.658   0.064  1.00  0.00     0.261 C 
BRANCH   6   7
ATOM      7  O   UNL     1       3.519  -3.233   0.286  1.00  0.00    -0.463 OA
BRANCH   7   8
ATOM      8  C   UNL     1       2.490  -2.594  -0.316  1.00  0.00     0.315 C 
ATOM      9  O   UNL     1       1.628  -3.158  -0.985  1.00  0.00    -0.252 OA
BRANCH   8  10
ATOM     10  C   UNL     1       2.531  -1.088  -0.216  1.00  0.00     0.167 C 
ATOM     11  C   UNL     1       2.850  -0.343   1.079  1.00  0.00     0.098 C 
ATOM     12  C   UNL     1       3.475   0.968   0.556  1.00  0.00     0.272 C 
ATOM     13  N   UNL     1       4.185   0.630  -0.677  1.00  0.00    -0.329 N 
ATOM     14  C   UNL     1       3.545  -0.568  -1.235  1.00  0.00     0.278 C 
ATOM     15  H   UNL     1       4.103   1.412  -1.327  1.00  0.00     0.348 HD
BRANCH  11  16
ATOM     16  C   UNL     1       1.834   0.011   2.167  1.00  0.00     0.004 A 
ATOM     17  C   UNL     1       0.442   0.179   2.074  1.00  0.00     0.122 A 
ATOM     18  C   UNL     1      -0.301   0.508   3.231  1.00  0.00     0.047 A 
ATOM     19  C   UNL     1       0.305   0.689   4.476  1.00  0.00     0.004 A 
ATOM     20  C   UNL     1       2.422   0.227   3.448  1.00  0.00     0.008 A 
ATOM     21  C   UNL     1       1.677   0.551   4.583  1.00  0.00     0.001 A 
BRANCH  17  22
ATOM     22  O   UNL     1      -0.349  -0.147   1.008  1.00  0.00    -0.496 OA
ATOM     23  C   UNL     1      -0.232   0.616  -0.187  1.00  0.00     0.278 C 
ENDBRANCH  17  22
ENDBRANCH  11  16
BRANCH  13  24
ATOM     24  C   UNL     1       5.648   0.508  -0.541  1.00  0.00     0.321 C 
BRANCH  24  25
ATOM     25  C   UNL     1       6.103  -0.363   0.593  1.00  0.00     0.114 A 
ATOM     26  C   UNL     1       6.473   0.023   1.868  1.00  0.00     0.122 A 
ATOM     27  N   UNL     1       6.191  -1.734   0.466  1.00  0.00    -0.228 NA
ATOM     28  N   UNL     1       6.736  -1.135   2.550  1.00  0.00    -0.306 N 
ATOM     29  C   UNL     1       6.571  -2.177   1.648  1.00  0.00     0.137 A 
ATOM     30  C   UNL     1       7.100  -1.310   3.882  1.00  0.00     0.096 A 
ATOM     31  C   UNL     1       6.814  -3.490   2.136  1.00  0.00     0.048 A 
ATOM     32  C   UNL     1       7.327  -2.554   4.350  1.00  0.00    -0.034 A 
ATOM     33  C   UNL     1       7.170  -3.675   3.423  1.00  0.00     0.009 A 
ATOM     34  C   UNL     1       7.709  -2.841   5.767  1.00  0.00     0.046 C 
ENDBRANCH  24  25
ENDBRANCH  13  24
ENDBRANCH   8  10
ENDBRANCH   7   8
ENDBRANCH   6   7
ENDBRANCH   5   6
ENDBRANCH   4   5
ENDBRANCH   3   4
ENDBRANCH   2   3
ENDBRANCH   1   2
BRANCH   1  35
ATOM     35  C   UNL     1       3.692  -4.979   4.768  1.00  0.00     0.188 C 
BRANCH  35  36
ATOM     36  C   UNL     1       2.421  -5.495   5.453  1.00  0.00     0.188 C 
BRANCH  36  37
ATOM     37  O   UNL     1       1.266  -4.691   5.263  1.00  0.00    -0.376 OA
BRANCH  37  38
ATOM     38  C   UNL     1       0.831  -3.924   6.372  1.00  0.00     0.202 C 
BRANCH  38  39
ATOM     39  C   UNL     1       1.693  -2.716   6.687  1.00  0.00     0.261 C 
BRANCH  39  40
ATOM     40  O   UNL     1       3.074  -3.001   6.862  1.00  0.00    -0.460 OA
BRANCH  40  41
ATOM     41  C   UNL     1       3.420  -3.621   7.992  1.00  0.00     0.338 C 
ATOM     42  O   UNL     1       2.764  -4.424   8.657  1.00  0.00    -0.246 OA
BRANCH  41  43
ATOM     43  C   UNL     1       4.663  -3.007   8.432  1.00  0.00     0.060 A 
ATOM     44  C   UNL     1       5.545  -3.728   9.235  1.00  0.00     0.016 A 
ATOM     45  C   UNL     1       4.809  -1.626   8.208  1.00  0.00     0.016 A 
ATOM     46  C   UNL     1       6.521  -3.028   9.917  1.00  0.00     0.010 A 
ATOM     47  C   UNL     1       5.775  -0.933   8.886  1.00  0.00     0.010 A 
ATOM     48  C   UNL     1       6.569  -1.633   9.789  1.00  0.00    -0.014 A 
BRANCH  48  49
ATOM     49  C   UNL     1       7.458  -0.884  10.650  1.00  0.00     0.031 A 
ATOM     50  C   UNL     1       8.894  -0.972  10.304  1.00  0.00     0.074 A 
ATOM     51  C   UNL     1       6.970  -0.053  11.590  1.00  0.00     0.049 A 
ATOM     52  N   UNL     1       9.865  -1.369  11.056  1.00  0.00    -0.248 NA
ATOM     53  C   UNL     1       9.290  -0.655   8.923  1.00  0.00     0.031 C 
ATOM     54  C   UNL     1       5.574   0.350  11.802  1.00  0.00     0.029 A 
ATOM     55  N   UNL     1       7.649   0.708  12.488  1.00  0.00    -0.354 N 
ATOM     56  C   UNL     1      11.024  -1.194  10.306  1.00  0.00     0.074 A 
ATOM     57  C   UNL     1      10.603  -0.881   8.965  1.00  0.00     0.031 C 
ATOM     58  C   UNL     1       5.544   1.438  12.604  1.00  0.00     0.029 A 
ATOM     59  C   UNL     1       6.893   1.717  13.063  1.00  0.00     0.049 A 
ATOM     60  H   UNL     1       8.595   0.555  12.710  1.00  0.00     0.167 HD
ATOM     61  C   UNL     1      12.239  -1.102  10.910  1.00  0.00     0.037 A 
ATOM     62  C   UNL     1       7.364   2.750  13.802  1.00  0.00     0.037 A 
ATOM     63  C   UNL     1      12.211  -1.682  12.229  1.00  0.00     0.049 A 
ATOM     64  C   UNL     1       8.726   2.388  14.269  1.00  0.00     0.074 A 
ATOM     65  C   UNL     1      11.915  -2.938  12.724  1.00  0.00     0.029 A 
ATOM     66  N   UNL     1      12.178  -0.845  13.316  1.00  0.00    -0.354 N 
ATOM     67  N   UNL     1       8.974   1.465  15.155  1.00  0.00    -0.248 NA
ATOM     68  C   UNL     1       9.853   2.761  13.427  1.00  0.00     0.031 C 
ATOM     69  C   UNL     1      11.242  -2.702  13.959  1.00  0.00     0.029 A 
ATOM     70  C   UNL     1      11.215  -1.323  14.166  1.00  0.00     0.049 A 
ATOM     71  H   UNL     1      12.740  -0.049  13.458  1.00  0.00     0.167 HD
ATOM     72  C   UNL     1      10.126   0.842  14.700  1.00  0.00     0.074 A 
ATOM     73  C   UNL     1      10.680   1.749  13.700  1.00  0.00     0.031 C 
ATOM     74  C   UNL     1      10.364  -0.476  14.966  1.00  0.00     0.037 A 
BRANCH  61  75
ATOM     75  C   UNL     1      13.332  -0.163  10.460  1.00  0.00     0.064 A 
ATOM     76  C   UNL     1      14.583  -0.215  11.106  1.00  0.00     0.173 A 
ATOM     77  C   UNL     1      13.108   0.978   9.659  1.00  0.00     0.173 A 
ATOM     78  F   UNL     1      14.901  -1.250  11.899  1.00  0.00    -0.203 F 
ATOM     79  C   UNL     1      15.492   0.844  11.039  1.00  0.00     0.198 A 
ATOM     80  C   UNL     1      14.041   2.008   9.552  1.00  0.00     0.198 A 
ATOM     81  F   UNL     1      11.943   1.203   9.041  1.00  0.00    -0.203 F 
ATOM     82  F   UNL     1      16.605   0.811  11.785  1.00  0.00    -0.200 F 
ATOM     83  C   UNL     1      15.216   1.959  10.271  1.00  0.00     0.200 A 
ATOM     84  F   UNL     1      13.747   3.087   8.812  1.00  0.00    -0.200 F 
ATOM     85  F   UNL     1      16.051   3.005  10.263  1.00  0.00    -0.200 F 
ENDBRANCH  61  75
BRANCH  62  86
ATOM     86  C   UNL     1       6.835   4.129  13.887  1.00  0.00     0.064 A 
ATOM     87  C   UNL     1       7.202   4.980  14.940  1.00  0.00     0.173 A 
ATOM     88  C   UNL     1       6.171   4.728  12.798  1.00  0.00     0.173 A 
ATOM     89  F   UNL     1       7.875   4.497  15.994  1.00  0.00    -0.203 F 
ATOM     90  C   UNL     1       6.944   6.354  14.895  1.00  0.00     0.198 A 
ATOM     91  C   UNL     1       5.904   6.096  12.758  1.00  0.00     0.198 A 
ATOM     92  F   UNL     1       5.854   4.015  11.707  1.00  0.00    -0.203 F 
ATOM     93  F   UNL     1       7.368   7.146  15.889  1.00  0.00    -0.200 F 
ATOM     94  C   UNL     1       6.304   6.912  13.800  1.00  0.00     0.200 A 
ATOM     95  F   UNL     1       5.315   6.627  11.677  1.00  0.00    -0.200 F 
ATOM     96  F   UNL     1       6.111   8.236  13.728  1.00  0.00    -0.200 F 
ENDBRANCH  62  86
BRANCH  74  97
ATOM     97  C   UNL     1       9.502  -1.147  15.999  1.00  0.00     0.064 A 
ATOM     98  C   UNL     1       8.107  -1.281  15.895  1.00  0.00     0.173 A 
ATOM     99  C   UNL     1      10.130  -1.781  17.079  1.00  0.00     0.173 A 
ATOM    100  F   UNL     1       7.444  -0.806  14.833  1.00  0.00    -0.203 F 
ATOM    101  C   UNL     1       7.370  -1.959  16.864  1.00  0.00     0.198 A 
ATOM    102  C   UNL     1       9.397  -2.494  18.024  1.00  0.00     0.198 A 
ATOM    103  F   UNL     1      11.466  -1.743  17.198  1.00  0.00    -0.203 F 
ATOM    104  F   UNL     1       6.036  -2.048  16.755  1.00  0.00    -0.200 F 
ATOM    105  C   UNL     1       8.017  -2.569  17.926  1.00  0.00     0.200 A 
ATOM    106  F   UNL     1      10.032  -3.128  19.019  1.00  0.00    -0.200 F 
ATOM    107  F   UNL     1       7.313  -3.251  18.840  1.00  0.00    -0.200 F 
ENDBRANCH  74  97
ENDBRANCH  48  49
ENDBRANCH  41  43
ENDBRANCH  40  41
ENDBRANCH  39  40
ENDBRANCH  38  39
ENDBRANCH  37  38
ENDBRANCH  36  37
ENDBRANCH  35  36
ENDBRANCH   1  35
TORSDOF 24
