REMARK SMILES Cc1ccnc(C(=O)c2[nH]c3ccc(OC(F)(F)F)cc3c2CC(=O)OCCOCCOCCOCCOC(=O)c2ccc(-c3c4nc(c(-c5c(F)c(F)c(F)c(F)c5F)c5ccc([nH]5)c(-c5c(F)c(F)c(F)c(F)c5F)c5nc(c(-c6c(F)c(F)c(F)c(F)c6F)c6ccc3[nH]6)C=C5)C=C4)cc2)c1
REMARK SMILES IDX 31 1 30 2 29 3 28 4 27 5 26 6 24 7 25 8 23 9 22 10 9 11
REMARK SMILES IDX 10 12 11 13 21 15 12 16 20 17 13 18 14 19 7 20 8 21 6 22
REMARK SMILES IDX 1 23 2 24 3 25 104 26 4 27 5 28 15 29 16 30 17 31 18 32
REMARK SMILES IDX 19 33 32 34 33 35 34 36 35 37 36 38 37 39 38 40 39 41 40 42
REMARK SMILES IDX 41 43 42 44 103 45 43 46 102 47 44 48 45 49 46 50 96 51
REMARK SMILES IDX 47 52 101 53 95 54 97 55 48 56 100 57 94 58 93 59 49 61
REMARK SMILES IDX 81 62 61 63 80 64 62 65 65 66 79 67 98 68 63 69 64 70 78 72
REMARK SMILES IDX 99 73 66 74 50 75 51 76 59 77 52 78 53 79 57 80 60 81 54 82
REMARK SMILES IDX 55 83 58 84 56 85 82 86 83 87 91 88 84 89 85 90 89 91 92 92
REMARK SMILES IDX 86 93 87 94 90 95 88 96 67 97 68 98 76 99 69 100 70 101
REMARK SMILES IDX 74 102 77 103 71 104 72 105 75 106 73 107
REMARK H PARENT 10 14 97 60 65 71
REMARK Flexibility Score: inf
ROOT
ATOM      1  C   UNL     1       4.162  -2.890   0.346  1.00  0.00     0.188 C 
ENDROOT
BRANCH   1   2
ATOM      2  C   UNL     1       5.389  -2.922   1.255  1.00  0.00     0.188 C 
BRANCH   2   3
ATOM      3  O   UNL     1       6.526  -3.616   0.785  1.00  0.00    -0.376 OA
BRANCH   3   4
ATOM      4  C   UNL     1       6.415  -5.030   0.637  1.00  0.00     0.202 C 
BRANCH   4   5
ATOM      5  C   UNL     1       5.526  -5.852   1.594  1.00  0.00     0.261 C 
BRANCH   5   6
ATOM      6  O   UNL     1       4.102  -5.564   1.525  1.00  0.00    -0.463 OA
BRANCH   6   7
ATOM      7  C   UNL     1       3.452  -5.519   2.715  1.00  0.00     0.310 C 
ATOM      8  O   UNL     1       4.013  -5.766   3.784  1.00  0.00    -0.252 OA
BRANCH   7   9
ATOM      9  C   UNL     1       1.990  -5.105   2.723  1.00  0.00     0.161 C 
BRANCH   9  10
ATOM     10  C   UNL     1       1.172  -4.956   1.457  1.00  0.00     0.000 A 
ATOM     11  C   UNL     1       0.763  -3.768   0.825  1.00  0.00     0.093 A 
ATOM     12  N   UNL     1       0.097  -4.155  -0.322  1.00  0.00    -0.352 N 
ATOM     13  C   UNL     1      -0.328  -5.457  -0.198  1.00  0.00     0.046 A 
ATOM     14  H   UNL     1      -0.052  -3.584  -1.110  1.00  0.00     0.167 HD
ATOM     15  C   UNL     1       0.346  -5.991   0.894  1.00  0.00     0.008 A 
ATOM     16  C   UNL     1      -1.267  -6.184  -0.940  1.00  0.00     0.030 A 
ATOM     17  C   UNL     1       0.034  -7.310   1.287  1.00  0.00     0.057 A 
ATOM     18  C   UNL     1      -1.599  -7.471  -0.490  1.00  0.00     0.049 A 
ATOM     19  C   UNL     1      -0.979  -8.023   0.630  1.00  0.00     0.130 A 
BRANCH  11  20
ATOM     20  C   UNL     1       0.970  -2.388   1.272  1.00  0.00     0.227 C 
ATOM     21  O   UNL     1       1.596  -2.115   2.298  1.00  0.00    -0.285 OA
BRANCH  20  22
ATOM     22  C   UNL     1       0.380  -1.223   0.552  1.00  0.00     0.113 A 
ATOM     23  C   UNL     1      -3.005   0.301  -0.181  1.00  0.00     0.044 C 
ATOM     24  C   UNL     1      -1.524   0.096  -0.064  1.00  0.00    -0.047 A 
ATOM     25  C   UNL     1      -0.656   1.176  -0.256  1.00  0.00     0.023 A 
ATOM     26  C   UNL     1      -0.994  -1.131   0.354  1.00  0.00     0.036 A 
ATOM     27  C   UNL     1       0.700   0.983  -0.061  1.00  0.00     0.112 A 
ATOM     28  N   UNL     1       1.237  -0.193   0.321  1.00  0.00    -0.253 NA
ENDBRANCH  20  22
ENDBRANCH  11  20
BRANCH  19  29
ATOM     29  O   UNL     1      -1.270  -9.229   1.206  1.00  0.00    -0.406 OA
BRANCH  29  30
ATOM     30  C   UNL     1      -2.458  -9.887   0.802  1.00  0.00     0.573 C 
ATOM     31  F   UNL     1      -3.534  -9.076   0.891  1.00  0.00    -0.132 F 
ATOM     32  F   UNL     1      -2.345 -10.346  -0.462  1.00  0.00    -0.132 F 
ATOM     33  F   UNL     1      -2.665 -10.945   1.618  1.00  0.00    -0.132 F 
ENDBRANCH  29  30
ENDBRANCH  19  29
ENDBRANCH   9  10
ENDBRANCH   7   9
ENDBRANCH   6   7
ENDBRANCH   5   6
ENDBRANCH   4   5
ENDBRANCH   3   4
ENDBRANCH   2   3
ENDBRANCH   1   2
BRANCH   1  34
ATOM     34  O   UNL     1       3.957  -3.958  -0.565  1.00  0.00    -0.377 OA
BRANCH  34  35
ATOM     35  C   UNL     1       4.449  -3.855  -1.893  1.00  0.00     0.188 C 
BRANCH  35  36
ATOM     36  C   UNL     1       5.119  -2.550  -2.320  1.00  0.00     0.188 C 
BRANCH  36  37
ATOM     37  O   UNL     1       4.329  -1.360  -2.338  1.00  0.00    -0.376 OA
BRANCH  37  38
ATOM     38  C   UNL     1       2.918  -1.462  -2.498  1.00  0.00     0.202 C 
BRANCH  38  39
ATOM     39  C   UNL     1       2.448  -1.510  -3.949  1.00  0.00     0.261 C 
BRANCH  39  40
ATOM     40  O   UNL     1       2.733  -2.785  -4.541  1.00  0.00    -0.460 OA
BRANCH  40  41
ATOM     41  C   UNL     1       3.823  -2.822  -5.340  1.00  0.00     0.338 C 
ATOM     42  O   UNL     1       4.532  -1.890  -5.683  1.00  0.00    -0.246 OA
BRANCH  41  43
ATOM     43  C   UNL     1       4.149  -4.230  -5.617  1.00  0.00     0.060 A 
ATOM     44  C   UNL     1       5.471  -4.654  -5.430  1.00  0.00     0.016 A 
ATOM     45  C   UNL     1       3.171  -5.118  -6.072  1.00  0.00     0.016 A 
ATOM     46  C   UNL     1       5.826  -5.969  -5.711  1.00  0.00     0.010 A 
ATOM     47  C   UNL     1       3.532  -6.429  -6.375  1.00  0.00     0.010 A 
ATOM     48  C   UNL     1       4.863  -6.851  -6.216  1.00  0.00    -0.014 A 
BRANCH  48  49
ATOM     49  C   UNL     1       5.270  -8.174  -6.729  1.00  0.00     0.031 A 
ATOM     50  C   UNL     1       5.505  -8.325  -8.203  1.00  0.00     0.074 A 
ATOM     51  C   UNL     1       5.405  -9.216  -5.893  1.00  0.00     0.049 A 
ATOM     52  N   UNL     1       5.748  -9.404  -8.899  1.00  0.00    -0.248 NA
ATOM     53  C   UNL     1       5.454  -7.090  -9.002  1.00  0.00     0.031 C 
ATOM     54  C   UNL     1       5.251  -9.159  -4.441  1.00  0.00     0.029 A 
ATOM     55  N   UNL     1       5.684 -10.533  -6.153  1.00  0.00    -0.354 N 
ATOM     56  C   UNL     1       5.864  -8.982 -10.216  1.00  0.00     0.074 A 
ATOM     57  C   UNL     1       5.649  -7.552 -10.228  1.00  0.00     0.031 C 
ATOM     58  C   UNL     1       5.416 -10.394  -3.938  1.00  0.00     0.029 A 
ATOM     59  C   UNL     1       5.641 -11.331  -5.037  1.00  0.00     0.049 A 
ATOM     60  H   UNL     1       5.895 -10.873  -7.053  1.00  0.00     0.167 HD
ATOM     61  C   UNL     1       6.126  -9.729 -11.313  1.00  0.00     0.037 A 
ATOM     62  C   UNL     1       5.734 -12.670  -4.931  1.00  0.00     0.037 A 
ATOM     63  C   UNL     1       6.336 -11.151 -11.281  1.00  0.00     0.049 A 
ATOM     64  C   UNL     1       5.930 -13.486  -6.184  1.00  0.00     0.074 A 
ATOM     65  C   UNL     1       6.640 -12.002 -12.328  1.00  0.00     0.029 A 
ATOM     66  N   UNL     1       6.249 -11.934 -10.139  1.00  0.00    -0.354 N 
ATOM     67  N   UNL     1       6.073 -13.083  -7.424  1.00  0.00    -0.248 NA
ATOM     68  C   UNL     1       5.971 -14.947  -6.023  1.00  0.00     0.031 C 
ATOM     69  C   UNL     1       6.670 -13.309 -11.831  1.00  0.00     0.029 A 
ATOM     70  C   UNL     1       6.450 -13.266 -10.463  1.00  0.00     0.049 A 
ATOM     71  H   UNL     1       6.071 -11.594  -9.232  1.00  0.00     0.167 HD
ATOM     72  C   UNL     1       6.246 -14.233  -8.184  1.00  0.00     0.074 A 
ATOM     73  C   UNL     1       6.212 -15.349  -7.262  1.00  0.00     0.031 C 
ATOM     74  C   UNL     1       6.414 -14.358  -9.524  1.00  0.00     0.037 A 
BRANCH  61  75
ATOM     75  C   UNL     1       6.160  -9.034 -12.642  1.00  0.00     0.064 A 
ATOM     76  C   UNL     1       7.200  -8.163 -12.999  1.00  0.00     0.173 A 
ATOM     77  C   UNL     1       5.158  -9.283 -13.593  1.00  0.00     0.173 A 
ATOM     78  F   UNL     1       8.173  -7.877 -12.121  1.00  0.00    -0.203 F 
ATOM     79  C   UNL     1       7.226  -7.555 -14.252  1.00  0.00     0.198 A 
ATOM     80  C   UNL     1       5.203  -8.697 -14.855  1.00  0.00     0.198 A 
ATOM     81  F   UNL     1       4.139 -10.107 -13.302  1.00  0.00    -0.203 F 
ATOM     82  F   UNL     1       8.208  -6.695 -14.557  1.00  0.00    -0.200 F 
ATOM     83  C   UNL     1       6.234  -7.830 -15.181  1.00  0.00     0.200 A 
ATOM     84  F   UNL     1       4.250  -8.974 -15.755  1.00  0.00    -0.200 F 
ATOM     85  F   UNL     1       6.269  -7.255 -16.392  1.00  0.00    -0.200 F 
ENDBRANCH  61  75
BRANCH  62  86
ATOM     86  C   UNL     1       5.608 -13.331  -3.604  1.00  0.00     0.064 A 
ATOM     87  C   UNL     1       6.687 -14.026  -3.040  1.00  0.00     0.173 A 
ATOM     88  C   UNL     1       4.400 -13.316  -2.891  1.00  0.00     0.173 A 
ATOM     89  F   UNL     1       7.856 -14.092  -3.695  1.00  0.00    -0.203 F 
ATOM     90  C   UNL     1       6.555 -14.702  -1.829  1.00  0.00     0.198 A 
ATOM     91  C   UNL     1       4.279 -13.963  -1.663  1.00  0.00     0.198 A 
ATOM     92  F   UNL     1       3.334 -12.670  -3.386  1.00  0.00    -0.203 F 
ATOM     93  F   UNL     1       7.585 -15.408  -1.343  1.00  0.00    -0.200 F 
ATOM     94  C   UNL     1       5.353 -14.666  -1.138  1.00  0.00     0.200 A 
ATOM     95  F   UNL     1       3.119 -13.916  -0.995  1.00  0.00    -0.200 F 
ATOM     96  F   UNL     1       5.226 -15.319   0.025  1.00  0.00    -0.200 F 
ENDBRANCH  62  86
BRANCH  74  97
ATOM     97  C   UNL     1       6.600 -15.746 -10.068  1.00  0.00     0.064 A 
ATOM     98  C   UNL     1       5.543 -16.667 -10.109  1.00  0.00     0.173 A 
ATOM     99  C   UNL     1       7.837 -16.141 -10.601  1.00  0.00     0.173 A 
ATOM    100  F   UNL     1       4.345 -16.343  -9.600  1.00  0.00    -0.203 F 
ATOM    101  C   UNL     1       5.725 -17.942 -10.638  1.00  0.00     0.198 A 
ATOM    102  C   UNL     1       8.005 -17.404 -11.162  1.00  0.00     0.198 A 
ATOM    103  F   UNL     1       8.877 -15.295 -10.596  1.00  0.00    -0.203 F 
ATOM    104  F   UNL     1       4.715 -18.823 -10.620  1.00  0.00    -0.200 F 
ATOM    105  C   UNL     1       6.952 -18.305 -11.172  1.00  0.00     0.200 A 
ATOM    106  F   UNL     1       9.186 -17.746 -11.695  1.00  0.00    -0.200 F 
ATOM    107  F   UNL     1       7.122 -19.529 -11.693  1.00  0.00    -0.200 F 
ENDBRANCH  74  97
ENDBRANCH  48  49
ENDBRANCH  41  43
ENDBRANCH  40  41
ENDBRANCH  39  40
ENDBRANCH  38  39
ENDBRANCH  37  38
ENDBRANCH  36  37
ENDBRANCH  35  36
ENDBRANCH  34  35
ENDBRANCH   1  34
TORSDOF 25
