REMARK SMILES [NH3+]CCOCC(=O)Nc1ccc(C(=O)OCCOCCOCCOCCOC(=O)c2ccc(-c3c4nc(c(-c5c(F)c(F)c(F)c(F)c5F)c5ccc([nH]5)c(-c5c(F)c(F)c(F)c(F)c5F)c5nc(c(-c6c(F)c(F)c(F)c(F)c6F)c6ccc3[nH]6)C=C5)C=C4)cc2)c(Cl)c1
REMARK SMILES IDX 19 1 18 2 17 3 16 4 15 5 13 6 14 7 12 8 9 9 10 10 95 11
REMARK SMILES IDX 11 12 93 13 94 14 8 15 6 16 7 17 5 19 4 20 3 21 2 22 1 23
REMARK SMILES IDX 20 27 21 28 22 29 23 30 24 31 25 32 26 33 27 34 28 35 29 36
REMARK SMILES IDX 30 37 31 38 92 39 32 40 91 41 33 42 34 43 35 44 85 45 36 46
REMARK SMILES IDX 90 47 84 48 86 49 37 50 89 51 83 52 82 53 38 55 70 56 50 57
REMARK SMILES IDX 69 58 51 59 54 60 68 61 87 62 52 63 53 64 67 66 88 67 55 68
REMARK SMILES IDX 39 69 40 70 48 71 41 72 42 73 46 74 49 75 43 76 44 77 47 78
REMARK SMILES IDX 45 79 71 80 72 81 80 82 73 83 74 84 78 85 81 86 75 87 76 88
REMARK SMILES IDX 79 89 77 90 56 91 57 92 65 93 58 94 59 95 63 96 66 97 60 98
REMARK SMILES IDX 61 99 64 100 62 101
REMARK H PARENT 8 18 1 24 1 25 1 26 86 54 54 65
REMARK Flexibility Score: inf
ROOT
ATOM      1  C   UNL     1      -0.948  -7.954  -3.989  1.00  0.00     0.188 C 
ENDROOT
BRANCH   1   2
ATOM      2  O   UNL     1      -1.151  -9.179  -4.669  1.00  0.00    -0.376 OA
BRANCH   2   3
ATOM      3  C   UNL     1      -0.238  -9.575  -5.674  1.00  0.00     0.202 C 
BRANCH   3   4
ATOM      4  C   UNL     1       1.258  -9.684  -5.345  1.00  0.00     0.261 C 
BRANCH   4   5
ATOM      5  O   UNL     1       1.764  -8.714  -4.423  1.00  0.00    -0.460 OA
BRANCH   5   6
ATOM      6  C   UNL     1       2.184  -7.539  -4.934  1.00  0.00     0.339 C 
ATOM      7  O   UNL     1       2.143  -7.196  -6.103  1.00  0.00    -0.246 OA
BRANCH   6   8
ATOM      8  C   UNL     1       2.474  -6.616  -3.817  1.00  0.00     0.078 A 
ATOM      9  C   UNL     1       2.870  -4.738  -1.755  1.00  0.00     0.042 A 
ATOM     10  C   UNL     1       1.973  -4.473  -2.786  1.00  0.00     0.027 A 
ATOM     11  C   UNL     1       3.567  -5.954  -1.762  1.00  0.00     0.047 A 
ATOM     12  C   UNL     1       1.788  -5.395  -3.820  1.00  0.00     0.019 A 
ATOM     13  C   UNL     1       3.356  -6.904  -2.774  1.00  0.00     0.057 A 
ATOM     14  Cl  UNL     1       4.256  -8.375  -2.687  1.00  0.00    -0.083 Cl
BRANCH   9  15
ATOM     15  N   UNL     1       3.215  -3.796  -0.772  1.00  0.00    -0.324 N 
ATOM     16  C   UNL     1       2.547  -2.708  -0.283  1.00  0.00     0.250 C 
ATOM     17  O   UNL     1       3.190  -1.834   0.309  1.00  0.00    -0.272 OA
ATOM     18  H   UNL     1       4.097  -3.946  -0.361  1.00  0.00     0.170 HD
BRANCH  16  19
ATOM     19  C   UNL     1       1.011  -2.623  -0.361  1.00  0.00     0.260 C 
BRANCH  19  20
ATOM     20  O   UNL     1       0.354  -2.063  -1.478  1.00  0.00    -0.366 OA
BRANCH  20  21
ATOM     21  C   UNL     1       0.943  -0.884  -2.026  1.00  0.00     0.222 C 
BRANCH  21  22
ATOM     22  C   UNL     1       0.545   0.413  -1.309  1.00  0.00     0.287 C 
BRANCH  22  23
ATOM     23  N   UNL     1       1.153   0.604   0.006  1.00  0.00    -0.356 N 
ATOM     24  H   UNL     1       0.833   1.486   0.404  1.00  0.00     0.344 HD
ATOM     25  H   UNL     1       2.168   0.622  -0.088  1.00  0.00     0.344 HD
ATOM     26  H   UNL     1       0.882  -0.164   0.621  1.00  0.00     0.344 HD
ENDBRANCH  22  23
ENDBRANCH  21  22
ENDBRANCH  20  21
ENDBRANCH  19  20
ENDBRANCH  16  19
ENDBRANCH   9  15
ENDBRANCH   6   8
ENDBRANCH   5   6
ENDBRANCH   4   5
ENDBRANCH   3   4
ENDBRANCH   2   3
ENDBRANCH   1   2
BRANCH   1  27
ATOM     27  C   UNL     1      -0.521  -8.125  -2.514  1.00  0.00     0.188 C 
BRANCH  27  28
ATOM     28  O   UNL     1      -0.054  -9.391  -2.069  1.00  0.00    -0.377 OA
BRANCH  28  29
ATOM     29  C   UNL     1      -0.803 -10.569  -2.361  1.00  0.00     0.188 C 
BRANCH  29  30
ATOM     30  C   UNL     1      -2.329 -10.525  -2.620  1.00  0.00     0.188 C 
BRANCH  30  31
ATOM     31  O   UNL     1      -2.935  -9.270  -2.367  1.00  0.00    -0.376 OA
BRANCH  31  32
ATOM     32  C   UNL     1      -3.768  -9.166  -1.226  1.00  0.00     0.202 C 
BRANCH  32  33
ATOM     33  C   UNL     1      -3.091  -9.357   0.139  1.00  0.00     0.261 C 
BRANCH  33  34
ATOM     34  O   UNL     1      -2.345 -10.573   0.309  1.00  0.00    -0.460 OA
BRANCH  34  35
ATOM     35  C   UNL     1      -3.039 -11.730   0.316  1.00  0.00     0.338 C 
ATOM     36  O   UNL     1      -4.246 -11.870   0.199  1.00  0.00    -0.246 OA
BRANCH  35  37
ATOM     37  C   UNL     1      -2.062 -12.837   0.303  1.00  0.00     0.060 A 
ATOM     38  C   UNL     1      -2.049 -13.727  -0.779  1.00  0.00     0.016 A 
ATOM     39  C   UNL     1      -1.154 -12.986   1.353  1.00  0.00     0.016 A 
ATOM     40  C   UNL     1      -1.142 -14.787  -0.799  1.00  0.00     0.010 A 
ATOM     41  C   UNL     1      -0.261 -14.060   1.342  1.00  0.00     0.010 A 
ATOM     42  C   UNL     1      -0.271 -14.983   0.281  1.00  0.00    -0.014 A 
BRANCH  42  43
ATOM     43  C   UNL     1       0.499 -16.246   0.388  1.00  0.00     0.031 A 
ATOM     44  C   UNL     1      -0.036 -17.339   1.272  1.00  0.00     0.074 A 
ATOM     45  C   UNL     1       1.642 -16.429  -0.294  1.00  0.00     0.049 A 
ATOM     46  N   UNL     1       0.478 -18.508   1.558  1.00  0.00    -0.248 NA
ATOM     47  C   UNL     1      -1.327 -17.072   1.925  1.00  0.00     0.031 C 
ATOM     48  C   UNL     1       2.244 -15.461  -1.207  1.00  0.00     0.029 A 
ATOM     49  N   UNL     1       2.507 -17.495  -0.313  1.00  0.00    -0.354 N 
ATOM     50  C   UNL     1      -0.420 -19.110   2.429  1.00  0.00     0.074 A 
ATOM     51  C   UNL     1      -1.494 -18.166   2.651  1.00  0.00     0.031 C 
ATOM     52  C   UNL     1       3.390 -15.973  -1.689  1.00  0.00     0.029 A 
ATOM     53  C   UNL     1       3.618 -17.288  -1.091  1.00  0.00     0.049 A 
ATOM     54  H   UNL     1       2.345 -18.329   0.185  1.00  0.00     0.167 HD
ATOM     55  C   UNL     1      -0.359 -20.342   2.987  1.00  0.00     0.037 A 
ATOM     56  C   UNL     1       4.706 -18.062  -1.277  1.00  0.00     0.037 A 
ATOM     57  C   UNL     1       0.715 -21.276   2.767  1.00  0.00     0.049 A 
ATOM     58  C   UNL     1       4.788 -19.401  -0.587  1.00  0.00     0.074 A 
ATOM     59  C   UNL     1       0.857 -22.559   3.264  1.00  0.00     0.029 A 
ATOM     60  N   UNL     1       1.840 -21.018   1.996  1.00  0.00    -0.354 N 
ATOM     61  N   UNL     1       3.919 -19.981   0.206  1.00  0.00    -0.248 NA
ATOM     62  C   UNL     1       6.002 -20.195  -0.823  1.00  0.00     0.031 C 
ATOM     63  C   UNL     1       2.099 -23.052   2.851  1.00  0.00     0.029 A 
ATOM     64  C   UNL     1       2.699 -22.106   2.034  1.00  0.00     0.049 A 
ATOM     65  H   UNL     1       2.004 -20.186   1.496  1.00  0.00     0.167 HD
ATOM     66  C   UNL     1       4.466 -21.215   0.539  1.00  0.00     0.074 A 
ATOM     67  C   UNL     1       5.735 -21.306  -0.151  1.00  0.00     0.031 C 
ATOM     68  C   UNL     1       3.961 -22.185   1.341  1.00  0.00     0.037 A 
BRANCH  55  69
ATOM     69  C   UNL     1      -1.467 -20.735   3.922  1.00  0.00     0.064 A 
ATOM     70  C   UNL     1      -2.775 -20.967   3.470  1.00  0.00     0.173 A 
ATOM     71  C   UNL     1      -1.210 -20.901   5.292  1.00  0.00     0.173 A 
ATOM     72  F   UNL     1      -3.079 -20.809   2.173  1.00  0.00    -0.203 F 
ATOM     73  C   UNL     1      -3.790 -21.317   4.358  1.00  0.00     0.198 A 
ATOM     74  C   UNL     1      -2.219 -21.286   6.171  1.00  0.00     0.198 A 
ATOM     75  F   UNL     1       0.023 -20.696   5.779  1.00  0.00    -0.203 F 
ATOM     76  F   UNL     1      -5.043 -21.476   3.911  1.00  0.00    -0.200 F 
ATOM     77  C   UNL     1      -3.509 -21.483   5.705  1.00  0.00     0.200 A 
ATOM     78  F   UNL     1      -1.942 -21.460   7.471  1.00  0.00    -0.200 F 
ATOM     79  F   UNL     1      -4.485 -21.825   6.558  1.00  0.00    -0.200 F 
ENDBRANCH  55  69
BRANCH  56  80
ATOM     80  C   UNL     1       5.815 -17.586  -2.146  1.00  0.00     0.064 A 
ATOM     81  C   UNL     1       6.110 -18.220  -3.361  1.00  0.00     0.173 A 
ATOM     82  C   UNL     1       6.613 -16.494  -1.772  1.00  0.00     0.173 A 
ATOM     83  F   UNL     1       5.395 -19.285  -3.751  1.00  0.00    -0.203 F 
ATOM     84  C   UNL     1       7.168 -17.790  -4.160  1.00  0.00     0.198 A 
ATOM     85  C   UNL     1       7.650 -16.045  -2.586  1.00  0.00     0.198 A 
ATOM     86  F   UNL     1       6.378 -15.855  -0.616  1.00  0.00    -0.203 F 
ATOM     87  F   UNL     1       7.458 -18.445  -5.293  1.00  0.00    -0.200 F 
ATOM     88  C   UNL     1       7.932 -16.699  -3.776  1.00  0.00     0.200 A 
ATOM     89  F   UNL     1       8.378 -14.983  -2.216  1.00  0.00    -0.200 F 
ATOM     90  F   UNL     1       8.946 -16.282  -4.547  1.00  0.00    -0.200 F 
ENDBRANCH  56  80
BRANCH  68  91
ATOM     91  C   UNL     1       4.761 -23.450   1.490  1.00  0.00     0.064 A 
ATOM     92  C   UNL     1       5.977 -23.481   2.188  1.00  0.00     0.173 A 
ATOM     93  C   UNL     1       4.280 -24.659   0.960  1.00  0.00     0.173 A 
ATOM     94  F   UNL     1       6.489 -22.354   2.704  1.00  0.00    -0.203 F 
ATOM     95  C   UNL     1       6.697 -24.667   2.323  1.00  0.00     0.198 A 
ATOM     96  C   UNL     1       4.984 -25.848   1.128  1.00  0.00     0.198 A 
ATOM     97  F   UNL     1       3.118 -24.690   0.291  1.00  0.00    -0.203 F 
ATOM     98  F   UNL     1       7.883 -24.660   2.946  1.00  0.00    -0.200 F 
ATOM     99  C   UNL     1       6.196 -25.850   1.801  1.00  0.00     0.200 A 
ATOM    100  F   UNL     1       4.488 -26.993   0.639  1.00  0.00    -0.200 F 
ATOM    101  F   UNL     1       6.885 -26.991   1.939  1.00  0.00    -0.200 F 
ENDBRANCH  68  91
ENDBRANCH  42  43
ENDBRANCH  35  37
ENDBRANCH  34  35
ENDBRANCH  33  34
ENDBRANCH  32  33
ENDBRANCH  31  32
ENDBRANCH  30  31
ENDBRANCH  29  30
ENDBRANCH  28  29
ENDBRANCH  27  28
ENDBRANCH   1  27
TORSDOF 26
