REMARK SMILES O=C(Cc1cccc(-c2ccn(C(F)F)c(=O)c2)c1)OCCOCCOCCOCCOC(=O)c1ccc(-c2c3nc(c(-c4c(F)c(F)c(F)c(F)c4F)c4ccc([nH]4)c(-c4c(F)c(F)c(F)c(F)c4F)c4nc(c(-c5c(F)c(F)c(F)c(F)c5F)c5ccc2[nH]5)C=C4)C=C3)cc1
REMARK SMILES IDX 25 1 24 2 23 3 22 4 21 5 20 6 2 7 1 8 3 9 4 10 5 11 19 12
REMARK SMILES IDX 6 13 8 14 7 15 9 16 10 17 18 18 11 19 16 20 12 21 17 22
REMARK SMILES IDX 13 23 14 24 15 25 26 26 27 27 28 28 29 29 30 30 31 31 32 32
REMARK SMILES IDX 33 33 34 34 35 35 36 36 97 37 37 38 96 39 38 40 39 41 40 42
REMARK SMILES IDX 90 43 41 44 95 45 89 46 91 47 42 48 94 49 88 50 87 51 43 53
REMARK SMILES IDX 75 54 55 55 74 56 56 57 59 58 73 59 92 60 57 61 58 62 72 64
REMARK SMILES IDX 93 65 60 66 44 67 45 68 53 69 46 70 47 71 51 72 54 73 48 74
REMARK SMILES IDX 49 75 52 76 50 77 76 78 77 79 85 80 78 81 79 82 83 83 86 84
REMARK SMILES IDX 80 85 81 86 84 87 82 88 61 89 62 90 70 91 63 92 64 93 68 94
REMARK SMILES IDX 71 95 65 96 66 97 69 98 67 99
REMARK H PARENT 91 52 59 63
REMARK Flexibility Score: inf
ROOT
ATOM      1  C   UNL     1       1.994  -0.788   2.258  1.00  0.00     0.188 C 
ENDROOT
BRANCH   1   2
ATOM      2  C   UNL     1       2.579  -1.611   1.106  1.00  0.00     0.188 C 
BRANCH   2   3
ATOM      3  O   UNL     1       3.964  -1.453   0.866  1.00  0.00    -0.376 OA
BRANCH   3   4
ATOM      4  C   UNL     1       4.543  -0.412   0.114  1.00  0.00     0.202 C 
BRANCH   4   5
ATOM      5  C   UNL     1       3.861   0.938  -0.054  1.00  0.00     0.261 C 
BRANCH   5   6
ATOM      6  O   UNL     1       2.449   0.962  -0.345  1.00  0.00    -0.463 OA
BRANCH   6   7
ATOM      7  C   UNL     1       1.725   0.329  -1.291  1.00  0.00     0.310 C 
ATOM      8  O   UNL     1       0.506   0.498  -1.302  1.00  0.00    -0.252 OA
BRANCH   7   9
ATOM      9  C   UNL     1       2.373  -0.648  -2.256  1.00  0.00     0.158 C 
BRANCH   9  10
ATOM     10  C   UNL     1       3.552  -0.127  -3.022  1.00  0.00    -0.036 A 
ATOM     11  C   UNL     1       4.632  -0.954  -3.356  1.00  0.00     0.004 A 
ATOM     12  C   UNL     1       3.612   1.224  -3.342  1.00  0.00     0.013 A 
ATOM     13  C   UNL     1       5.797  -0.402  -3.892  1.00  0.00     0.001 A 
ATOM     14  C   UNL     1       4.795   1.791  -3.817  1.00  0.00    -0.018 A 
ATOM     15  C   UNL     1       5.893   0.979  -4.095  1.00  0.00     0.009 A 
BRANCH  14  16
ATOM     16  C   UNL     1       4.804   3.256  -3.845  1.00  0.00    -0.011 A 
ATOM     17  C   UNL     1       5.096   4.036  -2.658  1.00  0.00     0.027 A 
ATOM     18  C   UNL     1       4.234   3.844  -4.908  1.00  0.00     0.080 A 
ATOM     19  C   UNL     1       4.721   5.317  -2.588  1.00  0.00     0.095 A 
ATOM     20  C   UNL     1       3.859   5.281  -4.861  1.00  0.00     0.255 A 
ATOM     21  N   UNL     1       4.105   5.933  -3.662  1.00  0.00    -0.258 N 
ATOM     22  O   UNL     1       3.322   5.774  -5.847  1.00  0.00    -0.269 OA
BRANCH  21  23
ATOM     23  C   UNL     1       3.661   7.298  -3.564  1.00  0.00     0.451 C 
ATOM     24  F   UNL     1       4.235   8.066  -4.520  1.00  0.00    -0.185 F 
ATOM     25  F   UNL     1       2.316   7.381  -3.705  1.00  0.00    -0.185 F 
ENDBRANCH  21  23
ENDBRANCH  14  16
ENDBRANCH   9  10
ENDBRANCH   7   9
ENDBRANCH   6   7
ENDBRANCH   5   6
ENDBRANCH   4   5
ENDBRANCH   3   4
ENDBRANCH   2   3
ENDBRANCH   1   2
BRANCH   1  26
ATOM     26  O   UNL     1       2.681  -0.875   3.501  1.00  0.00    -0.377 OA
BRANCH  26  27
ATOM     27  C   UNL     1       4.051  -0.521   3.453  1.00  0.00     0.188 C 
BRANCH  27  28
ATOM     28  C   UNL     1       5.023  -1.718   3.462  1.00  0.00     0.188 C 
BRANCH  28  29
ATOM     29  O   UNL     1       4.586  -3.037   3.192  1.00  0.00    -0.376 OA
BRANCH  29  30
ATOM     30  C   UNL     1       3.440  -3.606   3.800  1.00  0.00     0.202 C 
BRANCH  30  31
ATOM     31  C   UNL     1       2.976  -3.346   5.243  1.00  0.00     0.261 C 
BRANCH  31  32
ATOM     32  O   UNL     1       3.343  -2.107   5.841  1.00  0.00    -0.460 OA
BRANCH  32  33
ATOM     33  C   UNL     1       4.485  -2.131   6.552  1.00  0.00     0.338 C 
ATOM     34  O   UNL     1       5.209  -3.093   6.769  1.00  0.00    -0.246 OA
BRANCH  33  35
ATOM     35  C   UNL     1       4.860  -0.743   6.871  1.00  0.00     0.060 A 
ATOM     36  C   UNL     1       6.145  -0.316   6.508  1.00  0.00     0.016 A 
ATOM     37  C   UNL     1       3.978   0.119   7.528  1.00  0.00     0.016 A 
ATOM     38  C   UNL     1       6.581   0.951   6.860  1.00  0.00     0.010 A 
ATOM     39  C   UNL     1       4.431   1.379   7.923  1.00  0.00     0.010 A 
ATOM     40  C   UNL     1       5.755   1.764   7.644  1.00  0.00    -0.014 A 
BRANCH  40  41
ATOM     41  C   UNL     1       6.410   2.828   8.435  1.00  0.00     0.031 A 
ATOM     42  C   UNL     1       6.854   2.474   9.829  1.00  0.00     0.074 A 
ATOM     43  C   UNL     1       6.700   4.024   7.902  1.00  0.00     0.049 A 
ATOM     44  N   UNL     1       7.491   3.198  10.712  1.00  0.00    -0.248 NA
ATOM     45  C   UNL     1       6.539   1.109  10.288  1.00  0.00     0.031 C 
ATOM     46  C   UNL     1       6.380   4.445   6.540  1.00  0.00     0.029 A 
ATOM     47  N   UNL     1       7.346   5.102   8.450  1.00  0.00    -0.354 N 
ATOM     48  C   UNL     1       7.638   2.382  11.827  1.00  0.00     0.074 A 
ATOM     49  C   UNL     1       6.998   1.123  11.527  1.00  0.00     0.031 C 
ATOM     50  C   UNL     1       6.830   5.699   6.358  1.00  0.00     0.029 A 
ATOM     51  C   UNL     1       7.445   6.172   7.598  1.00  0.00     0.049 A 
ATOM     52  H   UNL     1       7.704   5.107   9.367  1.00  0.00     0.167 HD
ATOM     53  C   UNL     1       8.262   2.657  12.996  1.00  0.00     0.037 A 
ATOM     54  C   UNL     1       7.965   7.396   7.812  1.00  0.00     0.037 A 
ATOM     55  C   UNL     1       8.898   3.913  13.285  1.00  0.00     0.049 A 
ATOM     56  C   UNL     1       8.587   7.703   9.152  1.00  0.00     0.074 A 
ATOM     57  C   UNL     1       9.567   4.298  14.432  1.00  0.00     0.029 A 
ATOM     58  N   UNL     1       8.934   4.994  12.415  1.00  0.00    -0.354 N 
ATOM     59  N   UNL     1       8.742   6.925  10.197  1.00  0.00    -0.248 NA
ATOM     60  C   UNL     1       9.120   9.059   9.334  1.00  0.00     0.031 C 
ATOM     61  C   UNL     1       9.948   5.635  14.284  1.00  0.00     0.029 A 
ATOM     62  C   UNL     1       9.591   6.057  13.012  1.00  0.00     0.049 A 
ATOM     63  H   UNL     1       8.550   5.004  11.509  1.00  0.00     0.167 HD
ATOM     64  C   UNL     1       9.430   7.679  11.140  1.00  0.00     0.074 A 
ATOM     65  C   UNL     1       9.669   8.975  10.537  1.00  0.00     0.031 C 
ATOM     66  C   UNL     1       9.835   7.333  12.388  1.00  0.00     0.037 A 
BRANCH  53  67
ATOM     67  C   UNL     1       8.236   1.597  14.060  1.00  0.00     0.064 A 
ATOM     68  C   UNL     1       8.941   0.390  13.930  1.00  0.00     0.173 A 
ATOM     69  C   UNL     1       7.495   1.799  15.234  1.00  0.00     0.173 A 
ATOM     70  F   UNL     1       9.647   0.136  12.818  1.00  0.00    -0.203 F 
ATOM     71  C   UNL     1       8.878  -0.587  14.921  1.00  0.00     0.198 A 
ATOM     72  C   UNL     1       7.465   0.836  16.239  1.00  0.00     0.198 A 
ATOM     73  F   UNL     1       6.801   2.933  15.410  1.00  0.00    -0.203 F 
ATOM     74  F   UNL     1       9.509  -1.757  14.747  1.00  0.00    -0.200 F 
ATOM     75  C   UNL     1       8.147  -0.360  16.077  1.00  0.00     0.200 A 
ATOM     76  F   UNL     1       6.769   1.064  17.361  1.00  0.00    -0.200 F 
ATOM     77  F   UNL     1       8.093  -1.298  17.033  1.00  0.00    -0.200 F 
ENDBRANCH  53  67
BRANCH  54  78
ATOM     78  C   UNL     1       7.928   8.423   6.738  1.00  0.00     0.064 A 
ATOM     79  C   UNL     1       9.108   8.895   6.146  1.00  0.00     0.173 A 
ATOM     80  C   UNL     1       6.715   8.977   6.302  1.00  0.00     0.173 A 
ATOM     81  F   UNL     1      10.295   8.412   6.541  1.00  0.00    -0.203 F 
ATOM     82  C   UNL     1       9.078   9.900   5.181  1.00  0.00     0.198 A 
ATOM     83  C   UNL     1       6.684   9.958   5.314  1.00  0.00     0.198 A 
ATOM     84  F   UNL     1       5.556   8.560   6.833  1.00  0.00    -0.203 F 
ATOM     85  F   UNL     1      10.225  10.370   4.671  1.00  0.00    -0.200 F 
ATOM     86  C   UNL     1       7.866  10.427   4.762  1.00  0.00     0.200 A 
ATOM     87  F   UNL     1       5.509  10.451   4.899  1.00  0.00    -0.200 F 
ATOM     88  F   UNL     1       7.838  11.390   3.831  1.00  0.00    -0.200 F 
ENDBRANCH  54  78
BRANCH  66  89
ATOM     89  C   UNL     1      10.646   8.339  13.156  1.00  0.00     0.064 A 
ATOM     90  C   UNL     1      10.095   9.539  13.631  1.00  0.00     0.173 A 
ATOM     91  C   UNL     1      11.997   8.081  13.442  1.00  0.00     0.173 A 
ATOM     92  F   UNL     1       8.812   9.840  13.379  1.00  0.00    -0.203 F 
ATOM     93  C   UNL     1      10.878  10.462  14.321  1.00  0.00     0.198 A 
ATOM     94  C   UNL     1      12.764   8.987  14.169  1.00  0.00     0.198 A 
ATOM     95  F   UNL     1      12.572   6.943  13.025  1.00  0.00    -0.203 F 
ATOM     96  F   UNL     1      10.348  11.633  14.702  1.00  0.00    -0.200 F 
ATOM     97  C   UNL     1      12.208  10.183  14.595  1.00  0.00     0.200 A 
ATOM     98  F   UNL     1      14.043   8.704  14.450  1.00  0.00    -0.200 F 
ATOM     99  F   UNL     1      12.958  11.071  15.261  1.00  0.00    -0.200 F 
ENDBRANCH  66  89
ENDBRANCH  40  41
ENDBRANCH  33  35
ENDBRANCH  32  33
ENDBRANCH  31  32
ENDBRANCH  30  31
ENDBRANCH  29  30
ENDBRANCH  28  29
ENDBRANCH  27  28
ENDBRANCH  26  27
ENDBRANCH   1  26
TORSDOF 23
