REMARK SMILES Cc1nn(CC(=O)OCCOCCOCCOCCOC(=O)c2ccc(-c3c4nc(c(-c5c(F)c(F)c(F)c(F)c5F)c5ccc([nH]5)c(-c5c(F)c(F)c(F)c(F)c5F)c5nc(c(-c6c(F)c(F)c(F)c(F)c6F)c6ccc3[nH]6)C=C5)C=C4)cc2)c(C)c1NC(=O)C(=O)Nc1ccc(F)cc1
REMARK SMILES IDX 13 1 12 2 11 3 10 4 9 5 8 6 6 7 7 8 5 9 4 10 1 11 2 12 3 13
REMARK SMILES IDX 88 14 86 15 87 16 89 17 90 18 91 20 92 21 93 22 94 23 95 25
REMARK SMILES IDX 96 26 101 27 97 28 100 29 98 30 99 31 14 32 15 33 16 34
REMARK SMILES IDX 17 35 18 36 19 37 20 38 21 39 22 40 23 41 24 42 85 43 25 44
REMARK SMILES IDX 84 45 26 46 27 47 28 48 78 49 29 50 83 51 77 52 79 53 30 54
REMARK SMILES IDX 82 55 76 56 75 57 31 59 63 60 43 61 62 62 44 63 47 64 61 65
REMARK SMILES IDX 80 66 45 67 46 68 60 70 81 71 48 72 32 73 33 74 41 75 34 76
REMARK SMILES IDX 35 77 39 78 42 79 36 80 37 81 40 82 38 83 64 84 65 85 73 86
REMARK SMILES IDX 66 87 67 88 71 89 74 90 68 91 69 92 72 93 70 94 49 95 50 96
REMARK SMILES IDX 58 97 51 98 52 99 56 100 59 101 53 102 54 103 57 104 55 105
REMARK H PARENT 89 19 94 24 79 58 47 69
REMARK Flexibility Score: inf
ROOT
ATOM      1  C   UNL     1      -3.474   2.547   1.243  1.00  0.00     0.188 C 
ENDROOT
BRANCH   1   2
ATOM      2  C   UNL     1      -4.429   3.234   2.237  1.00  0.00     0.188 C 
BRANCH   2   3
ATOM      3  O   UNL     1      -5.517   4.019   1.759  1.00  0.00    -0.376 OA
BRANCH   3   4
ATOM      4  C   UNL     1      -5.352   4.794   0.579  1.00  0.00     0.202 C 
BRANCH   4   5
ATOM      5  C   UNL     1      -4.198   5.810   0.539  1.00  0.00     0.261 C 
BRANCH   5   6
ATOM      6  O   UNL     1      -2.896   5.250   0.819  1.00  0.00    -0.462 OA
BRANCH   6   7
ATOM      7  C   UNL     1      -2.183   5.795   1.838  1.00  0.00     0.327 C 
ATOM      8  O   UNL     1      -2.521   6.817   2.431  1.00  0.00    -0.250 OA
BRANCH   7   9
ATOM      9  C   UNL     1      -0.990   4.990   2.293  1.00  0.00     0.267 C 
BRANCH   9  10
ATOM     10  N   UNL     1      -0.344   4.103   1.329  1.00  0.00    -0.256 N 
ATOM     11  C   UNL     1       0.808   0.822   0.606  1.00  0.00     0.071 C 
ATOM     12  C   UNL     1       0.541   2.282   0.675  1.00  0.00     0.083 A 
ATOM     13  N   UNL     1      -0.266   2.779   1.615  1.00  0.00    -0.175 NA
ATOM     14  C   UNL     1       1.127   3.319  -0.095  1.00  0.00     0.086 A 
ATOM     15  C   UNL     1       0.409   4.456   0.234  1.00  0.00     0.060 A 
ATOM     16  C   UNL     1       0.340   5.819  -0.348  1.00  0.00     0.069 C 
BRANCH  14  17
ATOM     17  N   UNL     1       2.182   3.148  -0.970  1.00  0.00    -0.315 N 
ATOM     18  C   UNL     1       3.266   3.984  -1.146  1.00  0.00     0.314 C 
ATOM     19  H   UNL     1       2.157   2.340  -1.531  1.00  0.00     0.170 HD
ATOM     20  O   UNL     1       4.221   3.616  -1.824  1.00  0.00    -0.263 OA
BRANCH  18  21
ATOM     21  C   UNL     1       3.331   5.288  -0.348  1.00  0.00     0.314 C 
ATOM     22  O   UNL     1       3.197   5.254   0.875  1.00  0.00    -0.263 OA
ATOM     23  N   UNL     1       3.563   6.508  -0.950  1.00  0.00    -0.318 N 
ATOM     24  H   UNL     1       3.164   7.289  -0.501  1.00  0.00     0.170 HD
BRANCH  23  25
ATOM     25  C   UNL     1       4.291   6.781  -2.114  1.00  0.00     0.041 A 
ATOM     26  C   UNL     1       5.226   7.819  -1.993  1.00  0.00     0.029 A 
ATOM     27  C   UNL     1       4.221   6.053  -3.301  1.00  0.00     0.029 A 
ATOM     28  C   UNL     1       6.179   8.027  -2.986  1.00  0.00     0.041 A 
ATOM     29  C   UNL     1       5.167   6.275  -4.306  1.00  0.00     0.041 A 
ATOM     30  C   UNL     1       6.155   7.236  -4.125  1.00  0.00     0.123 A 
ATOM     31  F   UNL     1       7.103   7.396  -5.056  1.00  0.00    -0.207 F 
ENDBRANCH  23  25
ENDBRANCH  18  21
ENDBRANCH  14  17
ENDBRANCH   9  10
ENDBRANCH   7   9
ENDBRANCH   6   7
ENDBRANCH   5   6
ENDBRANCH   4   5
ENDBRANCH   3   4
ENDBRANCH   2   3
ENDBRANCH   1   2
BRANCH   1  32
ATOM     32  O   UNL     1      -3.797   2.673  -0.129  1.00  0.00    -0.377 OA
BRANCH  32  33
ATOM     33  C   UNL     1      -4.404   1.539  -0.725  1.00  0.00     0.188 C 
BRANCH  33  34
ATOM     34  C   UNL     1      -5.561   0.894   0.061  1.00  0.00     0.188 C 
BRANCH  34  35
ATOM     35  O   UNL     1      -5.278   0.630   1.435  1.00  0.00    -0.376 OA
BRANCH  35  36
ATOM     36  C   UNL     1      -4.895  -0.671   1.856  1.00  0.00     0.202 C 
BRANCH  36  37
ATOM     37  C   UNL     1      -3.476  -1.121   1.502  1.00  0.00     0.261 C 
BRANCH  37  38
ATOM     38  O   UNL     1      -3.162  -1.077   0.118  1.00  0.00    -0.460 OA
BRANCH  38  39
ATOM     39  C   UNL     1      -3.986  -1.766  -0.692  1.00  0.00     0.338 C 
ATOM     40  O   UNL     1      -5.028  -2.323  -0.405  1.00  0.00    -0.246 OA
BRANCH  39  41
ATOM     41  C   UNL     1      -3.366  -1.870  -2.010  1.00  0.00     0.060 A 
ATOM     42  C   UNL     1      -4.157  -2.449  -3.001  1.00  0.00     0.016 A 
ATOM     43  C   UNL     1      -1.972  -1.753  -2.119  1.00  0.00     0.016 A 
ATOM     44  C   UNL     1      -3.521  -3.160  -3.984  1.00  0.00     0.010 A 
ATOM     45  C   UNL     1      -1.337  -2.478  -3.094  1.00  0.00     0.010 A 
ATOM     46  C   UNL     1      -2.124  -3.246  -3.945  1.00  0.00    -0.014 A 
BRANCH  46  47
ATOM     47  C   UNL     1      -1.505  -4.156  -4.875  1.00  0.00     0.031 A 
ATOM     48  C   UNL     1      -1.478  -3.637  -6.252  1.00  0.00     0.074 A 
ATOM     49  C   UNL     1      -0.987  -5.334  -4.490  1.00  0.00     0.049 A 
ATOM     50  N   UNL     1      -2.116  -4.091  -7.276  1.00  0.00    -0.248 NA
ATOM     51  C   UNL     1      -0.788  -2.358  -6.476  1.00  0.00     0.031 C 
ATOM     52  C   UNL     1      -0.717  -5.808  -3.131  1.00  0.00     0.029 A 
ATOM     53  N   UNL     1      -0.502  -6.331  -5.273  1.00  0.00    -0.354 N 
ATOM     54  C   UNL     1      -1.766  -3.254  -8.327  1.00  0.00     0.074 A 
ATOM     55  C   UNL     1      -1.104  -2.117  -7.746  1.00  0.00     0.031 C 
ATOM     56  C   UNL     1       0.079  -6.901  -3.198  1.00  0.00     0.029 A 
ATOM     57  C   UNL     1       0.262  -7.266  -4.594  1.00  0.00     0.049 A 
ATOM     58  H   UNL     1      -0.677  -6.385  -6.240  1.00  0.00     0.167 HD
ATOM     59  C   UNL     1      -1.821  -3.699  -9.609  1.00  0.00     0.037 A 
ATOM     60  C   UNL     1       1.047  -8.211  -5.166  1.00  0.00     0.037 A 
ATOM     61  C   UNL     1      -2.706  -4.832  -9.724  1.00  0.00     0.049 A 
ATOM     62  C   UNL     1       0.594  -8.378  -6.572  1.00  0.00     0.074 A 
ATOM     63  C   UNL     1      -4.053  -5.036  -9.489  1.00  0.00     0.029 A 
ATOM     64  N   UNL     1      -2.145  -6.082  -9.798  1.00  0.00    -0.354 N 
ATOM     65  N   UNL     1      -0.538  -8.925  -6.918  1.00  0.00    -0.248 NA
ATOM     66  C   UNL     1       1.225  -7.560  -7.598  1.00  0.00     0.031 C 
ATOM     67  C   UNL     1      -4.153  -6.371  -8.999  1.00  0.00     0.029 A 
ATOM     68  C   UNL     1      -2.871  -6.923  -8.997  1.00  0.00     0.049 A 
ATOM     69  H   UNL     1      -1.357  -6.331 -10.334  1.00  0.00     0.167 HD
ATOM     70  C   UNL     1      -0.967  -8.189  -8.013  1.00  0.00     0.074 A 
ATOM     71  C   UNL     1       0.209  -7.449  -8.457  1.00  0.00     0.031 C 
ATOM     72  C   UNL     1      -2.298  -8.034  -8.272  1.00  0.00     0.037 A 
BRANCH  59  73
ATOM     73  C   UNL     1      -0.771  -3.372 -10.646  1.00  0.00     0.064 A 
ATOM     74  C   UNL     1      -0.939  -3.871 -11.952  1.00  0.00     0.173 A 
ATOM     75  C   UNL     1       0.517  -2.870 -10.351  1.00  0.00     0.173 A 
ATOM     76  F   UNL     1      -2.118  -4.377 -12.345  1.00  0.00    -0.203 F 
ATOM     77  C   UNL     1       0.126  -3.959 -12.851  1.00  0.00     0.198 A 
ATOM     78  C   UNL     1       1.562  -2.909 -11.271  1.00  0.00     0.198 A 
ATOM     79  F   UNL     1       0.862  -2.422  -9.140  1.00  0.00    -0.203 F 
ATOM     80  F   UNL     1      -0.050  -4.573 -14.028  1.00  0.00    -0.200 F 
ATOM     81  C   UNL     1       1.378  -3.488 -12.506  1.00  0.00     0.200 A 
ATOM     82  F   UNL     1       2.772  -2.457 -10.909  1.00  0.00    -0.200 F 
ATOM     83  F   UNL     1       2.417  -3.636 -13.338  1.00  0.00    -0.200 F 
ENDBRANCH  59  73
BRANCH  60  84
ATOM     84  C   UNL     1       2.332  -8.762  -4.680  1.00  0.00     0.064 A 
ATOM     85  C   UNL     1       2.873  -9.928  -5.246  1.00  0.00     0.173 A 
ATOM     86  C   UNL     1       3.190  -8.013  -3.851  1.00  0.00     0.173 A 
ATOM     87  F   UNL     1       2.137 -10.676  -6.081  1.00  0.00    -0.203 F 
ATOM     88  C   UNL     1       4.201 -10.304  -5.023  1.00  0.00     0.198 A 
ATOM     89  C   UNL     1       4.511  -8.395  -3.619  1.00  0.00     0.198 A 
ATOM     90  F   UNL     1       2.797  -6.843  -3.328  1.00  0.00    -0.203 F 
ATOM     91  F   UNL     1       4.701 -11.385  -5.637  1.00  0.00    -0.200 F 
ATOM     92  C   UNL     1       5.021  -9.532  -4.218  1.00  0.00     0.200 A 
ATOM     93  F   UNL     1       5.304  -7.620  -2.866  1.00  0.00    -0.200 F 
ATOM     94  F   UNL     1       6.311  -9.856  -4.054  1.00  0.00    -0.200 F 
ENDBRANCH  60  84
BRANCH  72  95
ATOM     95  C   UNL     1      -3.256  -8.944  -7.556  1.00  0.00     0.064 A 
ATOM     96  C   UNL     1      -3.426  -8.969  -6.161  1.00  0.00     0.173 A 
ATOM     97  C   UNL     1      -4.125  -9.727  -8.328  1.00  0.00     0.173 A 
ATOM     98  F   UNL     1      -2.704  -8.172  -5.362  1.00  0.00    -0.203 F 
ATOM     99  C   UNL     1      -4.391  -9.782  -5.568  1.00  0.00     0.198 A 
ATOM    100  C   UNL     1      -5.114 -10.506  -7.736  1.00  0.00     0.198 A 
ATOM    101  F   UNL     1      -4.044  -9.700  -9.668  1.00  0.00    -0.203 F 
ATOM    102  F   UNL     1      -4.522  -9.805  -4.234  1.00  0.00    -0.200 F 
ATOM    103  C   UNL     1      -5.239 -10.543  -6.356  1.00  0.00     0.200 A 
ATOM    104  F   UNL     1      -5.965 -11.200  -8.504  1.00  0.00    -0.200 F 
ATOM    105  F   UNL     1      -6.194 -11.292  -5.788  1.00  0.00    -0.200 F 
ENDBRANCH  72  95
ENDBRANCH  46  47
ENDBRANCH  39  41
ENDBRANCH  38  39
ENDBRANCH  37  38
ENDBRANCH  36  37
ENDBRANCH  35  36
ENDBRANCH  34  35
ENDBRANCH  33  34
ENDBRANCH  32  33
ENDBRANCH   1  32
TORSDOF 24
