REMARK SMILES Nc1ccc(-c2cc(Cl)cc3c2O[C@H](C(F)(F)F)C(C(=O)OCCOCCOCCOCCOC(=O)c2ccc(-c4c5nc(c(-c6c(F)c(F)c(F)c(F)c6F)c6ccc([nH]6)c(-c6c(F)c(F)c(F)c(F)c6F)c6nc(c(-c7c(F)c(F)c(F)c(F)c7F)c7ccc4[nH]7)C=C6)C=C5)cc2)=C3)cc1
REMARK SMILES IDX 28 1 27 2 26 3 25 4 24 5 23 6 22 7 20 8 21 9 19 10 6 11 7 12
REMARK SMILES IDX 12 13 8 14 11 15 13 16 9 17 10 18 100 19 14 20 5 21 2 22
REMARK SMILES IDX 3 23 102 24 4 25 101 26 1 27 15 30 16 31 17 32 18 33 29 34
REMARK SMILES IDX 30 35 31 36 32 37 33 38 34 39 35 40 36 41 37 42 38 43 99 44
REMARK SMILES IDX 39 45 98 46 40 47 41 48 42 49 92 50 43 51 97 52 91 53 93 54
REMARK SMILES IDX 44 55 96 56 90 57 89 58 45 60 77 61 57 62 76 63 58 64 61 65
REMARK SMILES IDX 75 66 94 67 59 68 60 69 74 71 95 72 62 73 46 74 47 75 55 76
REMARK SMILES IDX 48 77 49 78 53 79 56 80 50 81 51 82 54 83 52 84 78 85 79 86
REMARK SMILES IDX 87 87 80 88 81 89 85 90 88 91 82 92 83 93 86 94 84 95 63 96
REMARK SMILES IDX 64 97 72 98 65 99 66 100 70 101 73 102 67 103 68 104 71 105
REMARK SMILES IDX 69 106
REMARK H PARENT 1 28 1 29 93 59 61 70
REMARK Flexibility Score: inf
ROOT
ATOM      1  O   UNL     1      -5.718  -1.436   6.371  1.00  0.00    -0.377 OA
ENDROOT
BRANCH   1   2
ATOM      2  C   UNL     1      -6.453  -0.788   5.343  1.00  0.00     0.188 C 
BRANCH   2   3
ATOM      3  C   UNL     1      -7.809  -1.466   5.073  1.00  0.00     0.188 C 
BRANCH   3   4
ATOM      4  O   UNL     1      -8.165  -2.408   6.083  1.00  0.00    -0.376 OA
BRANCH   4   5
ATOM      5  C   UNL     1      -7.961  -3.787   5.802  1.00  0.00     0.202 C 
BRANCH   5   6
ATOM      6  C   UNL     1      -6.520  -4.277   5.582  1.00  0.00     0.261 C 
BRANCH   6   7
ATOM      7  O   UNL     1      -5.780  -3.588   4.564  1.00  0.00    -0.460 OA
BRANCH   7   8
ATOM      8  C   UNL     1      -6.198  -3.708   3.290  1.00  0.00     0.338 C 
ATOM      9  O   UNL     1      -7.113  -4.400   2.883  1.00  0.00    -0.246 OA
BRANCH   8  10
ATOM     10  C   UNL     1      -5.454  -2.719   2.477  1.00  0.00     0.087 C 
ATOM     11  C   UNL     1      -3.322  -0.042   0.047  1.00  0.00     0.026 A 
ATOM     12  C   UNL     1      -4.040   0.712  -0.899  1.00  0.00     0.033 A 
ATOM     13  C   UNL     1      -4.055  -0.877   0.923  1.00  0.00     0.135 A 
ATOM     14  C   UNL     1      -5.429   0.627  -0.975  1.00  0.00     0.042 A 
ATOM     15  C   UNL     1      -5.444  -1.009   0.799  1.00  0.00     0.019 A 
ATOM     16  O   UNL     1      -3.344  -1.534   1.891  1.00  0.00    -0.475 OA
ATOM     17  Cl  UNL     1      -6.279   1.560  -2.145  1.00  0.00    -0.084 Cl
ATOM     18  C   UNL     1      -6.133  -0.234  -0.138  1.00  0.00     0.032 A 
ATOM     19  C   UNL     1      -6.157  -1.994   1.598  1.00  0.00     0.027 C 
ATOM     20  C   UNL     1      -3.984  -2.520   2.736  1.00  0.00     0.316 C 
BRANCH  11  21
ATOM     21  C   UNL     1      -1.843  -0.001   0.047  1.00  0.00    -0.014 A 
ATOM     22  C   UNL     1       0.998   0.037   0.006  1.00  0.00     0.031 A 
ATOM     23  C   UNL     1       0.303  -1.169  -0.038  1.00  0.00     0.026 A 
ATOM     24  C   UNL     1       0.267   1.225   0.022  1.00  0.00     0.026 A 
ATOM     25  C   UNL     1      -1.095  -1.188  -0.015  1.00  0.00     0.011 A 
ATOM     26  C   UNL     1      -1.135   1.209   0.057  1.00  0.00     0.011 A 
BRANCH  22  27
ATOM     27  N   UNL     1       2.379   0.055  -0.099  1.00  0.00    -0.399 N 
ATOM     28  H   UNL     1       2.883  -0.791  -0.109  1.00  0.00     0.156 HD
ATOM     29  H   UNL     1       2.857   0.913  -0.163  1.00  0.00     0.156 HD
ENDBRANCH  22  27
ENDBRANCH  11  21
BRANCH  20  30
ATOM     30  C   UNL     1      -3.183  -3.824   2.622  1.00  0.00     0.430 C 
ATOM     31  F   UNL     1      -1.860  -3.609   2.820  1.00  0.00    -0.167 F 
ATOM     32  F   UNL     1      -3.566  -4.744   3.537  1.00  0.00    -0.167 F 
ATOM     33  F   UNL     1      -3.321  -4.389   1.399  1.00  0.00    -0.167 F 
ENDBRANCH  20  30
ENDBRANCH   8  10
ENDBRANCH   7   8
ENDBRANCH   6   7
ENDBRANCH   5   6
ENDBRANCH   4   5
ENDBRANCH   3   4
ENDBRANCH   2   3
ENDBRANCH   1   2
BRANCH   1  34
ATOM     34  C   UNL     1      -6.019  -1.068   7.717  1.00  0.00     0.188 C 
BRANCH  34  35
ATOM     35  C   UNL     1      -7.412  -0.528   8.117  1.00  0.00     0.188 C 
BRANCH  35  36
ATOM     36  O   UNL     1      -7.890   0.514   7.269  1.00  0.00    -0.376 OA
BRANCH  36  37
ATOM     37  C   UNL     1      -7.919   1.826   7.814  1.00  0.00     0.202 C 
BRANCH  37  38
ATOM     38  C   UNL     1      -6.549   2.514   7.848  1.00  0.00     0.261 C 
BRANCH  38  39
ATOM     39  O   UNL     1      -5.567   1.868   8.673  1.00  0.00    -0.460 OA
BRANCH  39  40
ATOM     40  C   UNL     1      -5.849   1.718   9.985  1.00  0.00     0.338 C 
ATOM     41  O   UNL     1      -6.825   2.134  10.584  1.00  0.00    -0.246 OA
BRANCH  40  42
ATOM     42  C   UNL     1      -4.859   0.776  10.548  1.00  0.00     0.060 A 
ATOM     43  C   UNL     1      -3.494   0.960  10.312  1.00  0.00     0.016 A 
ATOM     44  C   UNL     1      -5.309  -0.319  11.296  1.00  0.00     0.016 A 
ATOM     45  C   UNL     1      -2.574   0.071  10.867  1.00  0.00     0.010 A 
ATOM     46  C   UNL     1      -4.387  -1.212  11.848  1.00  0.00     0.010 A 
ATOM     47  C   UNL     1      -3.012  -1.002  11.664  1.00  0.00    -0.014 A 
BRANCH  47  48
ATOM     48  C   UNL     1      -2.023  -1.750  12.475  1.00  0.00     0.031 A 
ATOM     49  C   UNL     1      -1.518  -3.102  12.086  1.00  0.00     0.074 A 
ATOM     50  C   UNL     1      -1.577  -1.157  13.599  1.00  0.00     0.049 A 
ATOM     51  N   UNL     1      -0.566  -3.810  12.641  1.00  0.00    -0.248 NA
ATOM     52  C   UNL     1      -2.163  -3.751  10.937  1.00  0.00     0.031 C 
ATOM     53  C   UNL     1      -2.035   0.143  14.093  1.00  0.00     0.029 A 
ATOM     54  N   UNL     1      -0.639  -1.552  14.516  1.00  0.00    -0.354 N 
ATOM     55  C   UNL     1      -0.476  -4.977  11.896  1.00  0.00     0.074 A 
ATOM     56  C   UNL     1      -1.506  -4.905  10.879  1.00  0.00     0.031 C 
ATOM     57  C   UNL     1      -1.353   0.455  15.204  1.00  0.00     0.029 A 
ATOM     58  C   UNL     1      -0.426  -0.630  15.510  1.00  0.00     0.049 A 
ATOM     59  H   UNL     1      -0.164  -2.413  14.467  1.00  0.00     0.167 HD
ATOM     60  C   UNL     1       0.403  -5.998  12.044  1.00  0.00     0.037 A 
ATOM     61  C   UNL     1       0.432  -0.646  16.547  1.00  0.00     0.037 A 
ATOM     62  C   UNL     1       1.412  -6.064  13.073  1.00  0.00     0.049 A 
ATOM     63  C   UNL     1       1.370  -1.807  16.705  1.00  0.00     0.074 A 
ATOM     64  C   UNL     1       2.379  -7.035  13.271  1.00  0.00     0.029 A 
ATOM     65  N   UNL     1       1.575  -5.131  14.088  1.00  0.00    -0.354 N 
ATOM     66  N   UNL     1       1.513  -2.860  15.939  1.00  0.00    -0.248 NA
ATOM     67  C   UNL     1       2.271  -1.779  17.865  1.00  0.00     0.031 C 
ATOM     68  C   UNL     1       3.090  -6.720  14.433  1.00  0.00     0.029 A 
ATOM     69  C   UNL     1       2.604  -5.523  14.932  1.00  0.00     0.049 A 
ATOM     70  H   UNL     1       1.040  -4.312  14.193  1.00  0.00     0.167 HD
ATOM     71  C   UNL     1       2.532  -3.610  16.509  1.00  0.00     0.074 A 
ATOM     72  C   UNL     1       2.982  -2.883  17.678  1.00  0.00     0.031 C 
ATOM     73  C   UNL     1       3.044  -4.794  16.096  1.00  0.00     0.037 A 
BRANCH  60  74
ATOM     74  C   UNL     1       0.338  -7.133  11.062  1.00  0.00     0.064 A 
ATOM     75  C   UNL     1       0.767  -6.971   9.736  1.00  0.00     0.173 A 
ATOM     76  C   UNL     1      -0.054  -8.416  11.473  1.00  0.00     0.173 A 
ATOM     77  F   UNL     1       1.152  -5.765   9.294  1.00  0.00    -0.203 F 
ATOM     78  C   UNL     1       0.795  -8.050   8.856  1.00  0.00     0.198 A 
ATOM     79  C   UNL     1       0.000  -9.498  10.597  1.00  0.00     0.198 A 
ATOM     80  F   UNL     1      -0.459  -8.629  12.734  1.00  0.00    -0.203 F 
ATOM     81  F   UNL     1       1.189  -7.867   7.588  1.00  0.00    -0.200 F 
ATOM     82  C   UNL     1       0.422  -9.313   9.289  1.00  0.00     0.200 A 
ATOM     83  F   UNL     1      -0.343 -10.721  11.023  1.00  0.00    -0.200 F 
ATOM     84  F   UNL     1       0.471 -10.354   8.446  1.00  0.00    -0.200 F 
ENDBRANCH  60  74
BRANCH  61  85
ATOM     85  C   UNL     1       0.471   0.512  17.474  1.00  0.00     0.064 A 
ATOM     86  C   UNL     1       1.555   1.399  17.466  1.00  0.00     0.173 A 
ATOM     87  C   UNL     1      -0.594   0.785  18.346  1.00  0.00     0.173 A 
ATOM     88  F   UNL     1       2.600   1.172  16.657  1.00  0.00    -0.203 F 
ATOM     89  C   UNL     1       1.576   2.514  18.301  1.00  0.00     0.198 A 
ATOM     90  C   UNL     1      -0.583   1.914  19.161  1.00  0.00     0.198 A 
ATOM     91  F   UNL     1      -1.658  -0.030  18.381  1.00  0.00    -0.203 F 
ATOM     92  F   UNL     1       2.636   3.333  18.293  1.00  0.00    -0.200 F 
ATOM     93  C   UNL     1       0.504   2.775  19.141  1.00  0.00     0.200 A 
ATOM     94  F   UNL     1      -1.629   2.173  19.957  1.00  0.00    -0.200 F 
ATOM     95  F   UNL     1       0.518   3.857  19.931  1.00  0.00    -0.200 F 
ENDBRANCH  61  85
BRANCH  73  96
ATOM     96  C   UNL     1       4.161  -5.387  16.906  1.00  0.00     0.064 A 
ATOM     97  C   UNL     1       3.928  -5.958  18.165  1.00  0.00     0.173 A 
ATOM     98  C   UNL     1       5.463  -5.449  16.386  1.00  0.00     0.173 A 
ATOM     99  F   UNL     1       2.704  -5.909  18.712  1.00  0.00    -0.203 F 
ATOM    100  C   UNL     1       4.960  -6.562  18.878  1.00  0.00     0.198 A 
ATOM    101  C   UNL     1       6.486  -6.079  17.090  1.00  0.00     0.198 A 
ATOM    102  F   UNL     1       5.737  -4.921  15.184  1.00  0.00    -0.203 F 
ATOM    103  F   UNL     1       4.721  -7.074  20.094  1.00  0.00    -0.200 F 
ATOM    104  C   UNL     1       6.234  -6.632  18.336  1.00  0.00     0.200 A 
ATOM    105  F   UNL     1       7.713  -6.158  16.558  1.00  0.00    -0.200 F 
ATOM    106  F   UNL     1       7.221  -7.231  19.016  1.00  0.00    -0.200 F 
ENDBRANCH  73  96
ENDBRANCH  47  48
ENDBRANCH  40  42
ENDBRANCH  39  40
ENDBRANCH  38  39
ENDBRANCH  37  38
ENDBRANCH  36  37
ENDBRANCH  35  36
ENDBRANCH  34  35
ENDBRANCH   1  34
TORSDOF 23
