REMARK SMILES C[C@@H]1CCCN(c2ccc(NC(=O)Cc3cccs3)c(C(=O)OCCOCCOCCOCCOC(=O)c3ccc(-c4c5nc(c(-c6c(F)c(F)c(F)c(F)c6F)c6ccc([nH]6)c(-c6c(F)c(F)c(F)c(F)c6F)c6nc(c(-c7c(F)c(F)c(F)c(F)c7F)c7ccc4[nH]7)C=C6)C=C5)cc3)c2)C1
REMARK SMILES IDX 28 1 27 2 26 3 25 4 24 5 23 6 21 7 22 8 20 9 7 10 8 11
REMARK SMILES IDX 101 12 9 13 10 14 6 15 1 16 2 17 3 18 102 19 4 20 5 21 11 22
REMARK SMILES IDX 12 23 13 25 14 26 15 27 16 28 19 29 17 30 18 31 29 32 30 33
REMARK SMILES IDX 31 34 32 35 33 36 34 37 35 38 36 39 37 40 38 41 39 42 100 43
REMARK SMILES IDX 40 44 99 45 41 46 42 47 43 48 93 49 44 50 98 51 92 52 94 53
REMARK SMILES IDX 45 54 97 55 91 56 90 57 46 59 78 60 58 61 77 62 59 63 62 64
REMARK SMILES IDX 76 65 95 66 60 67 61 68 75 70 96 71 63 72 47 73 48 74 56 75
REMARK SMILES IDX 49 76 50 77 54 78 57 79 51 80 52 81 55 82 53 83 79 84 80 85
REMARK SMILES IDX 88 86 81 87 82 88 86 89 89 90 83 91 84 92 87 93 85 94 64 95
REMARK SMILES IDX 65 96 73 97 66 98 67 99 71 100 74 101 68 102 69 103 72 104
REMARK SMILES IDX 70 105
REMARK H PARENT 11 24 94 58 62 69
REMARK Flexibility Score: inf
ROOT
ATOM      1  C   UNL     1       1.418   2.730  -5.221  1.00  0.00     0.188 C 
ENDROOT
BRANCH   1   2
ATOM      2  C   UNL     1       2.704   3.237  -5.909  1.00  0.00     0.188 C 
BRANCH   2   3
ATOM      3  O   UNL     1       3.183   2.378  -6.927  1.00  0.00    -0.376 OA
BRANCH   3   4
ATOM      4  C   UNL     1       4.370   1.646  -6.706  1.00  0.00     0.202 C 
BRANCH   4   5
ATOM      5  C   UNL     1       4.401   0.646  -5.545  1.00  0.00     0.261 C 
BRANCH   5   6
ATOM      6  O   UNL     1       3.858   1.094  -4.296  1.00  0.00    -0.460 OA
BRANCH   6   7
ATOM      7  C   UNL     1       4.552   2.019  -3.595  1.00  0.00     0.340 C 
ATOM      8  O   UNL     1       5.593   2.552  -3.940  1.00  0.00    -0.246 OA
BRANCH   7   9
ATOM      9  C   UNL     1       3.756   2.431  -2.405  1.00  0.00     0.085 A 
ATOM     10  C   UNL     1       2.134   1.787  -0.692  1.00  0.00     0.038 A 
ATOM     11  C   UNL     1       2.198   3.086  -0.200  1.00  0.00     0.028 A 
ATOM     12  C   UNL     1       2.965   1.462  -1.766  1.00  0.00     0.043 A 
ATOM     13  C   UNL     1       2.988   4.061  -0.821  1.00  0.00     0.029 A 
ATOM     14  C   UNL     1       3.692   3.779  -1.990  1.00  0.00     0.055 A 
BRANCH  10  15
ATOM     15  N   UNL     1       1.286   0.841  -0.164  1.00  0.00    -0.371 N 
ATOM     16  C   UNL     1      -2.448   0.151   0.104  1.00  0.00     0.009 C 
ATOM     17  C   UNL     1      -0.992  -0.042  -0.316  1.00  0.00     0.005 C 
ATOM     18  C   UNL     1      -0.456  -1.381   0.220  1.00  0.00     0.007 C 
ATOM     19  C   UNL     1      -0.113   1.138   0.146  1.00  0.00     0.119 C 
ATOM     20  C   UNL     1       1.019  -1.568  -0.131  1.00  0.00     0.022 C 
ATOM     21  C   UNL     1       1.847  -0.393   0.370  1.00  0.00     0.116 C 
ENDBRANCH  10  15
BRANCH  14  22
ATOM     22  N   UNL     1       4.212   4.781  -2.841  1.00  0.00    -0.325 N 
ATOM     23  C   UNL     1       3.920   6.102  -3.039  1.00  0.00     0.229 C 
ATOM     24  H   UNL     1       4.942   4.457  -3.417  1.00  0.00     0.169 HD
ATOM     25  O   UNL     1       4.411   6.622  -4.051  1.00  0.00    -0.274 OA
BRANCH  23  26
ATOM     26  C   UNL     1       3.083   6.953  -2.108  1.00  0.00     0.147 C 
BRANCH  26  27
ATOM     27  C   UNL     1       1.588   6.777  -2.209  1.00  0.00     0.014 A 
ATOM     28  C   UNL     1       0.805   5.694  -2.567  1.00  0.00     0.016 A 
ATOM     29  S   UNL     1       0.591   8.102  -1.730  1.00  0.00    -0.148 S 
ATOM     30  C   UNL     1      -0.590   5.925  -2.375  1.00  0.00     0.012 A 
ATOM     31  C   UNL     1      -0.844   7.203  -1.939  1.00  0.00     0.065 A 
ENDBRANCH  26  27
ENDBRANCH  23  26
ENDBRANCH  14  22
ENDBRANCH   7   9
ENDBRANCH   6   7
ENDBRANCH   5   6
ENDBRANCH   4   5
ENDBRANCH   3   4
ENDBRANCH   2   3
ENDBRANCH   1   2
BRANCH   1  32
ATOM     32  O   UNL     1       0.900   1.446  -5.545  1.00  0.00    -0.377 OA
BRANCH  32  33
ATOM     33  C   UNL     1       0.865   1.007  -6.899  1.00  0.00     0.188 C 
BRANCH  33  34
ATOM     34  C   UNL     1       0.733   2.010  -8.071  1.00  0.00     0.188 C 
BRANCH  34  35
ATOM     35  O   UNL     1       0.545   3.354  -7.669  1.00  0.00    -0.376 OA
BRANCH  35  36
ATOM     36  C   UNL     1      -0.726   3.940  -7.862  1.00  0.00     0.202 C 
BRANCH  36  37
ATOM     37  C   UNL     1      -1.910   3.312  -7.116  1.00  0.00     0.261 C 
BRANCH  37  38
ATOM     38  O   UNL     1      -2.062   1.890  -7.245  1.00  0.00    -0.460 OA
BRANCH  38  39
ATOM     39  C   UNL     1      -2.412   1.410  -8.455  1.00  0.00     0.338 C 
ATOM     40  O   UNL     1      -2.619   2.049  -9.475  1.00  0.00    -0.246 OA
BRANCH  39  41
ATOM     41  C   UNL     1      -2.329  -0.063  -8.389  1.00  0.00     0.060 A 
ATOM     42  C   UNL     1      -1.423  -0.740  -9.217  1.00  0.00     0.016 A 
ATOM     43  C   UNL     1      -3.139  -0.770  -7.498  1.00  0.00     0.016 A 
ATOM     44  C   UNL     1      -1.347  -2.133  -9.176  1.00  0.00     0.010 A 
ATOM     45  C   UNL     1      -3.080  -2.164  -7.475  1.00  0.00     0.010 A 
ATOM     46  C   UNL     1      -2.208  -2.853  -8.339  1.00  0.00    -0.014 A 
BRANCH  46  47
ATOM     47  C   UNL     1      -2.356  -4.318  -8.514  1.00  0.00     0.031 A 
ATOM     48  C   UNL     1      -3.511  -4.818  -9.337  1.00  0.00     0.074 A 
ATOM     49  C   UNL     1      -1.487  -5.186  -7.968  1.00  0.00     0.049 A 
ATOM     50  N   UNL     1      -3.901  -6.044  -9.572  1.00  0.00    -0.248 NA
ATOM     51  C   UNL     1      -4.345  -3.788  -9.980  1.00  0.00     0.031 C 
ATOM     52  C   UNL     1      -0.305  -4.824  -7.192  1.00  0.00     0.029 A 
ATOM     53  N   UNL     1      -1.480  -6.559  -7.978  1.00  0.00    -0.354 N 
ATOM     54  C   UNL     1      -5.026  -5.932 -10.379  1.00  0.00     0.074 A 
ATOM     55  C   UNL     1      -5.278  -4.520 -10.566  1.00  0.00     0.031 C 
ATOM     56  C   UNL     1       0.309  -5.950  -6.785  1.00  0.00     0.029 A 
ATOM     57  C   UNL     1      -0.460  -7.108  -7.240  1.00  0.00     0.049 A 
ATOM     58  H   UNL     1      -2.142  -7.099  -8.467  1.00  0.00     0.167 HD
ATOM     59  C   UNL     1      -5.776  -6.919 -10.923  1.00  0.00     0.037 A 
ATOM     60  C   UNL     1      -0.200  -8.398  -6.945  1.00  0.00     0.037 A 
ATOM     61  C   UNL     1      -5.524  -8.322 -10.730  1.00  0.00     0.049 A 
ATOM     62  C   UNL     1      -1.103  -9.477  -7.491  1.00  0.00     0.074 A 
ATOM     63  C   UNL     1      -6.218  -9.402 -11.247  1.00  0.00     0.029 A 
ATOM     64  N   UNL     1      -4.500  -8.840  -9.950  1.00  0.00    -0.354 N 
ATOM     65  N   UNL     1      -2.152  -9.368  -8.271  1.00  0.00    -0.248 NA
ATOM     66  C   UNL     1      -0.783 -10.862  -7.115  1.00  0.00     0.031 C 
ATOM     67  C   UNL     1      -5.654 -10.571 -10.728  1.00  0.00     0.029 A 
ATOM     68  C   UNL     1      -4.563 -10.224  -9.947  1.00  0.00     0.049 A 
ATOM     69  H   UNL     1      -3.829  -8.303  -9.470  1.00  0.00     0.167 HD
ATOM     70  C   UNL     1      -2.592 -10.665  -8.508  1.00  0.00     0.074 A 
ATOM     71  C   UNL     1      -1.689 -11.546  -7.799  1.00  0.00     0.031 C 
ATOM     72  C   UNL     1      -3.648 -11.089  -9.247  1.00  0.00     0.037 A 
BRANCH  59  73
ATOM     73  C   UNL     1      -6.962  -6.514 -11.750  1.00  0.00     0.064 A 
ATOM     74  C   UNL     1      -6.817  -5.901 -13.004  1.00  0.00     0.173 A 
ATOM     75  C   UNL     1      -8.264  -6.770 -11.293  1.00  0.00     0.173 A 
ATOM     76  F   UNL     1      -5.595  -5.619 -13.480  1.00  0.00    -0.203 F 
ATOM     77  C   UNL     1      -7.930  -5.536 -13.757  1.00  0.00     0.198 A 
ATOM     78  C   UNL     1      -9.374  -6.435 -12.063  1.00  0.00     0.198 A 
ATOM     79  F   UNL     1      -8.461  -7.355 -10.101  1.00  0.00    -0.203 F 
ATOM     80  F   UNL     1      -7.768  -4.905 -14.928  1.00  0.00    -0.200 F 
ATOM     81  C   UNL     1      -9.207  -5.811 -13.290  1.00  0.00     0.200 A 
ATOM     82  F   UNL     1     -10.606  -6.715 -11.617  1.00  0.00    -0.200 F 
ATOM     83  F   UNL     1     -10.277  -5.468 -14.020  1.00  0.00    -0.200 F 
ENDBRANCH  59  73
BRANCH  60  84
ATOM     84  C   UNL     1       0.955  -8.749  -6.074  1.00  0.00     0.064 A 
ATOM     85  C   UNL     1       2.043  -9.479  -6.572  1.00  0.00     0.173 A 
ATOM     86  C   UNL     1       0.977  -8.396  -4.716  1.00  0.00     0.173 A 
ATOM     87  F   UNL     1       2.058  -9.865  -7.857  1.00  0.00    -0.203 F 
ATOM     88  C   UNL     1       3.094  -9.864  -5.742  1.00  0.00     0.198 A 
ATOM     89  C   UNL     1       2.045  -8.752  -3.895  1.00  0.00     0.198 A 
ATOM     90  F   UNL     1      -0.041  -7.702  -4.185  1.00  0.00    -0.203 F 
ATOM     91  F   UNL     1       4.092 -10.613  -6.232  1.00  0.00    -0.200 F 
ATOM     92  C   UNL     1       3.097  -9.496  -4.406  1.00  0.00     0.200 A 
ATOM     93  F   UNL     1       2.049  -8.383  -2.607  1.00  0.00    -0.200 F 
ATOM     94  F   UNL     1       4.108  -9.866  -3.608  1.00  0.00    -0.200 F 
ENDBRANCH  60  84
BRANCH  72  95
ATOM     95  C   UNL     1      -3.857 -12.573  -9.374  1.00  0.00     0.064 A 
ATOM     96  C   UNL     1      -4.284 -13.358  -8.293  1.00  0.00     0.173 A 
ATOM     97  C   UNL     1      -3.673 -13.209 -10.612  1.00  0.00     0.173 A 
ATOM     98  F   UNL     1      -4.464 -12.803  -7.085  1.00  0.00    -0.203 F 
ATOM     99  C   UNL     1      -4.487 -14.729  -8.439  1.00  0.00     0.198 A 
ATOM    100  C   UNL     1      -3.913 -14.572 -10.763  1.00  0.00     0.198 A 
ATOM    101  F   UNL     1      -3.276 -12.505 -11.682  1.00  0.00    -0.203 F 
ATOM    102  F   UNL     1      -4.842 -15.468  -7.378  1.00  0.00    -0.200 F 
ATOM    103  C   UNL     1      -4.310 -15.332  -9.675  1.00  0.00     0.200 A 
ATOM    104  F   UNL     1      -3.760 -15.149 -11.963  1.00  0.00    -0.200 F 
ATOM    105  F   UNL     1      -4.517 -16.649  -9.815  1.00  0.00    -0.200 F 
ENDBRANCH  72  95
ENDBRANCH  46  47
ENDBRANCH  39  41
ENDBRANCH  38  39
ENDBRANCH  37  38
ENDBRANCH  36  37
ENDBRANCH  35  36
ENDBRANCH  34  35
ENDBRANCH  33  34
ENDBRANCH  32  33
ENDBRANCH   1  32
TORSDOF 24
