REMARK SMILES CC1(C)CCN(C(=O)N[C@](C)(C(=O)OCCOCCOCCOCCOC(=O)c2ccc(-c3c4nc(c(-c5c(F)c(F)c(F)c(F)c5F)c5ccc([nH]5)c(-c5c(F)c(F)c(F)c(F)c5F)c5nc(c(-c6c(F)c(F)c(F)c(F)c6F)c6ccc3[nH]6)C=C5)C=C4)cc2)c2ccccc2)C1
REMARK SMILES IDX 20 1 19 2 18 3 17 4 16 5 15 6 14 7 12 8 13 9 10 10 11 11
REMARK SMILES IDX 9 12 7 13 8 14 6 16 1 17 2 18 3 19 4 20 98 21 5 22 92 23
REMARK SMILES IDX 93 24 97 25 94 26 96 27 95 28 21 29 22 30 23 31 24 32 25 33
REMARK SMILES IDX 26 34 27 35 28 36 29 37 30 38 91 39 31 40 90 41 32 42 33 43
REMARK SMILES IDX 34 44 84 45 35 46 89 47 83 48 85 49 36 50 88 51 82 52 81 53
REMARK SMILES IDX 37 55 69 56 49 57 68 58 50 59 53 60 67 61 86 62 51 63 52 64
REMARK SMILES IDX 66 66 87 67 54 68 38 69 39 70 47 71 40 72 41 73 45 74 48 75
REMARK SMILES IDX 42 76 43 77 46 78 44 79 70 80 71 81 79 82 72 83 73 84 77 85
REMARK SMILES IDX 80 86 74 87 75 88 78 89 76 90 55 91 56 92 64 93 57 94 58 95
REMARK SMILES IDX 62 96 65 97 59 98 60 99 63 100 61 101
REMARK H PARENT 9 15 85 54 53 65
REMARK Flexibility Score: inf
ROOT
ATOM      1  O   UNL     1       2.328   4.396  -3.641  1.00  0.00    -0.377 OA
ENDROOT
BRANCH   1   2
ATOM      2  C   UNL     1       1.411   3.428  -3.173  1.00  0.00     0.188 C 
BRANCH   2   3
ATOM      3  C   UNL     1      -0.070   3.806  -3.328  1.00  0.00     0.188 C 
BRANCH   3   4
ATOM      4  O   UNL     1      -0.253   4.943  -4.153  1.00  0.00    -0.376 OA
BRANCH   4   5
ATOM      5  C   UNL     1      -0.399   6.200  -3.511  1.00  0.00     0.202 C 
BRANCH   5   6
ATOM      6  C   UNL     1       0.419   6.610  -2.261  1.00  0.00     0.261 C 
BRANCH   6   7
ATOM      7  O   UNL     1       0.935   5.545  -1.443  1.00  0.00    -0.461 OA
BRANCH   7   8
ATOM      8  C   UNL     1       0.442   5.337  -0.189  1.00  0.00     0.336 C 
ATOM      9  O   UNL     1      -0.437   6.034   0.303  1.00  0.00    -0.249 OA
BRANCH   8  10
ATOM     10  C   UNL     1       1.043   4.005   0.466  1.00  0.00     0.162 C 
ATOM     11  C   UNL     1       2.590   4.010   0.188  1.00  0.00     0.053 C 
BRANCH  10  12
ATOM     12  N   UNL     1       0.945   4.122   1.948  1.00  0.00    -0.318 N 
ATOM     13  C   UNL     1      -0.135   4.173   2.749  1.00  0.00     0.318 C 
ATOM     14  O   UNL     1      -0.241   5.196   3.432  1.00  0.00    -0.249 OA
ATOM     15  H   UNL     1       1.809   4.171   2.416  1.00  0.00     0.166 HD
BRANCH  13  16
ATOM     16  N   UNL     1      -0.969   3.110   2.918  1.00  0.00    -0.324 N 
ATOM     17  C   UNL     1      -1.564  -0.238   4.010  1.00  0.00     0.013 C 
ATOM     18  C   UNL     1      -1.970   0.932   3.112  1.00  0.00    -0.016 C 
ATOM     19  C   UNL     1      -2.760   0.359   1.923  1.00  0.00     0.013 C 
ATOM     20  C   UNL     1      -2.850   1.982   3.817  1.00  0.00     0.030 C 
ATOM     21  C   UNL     1      -0.699   1.701   2.706  1.00  0.00     0.127 C 
ATOM     22  C   UNL     1      -2.015   3.245   3.905  1.00  0.00     0.122 C 
ENDBRANCH  13  16
ENDBRANCH  10  12
BRANCH  10  23
ATOM     23  C   UNL     1       0.318   2.763  -0.090  1.00  0.00    -0.012 A 
ATOM     24  C   UNL     1      -1.067   2.822  -0.366  1.00  0.00     0.007 A 
ATOM     25  C   UNL     1       0.968   1.533  -0.338  1.00  0.00     0.007 A 
ATOM     26  C   UNL     1      -1.743   1.746  -0.951  1.00  0.00     0.000 A 
ATOM     27  C   UNL     1       0.280   0.445  -0.892  1.00  0.00     0.000 A 
ATOM     28  C   UNL     1      -1.070   0.558  -1.212  1.00  0.00     0.000 A 
ENDBRANCH  10  23
ENDBRANCH   8  10
ENDBRANCH   7   8
ENDBRANCH   6   7
ENDBRANCH   5   6
ENDBRANCH   4   5
ENDBRANCH   3   4
ENDBRANCH   2   3
ENDBRANCH   1   2
BRANCH   1  29
ATOM     29  C   UNL     1       2.395   4.604  -5.044  1.00  0.00     0.188 C 
BRANCH  29  30
ATOM     30  C   UNL     1       1.518   3.809  -6.048  1.00  0.00     0.188 C 
BRANCH  30  31
ATOM     31  O   UNL     1       1.063   2.540  -5.605  1.00  0.00    -0.376 OA
BRANCH  31  32
ATOM     32  C   UNL     1       1.707   1.371  -6.076  1.00  0.00     0.202 C 
BRANCH  32  33
ATOM     33  C   UNL     1       3.168   1.144  -5.661  1.00  0.00     0.261 C 
BRANCH  33  34
ATOM     34  O   UNL     1       4.073   2.228  -5.906  1.00  0.00    -0.460 OA
BRANCH  34  35
ATOM     35  C   UNL     1       4.279   2.587  -7.196  1.00  0.00     0.338 C 
ATOM     36  O   UNL     1       3.806   2.080  -8.186  1.00  0.00    -0.246 OA
BRANCH  35  37
ATOM     37  C   UNL     1       5.040   3.859  -7.175  1.00  0.00     0.060 A 
ATOM     38  C   UNL     1       4.454   5.010  -7.723  1.00  0.00     0.016 A 
ATOM     39  C   UNL     1       6.292   3.926  -6.560  1.00  0.00     0.016 A 
ATOM     40  C   UNL     1       5.130   6.229  -7.676  1.00  0.00     0.010 A 
ATOM     41  C   UNL     1       6.987   5.137  -6.552  1.00  0.00     0.010 A 
ATOM     42  C   UNL     1       6.422   6.284  -7.140  1.00  0.00    -0.014 A 
BRANCH  42  43
ATOM     43  C   UNL     1       7.282   7.453  -7.439  1.00  0.00     0.031 A 
ATOM     44  C   UNL     1       8.189   7.351  -8.636  1.00  0.00     0.074 A 
ATOM     45  C   UNL     1       7.248   8.576  -6.702  1.00  0.00     0.049 A 
ATOM     46  N   UNL     1       9.101   8.184  -9.066  1.00  0.00    -0.248 NA
ATOM     47  C   UNL     1       8.045   6.138  -9.461  1.00  0.00     0.031 C 
ATOM     48  C   UNL     1       6.369   8.818  -5.561  1.00  0.00     0.029 A 
ATOM     49  N   UNL     1       7.993   9.726  -6.805  1.00  0.00    -0.354 N 
ATOM     50  C   UNL     1       9.634   7.596 -10.206  1.00  0.00     0.074 A 
ATOM     51  C   UNL     1       8.975   6.322 -10.383  1.00  0.00     0.031 C 
ATOM     52  C   UNL     1       6.640  10.035  -5.054  1.00  0.00     0.029 A 
ATOM     53  C   UNL     1       7.736  10.639  -5.811  1.00  0.00     0.049 A 
ATOM     54  H   UNL     1       8.648   9.881  -7.523  1.00  0.00     0.167 HD
ATOM     55  C   UNL     1      10.580   8.083 -11.040  1.00  0.00     0.037 A 
ATOM     56  C   UNL     1       8.346  11.809  -5.533  1.00  0.00     0.037 A 
ATOM     57  C   UNL     1      11.241   9.346 -10.857  1.00  0.00     0.049 A 
ATOM     58  C   UNL     1       9.479  12.277  -6.420  1.00  0.00     0.074 A 
ATOM     59  C   UNL     1      12.232   9.921 -11.632  1.00  0.00     0.029 A 
ATOM     60  N   UNL     1      10.976  10.229  -9.822  1.00  0.00    -0.354 N 
ATOM     61  N   UNL     1       9.976  11.721  -7.499  1.00  0.00    -0.248 NA
ATOM     62  C   UNL     1      10.134  13.540  -6.048  1.00  0.00     0.031 C 
ATOM     63  C   UNL     1      12.601  11.130 -11.038  1.00  0.00     0.029 A 
ATOM     64  C   UNL     1      11.795  11.339  -9.930  1.00  0.00     0.049 A 
ATOM     65  H   UNL     1      10.305  10.087  -9.115  1.00  0.00     0.167 HD
ATOM     66  C   UNL     1      10.962  12.588  -7.958  1.00  0.00     0.074 A 
ATOM     67  C   UNL     1      10.987  13.711  -7.047  1.00  0.00     0.031 C 
ATOM     68  C   UNL     1      11.777  12.466  -9.035  1.00  0.00     0.037 A 
BRANCH  55  69
ATOM     69  C   UNL     1      10.969   7.243 -12.220  1.00  0.00     0.064 A 
ATOM     70  C   UNL     1      10.105   7.067 -13.311  1.00  0.00     0.173 A 
ATOM     71  C   UNL     1      12.240   6.655 -12.286  1.00  0.00     0.173 A 
ATOM     72  F   UNL     1       8.870   7.592 -13.287  1.00  0.00    -0.203 F 
ATOM     73  C   UNL     1      10.496   6.324 -14.421  1.00  0.00     0.198 A 
ATOM     74  C   UNL     1      12.640   5.938 -13.410  1.00  0.00     0.198 A 
ATOM     75  F   UNL     1      13.103   6.791 -11.267  1.00  0.00    -0.203 F 
ATOM     76  F   UNL     1       9.642   6.138 -15.436  1.00  0.00    -0.200 F 
ATOM     77  C   UNL     1      11.767   5.770 -14.475  1.00  0.00     0.200 A 
ATOM     78  F   UNL     1      13.872   5.415 -13.466  1.00  0.00    -0.200 F 
ATOM     79  F   UNL     1      12.150   5.072 -15.552  1.00  0.00    -0.200 F 
ENDBRANCH  55  69
BRANCH  56  80
ATOM     80  C   UNL     1       7.942  12.619  -4.350  1.00  0.00     0.064 A 
ATOM     81  C   UNL     1       7.419  13.912  -4.500  1.00  0.00     0.173 A 
ATOM     82  C   UNL     1       8.152  12.153  -3.043  1.00  0.00     0.173 A 
ATOM     83  F   UNL     1       7.224  14.418  -5.727  1.00  0.00    -0.203 F 
ATOM     84  C   UNL     1       7.167  14.723  -3.393  1.00  0.00     0.198 A 
ATOM     85  C   UNL     1       7.863  12.950  -1.937  1.00  0.00     0.198 A 
ATOM     86  F   UNL     1       8.653  10.927  -2.839  1.00  0.00    -0.203 F 
ATOM     87  F   UNL     1       6.747  15.983  -3.571  1.00  0.00    -0.200 F 
ATOM     88  C   UNL     1       7.387  14.240  -2.112  1.00  0.00     0.200 A 
ATOM     89  F   UNL     1       8.067  12.475  -0.701  1.00  0.00    -0.200 F 
ATOM     90  F   UNL     1       7.160  15.024  -1.050  1.00  0.00    -0.200 F 
ENDBRANCH  56  80
BRANCH  68  91
ATOM     91  C   UNL     1      12.709  13.605  -9.339  1.00  0.00     0.064 A 
ATOM     92  C   UNL     1      13.819  13.894  -8.533  1.00  0.00     0.173 A 
ATOM     93  C   UNL     1      12.513  14.386 -10.490  1.00  0.00     0.173 A 
ATOM     94  F   UNL     1      14.046  13.185  -7.416  1.00  0.00    -0.203 F 
ATOM     95  C   UNL     1      14.681  14.941  -8.851  1.00  0.00     0.198 A 
ATOM     96  C   UNL     1      13.398  15.407 -10.825  1.00  0.00     0.198 A 
ATOM     97  F   UNL     1      11.474  14.144 -11.303  1.00  0.00    -0.203 F 
ATOM     98  F   UNL     1      15.706  15.232  -8.037  1.00  0.00    -0.200 F 
ATOM     99  C   UNL     1      14.475  15.690 -10.000  1.00  0.00     0.200 A 
ATOM    100  F   UNL     1      13.208  16.115 -11.946  1.00  0.00    -0.200 F 
ATOM    101  F   UNL     1      15.313  16.688 -10.310  1.00  0.00    -0.200 F 
ENDBRANCH  68  91
ENDBRANCH  42  43
ENDBRANCH  35  37
ENDBRANCH  34  35
ENDBRANCH  33  34
ENDBRANCH  32  33
ENDBRANCH  31  32
ENDBRANCH  30  31
ENDBRANCH  29  30
ENDBRANCH   1  29
TORSDOF 23
