REMARK SMILES Cc1noc(C)c1[C@H](C)NC(=O)NC[C@@](C)(O)C(=O)OCCOCCOCCOCCOC(=O)c1ccc(-c2c3nc(c(-c4c(F)c(F)c(F)c(F)c4F)c4ccc([nH]4)c(-c4c(F)c(F)c(F)c(F)c4F)c4nc(c(-c5c(F)c(F)c(F)c(F)c5F)c5ccc2[nH]5)C=C4)C=C3)cc1
REMARK SMILES IDX 25 1 24 2 23 3 22 4 21 5 20 6 18 7 19 8 15 9 16 10 14 11
REMARK SMILES IDX 13 12 10 13 11 14 12 16 8 18 9 19 7 20 1 21 2 22 3 23 4 24
REMARK SMILES IDX 5 25 6 26 17 27 26 29 27 30 28 31 29 32 30 33 31 34 32 35
REMARK SMILES IDX 33 36 34 37 35 38 36 39 97 40 37 41 96 42 38 43 39 44 40 45
REMARK SMILES IDX 90 46 41 47 95 48 89 49 91 50 42 51 94 52 88 53 87 54 43 56
REMARK SMILES IDX 75 57 55 58 74 59 56 60 59 61 73 62 92 63 57 64 58 65 72 67
REMARK SMILES IDX 93 68 60 69 44 70 45 71 53 72 46 73 47 74 51 75 54 76 48 77
REMARK SMILES IDX 49 78 52 79 50 80 76 81 77 82 85 83 78 84 79 85 83 86 86 87
REMARK SMILES IDX 80 88 81 89 84 90 82 91 61 92 62 93 70 94 63 95 64 96 68 97
REMARK SMILES IDX 71 98 65 99 66 100 69 101 67 102
REMARK H PARENT 10 15 13 17 17 28 91 55 59 66
REMARK Flexibility Score: inf
ROOT
ATOM      1  C   UNL     1       1.743   5.275  -2.706  1.00  0.00     0.188 C 
ENDROOT
BRANCH   1   2
ATOM      2  C   UNL     1       0.516   5.213  -1.799  1.00  0.00     0.188 C 
BRANCH   2   3
ATOM      3  O   UNL     1      -0.438   6.259  -1.794  1.00  0.00    -0.376 OA
BRANCH   3   4
ATOM      4  C   UNL     1      -0.097   7.625  -1.677  1.00  0.00     0.202 C 
BRANCH   4   5
ATOM      5  C   UNL     1       1.010   8.111  -0.737  1.00  0.00     0.261 C 
BRANCH   5   6
ATOM      6  O   UNL     1       2.043   7.154  -0.511  1.00  0.00    -0.461 OA
BRANCH   6   7
ATOM      7  C   UNL     1       2.122   6.630   0.744  1.00  0.00     0.339 C 
ATOM      8  O   UNL     1       1.471   7.029   1.702  1.00  0.00    -0.249 OA
BRANCH   7   9
ATOM      9  C   UNL     1       3.156   5.477   0.815  1.00  0.00     0.176 C 
ATOM     10  C   UNL     1       4.242   5.945   1.785  1.00  0.00     0.057 C 
BRANCH   9  11
ATOM     11  C   UNL     1       2.489   4.137   1.245  1.00  0.00     0.164 C 
BRANCH  11  12
ATOM     12  N   UNL     1       1.464   4.228   2.269  1.00  0.00    -0.335 N 
ATOM     13  N   UNL     1      -0.449   2.937   1.686  1.00  0.00    -0.331 N 
ATOM     14  C   UNL     1       0.266   3.697   2.513  1.00  0.00     0.315 C 
ATOM     15  H   UNL     1      -1.274   2.615   2.117  1.00  0.00     0.165 HD
ATOM     16  O   UNL     1      -0.238   3.947   3.611  1.00  0.00    -0.249 OA
ATOM     17  H   UNL     1       1.726   4.856   2.980  1.00  0.00     0.165 HD
BRANCH  13  18
ATOM     18  C   UNL     1      -0.340   2.453   0.320  1.00  0.00     0.116 C 
ATOM     19  C   UNL     1       0.032   0.973   0.358  1.00  0.00     0.036 C 
BRANCH  18  20
ATOM     20  C   UNL     1      -1.627   2.765  -0.409  1.00  0.00     0.040 A 
ATOM     21  C   UNL     1      -2.231   5.169   0.522  1.00  0.00     0.071 C 
ATOM     22  C   UNL     1      -2.430   3.954  -0.308  1.00  0.00     0.086 A 
ATOM     23  N   UNL     1      -3.494   3.904  -1.116  1.00  0.00    -0.085 NA
ATOM     24  O   UNL     1      -3.386   2.725  -1.808  1.00  0.00    -0.361 OA
ATOM     25  C   UNL     1      -2.274   2.055  -1.411  1.00  0.00     0.139 A 
ATOM     26  C   UNL     1      -2.042   0.790  -2.137  1.00  0.00     0.091 C 
ENDBRANCH  18  20
ENDBRANCH  13  18
ENDBRANCH  11  12
ENDBRANCH   9  11
BRANCH   9  27
ATOM     27  O   UNL     1       3.808   5.229  -0.443  1.00  0.00    -0.377 OA
ATOM     28  H   UNL     1       4.442   4.502  -0.340  1.00  0.00     0.212 HD
ENDBRANCH   9  27
ENDBRANCH   7   9
ENDBRANCH   6   7
ENDBRANCH   5   6
ENDBRANCH   4   5
ENDBRANCH   3   4
ENDBRANCH   2   3
ENDBRANCH   1   2
BRANCH   1  29
ATOM     29  O   UNL     1       1.453   4.993  -4.064  1.00  0.00    -0.377 OA
BRANCH  29  30
ATOM     30  C   UNL     1       0.640   5.965  -4.688  1.00  0.00     0.188 C 
BRANCH  30  31
ATOM     31  C   UNL     1      -0.864   5.636  -4.779  1.00  0.00     0.188 C 
BRANCH  31  32
ATOM     32  O   UNL     1      -1.382   4.320  -4.946  1.00  0.00    -0.376 OA
BRANCH  32  33
ATOM     33  C   UNL     1      -0.544   3.183  -4.910  1.00  0.00     0.202 C 
BRANCH  33  34
ATOM     34  C   UNL     1       0.099   2.831  -6.255  1.00  0.00     0.261 C 
BRANCH  34  35
ATOM     35  O   UNL     1       0.711   3.948  -6.908  1.00  0.00    -0.460 OA
BRANCH  35  36
ATOM     36  C   UNL     1      -0.080   4.637  -7.767  1.00  0.00     0.338 C 
ATOM     37  O   UNL     1      -1.209   4.361  -8.135  1.00  0.00    -0.246 OA
BRANCH  36  38
ATOM     38  C   UNL     1       0.595   5.913  -8.084  1.00  0.00     0.060 A 
ATOM     39  C   UNL     1      -0.145   7.104  -7.996  1.00  0.00     0.016 A 
ATOM     40  C   UNL     1       1.962   5.946  -8.376  1.00  0.00     0.016 A 
ATOM     41  C   UNL     1       0.477   8.331  -8.222  1.00  0.00     0.010 A 
ATOM     42  C   UNL     1       2.575   7.168  -8.642  1.00  0.00     0.010 A 
ATOM     43  C   UNL     1       1.823   8.356  -8.607  1.00  0.00    -0.014 A 
BRANCH  43  44
ATOM     44  C   UNL     1       2.363   9.538  -9.312  1.00  0.00     0.031 A 
ATOM     45  C   UNL     1       2.189   9.555 -10.806  1.00  0.00     0.074 A 
ATOM     46  C   UNL     1       3.030  10.512  -8.674  1.00  0.00     0.049 A 
ATOM     47  N   UNL     1       2.719  10.347 -11.698  1.00  0.00    -0.248 NA
ATOM     48  C   UNL     1       1.307   8.516 -11.371  1.00  0.00     0.031 C 
ATOM     49  C   UNL     1       3.214  10.612  -7.228  1.00  0.00     0.029 A 
ATOM     50  N   UNL     1       3.707  11.595  -9.177  1.00  0.00    -0.354 N 
ATOM     51  C   UNL     1       2.256   9.884 -12.923  1.00  0.00     0.074 A 
ATOM     52  C   UNL     1       1.410   8.744 -12.669  1.00  0.00     0.031 C 
ATOM     53  C   UNL     1       3.988  11.680  -6.961  1.00  0.00     0.029 A 
ATOM     54  C   UNL     1       4.387  12.309  -8.220  1.00  0.00     0.049 A 
ATOM     55  H   UNL     1       3.706  11.837 -10.131  1.00  0.00     0.167 HD
ATOM     56  C   UNL     1       2.524  10.368 -14.155  1.00  0.00     0.037 A 
ATOM     57  C   UNL     1       5.263  13.324  -8.365  1.00  0.00     0.037 A 
ATOM     58  C   UNL     1       3.370  11.501 -14.394  1.00  0.00     0.049 A 
ATOM     59  C   UNL     1       5.585  13.815  -9.758  1.00  0.00     0.074 A 
ATOM     60  C   UNL     1       3.706  12.088 -15.599  1.00  0.00     0.029 A 
ATOM     61  N   UNL     1       4.019  12.214 -13.397  1.00  0.00    -0.354 N 
ATOM     62  N   UNL     1       5.130  13.390 -10.913  1.00  0.00    -0.248 NA
ATOM     63  C   UNL     1       6.545  14.923  -9.869  1.00  0.00     0.031 C 
ATOM     64  C   UNL     1       4.597  13.130 -15.334  1.00  0.00     0.029 A 
ATOM     65  C   UNL     1       4.768  13.228 -13.961  1.00  0.00     0.049 A 
ATOM     66  H   UNL     1       3.955  12.025 -12.433  1.00  0.00     0.167 HD
ATOM     67  C   UNL     1       5.711  14.203 -11.878  1.00  0.00     0.074 A 
ATOM     68  C   UNL     1       6.554  15.146 -11.176  1.00  0.00     0.031 C 
ATOM     69  C   UNL     1       5.561  14.177 -13.225  1.00  0.00     0.037 A 
BRANCH  56  70
ATOM     70  C   UNL     1       1.929   9.653 -15.329  1.00  0.00     0.064 A 
ATOM     71  C   UNL     1       0.560   9.728 -15.623  1.00  0.00     0.173 A 
ATOM     72  C   UNL     1       2.749   8.908 -16.189  1.00  0.00     0.173 A 
ATOM     73  F   UNL     1      -0.268  10.406 -14.815  1.00  0.00    -0.203 F 
ATOM     74  C   UNL     1       0.032   9.072 -16.732  1.00  0.00     0.198 A 
ATOM     75  C   UNL     1       2.222   8.277 -17.312  1.00  0.00     0.198 A 
ATOM     76  F   UNL     1       4.064   8.799 -15.945  1.00  0.00    -0.203 F 
ATOM     77  F   UNL     1      -1.285   9.125 -16.974  1.00  0.00    -0.200 F 
ATOM     78  C   UNL     1       0.864   8.357 -17.581  1.00  0.00     0.200 A 
ATOM     79  F   UNL     1       3.029   7.593 -18.135  1.00  0.00    -0.200 F 
ATOM     80  F   UNL     1       0.356   7.739 -18.656  1.00  0.00    -0.200 F 
ENDBRANCH  56  70
BRANCH  57  81
ATOM     81  C   UNL     1       5.930  13.924  -7.178  1.00  0.00     0.064 A 
ATOM     82  C   UNL     1       5.687  15.254  -6.804  1.00  0.00     0.173 A 
ATOM     83  C   UNL     1       6.863  13.199  -6.421  1.00  0.00     0.173 A 
ATOM     84  F   UNL     1       4.824  16.000  -7.509  1.00  0.00    -0.203 F 
ATOM     85  C   UNL     1       6.372  15.843  -5.742  1.00  0.00     0.198 A 
ATOM     86  C   UNL     1       7.524  13.779  -5.339  1.00  0.00     0.198 A 
ATOM     87  F   UNL     1       7.137  11.924  -6.734  1.00  0.00    -0.203 F 
ATOM     88  F   UNL     1       6.164  17.133  -5.446  1.00  0.00    -0.200 F 
ATOM     89  C   UNL     1       7.287  15.104  -5.008  1.00  0.00     0.200 A 
ATOM     90  F   UNL     1       8.400  13.057  -4.626  1.00  0.00    -0.200 F 
ATOM     91  F   UNL     1       7.949  15.672  -3.991  1.00  0.00    -0.200 F 
ENDBRANCH  57  81
BRANCH  69  92
ATOM     92  C   UNL     1       6.253  15.238 -14.027  1.00  0.00     0.064 A 
ATOM     93  C   UNL     1       7.633  15.204 -14.263  1.00  0.00     0.173 A 
ATOM     94  C   UNL     1       5.498  16.242 -14.654  1.00  0.00     0.173 A 
ATOM     95  F   UNL     1       8.396  14.268 -13.678  1.00  0.00    -0.203 F 
ATOM     96  C   UNL     1       8.236  16.145 -15.092  1.00  0.00     0.198 A 
ATOM     97  C   UNL     1       6.100  17.163 -15.505  1.00  0.00     0.198 A 
ATOM     98  F   UNL     1       4.171  16.306 -14.467  1.00  0.00    -0.203 F 
ATOM     99  F   UNL     1       9.562  16.113 -15.285  1.00  0.00    -0.200 F 
ATOM    100  C   UNL     1       7.468  17.115 -15.721  1.00  0.00     0.200 A 
ATOM    101  F   UNL     1       5.353  18.086 -16.126  1.00  0.00    -0.200 F 
ATOM    102  F   UNL     1       8.049  18.005 -16.538  1.00  0.00    -0.200 F 
ENDBRANCH  69  92
ENDBRANCH  43  44
ENDBRANCH  36  38
ENDBRANCH  35  36
ENDBRANCH  34  35
ENDBRANCH  33  34
ENDBRANCH  32  33
ENDBRANCH  31  32
ENDBRANCH  30  31
ENDBRANCH  29  30
ENDBRANCH   1  29
TORSDOF 25
