REMARK SMILES CC[C@@H](C)[C@H](NC(=O)N1CCn2c1nc1ccccc12)C(=O)N[C@H](C)C(=O)OCCOCCOCCOCCOC(=O)c1ccc(-c2c3nc(c(-c4c(F)c(F)c(F)c(F)c4F)c4ccc([nH]4)c(-c4c(F)c(F)c(F)c(F)c4F)c4nc(c(-c5c(F)c(F)c(F)c(F)c5F)c5ccc2[nH]5)C=C4)C=C3)cc1
REMARK SMILES IDX 33 1 32 2 31 3 30 4 29 5 28 6 26 7 27 8 24 9 25 10 23 11
REMARK SMILES IDX 21 12 22 13 5 15 3 16 4 17 2 18 1 19 6 20 7 21 8 23 9 24
REMARK SMILES IDX 10 25 13 26 11 27 12 28 14 29 20 30 15 31 19 32 16 33 18 34
REMARK SMILES IDX 17 35 34 36 35 37 36 38 37 39 38 40 39 41 40 42 41 43 42 44
REMARK SMILES IDX 43 45 44 46 105 47 45 48 104 49 46 50 47 51 48 52 98 53
REMARK SMILES IDX 49 54 103 55 97 56 99 57 50 58 102 59 96 60 95 61 51 63
REMARK SMILES IDX 83 64 63 65 82 66 64 67 67 68 81 69 100 70 65 71 66 72 80 74
REMARK SMILES IDX 101 75 68 76 52 77 53 78 61 79 54 80 55 81 59 82 62 83 56 84
REMARK SMILES IDX 57 85 60 86 58 87 84 88 85 89 93 90 86 91 87 92 91 93 94 94
REMARK SMILES IDX 88 95 89 96 92 97 90 98 69 99 70 100 78 101 71 102 72 103
REMARK SMILES IDX 76 104 79 105 73 106 74 107 77 108 75 109
REMARK H PARENT 23 14 6 22 99 62 67 73
REMARK Flexibility Score: inf
ROOT
ATOM      1  C   UNL     1       2.980   0.238  -7.114  1.00  0.00     0.188 C 
ENDROOT
BRANCH   1   2
ATOM      2  C   UNL     1       4.087   1.147  -6.573  1.00  0.00     0.188 C 
BRANCH   2   3
ATOM      3  O   UNL     1       5.318   1.250  -7.273  1.00  0.00    -0.376 OA
BRANCH   3   4
ATOM      4  C   UNL     1       6.119   0.100  -7.500  1.00  0.00     0.202 C 
BRANCH   4   5
ATOM      5  C   UNL     1       6.508  -0.833  -6.346  1.00  0.00     0.261 C 
BRANCH   5   6
ATOM      6  O   UNL     1       5.415  -1.297  -5.548  1.00  0.00    -0.462 OA
BRANCH   6   7
ATOM      7  C   UNL     1       5.332  -0.722  -4.322  1.00  0.00     0.328 C 
ATOM      8  O   UNL     1       6.049   0.199  -3.934  1.00  0.00    -0.250 OA
BRANCH   7   9
ATOM      9  C   UNL     1       4.371  -1.439  -3.391  1.00  0.00     0.189 C 
ATOM     10  C   UNL     1       2.885  -1.358  -3.675  1.00  0.00     0.043 C 
BRANCH   9  11
ATOM     11  N   UNL     1       5.086  -2.665  -3.015  1.00  0.00    -0.341 N 
ATOM     12  C   UNL     1       4.795  -3.893  -2.530  1.00  0.00     0.243 C 
ATOM     13  O   UNL     1       5.720  -4.529  -2.001  1.00  0.00    -0.273 OA
ATOM     14  H   UNL     1       6.055  -2.563  -3.156  1.00  0.00     0.164 HD
BRANCH  12  15
ATOM     15  C   UNL     1       3.507  -4.609  -2.878  1.00  0.00     0.176 C 
BRANCH  15  16
ATOM     16  C   UNL     1       3.576  -5.024  -4.423  1.00  0.00     0.018 C 
ATOM     17  C   UNL     1       4.985  -4.829  -5.055  1.00  0.00     0.010 C 
BRANCH  16  18
ATOM     18  C   UNL     1       2.534  -4.396  -5.367  1.00  0.00     0.002 C 
ATOM     19  C   UNL     1       2.434  -5.075  -6.715  1.00  0.00     0.004 C 
ENDBRANCH  16  18
ENDBRANCH  15  16
BRANCH  15  20
ATOM     20  N   UNL     1       2.249  -3.999  -2.415  1.00  0.00    -0.326 N 
ATOM     21  C   UNL     1       1.729  -3.940  -1.165  1.00  0.00     0.324 C 
ATOM     22  H   UNL     1       1.707  -3.573  -3.117  1.00  0.00     0.166 HD
ATOM     23  O   UNL     1       0.572  -4.377  -1.075  1.00  0.00    -0.248 OA
BRANCH  21  24
ATOM     24  N   UNL     1       2.328  -3.394  -0.072  1.00  0.00    -0.262 N 
ATOM     25  C   UNL     1       1.688  -3.447   1.262  1.00  0.00     0.152 C 
ATOM     26  C   UNL     1       3.427  -2.588   0.037  1.00  0.00     0.214 A 
ATOM     27  C   UNL     1       2.439  -2.419   2.138  1.00  0.00     0.148 C 
ATOM     28  N   UNL     1       3.559  -2.071   1.294  1.00  0.00    -0.308 N 
ATOM     29  N   UNL     1       4.340  -2.099  -0.727  1.00  0.00    -0.212 NA
ATOM     30  C   UNL     1       4.652  -1.268   1.366  1.00  0.00     0.070 A 
ATOM     31  C   UNL     1       5.145  -1.319   0.063  1.00  0.00     0.091 A 
ATOM     32  C   UNL     1       5.278  -0.509   2.356  1.00  0.00     0.028 A 
ATOM     33  C   UNL     1       6.300  -0.608  -0.297  1.00  0.00     0.031 A 
ATOM     34  C   UNL     1       6.443   0.189   1.981  1.00  0.00     0.002 A 
ATOM     35  C   UNL     1       6.948   0.143   0.680  1.00  0.00     0.002 A 
ENDBRANCH  21  24
ENDBRANCH  15  20
ENDBRANCH  12  15
ENDBRANCH   9  11
ENDBRANCH   7   9
ENDBRANCH   6   7
ENDBRANCH   5   6
ENDBRANCH   4   5
ENDBRANCH   3   4
ENDBRANCH   2   3
ENDBRANCH   1   2
BRANCH   1  36
ATOM     36  O   UNL     1       3.289  -1.146  -7.158  1.00  0.00    -0.377 OA
BRANCH  36  37
ATOM     37  C   UNL     1       3.488  -1.781  -8.418  1.00  0.00     0.188 C 
BRANCH  37  38
ATOM     38  C   UNL     1       2.969  -1.094  -9.685  1.00  0.00     0.188 C 
BRANCH  38  39
ATOM     39  O   UNL     1       1.589  -0.726  -9.687  1.00  0.00    -0.376 OA
BRANCH  39  40
ATOM     40  C   UNL     1       0.660  -1.598  -9.047  1.00  0.00     0.202 C 
BRANCH  40  41
ATOM     41  C   UNL     1       0.280  -2.826  -9.874  1.00  0.00     0.261 C 
BRANCH  41  42
ATOM     42  O   UNL     1       1.214  -3.903  -9.674  1.00  0.00    -0.460 OA
BRANCH  42  43
ATOM     43  C   UNL     1       2.047  -4.215 -10.700  1.00  0.00     0.338 C 
ATOM     44  O   UNL     1       2.112  -3.709 -11.791  1.00  0.00    -0.246 OA
BRANCH  43  45
ATOM     45  C   UNL     1       3.017  -5.197 -10.168  1.00  0.00     0.060 A 
ATOM     46  C   UNL     1       2.594  -6.447  -9.709  1.00  0.00     0.016 A 
ATOM     47  C   UNL     1       4.352  -4.810 -10.042  1.00  0.00     0.016 A 
ATOM     48  C   UNL     1       3.514  -7.312  -9.104  1.00  0.00     0.010 A 
ATOM     49  C   UNL     1       5.256  -5.660  -9.404  1.00  0.00     0.010 A 
ATOM     50  C   UNL     1       4.852  -6.925  -8.938  1.00  0.00    -0.014 A 
BRANCH  50  51
ATOM     51  C   UNL     1       5.847  -7.902  -8.426  1.00  0.00     0.031 A 
ATOM     52  C   UNL     1       7.145  -7.901  -9.170  1.00  0.00     0.074 A 
ATOM     53  C   UNL     1       5.814  -8.474  -7.201  1.00  0.00     0.049 A 
ATOM     54  N   UNL     1       8.130  -7.092  -8.899  1.00  0.00    -0.248 NA
ATOM     55  C   UNL     1       7.290  -8.610 -10.439  1.00  0.00     0.031 C 
ATOM     56  C   UNL     1       5.101  -7.920  -6.055  1.00  0.00     0.029 A 
ATOM     57  N   UNL     1       6.538  -9.500  -6.647  1.00  0.00    -0.354 N 
ATOM     58  C   UNL     1       9.009  -7.152  -9.965  1.00  0.00     0.074 A 
ATOM     59  C   UNL     1       8.450  -8.112 -10.893  1.00  0.00     0.031 C 
ATOM     60  C   UNL     1       5.640  -8.397  -4.915  1.00  0.00     0.029 A 
ATOM     61  C   UNL     1       6.542  -9.480  -5.257  1.00  0.00     0.049 A 
ATOM     62  H   UNL     1       7.008 -10.181  -7.180  1.00  0.00     0.167 HD
ATOM     63  C   UNL     1      10.147  -6.414 -10.043  1.00  0.00     0.037 A 
ATOM     64  C   UNL     1       7.494  -9.969  -4.418  1.00  0.00     0.037 A 
ATOM     65  C   UNL     1      10.420  -5.534  -8.948  1.00  0.00     0.049 A 
ATOM     66  C   UNL     1       8.713  -9.193  -4.834  1.00  0.00     0.074 A 
ATOM     67  C   UNL     1      10.326  -4.189  -8.661  1.00  0.00     0.029 A 
ATOM     68  N   UNL     1      10.948  -6.085  -7.806  1.00  0.00    -0.354 N 
ATOM     69  N   UNL     1       9.017  -7.994  -4.408  1.00  0.00    -0.248 NA
ATOM     70  C   UNL     1       9.413  -9.607  -6.048  1.00  0.00     0.031 C 
ATOM     71  C   UNL     1      10.352  -4.101  -7.231  1.00  0.00     0.029 A 
ATOM     72  C   UNL     1      10.412  -5.406  -6.744  1.00  0.00     0.049 A 
ATOM     73  H   UNL     1      11.592  -6.828  -7.759  1.00  0.00     0.167 HD
ATOM     74  C   UNL     1       9.743  -7.403  -5.444  1.00  0.00     0.074 A 
ATOM     75  C   UNL     1       9.919  -8.445  -6.435  1.00  0.00     0.031 C 
ATOM     76  C   UNL     1      10.016  -6.067  -5.519  1.00  0.00     0.037 A 
BRANCH  63  77
ATOM     77  C   UNL     1      11.200  -6.639 -11.050  1.00  0.00     0.064 A 
ATOM     78  C   UNL     1      12.304  -7.413 -10.662  1.00  0.00     0.173 A 
ATOM     79  C   UNL     1      11.252  -5.969 -12.273  1.00  0.00     0.173 A 
ATOM     80  F   UNL     1      12.285  -8.065  -9.487  1.00  0.00    -0.203 F 
ATOM     81  C   UNL     1      13.446  -7.477 -11.447  1.00  0.00     0.198 A 
ATOM     82  C   UNL     1      12.397  -6.046 -13.067  1.00  0.00     0.198 A 
ATOM     83  F   UNL     1      10.222  -5.212 -12.677  1.00  0.00    -0.203 F 
ATOM     84  F   UNL     1      14.505  -8.180 -11.023  1.00  0.00    -0.200 F 
ATOM     85  C   UNL     1      13.497  -6.785 -12.645  1.00  0.00     0.200 A 
ATOM     86  F   UNL     1      12.452  -5.379 -14.228  1.00  0.00    -0.200 F 
ATOM     87  F   UNL     1      14.611  -6.820 -13.388  1.00  0.00    -0.200 F 
ENDBRANCH  63  77
BRANCH  64  88
ATOM     88  C   UNL     1       7.417 -11.455  -4.279  1.00  0.00     0.064 A 
ATOM     89  C   UNL     1       6.188 -11.996  -3.838  1.00  0.00     0.173 A 
ATOM     90  C   UNL     1       8.413 -12.380  -4.613  1.00  0.00     0.173 A 
ATOM     91  F   UNL     1       5.216 -11.183  -3.393  1.00  0.00    -0.203 F 
ATOM     92  C   UNL     1       5.923 -13.363  -3.881  1.00  0.00     0.198 A 
ATOM     93  C   UNL     1       8.143 -13.751  -4.671  1.00  0.00     0.198 A 
ATOM     94  F   UNL     1       9.655 -11.987  -4.919  1.00  0.00    -0.203 F 
ATOM     95  F   UNL     1       4.715 -13.820  -3.523  1.00  0.00    -0.200 F 
ATOM     96  C   UNL     1       6.891 -14.238  -4.333  1.00  0.00     0.200 A 
ATOM     97  F   UNL     1       9.092 -14.597  -5.096  1.00  0.00    -0.200 F 
ATOM     98  F   UNL     1       6.619 -15.545  -4.447  1.00  0.00    -0.200 F 
ENDBRANCH  64  88
BRANCH  76  99
ATOM     99  C   UNL     1       9.680  -5.253  -4.314  1.00  0.00     0.064 A 
ATOM    100  C   UNL     1      10.394  -5.423  -3.120  1.00  0.00     0.173 A 
ATOM    101  C   UNL     1       8.722  -4.230  -4.361  1.00  0.00     0.173 A 
ATOM    102  F   UNL     1      11.359  -6.353  -3.035  1.00  0.00    -0.203 F 
ATOM    103  C   UNL     1      10.166  -4.597  -2.022  1.00  0.00     0.198 A 
ATOM    104  C   UNL     1       8.535  -3.377  -3.278  1.00  0.00     0.198 A 
ATOM    105  F   UNL     1       8.003  -4.008  -5.473  1.00  0.00    -0.203 F 
ATOM    106  F   UNL     1      10.883  -4.761  -0.901  1.00  0.00    -0.200 F 
ATOM    107  C   UNL     1       9.245  -3.566  -2.106  1.00  0.00     0.200 A 
ATOM    108  F   UNL     1       7.704  -2.333  -3.388  1.00  0.00    -0.200 F 
ATOM    109  F   UNL     1       9.079  -2.721  -1.078  1.00  0.00    -0.200 F 
ENDBRANCH  76  99
ENDBRANCH  50  51
ENDBRANCH  43  45
ENDBRANCH  42  43
ENDBRANCH  41  42
ENDBRANCH  40  41
ENDBRANCH  39  40
ENDBRANCH  38  39
ENDBRANCH  37  38
ENDBRANCH  36  37
ENDBRANCH   1  36
TORSDOF 26
