REMARK SMILES C[C@H](Cc1cccs1)NC(=O)N[C@](C)(C(=O)OCCOCCOCCOCCOC(=O)c1ccc(-c2c3nc(c(-c4c(F)c(F)c(F)c(F)c4F)c4ccc([nH]4)c(-c4c(F)c(F)c(F)c(F)c4F)c4nc(c(-c5c(F)c(F)c(F)c(F)c5F)c5ccc2[nH]5)C=C4)C=C3)cc1)C(F)(F)F
REMARK SMILES IDX 22 1 21 2 20 3 19 4 18 5 17 6 15 7 16 8 13 9 14 10 12 11
REMARK SMILES IDX 9 12 10 13 11 15 2 17 1 18 3 19 4 20 5 21 8 22 6 23 7 24
REMARK SMILES IDX 95 25 96 26 97 27 98 28 23 29 24 30 25 31 26 32 27 33 28 34
REMARK SMILES IDX 29 35 30 36 31 37 32 38 33 39 94 40 34 41 93 42 35 43 36 44
REMARK SMILES IDX 37 45 87 46 38 47 92 48 86 49 88 50 39 51 91 52 85 53 84 54
REMARK SMILES IDX 40 56 72 57 52 58 71 59 53 60 56 61 70 62 89 63 54 64 55 65
REMARK SMILES IDX 69 67 90 68 57 69 41 70 42 71 50 72 43 73 44 74 48 75 51 76
REMARK SMILES IDX 45 77 46 78 49 79 47 80 73 81 74 82 82 83 75 84 76 85 80 86
REMARK SMILES IDX 83 87 77 88 78 89 81 90 79 91 58 92 59 93 67 94 60 95 61 96
REMARK SMILES IDX 65 97 68 98 62 99 63 100 66 101 64 102
REMARK H PARENT 9 14 12 16 88 55 56 66
REMARK Flexibility Score: inf
ROOT
ATOM      1  C   UNL     1      -1.206   3.505   2.221  1.00  0.00     0.188 C 
ENDROOT
BRANCH   1   2
ATOM      2  C   UNL     1       0.168   4.077   2.810  1.00  0.00     0.188 C 
BRANCH   2   3
ATOM      3  O   UNL     1       0.600   5.489   2.464  1.00  0.00    -0.376 OA
BRANCH   3   4
ATOM      4  C   UNL     1       1.995   6.121   2.118  1.00  0.00     0.202 C 
BRANCH   4   5
ATOM      5  C   UNL     1       2.829   6.334   0.474  1.00  0.00     0.261 C 
BRANCH   5   6
ATOM      6  O   UNL     1       2.397   5.550  -0.909  1.00  0.00    -0.461 OA
BRANCH   6   7
ATOM      7  C   UNL     1       2.796   4.570  -1.843  1.00  0.00     0.341 C 
ATOM      8  O   UNL     1       3.941   4.590  -2.303  1.00  0.00    -0.249 OA
BRANCH   7   9
ATOM      9  C   UNL     1       1.611   3.456  -2.521  1.00  0.00     0.232 C 
ATOM     10  C   UNL     1       0.172   2.829  -2.276  1.00  0.00     0.058 C 
BRANCH   9  11
ATOM     11  N   UNL     1       1.346   4.323  -3.653  1.00  0.00    -0.315 N 
ATOM     12  N   UNL     1       0.320   5.864  -2.202  1.00  0.00    -0.335 N 
ATOM     13  C   UNL     1       0.811   5.551  -3.431  1.00  0.00     0.316 C 
ATOM     14  H   UNL     1       0.239   6.839  -2.089  1.00  0.00     0.165 HD
ATOM     15  O   UNL     1       0.873   6.412  -4.301  1.00  0.00    -0.249 OA
ATOM     16  H   UNL     1       1.552   4.025  -4.569  1.00  0.00     0.166 HD
BRANCH  12  17
ATOM     17  C   UNL     1      -0.135   5.136  -0.970  1.00  0.00     0.086 C 
ATOM     18  C   UNL     1      -1.273   6.064  -0.384  1.00  0.00     0.031 C 
BRANCH  17  19
ATOM     19  C   UNL     1       0.856   4.559   0.195  1.00  0.00     0.071 C 
BRANCH  19  20
ATOM     20  C   UNL     1       2.305   3.626   0.854  1.00  0.00     0.007 A 
ATOM     21  C   UNL     1       2.738   3.454   2.233  1.00  0.00     0.015 A 
ATOM     22  S   UNL     1       3.853   3.145   0.148  1.00  0.00    -0.149 S 
ATOM     23  C   UNL     1       3.665   2.423   2.533  1.00  0.00     0.012 A 
ATOM     24  C   UNL     1       4.436   2.234   1.438  1.00  0.00     0.065 A 
ENDBRANCH  19  20
ENDBRANCH  17  19
ENDBRANCH  12  17
ENDBRANCH   9  11
BRANCH   9  25
ATOM     25  C   UNL     1       2.344   2.086  -2.694  1.00  0.00     0.422 C 
ATOM     26  F   UNL     1       2.221   1.359  -1.542  1.00  0.00    -0.168 F 
ATOM     27  F   UNL     1       1.744   1.314  -3.649  1.00  0.00    -0.168 F 
ATOM     28  F   UNL     1       3.639   2.124  -3.017  1.00  0.00    -0.168 F 
ENDBRANCH   9  25
ENDBRANCH   7   9
ENDBRANCH   6   7
ENDBRANCH   5   6
ENDBRANCH   4   5
ENDBRANCH   3   4
ENDBRANCH   2   3
ENDBRANCH   1   2
BRANCH   1  29
ATOM     29  O   UNL     1      -2.298   4.377   2.270  1.00  0.00    -0.377 OA
BRANCH  29  30
ATOM     30  C   UNL     1      -2.186   5.290   3.338  1.00  0.00     0.188 C 
BRANCH  30  31
ATOM     31  C   UNL     1      -1.922   4.654   4.728  1.00  0.00     0.188 C 
BRANCH  31  32
ATOM     32  O   UNL     1      -1.755   3.243   4.743  1.00  0.00    -0.376 OA
BRANCH  32  33
ATOM     33  C   UNL     1      -2.872   2.365   4.783  1.00  0.00     0.202 C 
BRANCH  33  34
ATOM     34  C   UNL     1      -4.200   2.632   4.045  1.00  0.00     0.261 C 
BRANCH  34  35
ATOM     35  O   UNL     1      -4.654   3.984   3.897  1.00  0.00    -0.460 OA
BRANCH  35  36
ATOM     36  C   UNL     1      -4.964   4.704   4.992  1.00  0.00     0.338 C 
ATOM     37  O   UNL     1      -4.952   4.311   6.154  1.00  0.00    -0.246 OA
BRANCH  36  38
ATOM     38  C   UNL     1      -5.036   6.131   4.573  1.00  0.00     0.060 A 
ATOM     39  C   UNL     1      -4.178   7.069   5.184  1.00  0.00     0.016 A 
ATOM     40  C   UNL     1      -5.792   6.510   3.457  1.00  0.00     0.016 A 
ATOM     41  C   UNL     1      -4.084   8.372   4.692  1.00  0.00     0.010 A 
ATOM     42  C   UNL     1      -5.755   7.836   3.013  1.00  0.00     0.010 A 
ATOM     43  C   UNL     1      -4.932   8.780   3.656  1.00  0.00    -0.014 A 
BRANCH  43  44
ATOM     44  C   UNL     1      -5.241  10.226   3.533  1.00  0.00     0.031 A 
ATOM     45  C   UNL     1      -6.374  10.736   4.384  1.00  0.00     0.074 A 
ATOM     46  C   UNL     1      -4.550  11.068   2.747  1.00  0.00     0.049 A 
ATOM     47  N   UNL     1      -6.904  11.929   4.449  1.00  0.00    -0.248 NA
ATOM     48  C   UNL     1      -6.997   9.752   5.288  1.00  0.00     0.031 C 
ATOM     49  C   UNL     1      -3.395  10.718   1.926  1.00  0.00     0.029 A 
ATOM     50  N   UNL     1      -4.738  12.409   2.513  1.00  0.00    -0.354 N 
ATOM     51  C   UNL     1      -7.922  11.831   5.389  1.00  0.00     0.074 A 
ATOM     52  C   UNL     1      -7.960  10.463   5.848  1.00  0.00     0.031 C 
ATOM     53  C   UNL     1      -2.989  11.815   1.259  1.00  0.00     0.029 A 
ATOM     54  C   UNL     1      -3.876  12.934   1.582  1.00  0.00     0.049 A 
ATOM     55  H   UNL     1      -5.428  12.944   2.969  1.00  0.00     0.167 HD
ATOM     56  C   UNL     1      -8.754  12.798   5.839  1.00  0.00     0.037 A 
ATOM     57  C   UNL     1      -3.833  14.168   1.039  1.00  0.00     0.037 A 
ATOM     58  C   UNL     1      -8.727  14.156   5.374  1.00  0.00     0.049 A 
ATOM     59  C   UNL     1      -4.833  15.211   1.486  1.00  0.00     0.074 A 
ATOM     60  C   UNL     1      -9.523  15.215   5.767  1.00  0.00     0.029 A 
ATOM     61  N   UNL     1      -7.865  14.637   4.400  1.00  0.00    -0.354 N 
ATOM     62  N   UNL     1      -5.782  15.121   2.388  1.00  0.00    -0.248 NA
ATOM     63  C   UNL     1      -4.753  16.529   0.839  1.00  0.00     0.031 C 
ATOM     64  C   UNL     1      -9.187  16.323   4.984  1.00  0.00     0.029 A 
ATOM     65  C   UNL     1      -8.130  15.973   4.157  1.00  0.00     0.049 A 
ATOM     66  H   UNL     1      -7.168  14.107   3.950  1.00  0.00     0.167 HD
ATOM     67  C   UNL     1      -6.384  16.373   2.442  1.00  0.00     0.074 A 
ATOM     68  C   UNL     1      -5.687  17.210   1.488  1.00  0.00     0.031 C 
ATOM     69  C   UNL     1      -7.417  16.796   3.213  1.00  0.00     0.037 A 
BRANCH  56  70
ATOM     70  C   UNL     1      -9.788  12.399   6.849  1.00  0.00     0.064 A 
ATOM     71  C   UNL     1      -9.444  12.040   8.162  1.00  0.00     0.173 A 
ATOM     72  C   UNL     1     -11.146  12.379   6.497  1.00  0.00     0.173 A 
ATOM     73  F   UNL     1      -8.157  12.016   8.541  1.00  0.00    -0.203 F 
ATOM     74  C   UNL     1     -10.419  11.648   9.075  1.00  0.00     0.198 A 
ATOM     75  C   UNL     1     -12.121  12.021   7.423  1.00  0.00     0.198 A 
ATOM     76  F   UNL     1     -11.527  12.707   5.254  1.00  0.00    -0.203 F 
ATOM     77  F   UNL     1     -10.063  11.250  10.304  1.00  0.00    -0.200 F 
ATOM     78  C   UNL     1     -11.757  11.647   8.708  1.00  0.00     0.200 A 
ATOM     79  F   UNL     1     -13.413  12.032   7.069  1.00  0.00    -0.200 F 
ATOM     80  F   UNL     1     -12.695  11.276   9.590  1.00  0.00    -0.200 F 
ENDBRANCH  56  70
BRANCH  57  81
ATOM     81  C   UNL     1      -2.824  14.493  -0.007  1.00  0.00     0.064 A 
ATOM     82  C   UNL     1      -1.807  15.429   0.230  1.00  0.00     0.173 A 
ATOM     83  C   UNL     1      -2.877  13.901  -1.278  1.00  0.00     0.173 A 
ATOM     84  F   UNL     1      -1.731  16.048   1.417  1.00  0.00    -0.203 F 
ATOM     85  C   UNL     1      -0.896  15.774  -0.768  1.00  0.00     0.198 A 
ATOM     86  C   UNL     1      -1.947  14.223  -2.264  1.00  0.00     0.198 A 
ATOM     87  F   UNL     1      -3.835  13.006  -1.562  1.00  0.00    -0.203 F 
ATOM     88  F   UNL     1       0.032  16.711  -0.530  1.00  0.00    -0.200 F 
ATOM     89  C   UNL     1      -0.963  15.165  -2.012  1.00  0.00     0.200 A 
ATOM     90  F   UNL     1      -2.010  13.625  -3.462  1.00  0.00    -0.200 F 
ATOM     91  F   UNL     1      -0.085  15.495  -2.969  1.00  0.00    -0.200 F 
ENDBRANCH  57  81
BRANCH  69  92
ATOM     92  C   UNL     1      -7.828  18.238   3.106  1.00  0.00     0.064 A 
ATOM     93  C   UNL     1      -8.473  18.744   1.968  1.00  0.00     0.173 A 
ATOM     94  C   UNL     1      -7.625  19.111   4.187  1.00  0.00     0.173 A 
ATOM     95  F   UNL     1      -8.685  17.955   0.904  1.00  0.00    -0.203 F 
ATOM     96  C   UNL     1      -8.874  20.077   1.906  1.00  0.00     0.198 A 
ATOM     97  C   UNL     1      -8.059  20.433   4.135  1.00  0.00     0.198 A 
ATOM     98  F   UNL     1      -7.024  18.676   5.305  1.00  0.00    -0.203 F 
ATOM     99  F   UNL     1      -9.444  20.552   0.790  1.00  0.00    -0.200 F 
ATOM    100  C   UNL     1      -8.675  20.917   2.992  1.00  0.00     0.200 A 
ATOM    101  F   UNL     1      -7.884  21.236   5.194  1.00  0.00    -0.200 F 
ATOM    102  F   UNL     1      -9.072  22.195   2.935  1.00  0.00    -0.200 F 
ENDBRANCH  69  92
ENDBRANCH  43  44
ENDBRANCH  36  38
ENDBRANCH  35  36
ENDBRANCH  34  35
ENDBRANCH  33  34
ENDBRANCH  32  33
ENDBRANCH  31  32
ENDBRANCH  30  31
ENDBRANCH  29  30
ENDBRANCH   1  29
TORSDOF 25
