REMARK SMILES Nc1nonc1C(=O)N1[C@@H]2CC[C@H]1C[C@H](CC(=O)OCCOCCOCCOCCOC(=O)c1ccc(-c3c4nc(c(-c5c(F)c(F)c(F)c(F)c5F)c5ccc([nH]5)c(-c5c(F)c(F)c(F)c(F)c5F)c5nc(c(-c6c(F)c(F)c(F)c(F)c6F)c6ccc3[nH]6)C=C5)C=C4)cc1)C2
REMARK SMILES IDX 24 1 23 2 22 3 21 4 20 5 19 6 17 7 18 8 16 9 15 10 9 11
REMARK SMILES IDX 10 12 13 13 11 14 97 15 12 16 14 17 7 18 8 19 6 20 2 21 3 22
REMARK SMILES IDX 4 23 5 24 1 25 25 28 26 29 27 30 28 31 29 32 30 33 31 34
REMARK SMILES IDX 32 35 33 36 34 37 35 38 96 39 36 40 95 41 37 42 38 43 39 44
REMARK SMILES IDX 89 45 40 46 94 47 88 48 90 49 41 50 93 51 87 52 86 53 42 55
REMARK SMILES IDX 74 56 54 57 73 58 55 59 58 60 72 61 91 62 56 63 57 64 71 66
REMARK SMILES IDX 92 67 59 68 43 69 44 70 52 71 45 72 46 73 50 74 53 75 47 76
REMARK SMILES IDX 48 77 51 78 49 79 75 80 76 81 84 82 77 83 78 84 82 85 85 86
REMARK SMILES IDX 79 87 80 88 83 89 81 90 60 91 61 92 69 93 62 94 63 95 67 96
REMARK SMILES IDX 70 97 64 98 65 99 68 100 66 101
REMARK H PARENT 1 26 1 27 90 54 58 65
REMARK Flexibility Score: inf
ROOT
ATOM      1  C   UNL     1       7.292  -2.598  -0.946  1.00  0.00     0.188 C 
ENDROOT
BRANCH   1   2
ATOM      2  C   UNL     1       8.303  -1.542  -1.407  1.00  0.00     0.188 C 
BRANCH   2   3
ATOM      3  O   UNL     1       8.798  -0.739  -0.355  1.00  0.00    -0.376 OA
BRANCH   3   4
ATOM      4  C   UNL     1       8.348   0.598  -0.281  1.00  0.00     0.202 C 
BRANCH   4   5
ATOM      5  C   UNL     1       6.845   0.906  -0.147  1.00  0.00     0.261 C 
BRANCH   5   6
ATOM      6  O   UNL     1       5.918  -0.069  -0.654  1.00  0.00    -0.463 OA
BRANCH   6   7
ATOM      7  C   UNL     1       5.390   0.165  -1.872  1.00  0.00     0.306 C 
ATOM      8  O   UNL     1       5.737   1.088  -2.601  1.00  0.00    -0.252 OA
BRANCH   7   9
ATOM      9  C   UNL     1       4.290  -0.800  -2.291  1.00  0.00     0.126 C 
BRANCH   9  10
ATOM     10  C   UNL     1       3.834  -2.018  -1.452  1.00  0.00     0.004 C 
ATOM     11  N   UNL     1       1.366  -2.662  -0.244  1.00  0.00    -0.331 N 
ATOM     12  C   UNL     1       1.789  -3.574  -1.283  1.00  0.00     0.086 C 
ATOM     13  C   UNL     1       2.474  -2.571   0.693  1.00  0.00     0.086 C 
ATOM     14  C   UNL     1       2.602  -4.653  -0.558  1.00  0.00     0.027 C 
ATOM     15  C   UNL     1       2.643  -2.699  -2.199  1.00  0.00     0.029 C 
ATOM     16  C   UNL     1       2.941  -4.034   0.803  1.00  0.00     0.027 C 
ATOM     17  C   UNL     1       3.583  -1.716   0.054  1.00  0.00     0.029 C 
BRANCH  11  18
ATOM     18  C   UNL     1       0.024  -2.537   0.080  1.00  0.00     0.280 C 
ATOM     19  O   UNL     1      -0.722  -3.515   0.009  1.00  0.00    -0.267 OA
BRANCH  18  20
ATOM     20  C   UNL     1      -0.482  -1.187   0.352  1.00  0.00     0.216 A 
ATOM     21  C   UNL     1       0.066   0.106   0.127  1.00  0.00     0.201 A 
ATOM     22  N   UNL     1      -0.802   1.037   0.511  1.00  0.00    -0.032 NA
ATOM     23  O   UNL     1      -1.931   0.341   0.901  1.00  0.00    -0.242 OA
ATOM     24  N   UNL     1      -1.733  -1.025   0.815  1.00  0.00    -0.042 NA
BRANCH  21  25
ATOM     25  N   UNL     1       1.244   0.417  -0.433  1.00  0.00    -0.379 N 
ATOM     26  H   UNL     1       1.508   1.361  -0.531  1.00  0.00     0.158 HD
ATOM     27  H   UNL     1       1.845  -0.297  -0.745  1.00  0.00     0.158 HD
ENDBRANCH  21  25
ENDBRANCH  18  20
ENDBRANCH  11  18
ENDBRANCH   9  10
ENDBRANCH   7   9
ENDBRANCH   6   7
ENDBRANCH   5   6
ENDBRANCH   4   5
ENDBRANCH   3   4
ENDBRANCH   2   3
ENDBRANCH   1   2
BRANCH   1  28
ATOM     28  O   UNL     1       6.818  -2.631   0.398  1.00  0.00    -0.377 OA
BRANCH  28  29
ATOM     29  C   UNL     1       7.727  -2.374   1.466  1.00  0.00     0.188 C 
BRANCH  29  30
ATOM     30  C   UNL     1       9.142  -2.975   1.376  1.00  0.00     0.188 C 
BRANCH  30  31
ATOM     31  O   UNL     1       9.326  -3.840   0.268  1.00  0.00    -0.376 OA
BRANCH  31  32
ATOM     32  C   UNL     1       9.144  -5.231   0.494  1.00  0.00     0.202 C 
BRANCH  32  33
ATOM     33  C   UNL     1       7.792  -5.714   1.050  1.00  0.00     0.261 C 
BRANCH  33  34
ATOM     34  O   UNL     1       7.380  -5.171   2.317  1.00  0.00    -0.460 OA
BRANCH  34  35
ATOM     35  C   UNL     1       8.182  -5.388   3.382  1.00  0.00     0.338 C 
ATOM     36  O   UNL     1       9.215  -6.022   3.412  1.00  0.00    -0.246 OA
BRANCH  35  37
ATOM     37  C   UNL     1       7.680  -4.560   4.500  1.00  0.00     0.060 A 
ATOM     38  C   UNL     1       8.499  -3.544   5.007  1.00  0.00     0.016 A 
ATOM     39  C   UNL     1       6.425  -4.804   5.062  1.00  0.00     0.016 A 
ATOM     40  C   UNL     1       8.086  -2.802   6.112  1.00  0.00     0.010 A 
ATOM     41  C   UNL     1       6.019  -4.072   6.183  1.00  0.00     0.010 A 
ATOM     42  C   UNL     1       6.868  -3.098   6.738  1.00  0.00    -0.014 A 
BRANCH  42  43
ATOM     43  C   UNL     1       6.606  -2.541   8.089  1.00  0.00     0.031 A 
ATOM     44  C   UNL     1       6.915  -3.398   9.287  1.00  0.00     0.074 A 
ATOM     45  C   UNL     1       6.178  -1.278   8.256  1.00  0.00     0.049 A 
ATOM     46  N   UNL     1       6.820  -3.119  10.562  1.00  0.00    -0.248 NA
ATOM     47  C   UNL     1       7.401  -4.758   9.004  1.00  0.00     0.031 C 
ATOM     48  C   UNL     1       5.896  -0.333   7.179  1.00  0.00     0.029 A 
ATOM     49  N   UNL     1       5.921  -0.571   9.404  1.00  0.00    -0.354 N 
ATOM     50  C   UNL     1       7.239  -4.263  11.230  1.00  0.00     0.074 A 
ATOM     51  C   UNL     1       7.540  -5.256  10.222  1.00  0.00     0.031 C 
ATOM     52  C   UNL     1       5.514   0.838   7.718  1.00  0.00     0.029 A 
ATOM     53  C   UNL     1       5.498   0.715   9.175  1.00  0.00     0.049 A 
ATOM     54  H   UNL     1       6.030  -0.949  10.306  1.00  0.00     0.167 HD
ATOM     55  C   UNL     1       7.376  -4.465  12.563  1.00  0.00     0.037 A 
ATOM     56  C   UNL     1       5.136   1.677  10.046  1.00  0.00     0.037 A 
ATOM     57  C   UNL     1       7.058  -3.481  13.565  1.00  0.00     0.049 A 
ATOM     58  C   UNL     1       5.199   1.394  11.527  1.00  0.00     0.074 A 
ATOM     59  C   UNL     1       7.157  -3.585  14.941  1.00  0.00     0.029 A 
ATOM     60  N   UNL     1       6.565  -2.212  13.295  1.00  0.00    -0.354 N 
ATOM     61  N   UNL     1       5.619   0.320  12.152  1.00  0.00    -0.248 NA
ATOM     62  C   UNL     1       4.744   2.466  12.422  1.00  0.00     0.031 C 
ATOM     63  C   UNL     1       6.663  -2.404  15.505  1.00  0.00     0.029 A 
ATOM     64  C   UNL     1       6.326  -1.534  14.480  1.00  0.00     0.049 A 
ATOM     65  H   UNL     1       6.407  -1.848  12.394  1.00  0.00     0.167 HD
ATOM     66  C   UNL     1       5.518   0.602  13.509  1.00  0.00     0.074 A 
ATOM     67  C   UNL     1       5.008   1.953  13.614  1.00  0.00     0.031 C 
ATOM     68  C   UNL     1       5.825  -0.184  14.572  1.00  0.00     0.037 A 
BRANCH  55  69
ATOM     69  C   UNL     1       7.853  -5.821  13.005  1.00  0.00     0.064 A 
ATOM     70  C   UNL     1       9.157  -6.271  12.741  1.00  0.00     0.173 A 
ATOM     71  C   UNL     1       6.991  -6.687  13.695  1.00  0.00     0.173 A 
ATOM     72  F   UNL     1      10.018  -5.491  12.071  1.00  0.00    -0.203 F 
ATOM     73  C   UNL     1       9.563  -7.552  13.109  1.00  0.00     0.198 A 
ATOM     74  C   UNL     1       7.413  -7.953  14.095  1.00  0.00     0.198 A 
ATOM     75  F   UNL     1       5.736  -6.309  13.979  1.00  0.00    -0.203 F 
ATOM     76  F   UNL     1      10.788  -7.985  12.781  1.00  0.00    -0.200 F 
ATOM     77  C   UNL     1       8.693  -8.389  13.790  1.00  0.00     0.200 A 
ATOM     78  F   UNL     1       6.574  -8.755  14.766  1.00  0.00    -0.200 F 
ATOM     79  F   UNL     1       9.083  -9.622  14.141  1.00  0.00    -0.200 F 
ENDBRANCH  55  69
BRANCH  56  80
ATOM     80  C   UNL     1       4.696   3.008   9.549  1.00  0.00     0.064 A 
ATOM     81  C   UNL     1       5.461   4.158   9.792  1.00  0.00     0.173 A 
ATOM     82  C   UNL     1       3.495   3.163   8.841  1.00  0.00     0.173 A 
ATOM     83  F   UNL     1       6.604   4.066  10.487  1.00  0.00    -0.203 F 
ATOM     84  C   UNL     1       5.033   5.413   9.363  1.00  0.00     0.198 A 
ATOM     85  C   UNL     1       3.083   4.414   8.386  1.00  0.00     0.198 A 
ATOM     86  F   UNL     1       2.724   2.097   8.584  1.00  0.00    -0.203 F 
ATOM     87  F   UNL     1       5.760   6.501   9.652  1.00  0.00    -0.200 F 
ATOM     88  C   UNL     1       3.848   5.539   8.654  1.00  0.00     0.200 A 
ATOM     89  F   UNL     1       1.945   4.530   7.689  1.00  0.00    -0.200 F 
ATOM     90  F   UNL     1       3.440   6.745   8.237  1.00  0.00    -0.200 F 
ENDBRANCH  56  80
BRANCH  68  91
ATOM     91  C   UNL     1       5.672   0.417  15.943  1.00  0.00     0.064 A 
ATOM     92  C   UNL     1       4.415   0.726  16.486  1.00  0.00     0.173 A 
ATOM     93  C   UNL     1       6.805   0.672  16.733  1.00  0.00     0.173 A 
ATOM     94  F   UNL     1       3.300   0.514  15.771  1.00  0.00    -0.203 F 
ATOM     95  C   UNL     1       4.302   1.307  17.747  1.00  0.00     0.198 A 
ATOM     96  C   UNL     1       6.685   1.216  18.009  1.00  0.00     0.198 A 
ATOM     97  F   UNL     1       8.031   0.387  16.270  1.00  0.00    -0.203 F 
ATOM     98  F   UNL     1       3.096   1.656  18.215  1.00  0.00    -0.200 F 
ATOM     99  C   UNL     1       5.436   1.546  18.510  1.00  0.00     0.200 A 
ATOM    100  F   UNL     1       7.781   1.428  18.750  1.00  0.00    -0.200 F 
ATOM    101  F   UNL     1       5.324   2.103  19.723  1.00  0.00    -0.200 F 
ENDBRANCH  68  91
ENDBRANCH  42  43
ENDBRANCH  35  37
ENDBRANCH  34  35
ENDBRANCH  33  34
ENDBRANCH  32  33
ENDBRANCH  31  32
ENDBRANCH  30  31
ENDBRANCH  29  30
ENDBRANCH  28  29
ENDBRANCH   1  28
TORSDOF 24
