REMARK SMILES O=C(CCCCNc1ncnc2c1CCCC2)OCCOCCOCCOCCOC(=O)c1ccc(-c2c3nc(c(-c4c(F)c(F)c(F)c(F)c4F)c4ccc([nH]4)c(-c4c(F)c(F)c(F)c(F)c4F)c4nc(c(-c5c(F)c(F)c(F)c(F)c5F)c5ccc2[nH]5)C=C4)C=C3)cc1
REMARK SMILES IDX 22 1 21 2 20 3 19 4 18 5 2 6 1 7 3 8 4 9 5 10 6 11 7 12 8 14
REMARK SMILES IDX 9 15 13 16 10 17 12 18 14 19 11 20 17 21 15 22 16 23 23 24
REMARK SMILES IDX 24 25 25 26 26 27 27 28 28 29 29 30 30 31 31 32 32 33 33 34
REMARK SMILES IDX 34 35 95 36 35 37 94 38 36 39 37 40 38 41 88 42 39 43 93 44
REMARK SMILES IDX 87 45 89 46 40 47 92 48 86 49 85 50 41 52 73 53 53 54 72 55
REMARK SMILES IDX 54 56 57 57 71 58 90 59 55 60 56 61 70 63 91 64 58 65 42 66
REMARK SMILES IDX 43 67 51 68 44 69 45 70 49 71 52 72 46 73 47 74 50 75 48 76
REMARK SMILES IDX 74 77 75 78 83 79 76 80 77 81 81 82 84 83 78 84 79 85 82 86
REMARK SMILES IDX 80 87 59 88 60 89 68 90 61 91 62 92 66 93 69 94 63 95 64 96
REMARK SMILES IDX 67 97 65 98
REMARK H PARENT 7 13 89 51 57 62
REMARK Flexibility Score: inf
ROOT
ATOM      1  C   UNL     1       2.340   0.050   1.558  1.00  0.00     0.188 C 
ENDROOT
BRANCH   1   2
ATOM      2  O   UNL     1       3.358   0.341   0.607  1.00  0.00    -0.376 OA
BRANCH   2   3
ATOM      3  C   UNL     1       3.439   1.653   0.098  1.00  0.00     0.202 C 
BRANCH   3   4
ATOM      4  C   UNL     1       3.612   1.606  -1.410  1.00  0.00     0.261 C 
BRANCH   4   5
ATOM      5  O   UNL     1       2.669   0.801  -2.153  1.00  0.00    -0.463 OA
BRANCH   5   6
ATOM      6  C   UNL     1       2.168  -0.398  -1.789  1.00  0.00     0.305 C 
ATOM      7  O   UNL     1       0.946  -0.558  -1.792  1.00  0.00    -0.252 OA
BRANCH   6   8
ATOM      8  C   UNL     1       3.082  -1.569  -1.452  1.00  0.00     0.123 C 
BRANCH   8   9
ATOM      9  C   UNL     1       4.241  -1.923  -2.372  1.00  0.00     0.013 C 
BRANCH   9  10
ATOM     10  C   UNL     1       5.511  -1.075  -2.287  1.00  0.00     0.022 C 
BRANCH  10  11
ATOM     11  C   UNL     1       6.092  -0.828  -0.887  1.00  0.00     0.114 C 
BRANCH  11  12
ATOM     12  N   UNL     1       6.736  -2.011  -0.378  1.00  0.00    -0.370 N 
ATOM     13  H   UNL     1       6.210  -2.801  -0.117  1.00  0.00     0.162 HD
BRANCH  12  14
ATOM     14  C   UNL     1       8.112  -2.007  -0.266  1.00  0.00     0.132 A 
ATOM     15  N   UNL     1       8.678  -1.066   0.507  1.00  0.00    -0.219 NA
ATOM     16  C   UNL     1       8.863  -2.905  -1.012  1.00  0.00     0.016 A 
ATOM     17  C   UNL     1      10.015  -1.075   0.576  1.00  0.00     0.224 A 
ATOM     18  C   UNL     1      10.242  -2.812  -0.880  1.00  0.00     0.049 A 
ATOM     19  C   UNL     1       8.212  -3.924  -1.905  1.00  0.00     0.041 C 
ATOM     20  N   UNL     1      10.836  -1.900  -0.085  1.00  0.00    -0.241 NA
ATOM     21  C   UNL     1      11.165  -3.669  -1.708  1.00  0.00     0.057 C 
ATOM     22  C   UNL     1       9.158  -4.471  -2.968  1.00  0.00     0.005 C 
ATOM     23  C   UNL     1      10.474  -4.884  -2.326  1.00  0.00     0.007 C 
ENDBRANCH  12  14
ENDBRANCH  11  12
ENDBRANCH  10  11
ENDBRANCH   9  10
ENDBRANCH   8   9
ENDBRANCH   6   8
ENDBRANCH   5   6
ENDBRANCH   4   5
ENDBRANCH   3   4
ENDBRANCH   2   3
ENDBRANCH   1   2
BRANCH   1  24
ATOM     24  C   UNL     1       2.182   1.076   2.671  1.00  0.00     0.188 C 
BRANCH  24  25
ATOM     25  O   UNL     1       3.286   1.325   3.535  1.00  0.00    -0.377 OA
BRANCH  25  26
ATOM     26  C   UNL     1       4.597   0.903   3.195  1.00  0.00     0.188 C 
BRANCH  26  27
ATOM     27  C   UNL     1       5.238  -0.054   4.208  1.00  0.00     0.188 C 
BRANCH  27  28
ATOM     28  O   UNL     1       4.475  -1.181   4.614  1.00  0.00    -0.376 OA
BRANCH  28  29
ATOM     29  C   UNL     1       3.230  -0.951   5.269  1.00  0.00     0.202 C 
BRANCH  29  30
ATOM     30  C   UNL     1       3.160   0.029   6.460  1.00  0.00     0.261 C 
BRANCH  30  31
ATOM     31  O   UNL     1       3.416   1.410   6.127  1.00  0.00    -0.460 OA
BRANCH  31  32
ATOM     32  C   UNL     1       4.533   1.970   6.651  1.00  0.00     0.338 C 
ATOM     33  O   UNL     1       5.290   1.473   7.463  1.00  0.00    -0.246 OA
BRANCH  32  34
ATOM     34  C   UNL     1       4.852   3.238   5.951  1.00  0.00     0.060 A 
ATOM     35  C   UNL     1       6.083   3.341   5.284  1.00  0.00     0.016 A 
ATOM     36  C   UNL     1       4.012   4.348   6.036  1.00  0.00     0.016 A 
ATOM     37  C   UNL     1       6.486   4.552   4.716  1.00  0.00     0.010 A 
ATOM     38  C   UNL     1       4.435   5.575   5.503  1.00  0.00     0.010 A 
ATOM     39  C   UNL     1       5.688   5.692   4.871  1.00  0.00    -0.014 A 
BRANCH  39  40
ATOM     40  C   UNL     1       6.275   7.034   4.613  1.00  0.00     0.031 A 
ATOM     41  C   UNL     1       6.940   7.744   5.763  1.00  0.00     0.074 A 
ATOM     42  C   UNL     1       6.260   7.607   3.396  1.00  0.00     0.049 A 
ATOM     43  N   UNL     1       7.480   8.935   5.811  1.00  0.00    -0.248 NA
ATOM     44  C   UNL     1       7.006   7.002   7.034  1.00  0.00     0.031 C 
ATOM     45  C   UNL     1       5.714   7.005   2.184  1.00  0.00     0.029 A 
ATOM     46  N   UNL     1       6.720   8.836   2.984  1.00  0.00    -0.354 N 
ATOM     47  C   UNL     1       7.950   9.082   7.110  1.00  0.00     0.074 A 
ATOM     48  C   UNL     1       7.602   7.877   7.829  1.00  0.00     0.031 C 
ATOM     49  C   UNL     1       5.861   7.870   1.164  1.00  0.00     0.029 A 
ATOM     50  C   UNL     1       6.482   9.101   1.658  1.00  0.00     0.049 A 
ATOM     51  H   UNL     1       7.178   9.468   3.585  1.00  0.00     0.167 HD
ATOM     52  C   UNL     1       8.622  10.123   7.654  1.00  0.00     0.037 A 
ATOM     53  C   UNL     1       6.720  10.215   0.933  1.00  0.00     0.037 A 
ATOM     54  C   UNL     1       8.960  11.328   6.947  1.00  0.00     0.049 A 
ATOM     55  C   UNL     1       7.370  11.409   1.592  1.00  0.00     0.074 A 
ATOM     56  C   UNL     1       9.634  12.441   7.418  1.00  0.00     0.029 A 
ATOM     57  N   UNL     1       8.644  11.582   5.621  1.00  0.00    -0.354 N 
ATOM     58  N   UNL     1       7.818  11.539   2.817  1.00  0.00    -0.248 NA
ATOM     59  C   UNL     1       7.544  12.614   0.766  1.00  0.00     0.031 C 
ATOM     60  C   UNL     1       9.675  13.392   6.395  1.00  0.00     0.029 A 
ATOM     61  C   UNL     1       9.083  12.847   5.267  1.00  0.00     0.049 A 
ATOM     62  H   UNL     1       8.177  10.956   5.022  1.00  0.00     0.167 HD
ATOM     63  C   UNL     1       8.349  12.821   2.900  1.00  0.00     0.074 A 
ATOM     64  C   UNL     1       8.183  13.427   1.597  1.00  0.00     0.031 C 
ATOM     65  C   UNL     1       8.922  13.439   3.963  1.00  0.00     0.037 A 
BRANCH  52  66
ATOM     66  C   UNL     1       9.023  10.015   9.096  1.00  0.00     0.064 A 
ATOM     67  C   UNL     1      10.041   9.143   9.511  1.00  0.00     0.173 A 
ATOM     68  C   UNL     1       8.423  10.833  10.065  1.00  0.00     0.173 A 
ATOM     69  F   UNL     1      10.635   8.329   8.625  1.00  0.00    -0.203 F 
ATOM     70  C   UNL     1      10.433   9.084  10.845  1.00  0.00     0.198 A 
ATOM     71  C   UNL     1       8.840  10.794  11.393  1.00  0.00     0.198 A 
ATOM     72  F   UNL     1       7.447  11.685   9.720  1.00  0.00    -0.203 F 
ATOM     73  F   UNL     1      11.382   8.217  11.226  1.00  0.00    -0.200 F 
ATOM     74  C   UNL     1       9.841   9.917  11.783  1.00  0.00     0.200 A 
ATOM     75  F   UNL     1       8.276  11.610  12.294  1.00  0.00    -0.200 F 
ATOM     76  F   UNL     1      10.232   9.872  13.063  1.00  0.00    -0.200 F 
ENDBRANCH  52  66
BRANCH  53  77
ATOM     77  C   UNL     1       6.341  10.262  -0.506  1.00  0.00     0.064 A 
ATOM     78  C   UNL     1       7.319  10.337  -1.508  1.00  0.00     0.173 A 
ATOM     79  C   UNL     1       4.998  10.247  -0.910  1.00  0.00     0.173 A 
ATOM     80  F   UNL     1       8.617  10.388  -1.174  1.00  0.00    -0.203 F 
ATOM     81  C   UNL     1       6.969  10.399  -2.856  1.00  0.00     0.198 A 
ATOM     82  C   UNL     1       4.649  10.280  -2.260  1.00  0.00     0.198 A 
ATOM     83  F   UNL     1       4.020  10.188   0.006  1.00  0.00    -0.203 F 
ATOM     84  F   UNL     1       7.924  10.510  -3.790  1.00  0.00    -0.200 F 
ATOM     85  C   UNL     1       5.635  10.361  -3.231  1.00  0.00     0.200 A 
ATOM     86  F   UNL     1       3.359  10.232  -2.618  1.00  0.00    -0.200 F 
ATOM     87  F   UNL     1       5.299  10.409  -4.528  1.00  0.00    -0.200 F 
ENDBRANCH  53  77
BRANCH  65  88
ATOM     88  C   UNL     1       9.440  14.838   3.774  1.00  0.00     0.064 A 
ATOM     89  C   UNL     1       8.572  15.930   3.630  1.00  0.00     0.173 A 
ATOM     90  C   UNL     1      10.819  15.101   3.834  1.00  0.00     0.173 A 
ATOM     91  F   UNL     1       7.247  15.734   3.558  1.00  0.00    -0.203 F 
ATOM     92  C   UNL     1       9.065  17.230   3.540  1.00  0.00     0.198 A 
ATOM     93  C   UNL     1      11.305  16.404   3.778  1.00  0.00     0.198 A 
ATOM     94  F   UNL     1      11.693  14.094   3.983  1.00  0.00    -0.203 F 
ATOM     95  F   UNL     1       8.218  18.255   3.370  1.00  0.00    -0.200 F 
ATOM     96  C   UNL     1      10.428  17.467   3.627  1.00  0.00     0.200 A 
ATOM     97  F   UNL     1      12.622  16.632   3.883  1.00  0.00    -0.200 F 
ATOM     98  F   UNL     1      10.898  18.721   3.564  1.00  0.00    -0.200 F 
ENDBRANCH  65  88
ENDBRANCH  39  40
ENDBRANCH  32  34
ENDBRANCH  31  32
ENDBRANCH  30  31
ENDBRANCH  29  30
ENDBRANCH  28  29
ENDBRANCH  27  28
ENDBRANCH  26  27
ENDBRANCH  25  26
ENDBRANCH  24  25
ENDBRANCH   1  24
TORSDOF 25
