REMARK SMILES C[C@H](CC(=O)OCCOCCOCCOCCOC(=O)c1ccc(-c2c3nc(c(-c4c(F)c(F)c(F)c(F)c4F)c4ccc([nH]4)c(-c4c(F)c(F)c(F)c(F)c4F)c4nc(c(-c5c(F)c(F)c(F)c(F)c5F)c5ccc2[nH]5)C=C4)C=C3)cc1)NC(=O)[C@H]1CC(=O)N(C2CC2)C1
REMARK SMILES IDX 11 1 10 2 9 3 8 4 7 5 6 6 4 7 5 8 3 9 2 10 1 11 84 12 85 13
REMARK SMILES IDX 86 15 87 16 88 17 95 18 89 19 91 20 90 21 92 22 93 23 94 24
REMARK SMILES IDX 12 25 13 26 14 27 15 28 16 29 17 30 18 31 19 32 20 33 21 34
REMARK SMILES IDX 22 35 83 36 23 37 82 38 24 39 25 40 26 41 76 42 27 43 81 44
REMARK SMILES IDX 75 45 77 46 28 47 80 48 74 49 73 50 29 52 61 53 41 54 60 55
REMARK SMILES IDX 42 56 45 57 59 58 78 59 43 60 44 61 58 63 79 64 46 65 30 66
REMARK SMILES IDX 31 67 39 68 32 69 33 70 37 71 40 72 34 73 35 74 38 75 36 76
REMARK SMILES IDX 62 77 63 78 71 79 64 80 65 81 69 82 72 83 66 84 67 85 70 86
REMARK SMILES IDX 68 87 47 88 48 89 56 90 49 91 50 92 54 93 57 94 51 95 52 96
REMARK SMILES IDX 55 97 53 98
REMARK H PARENT 84 14 77 51 45 62
REMARK Flexibility Score: inf
ROOT
ATOM      1  C   UNL     1      -1.008   0.816   7.013  1.00  0.00     0.188 C 
ENDROOT
BRANCH   1   2
ATOM      2  C   UNL     1      -2.461   0.789   7.502  1.00  0.00     0.188 C 
BRANCH   2   3
ATOM      3  O   UNL     1      -2.672   0.315   8.829  1.00  0.00    -0.376 OA
BRANCH   3   4
ATOM      4  C   UNL     1      -2.310  -1.034   9.124  1.00  0.00     0.202 C 
BRANCH   4   5
ATOM      5  C   UNL     1      -2.915  -2.148   8.247  1.00  0.00     0.261 C 
BRANCH   5   6
ATOM      6  O   UNL     1      -2.437  -2.117   6.880  1.00  0.00    -0.463 OA
BRANCH   6   7
ATOM      7  C   UNL     1      -3.379  -2.212   5.910  1.00  0.00     0.307 C 
ATOM      8  O   UNL     1      -4.544  -2.539   6.114  1.00  0.00    -0.252 OA
BRANCH   7   9
ATOM      9  C   UNL     1      -2.927  -1.666   4.570  1.00  0.00     0.147 C 
BRANCH   9  10
ATOM     10  C   UNL     1      -1.726  -2.231   3.809  1.00  0.00     0.090 C 
ATOM     11  C   UNL     1      -0.361  -1.769   4.298  1.00  0.00     0.031 C 
BRANCH  10  12
ATOM     12  N   UNL     1      -1.694  -3.675   3.692  1.00  0.00    -0.353 N 
ATOM     13  C   UNL     1      -1.183  -4.409   2.660  1.00  0.00     0.225 C 
ATOM     14  H   UNL     1      -2.083  -4.183   4.440  1.00  0.00     0.163 HD
ATOM     15  O   UNL     1      -0.806  -5.553   2.916  1.00  0.00    -0.275 OA
BRANCH  13  16
ATOM     16  C   UNL     1      -1.217  -3.866   1.240  1.00  0.00     0.107 C 
ATOM     17  C   UNL     1      -0.293  -2.717   0.840  1.00  0.00     0.115 C 
ATOM     18  C   UNL     1      -0.756  -4.962   0.290  1.00  0.00     0.133 C 
ATOM     19  C   UNL     1      -0.103  -2.935  -0.650  1.00  0.00     0.223 C 
ATOM     20  N   UNL     1      -0.433  -4.261  -0.921  1.00  0.00    -0.339 N 
ATOM     21  O   UNL     1       0.296  -2.077  -1.421  1.00  0.00    -0.275 OA
BRANCH  20  22
ATOM     22  C   UNL     1      -0.349  -4.973  -2.156  1.00  0.00     0.085 C 
ATOM     23  C   UNL     1      -0.225  -4.343  -3.511  1.00  0.00     0.027 C 
ATOM     24  C   UNL     1       0.948  -5.064  -2.910  1.00  0.00     0.027 C 
ENDBRANCH  20  22
ENDBRANCH  13  16
ENDBRANCH  10  12
ENDBRANCH   9  10
ENDBRANCH   7   9
ENDBRANCH   6   7
ENDBRANCH   5   6
ENDBRANCH   4   5
ENDBRANCH   3   4
ENDBRANCH   2   3
ENDBRANCH   1   2
BRANCH   1  25
ATOM     25  O   UNL     1      -0.451  -0.485   6.912  1.00  0.00    -0.377 OA
BRANCH  25  26
ATOM     26  C   UNL     1       0.751  -0.831   7.594  1.00  0.00     0.188 C 
BRANCH  26  27
ATOM     27  C   UNL     1       1.520   0.283   8.295  1.00  0.00     0.188 C 
BRANCH  27  28
ATOM     28  O   UNL     1       1.989   1.351   7.471  1.00  0.00    -0.376 OA
BRANCH  28  29
ATOM     29  C   UNL     1       2.324   1.071   6.114  1.00  0.00     0.202 C 
BRANCH  29  30
ATOM     30  C   UNL     1       3.711   0.469   5.890  1.00  0.00     0.261 C 
BRANCH  30  31
ATOM     31  O   UNL     1       3.808  -0.874   6.387  1.00  0.00    -0.460 OA
BRANCH  31  32
ATOM     32  C   UNL     1       4.396  -1.005   7.595  1.00  0.00     0.338 C 
ATOM     33  O   UNL     1       4.846  -0.121   8.312  1.00  0.00    -0.246 OA
BRANCH  32  34
ATOM     34  C   UNL     1       4.309  -2.410   8.016  1.00  0.00     0.060 A 
ATOM     35  C   UNL     1       3.775  -2.713   9.277  1.00  0.00     0.016 A 
ATOM     36  C   UNL     1       4.833  -3.412   7.199  1.00  0.00     0.016 A 
ATOM     37  C   UNL     1       3.804  -4.024   9.745  1.00  0.00     0.010 A 
ATOM     38  C   UNL     1       4.872  -4.720   7.673  1.00  0.00     0.010 A 
ATOM     39  C   UNL     1       4.393  -5.022   8.960  1.00  0.00    -0.014 A 
BRANCH  39  40
ATOM     40  C   UNL     1       4.697  -6.352   9.531  1.00  0.00     0.031 A 
ATOM     41  C   UNL     1       6.105  -6.628   9.971  1.00  0.00     0.074 A 
ATOM     42  C   UNL     1       3.752  -7.304   9.595  1.00  0.00     0.049 A 
ATOM     43  N   UNL     1       6.663  -7.757  10.319  1.00  0.00    -0.248 NA
ATOM     44  C   UNL     1       7.013  -5.469  10.005  1.00  0.00     0.031 C 
ATOM     45  C   UNL     1       2.348  -7.125   9.235  1.00  0.00     0.029 A 
ATOM     46  N   UNL     1       3.847  -8.623   9.957  1.00  0.00    -0.354 N 
ATOM     47  C   UNL     1       7.990  -7.450  10.590  1.00  0.00     0.074 A 
ATOM     48  C   UNL     1       8.161  -6.035  10.343  1.00  0.00     0.031 C 
ATOM     49  C   UNL     1       1.715  -8.304   9.364  1.00  0.00     0.029 A 
ATOM     50  C   UNL     1       2.681  -9.323   9.768  1.00  0.00     0.049 A 
ATOM     51  H   UNL     1       4.669  -9.028  10.316  1.00  0.00     0.167 HD
ATOM     52  C   UNL     1       8.973  -8.280  11.008  1.00  0.00     0.037 A 
ATOM     53  C   UNL     1       2.443 -10.645   9.869  1.00  0.00     0.037 A 
ATOM     54  C   UNL     1       8.783  -9.687  11.244  1.00  0.00     0.049 A 
ATOM     55  C   UNL     1       3.574 -11.563  10.260  1.00  0.00     0.074 A 
ATOM     56  C   UNL     1       9.701 -10.620  11.690  1.00  0.00     0.029 A 
ATOM     57  N   UNL     1       7.588 -10.363  11.042  1.00  0.00    -0.354 N 
ATOM     58  N   UNL     1       4.822 -11.271  10.537  1.00  0.00    -0.248 NA
ATOM     59  C   UNL     1       3.262 -12.996  10.351  1.00  0.00     0.031 C 
ATOM     60  C   UNL     1       9.079 -11.872  11.697  1.00  0.00     0.029 A 
ATOM     61  C   UNL     1       7.753 -11.708  11.326  1.00  0.00     0.049 A 
ATOM     62  H   UNL     1       6.747  -9.949  10.741  1.00  0.00     0.167 HD
ATOM     63  C   UNL     1       5.434 -12.473  10.871  1.00  0.00     0.074 A 
ATOM     64  C   UNL     1       4.416 -13.498  10.767  1.00  0.00     0.031 C 
ATOM     65  C   UNL     1       6.719 -12.708  11.235  1.00  0.00     0.037 A 
BRANCH  52  66
ATOM     66  C   UNL     1      10.344  -7.698  11.200  1.00  0.00     0.064 A 
ATOM     67  C   UNL     1      10.627  -6.792  12.233  1.00  0.00     0.173 A 
ATOM     68  C   UNL     1      11.398  -8.073  10.352  1.00  0.00     0.173 A 
ATOM     69  F   UNL     1       9.653  -6.388  13.063  1.00  0.00    -0.203 F 
ATOM     70  C   UNL     1      11.905  -6.263  12.393  1.00  0.00     0.198 A 
ATOM     71  C   UNL     1      12.682  -7.569  10.536  1.00  0.00     0.198 A 
ATOM     72  F   UNL     1      11.184  -8.937   9.348  1.00  0.00    -0.203 F 
ATOM     73  F   UNL     1      12.139  -5.359  13.354  1.00  0.00    -0.200 F 
ATOM     74  C   UNL     1      12.933  -6.657  11.550  1.00  0.00     0.200 A 
ATOM     75  F   UNL     1      13.677  -7.962   9.728  1.00  0.00    -0.200 F 
ATOM     76  F   UNL     1      14.165  -6.154  11.710  1.00  0.00    -0.200 F 
ENDBRANCH  52  66
BRANCH  53  77
ATOM     77  C   UNL     1       1.088 -11.181   9.578  1.00  0.00     0.064 A 
ATOM     78  C   UNL     1       0.304 -11.745  10.594  1.00  0.00     0.173 A 
ATOM     79  C   UNL     1       0.551 -11.153   8.282  1.00  0.00     0.173 A 
ATOM     80  F   UNL     1       0.781 -11.816  11.846  1.00  0.00    -0.203 F 
ATOM     81  C   UNL     1      -0.953 -12.280  10.322  1.00  0.00     0.198 A 
ATOM     82  C   UNL     1      -0.720 -11.659   8.017  1.00  0.00     0.198 A 
ATOM     83  F   UNL     1       1.258 -10.623   7.273  1.00  0.00    -0.203 F 
ATOM     84  F   UNL     1      -1.659 -12.859  11.303  1.00  0.00    -0.200 F 
ATOM     85  C   UNL     1      -1.467 -12.231   9.035  1.00  0.00     0.200 A 
ATOM     86  F   UNL     1      -1.218 -11.596   6.774  1.00  0.00    -0.200 F 
ATOM     87  F   UNL     1      -2.678 -12.742   8.774  1.00  0.00    -0.200 F 
ENDBRANCH  53  77
BRANCH  65  88
ATOM     88  C   UNL     1       7.090 -14.115  11.607  1.00  0.00     0.064 A 
ATOM     89  C   UNL     1       7.198 -15.132  10.648  1.00  0.00     0.173 A 
ATOM     90  C   UNL     1       7.411 -14.429  12.937  1.00  0.00     0.173 A 
ATOM     91  F   UNL     1       6.890 -14.886   9.365  1.00  0.00    -0.203 F 
ATOM     92  C   UNL     1       7.596 -16.416  11.010  1.00  0.00     0.198 A 
ATOM     93  C   UNL     1       7.842 -15.704  13.289  1.00  0.00     0.198 A 
ATOM     94  F   UNL     1       7.332 -13.490  13.892  1.00  0.00    -0.203 F 
ATOM     95  F   UNL     1       7.653 -17.384  10.084  1.00  0.00    -0.200 F 
ATOM     96  C   UNL     1       7.928 -16.698  12.327  1.00  0.00     0.200 A 
ATOM     97  F   UNL     1       8.180 -15.969  14.559  1.00  0.00    -0.200 F 
ATOM     98  F   UNL     1       8.329 -17.930  12.670  1.00  0.00    -0.200 F 
ENDBRANCH  65  88
ENDBRANCH  39  40
ENDBRANCH  32  34
ENDBRANCH  31  32
ENDBRANCH  30  31
ENDBRANCH  29  30
ENDBRANCH  28  29
ENDBRANCH  27  28
ENDBRANCH  26  27
ENDBRANCH  25  26
ENDBRANCH   1  25
TORSDOF 24
