REMARK SMILES O=C(OCCOCCOCCOCCOC(=O)[C@@]1(Cc2cn3ccccc3n2)CCC[NH2+]C1)c1ccc(-c2c3nc(c(-c4c(F)c(F)c(F)c(F)c4F)c4ccc([nH]4)c(-c4c(F)c(F)c(F)c(F)c4F)c4nc(c(-c5c(F)c(F)c(F)c(F)c5F)c5ccc2[nH]5)C=C4)C=C3)cc1
REMARK SMILES IDX 9 1 8 2 7 3 6 4 5 5 4 6 3 7 2 8 1 9 34 10 35 11 96 12 36 13
REMARK SMILES IDX 95 14 37 15 38 16 39 17 89 18 40 19 94 20 88 21 90 22 41 23
REMARK SMILES IDX 93 24 87 25 86 26 42 28 74 29 54 30 73 31 55 32 58 33 72 34
REMARK SMILES IDX 91 35 56 36 57 37 71 39 92 40 59 41 43 42 44 43 52 44 45 45
REMARK SMILES IDX 46 46 50 47 53 48 47 49 48 50 51 51 49 52 75 53 76 54 84 55
REMARK SMILES IDX 77 56 78 57 82 58 85 59 79 60 80 61 83 62 81 63 60 64 61 65
REMARK SMILES IDX 69 66 62 67 63 68 67 69 70 70 64 71 65 72 68 73 66 74 10 75
REMARK SMILES IDX 11 76 12 77 13 78 14 79 15 80 16 81 17 82 18 83 29 84 33 85
REMARK SMILES IDX 30 86 32 87 31 88 19 91 20 92 21 93 28 94 22 95 27 96 23 97
REMARK SMILES IDX 26 98 24 99 25 100
REMARK H PARENT 90 27 58 38 32 89 32 90
REMARK Flexibility Score: inf
ROOT
ATOM      1  O   UNL     1       3.689   1.661  -4.922  1.00  0.00    -0.377 OA
ENDROOT
BRANCH   1   2
ATOM      2  C   UNL     1       2.899   0.608  -5.453  1.00  0.00     0.188 C 
BRANCH   2   3
ATOM      3  C   UNL     1       2.331  -0.316  -4.388  1.00  0.00     0.188 C 
BRANCH   3   4
ATOM      4  O   UNL     1       1.456   0.410  -3.526  1.00  0.00    -0.376 OA
BRANCH   4   5
ATOM      5  C   UNL     1       1.631   0.169  -2.129  1.00  0.00     0.202 C 
BRANCH   5   6
ATOM      6  C   UNL     1       0.947  -1.102  -1.641  1.00  0.00     0.261 C 
BRANCH   6   7
ATOM      7  O   UNL     1       0.812  -2.102  -2.663  1.00  0.00    -0.460 OA
BRANCH   7   8
ATOM      8  C   UNL     1      -0.124  -2.206  -3.637  1.00  0.00     0.338 C 
ATOM      9  O   UNL     1      -0.031  -3.149  -4.424  1.00  0.00    -0.246 OA
BRANCH   8  10
ATOM     10  C   UNL     1      -1.274  -1.265  -3.835  1.00  0.00     0.060 A 
ATOM     11  C   UNL     1      -1.337   0.059  -3.400  1.00  0.00     0.016 A 
ATOM     12  C   UNL     1      -2.358  -1.750  -4.590  1.00  0.00     0.016 A 
ATOM     13  C   UNL     1      -2.417   0.876  -3.677  1.00  0.00     0.010 A 
ATOM     14  C   UNL     1      -3.471  -0.947  -4.855  1.00  0.00     0.010 A 
ATOM     15  C   UNL     1      -3.505   0.362  -4.368  1.00  0.00    -0.014 A 
BRANCH  15  16
ATOM     16  C   UNL     1      -4.742   1.148  -4.296  1.00  0.00     0.031 A 
ATOM     17  C   UNL     1      -5.736   0.744  -3.251  1.00  0.00     0.074 A 
ATOM     18  C   UNL     1      -4.848   2.297  -4.982  1.00  0.00     0.049 A 
ATOM     19  N   UNL     1      -6.918   1.228  -2.995  1.00  0.00    -0.248 NA
ATOM     20  C   UNL     1      -5.325  -0.349  -2.349  1.00  0.00     0.031 C 
ATOM     21  C   UNL     1      -3.815   2.852  -5.861  1.00  0.00     0.029 A 
ATOM     22  N   UNL     1      -5.850   3.225  -5.014  1.00  0.00    -0.354 N 
ATOM     23  C   UNL     1      -7.406   0.471  -1.938  1.00  0.00     0.074 A 
ATOM     24  C   UNL     1      -6.396  -0.497  -1.588  1.00  0.00     0.031 C 
ATOM     25  C   UNL     1      -4.238   4.033  -6.341  1.00  0.00     0.029 A 
ATOM     26  C   UNL     1      -5.597   4.270  -5.867  1.00  0.00     0.049 A 
ATOM     27  H   UNL     1      -6.672   3.152  -4.478  1.00  0.00     0.167 HD
ATOM     28  C   UNL     1      -8.609   0.580  -1.333  1.00  0.00     0.037 A 
ATOM     29  C   UNL     1      -6.412   5.269  -6.251  1.00  0.00     0.037 A 
ATOM     30  C   UNL     1      -9.576   1.568  -1.716  1.00  0.00     0.049 A 
ATOM     31  C   UNL     1      -7.795   5.295  -5.655  1.00  0.00     0.074 A 
ATOM     32  C   UNL     1     -10.867   1.746  -1.263  1.00  0.00     0.029 A 
ATOM     33  N   UNL     1      -9.336   2.559  -2.664  1.00  0.00    -0.354 N 
ATOM     34  N   UNL     1      -8.315   4.510  -4.739  1.00  0.00    -0.248 NA
ATOM     35  C   UNL     1      -8.712   6.323  -6.156  1.00  0.00     0.031 C 
ATOM     36  C   UNL     1     -11.426   2.813  -1.976  1.00  0.00     0.029 A 
ATOM     37  C   UNL     1     -10.463   3.341  -2.826  1.00  0.00     0.049 A 
ATOM     38  H   UNL     1      -8.488   2.684  -3.147  1.00  0.00     0.167 HD
ATOM     39  C   UNL     1      -9.611   4.958  -4.537  1.00  0.00     0.074 A 
ATOM     40  C   UNL     1      -9.789   6.100  -5.415  1.00  0.00     0.031 C 
ATOM     41  C   UNL     1     -10.574   4.476  -3.711  1.00  0.00     0.037 A 
BRANCH  28  42
ATOM     42  C   UNL     1      -8.950  -0.453  -0.299  1.00  0.00     0.064 A 
ATOM     43  C   UNL     1      -8.323  -0.498   0.955  1.00  0.00     0.173 A 
ATOM     44  C   UNL     1      -9.880  -1.459  -0.602  1.00  0.00     0.173 A 
ATOM     45  F   UNL     1      -7.396   0.415   1.281  1.00  0.00    -0.203 F 
ATOM     46  C   UNL     1      -8.592  -1.530   1.854  1.00  0.00     0.198 A 
ATOM     47  C   UNL     1     -10.168  -2.471   0.310  1.00  0.00     0.198 A 
ATOM     48  F   UNL     1     -10.496  -1.474  -1.794  1.00  0.00    -0.203 F 
ATOM     49  F   UNL     1      -7.929  -1.592   3.018  1.00  0.00    -0.200 F 
ATOM     50  C   UNL     1      -9.516  -2.512   1.532  1.00  0.00     0.200 A 
ATOM     51  F   UNL     1     -11.061  -3.420  -0.005  1.00  0.00    -0.200 F 
ATOM     52  F   UNL     1      -9.765  -3.509   2.393  1.00  0.00    -0.200 F 
ENDBRANCH  28  42
BRANCH  29  53
ATOM     53  C   UNL     1      -5.976   6.249  -7.282  1.00  0.00     0.064 A 
ATOM     54  C   UNL     1      -5.866   7.617  -6.996  1.00  0.00     0.173 A 
ATOM     55  C   UNL     1      -5.675   5.838  -8.592  1.00  0.00     0.173 A 
ATOM     56  F   UNL     1      -6.160   8.070  -5.769  1.00  0.00    -0.203 F 
ATOM     57  C   UNL     1      -5.494   8.533  -7.981  1.00  0.00     0.198 A 
ATOM     58  C   UNL     1      -5.270   6.749  -9.565  1.00  0.00     0.198 A 
ATOM     59  F   UNL     1      -5.766   4.543  -8.929  1.00  0.00    -0.203 F 
ATOM     60  F   UNL     1      -5.447   9.841  -7.692  1.00  0.00    -0.200 F 
ATOM     61  C   UNL     1      -5.190   8.098  -9.262  1.00  0.00     0.200 A 
ATOM     62  F   UNL     1      -4.963   6.319 -10.797  1.00  0.00    -0.200 F 
ATOM     63  F   UNL     1      -4.832   8.979 -10.206  1.00  0.00    -0.200 F 
ENDBRANCH  29  53
BRANCH  41  64
ATOM     64  C   UNL     1     -11.877   5.214  -3.695  1.00  0.00     0.064 A 
ATOM     65  C   UNL     1     -12.777   5.141  -4.767  1.00  0.00     0.173 A 
ATOM     66  C   UNL     1     -12.247   5.958  -2.565  1.00  0.00     0.173 A 
ATOM     67  F   UNL     1     -12.457   4.454  -5.874  1.00  0.00    -0.203 F 
ATOM     68  C   UNL     1     -13.995   5.810  -4.717  1.00  0.00     0.198 A 
ATOM     69  C   UNL     1     -13.481   6.594  -2.505  1.00  0.00     0.198 A 
ATOM     70  F   UNL     1     -11.421   6.046  -1.512  1.00  0.00    -0.203 F 
ATOM     71  F   UNL     1     -14.821   5.771  -5.772  1.00  0.00    -0.200 F 
ATOM     72  C   UNL     1     -14.350   6.527  -3.583  1.00  0.00     0.200 A 
ATOM     73  F   UNL     1     -13.830   7.270  -1.401  1.00  0.00    -0.200 F 
ATOM     74  F   UNL     1     -15.530   7.159  -3.533  1.00  0.00    -0.200 F 
ENDBRANCH  41  64
ENDBRANCH  15  16
ENDBRANCH   8  10
ENDBRANCH   7   8
ENDBRANCH   6   7
ENDBRANCH   5   6
ENDBRANCH   4   5
ENDBRANCH   3   4
ENDBRANCH   2   3
ENDBRANCH   1   2
BRANCH   1  75
ATOM     75  C   UNL     1       3.078   2.476  -3.930  1.00  0.00     0.188 C 
BRANCH  75  76
ATOM     76  C   UNL     1       1.821   3.285  -4.251  1.00  0.00     0.188 C 
BRANCH  76  77
ATOM     77  O   UNL     1       1.344   3.107  -5.574  1.00  0.00    -0.376 OA
BRANCH  77  78
ATOM     78  C   UNL     1       1.721   4.140  -6.476  1.00  0.00     0.202 C 
BRANCH  78  79
ATOM     79  C   UNL     1       3.188   4.163  -6.945  1.00  0.00     0.261 C 
BRANCH  79  80
ATOM     80  O   UNL     1       4.220   4.129  -5.935  1.00  0.00    -0.463 OA
BRANCH  80  81
ATOM     81  C   UNL     1       4.462   5.215  -5.169  1.00  0.00     0.318 C 
ATOM     82  O   UNL     1       3.829   6.264  -5.287  1.00  0.00    -0.251 OA
BRANCH  81  83
ATOM     83  C   UNL     1       5.595   5.005  -4.118  1.00  0.00     0.122 C 
ATOM     84  C   UNL     1       6.252   3.585  -4.166  1.00  0.00     0.031 C 
ATOM     85  C   UNL     1       6.681   6.019  -4.548  1.00  0.00     0.279 C 
ATOM     86  C   UNL     1       7.626   3.479  -3.515  1.00  0.00     0.063 C 
ATOM     87  N   UNL     1       7.967   5.903  -3.851  1.00  0.00    -0.345 N 
ATOM     88  C   UNL     1       8.560   4.576  -3.985  1.00  0.00     0.260 C 
ATOM     89  H   UNL     1       8.613   6.590  -4.240  1.00  0.00     0.346 HD
ATOM     90  H   UNL     1       7.796   6.066  -2.859  1.00  0.00     0.346 HD
BRANCH  83  91
ATOM     91  C   UNL     1       4.925   5.362  -2.742  1.00  0.00     0.082 C 
BRANCH  91  92
ATOM     92  C   UNL     1       5.799   5.400  -1.543  1.00  0.00     0.061 A 
ATOM     93  C   UNL     1       6.648   6.415  -1.162  1.00  0.00     0.116 A 
ATOM     94  N   UNL     1       5.851   4.358  -0.638  1.00  0.00    -0.234 NA
ATOM     95  N   UNL     1       7.431   5.872  -0.187  1.00  0.00    -0.307 N 
ATOM     96  C   UNL     1       6.853   4.659   0.169  1.00  0.00     0.136 A 
ATOM     97  C   UNL     1       8.624   6.351   0.341  1.00  0.00     0.093 A 
ATOM     98  C   UNL     1       7.478   3.942   1.231  1.00  0.00     0.048 A 
ATOM     99  C   UNL     1       9.256   5.629   1.281  1.00  0.00     0.018 A 
ATOM    100  C   UNL     1       8.632   4.401   1.757  1.00  0.00     0.005 A 
ENDBRANCH  91  92
ENDBRANCH  83  91
ENDBRANCH  81  83
ENDBRANCH  80  81
ENDBRANCH  79  80
ENDBRANCH  78  79
ENDBRANCH  77  78
ENDBRANCH  76  77
ENDBRANCH  75  76
ENDBRANCH   1  75
TORSDOF 22
