REMARK SMILES Cc1cccc([C@@H](CC(=O)OCCOCCOCCOCCOC(=O)c2ccc(-c3c4nc(c(-c5c(F)c(F)c(F)c(F)c5F)c5ccc([nH]5)c(-c5c(F)c(F)c(F)c(F)c5F)c5nc(c(-c6c(F)c(F)c(F)c(F)c6F)c6ccc3[nH]6)C=C5)C=C4)cc2)NC(=O)OC(C)(C)C)c1
REMARK SMILES IDX 16 1 15 2 14 3 13 4 12 5 11 6 9 7 10 8 8 9 7 10 6 11 1 12
REMARK SMILES IDX 2 13 3 14 97 15 4 16 5 17 89 18 90 19 91 21 92 22 93 23
REMARK SMILES IDX 94 24 95 25 96 26 17 27 18 28 19 29 20 30 21 31 22 32 23 33
REMARK SMILES IDX 24 34 25 35 26 36 27 37 88 38 28 39 87 40 29 41 30 42 31 43
REMARK SMILES IDX 81 44 32 45 86 46 80 47 82 48 33 49 85 50 79 51 78 52 34 54
REMARK SMILES IDX 66 55 46 56 65 57 47 58 50 59 64 60 83 61 48 62 49 63 63 65
REMARK SMILES IDX 84 66 51 67 35 68 36 69 44 70 37 71 38 72 42 73 45 74 39 75
REMARK SMILES IDX 40 76 43 77 41 78 67 79 68 80 76 81 69 82 70 83 74 84 77 85
REMARK SMILES IDX 71 86 72 87 75 88 73 89 52 90 53 91 61 92 54 93 55 94 59 95
REMARK SMILES IDX 62 96 56 97 57 98 60 99 58 100
REMARK H PARENT 89 20 82 53 50 64
REMARK Flexibility Score: inf
ROOT
ATOM      1  C   UNL     1      -5.159   3.714   1.662  1.00  0.00     0.188 C 
ENDROOT
BRANCH   1   2
ATOM      2  C   UNL     1      -6.190   4.133   0.614  1.00  0.00     0.188 C 
BRANCH   2   3
ATOM      3  O   UNL     1      -7.009   3.110   0.063  1.00  0.00    -0.376 OA
BRANCH   3   4
ATOM      4  C   UNL     1      -6.461   2.333  -1.004  1.00  0.00     0.202 C 
BRANCH   4   5
ATOM      5  C   UNL     1      -5.320   2.934  -1.833  1.00  0.00     0.261 C 
BRANCH   5   6
ATOM      6  O   UNL     1      -4.046   2.613  -1.186  1.00  0.00    -0.463 OA
BRANCH   6   7
ATOM      7  C   UNL     1      -3.093   3.553  -1.029  1.00  0.00     0.308 C 
ATOM      8  O   UNL     1      -3.249   4.707  -1.422  1.00  0.00    -0.252 OA
BRANCH   7   9
ATOM      9  C   UNL     1      -1.725   3.053  -0.508  1.00  0.00     0.152 C 
BRANCH   9  10
ATOM     10  C   UNL     1      -1.331   2.170   0.745  1.00  0.00     0.127 C 
BRANCH  10  11
ATOM     11  C   UNL     1      -1.033   0.636   0.576  1.00  0.00    -0.025 A 
ATOM     12  C   UNL     1       2.663  -1.262  -0.712  1.00  0.00     0.044 C 
ATOM     13  C   UNL     1       1.145  -1.167  -0.810  1.00  0.00    -0.051 A 
ATOM     14  C   UNL     1       0.085  -2.639  -0.678  1.00  0.00     0.003 A 
ATOM     15  C   UNL     1       0.539   0.445  -0.309  1.00  0.00     0.009 A 
ATOM     16  C   UNL     1      -1.613  -2.486   0.043  1.00  0.00     0.001 A 
ATOM     17  C   UNL     1      -2.066  -0.882   0.877  1.00  0.00     0.006 A 
ENDBRANCH  10  11
BRANCH  10  18
ATOM     18  N   UNL     1      -1.888   2.472   2.021  1.00  0.00    -0.314 N 
ATOM     19  C   UNL     1      -1.915   3.627   2.742  1.00  0.00     0.408 C 
ATOM     20  H   UNL     1      -2.332   1.711   2.460  1.00  0.00     0.167 HD
ATOM     21  O   UNL     1      -2.567   3.664   3.779  1.00  0.00    -0.225 OA
BRANCH  19  22
ATOM     22  O   UNL     1      -1.177   4.653   2.247  1.00  0.00    -0.444 OA
BRANCH  22  23
ATOM     23  C   UNL     1      -1.072   5.866   3.057  1.00  0.00     0.106 C 
ATOM     24  C   UNL     1      -2.397   6.643   3.072  1.00  0.00     0.056 C 
ATOM     25  C   UNL     1      -0.582   5.552   4.483  1.00  0.00     0.056 C 
ATOM     26  C   UNL     1      -0.006   6.752   2.392  1.00  0.00     0.056 C 
ENDBRANCH  22  23
ENDBRANCH  19  22
ENDBRANCH  10  18
ENDBRANCH   9  10
ENDBRANCH   7   9
ENDBRANCH   6   7
ENDBRANCH   5   6
ENDBRANCH   4   5
ENDBRANCH   3   4
ENDBRANCH   2   3
ENDBRANCH   1   2
BRANCH   1  27
ATOM     27  O   UNL     1      -4.381   2.588   1.296  1.00  0.00    -0.377 OA
BRANCH  27  28
ATOM     28  C   UNL     1      -4.912   1.370   1.764  1.00  0.00     0.188 C 
BRANCH  28  29
ATOM     29  C   UNL     1      -4.653   1.102   3.215  1.00  0.00     0.188 C 
BRANCH  29  30
ATOM     30  O   UNL     1      -5.859   1.446   3.864  1.00  0.00    -0.376 OA
BRANCH  30  31
ATOM     31  C   UNL     1      -5.724   1.445   5.273  1.00  0.00     0.202 C 
BRANCH  31  32
ATOM     32  C   UNL     1      -5.452   0.029   5.790  1.00  0.00     0.261 C 
BRANCH  32  33
ATOM     33  O   UNL     1      -6.415  -0.853   5.160  1.00  0.00    -0.460 OA
BRANCH  33  34
ATOM     34  C   UNL     1      -5.913  -2.013   4.658  1.00  0.00     0.338 C 
ATOM     35  O   UNL     1      -5.253  -2.815   5.297  1.00  0.00    -0.246 OA
BRANCH  34  36
ATOM     36  C   UNL     1      -6.074  -2.065   3.164  1.00  0.00     0.060 A 
ATOM     37  C   UNL     1      -5.196  -2.848   2.397  1.00  0.00     0.016 A 
ATOM     38  C   UNL     1      -6.934  -1.198   2.496  1.00  0.00     0.016 A 
ATOM     39  C   UNL     1      -5.080  -2.649   1.001  1.00  0.00     0.010 A 
ATOM     40  C   UNL     1      -6.794  -0.996   1.115  1.00  0.00     0.010 A 
ATOM     41  C   UNL     1      -5.809  -1.645   0.351  1.00  0.00    -0.014 A 
BRANCH  41  42
ATOM     42  C   UNL     1      -5.543  -1.179  -1.051  1.00  0.00     0.031 A 
ATOM     43  C   UNL     1      -6.641  -1.138  -2.038  1.00  0.00     0.074 A 
ATOM     44  C   UNL     1      -4.449  -0.442  -1.408  1.00  0.00     0.049 A 
ATOM     45  N   UNL     1      -6.464  -0.852  -3.279  1.00  0.00    -0.248 NA
ATOM     46  C   UNL     1      -8.049  -1.226  -1.707  1.00  0.00     0.031 C 
ATOM     47  C   UNL     1      -3.997   0.261  -2.598  1.00  0.00     0.029 A 
ATOM     48  N   UNL     1      -3.409  -0.048  -0.629  1.00  0.00    -0.354 N 
ATOM     49  C   UNL     1      -7.588  -0.196  -3.724  1.00  0.00     0.074 A 
ATOM     50  C   UNL     1      -8.591  -0.615  -2.769  1.00  0.00     0.031 C 
ATOM     51  C   UNL     1      -2.666   0.531  -2.571  1.00  0.00     0.029 A 
ATOM     52  C   UNL     1      -2.180  -0.081  -1.347  1.00  0.00     0.049 A 
ATOM     53  H   UNL     1      -3.495   0.226   0.312  1.00  0.00     0.167 HD
ATOM     54  C   UNL     1      -7.426   0.729  -4.734  1.00  0.00     0.037 A 
ATOM     55  C   UNL     1      -0.989  -0.841  -0.962  1.00  0.00     0.037 A 
ATOM     56  C   UNL     1      -6.006   0.710  -5.281  1.00  0.00     0.049 A 
ATOM     57  C   UNL     1      -1.181  -1.678  -2.595  1.00  0.00     0.074 A 
ATOM     58  C   UNL     1      -5.022   1.636  -5.622  1.00  0.00     0.029 A 
ATOM     59  N   UNL     1      -5.303  -0.523  -5.320  1.00  0.00    -0.354 N 
ATOM     60  N   UNL     1      -2.324  -1.661  -3.311  1.00  0.00    -0.248 NA
ATOM     61  C   UNL     1      -0.215  -2.409  -3.446  1.00  0.00     0.031 C 
ATOM     62  C   UNL     1      -3.764   0.951  -5.811  1.00  0.00     0.029 A 
ATOM     63  C   UNL     1      -3.933  -0.402  -5.530  1.00  0.00     0.049 A 
ATOM     64  H   UNL     1      -5.750  -1.393  -5.207  1.00  0.00     0.167 HD
ATOM     65  C   UNL     1      -2.184  -1.981  -4.651  1.00  0.00     0.074 A 
ATOM     66  C   UNL     1      -0.902  -2.669  -4.589  1.00  0.00     0.031 C 
ATOM     67  C   UNL     1      -3.069  -1.608  -5.683  1.00  0.00     0.037 A 
BRANCH  54  68
ATOM     68  C   UNL     1      -8.499   1.790  -5.116  1.00  0.00     0.064 A 
ATOM     69  C   UNL     1      -8.223   2.854  -6.009  1.00  0.00     0.173 A 
ATOM     70  C   UNL     1      -9.832   1.832  -4.635  1.00  0.00     0.173 A 
ATOM     71  F   UNL     1      -7.039   2.974  -6.614  1.00  0.00    -0.203 F 
ATOM     72  C   UNL     1      -9.159   3.851  -6.352  1.00  0.00     0.198 A 
ATOM     73  C   UNL     1     -10.771   2.820  -4.980  1.00  0.00     0.198 A 
ATOM     74  F   UNL     1     -10.332   0.909  -3.821  1.00  0.00    -0.203 F 
ATOM     75  F   UNL     1      -8.806   4.831  -7.197  1.00  0.00    -0.200 F 
ATOM     76  C   UNL     1     -10.436   3.833  -5.840  1.00  0.00     0.200 A 
ATOM     77  F   UNL     1     -12.011   2.760  -4.469  1.00  0.00    -0.200 F 
ATOM     78  F   UNL     1     -11.336   4.764  -6.184  1.00  0.00    -0.200 F 
ENDBRANCH  54  68
BRANCH  55  79
ATOM     79  C   UNL     1      -0.090  -1.319   0.926  1.00  0.00     0.064 A 
ATOM     80  C   UNL     1       0.542  -0.441   1.999  1.00  0.00     0.173 A 
ATOM     81  C   UNL     1      -0.388  -2.532   1.912  1.00  0.00     0.173 A 
ATOM     82  F   UNL     1       1.586   0.372   1.731  1.00  0.00    -0.203 F 
ATOM     83  C   UNL     1       0.160  -0.367   3.381  1.00  0.00     0.198 A 
ATOM     84  C   UNL     1      -0.866  -2.435   3.246  1.00  0.00     0.198 A 
ATOM     85  F   UNL     1      -0.391  -3.818   1.479  1.00  0.00    -0.203 F 
ATOM     86  F   UNL     1       0.626   0.636   4.140  1.00  0.00    -0.200 F 
ATOM     87  C   UNL     1      -0.690  -1.281   3.944  1.00  0.00     0.200 A 
ATOM     88  F   UNL     1      -1.555  -3.452   3.790  1.00  0.00    -0.200 F 
ATOM     89  F   UNL     1      -1.199  -1.116   5.173  1.00  0.00    -0.200 F 
ENDBRANCH  55  79
BRANCH  67  90
ATOM     90  C   UNL     1      -3.264  -2.253  -7.087  1.00  0.00     0.064 A 
ATOM     91  C   UNL     1      -2.391  -3.146  -7.704  1.00  0.00     0.173 A 
ATOM     92  C   UNL     1      -4.452  -2.004  -7.863  1.00  0.00     0.173 A 
ATOM     93  F   UNL     1      -1.164  -3.364  -7.232  1.00  0.00    -0.203 F 
ATOM     94  C   UNL     1      -2.723  -3.824  -8.891  1.00  0.00     0.198 A 
ATOM     95  C   UNL     1      -4.784  -2.679  -9.033  1.00  0.00     0.198 A 
ATOM     96  F   UNL     1      -5.366  -1.078  -7.555  1.00  0.00    -0.203 F 
ATOM     97  F   UNL     1      -1.848  -4.691  -9.415  1.00  0.00    -0.200 F 
ATOM     98  C   UNL     1      -3.927  -3.614  -9.537  1.00  0.00     0.200 A 
ATOM     99  F   UNL     1      -5.943  -2.404  -9.651  1.00  0.00    -0.200 F 
ATOM    100  F   UNL     1      -4.245  -4.285 -10.651  1.00  0.00    -0.200 F 
ENDBRANCH  67  90
ENDBRANCH  41  42
ENDBRANCH  34  36
ENDBRANCH  33  34
ENDBRANCH  32  33
ENDBRANCH  31  32
ENDBRANCH  30  31
ENDBRANCH  29  30
ENDBRANCH  28  29
ENDBRANCH  27  28
ENDBRANCH   1  27
TORSDOF 25
