REMARK SMILES C[C@@H](C(=O)OCCOCCOCCOCCOC(=O)c1ccc(-c2c3nc(c(-c4c(F)c(F)c(F)c(F)c4F)c4ccc([nH]4)c(-c4c(F)c(F)c(F)c(F)c4F)c4nc(c(-c5c(F)c(F)c(F)c(F)c5F)c5ccc2[nH]5)C=C4)C=C3)cc1)[N@@H+]1CCc2n[nH]c(C(c3ccccc3)c3ccccc3)c2C1
REMARK SMILES IDX 10 1 9 2 8 3 7 4 6 5 5 6 3 7 4 8 2 9 1 10 83 11 84 12 104 13
REMARK SMILES IDX 85 15 103 16 86 17 89 18 87 19 88 20 90 22 91 23 92 24 96 25
REMARK SMILES IDX 93 26 95 27 94 28 97 29 98 30 102 31 99 32 101 33 100 34
REMARK SMILES IDX 11 35 12 36 13 37 14 38 15 39 16 40 17 41 18 42 19 43 20 44
REMARK SMILES IDX 21 45 82 46 22 47 81 48 23 49 24 50 25 51 75 52 26 53 80 54
REMARK SMILES IDX 74 55 76 56 27 57 79 58 73 59 72 60 28 62 60 63 40 64 59 65
REMARK SMILES IDX 41 66 44 67 58 68 77 69 42 70 43 71 57 73 78 74 45 75 29 76
REMARK SMILES IDX 30 77 38 78 31 79 32 80 36 81 39 82 33 83 34 84 37 85 35 86
REMARK SMILES IDX 61 87 62 88 70 89 63 90 64 91 68 92 71 93 65 94 66 95 69 96
REMARK SMILES IDX 67 97 46 98 47 99 55 100 48 101 49 102 53 103 56 104 50 105
REMARK SMILES IDX 51 106 54 107 52 108
REMARK H PARENT 83 14 88 21 76 61 44 72
REMARK Flexibility Score: inf
ROOT
ATOM      1  C   UNL     1       1.003   4.855  -1.469  1.00  0.00     0.188 C 
ENDROOT
BRANCH   1   2
ATOM      2  C   UNL     1       1.161   5.389  -0.030  1.00  0.00     0.188 C 
BRANCH   2   3
ATOM      3  O   UNL     1       1.252   4.396   1.000  1.00  0.00    -0.376 OA
BRANCH   3   4
ATOM      4  C   UNL     1       2.559   4.035   1.472  1.00  0.00     0.202 C 
BRANCH   4   5
ATOM      5  C   UNL     1       2.514   3.097   2.754  1.00  0.00     0.261 C 
BRANCH   5   6
ATOM      6  O   UNL     1       2.019   1.745   2.460  1.00  0.00    -0.459 OA
BRANCH   6   7
ATOM      7  C   UNL     1       1.303   1.022   3.393  1.00  0.00     0.364 C 
ATOM      8  O   UNL     1       1.511   1.127   4.598  1.00  0.00    -0.245 OA
BRANCH   7   9
ATOM      9  C   UNL     1       0.041   0.190   2.780  1.00  0.00     0.292 C 
ATOM     10  C   UNL     1       0.356  -1.100   2.026  1.00  0.00     0.088 C 
BRANCH   9  11
ATOM     11  N   UNL     1      -0.946   1.097   2.099  1.00  0.00    -0.319 N 
ATOM     12  C   UNL     1      -1.988   0.530   1.188  1.00  0.00     0.269 C 
ATOM     13  C   UNL     1      -0.229   2.155   1.405  1.00  0.00     0.303 C 
ATOM     14  H   UNL     1      -1.509   1.414   2.887  1.00  0.00     0.349 HD
ATOM     15  C   UNL     1      -1.961   1.013  -0.318  1.00  0.00     0.120 C 
ATOM     16  C   UNL     1       0.445   1.565   0.193  1.00  0.00     0.052 A 
ATOM     17  C   UNL     1      -0.543   1.160  -0.742  1.00  0.00     0.077 A 
ATOM     18  C   UNL     1       1.643   1.050  -0.370  1.00  0.00     0.056 A 
ATOM     19  N   UNL     1      -0.043   0.972  -1.949  1.00  0.00    -0.180 NA
ATOM     20  N   UNL     1       1.260   1.188  -1.711  1.00  0.00    -0.281 N 
ATOM     21  H   UNL     1       1.898   1.425  -2.423  1.00  0.00     0.190 HD
BRANCH  18  22
ATOM     22  C   UNL     1       3.179   0.618  -0.115  1.00  0.00     0.098 C 
BRANCH  22  23
ATOM     23  C   UNL     1       3.703  -0.035   1.212  1.00  0.00    -0.035 A 
ATOM     24  C   UNL     1       4.717   0.602   1.962  1.00  0.00     0.005 A 
ATOM     25  C   UNL     1       3.349  -1.316   1.673  1.00  0.00     0.005 A 
ATOM     26  C   UNL     1       5.261   0.031   3.131  1.00  0.00     0.000 A 
ATOM     27  C   UNL     1       3.895  -1.902   2.828  1.00  0.00     0.000 A 
ATOM     28  C   UNL     1       4.843  -1.219   3.570  1.00  0.00     0.000 A 
ENDBRANCH  22  23
BRANCH  22  29
ATOM     29  C   UNL     1       3.699  -0.198  -1.356  1.00  0.00    -0.035 A 
ATOM     30  C   UNL     1       3.721  -1.606  -1.425  1.00  0.00     0.005 A 
ATOM     31  C   UNL     1       3.967   0.493  -2.546  1.00  0.00     0.005 A 
ATOM     32  C   UNL     1       3.880  -2.292  -2.631  1.00  0.00     0.000 A 
ATOM     33  C   UNL     1       4.002  -0.195  -3.761  1.00  0.00     0.000 A 
ATOM     34  C   UNL     1       3.970  -1.581  -3.811  1.00  0.00     0.000 A 
ENDBRANCH  22  29
ENDBRANCH  18  22
ENDBRANCH   9  11
ENDBRANCH   7   9
ENDBRANCH   6   7
ENDBRANCH   5   6
ENDBRANCH   4   5
ENDBRANCH   3   4
ENDBRANCH   2   3
ENDBRANCH   1   2
BRANCH   1  35
ATOM     35  O   UNL     1       2.267   4.619  -2.112  1.00  0.00    -0.377 OA
BRANCH  35  36
ATOM     36  C   UNL     1       2.666   5.723  -2.934  1.00  0.00     0.188 C 
BRANCH  36  37
ATOM     37  C   UNL     1       2.026   5.778  -4.339  1.00  0.00     0.188 C 
BRANCH  37  38
ATOM     38  O   UNL     1       0.783   5.089  -4.424  1.00  0.00    -0.376 OA
BRANCH  38  39
ATOM     39  C   UNL     1       0.687   4.206  -5.548  1.00  0.00     0.202 C 
BRANCH  39  40
ATOM     40  C   UNL     1       1.377   2.857  -5.310  1.00  0.00     0.261 C 
BRANCH  40  41
ATOM     41  O   UNL     1       2.786   2.966  -5.030  1.00  0.00    -0.460 OA
BRANCH  41  42
ATOM     42  C   UNL     1       3.600   3.140  -6.104  1.00  0.00     0.338 C 
ATOM     43  O   UNL     1       3.295   3.244  -7.261  1.00  0.00    -0.246 OA
BRANCH  42  44
ATOM     44  C   UNL     1       4.983   3.159  -5.585  1.00  0.00     0.060 A 
ATOM     45  C   UNL     1       5.525   4.329  -5.050  1.00  0.00     0.016 A 
ATOM     46  C   UNL     1       5.742   1.991  -5.652  1.00  0.00     0.016 A 
ATOM     47  C   UNL     1       6.833   4.328  -4.564  1.00  0.00     0.010 A 
ATOM     48  C   UNL     1       7.030   1.971  -5.123  1.00  0.00     0.010 A 
ATOM     49  C   UNL     1       7.595   3.153  -4.621  1.00  0.00    -0.014 A 
BRANCH  49  50
ATOM     50  C   UNL     1       9.062   3.221  -4.452  1.00  0.00     0.031 A 
ATOM     51  C   UNL     1       9.888   3.371  -5.699  1.00  0.00     0.074 A 
ATOM     52  C   UNL     1       9.642   3.149  -3.242  1.00  0.00     0.049 A 
ATOM     53  N   UNL     1      11.186   3.400  -5.842  1.00  0.00    -0.248 NA
ATOM     54  C   UNL     1       9.140   3.501  -6.963  1.00  0.00     0.031 C 
ATOM     55  C   UNL     1       8.938   3.029  -1.968  1.00  0.00     0.029 A 
ATOM     56  N   UNL     1      10.970   3.155  -2.898  1.00  0.00    -0.354 N 
ATOM     57  C   UNL     1      11.406   3.545  -7.205  1.00  0.00     0.074 A 
ATOM     58  C   UNL     1      10.116   3.567  -7.853  1.00  0.00     0.031 C 
ATOM     59  C   UNL     1       9.845   2.963  -0.976  1.00  0.00     0.029 A 
ATOM     60  C   UNL     1      11.189   3.007  -1.551  1.00  0.00     0.049 A 
ATOM     61  H   UNL     1      11.696   3.257  -3.554  1.00  0.00     0.167 HD
ATOM     62  C   UNL     1      12.583   3.660  -7.859  1.00  0.00     0.037 A 
ATOM     63  C   UNL     1      12.349   2.900  -0.875  1.00  0.00     0.037 A 
ATOM     64  C   UNL     1      13.864   3.628  -7.213  1.00  0.00     0.049 A 
ATOM     65  C   UNL     1      13.651   2.963  -1.636  1.00  0.00     0.074 A 
ATOM     66  C   UNL     1      15.120   3.743  -7.779  1.00  0.00     0.029 A 
ATOM     67  N   UNL     1      14.047   3.460  -5.849  1.00  0.00    -0.354 N 
ATOM     68  N   UNL     1      13.854   3.136  -2.921  1.00  0.00    -0.248 NA
ATOM     69  C   UNL     1      14.886   2.817  -0.852  1.00  0.00     0.031 C 
ATOM     70  C   UNL     1      16.067   3.601  -6.759  1.00  0.00     0.029 A 
ATOM     71  C   UNL     1      15.399   3.447  -5.554  1.00  0.00     0.049 A 
ATOM     72  H   UNL     1      13.324   3.364  -5.188  1.00  0.00     0.167 HD
ATOM     73  C   UNL     1      15.232   3.150  -3.093  1.00  0.00     0.074 A 
ATOM     74  C   UNL     1      15.818   2.978  -1.780  1.00  0.00     0.031 C 
ATOM     75  C   UNL     1      15.952   3.292  -4.234  1.00  0.00     0.037 A 
BRANCH  62  76
ATOM     76  C   UNL     1      12.526   3.801  -9.350  1.00  0.00     0.064 A 
ATOM     77  C   UNL     1      12.081   4.984  -9.959  1.00  0.00     0.173 A 
ATOM     78  C   UNL     1      12.918   2.740 -10.178  1.00  0.00     0.173 A 
ATOM     79  F   UNL     1      11.670   6.017  -9.208  1.00  0.00    -0.203 F 
ATOM     80  C   UNL     1      12.009   5.090 -11.345  1.00  0.00     0.198 A 
ATOM     81  C   UNL     1      12.869   2.859 -11.564  1.00  0.00     0.198 A 
ATOM     82  F   UNL     1      13.342   1.585  -9.643  1.00  0.00    -0.203 F 
ATOM     83  F   UNL     1      11.534   6.211 -11.905  1.00  0.00    -0.200 F 
ATOM     84  C   UNL     1      12.409   4.031 -12.146  1.00  0.00     0.200 A 
ATOM     85  F   UNL     1      13.259   1.836 -12.336  1.00  0.00    -0.200 F 
ATOM     86  F   UNL     1      12.340   4.135 -13.480  1.00  0.00    -0.200 F 
ENDBRANCH  62  76
BRANCH  63  87
ATOM     87  C   UNL     1      12.345   2.715   0.600  1.00  0.00     0.064 A 
ATOM     88  C   UNL     1      12.817   3.720   1.456  1.00  0.00     0.173 A 
ATOM     89  C   UNL     1      11.905   1.518   1.183  1.00  0.00     0.173 A 
ATOM     90  F   UNL     1      13.274   4.873   0.945  1.00  0.00    -0.203 F 
ATOM     91  C   UNL     1      12.869   3.527   2.835  1.00  0.00     0.198 A 
ATOM     92  C   UNL     1      11.932   1.336   2.565  1.00  0.00     0.198 A 
ATOM     93  F   UNL     1      11.448   0.522   0.409  1.00  0.00    -0.203 F 
ATOM     94  F   UNL     1      13.372   4.486   3.625  1.00  0.00    -0.200 F 
ATOM     95  C   UNL     1      12.423   2.337   3.389  1.00  0.00     0.200 A 
ATOM     96  F   UNL     1      11.493   0.187   3.096  1.00  0.00    -0.200 F 
ATOM     97  F   UNL     1      12.476   2.151   4.715  1.00  0.00    -0.200 F 
ENDBRANCH  63  87
BRANCH  75  98
ATOM     98  C   UNL     1      17.447   3.312  -4.110  1.00  0.00     0.064 A 
ATOM     99  C   UNL     1      18.179   2.146  -3.847  1.00  0.00     0.173 A 
ATOM    100  C   UNL     1      18.157   4.504  -4.321  1.00  0.00     0.173 A 
ATOM    101  F   UNL     1      17.543   0.985  -3.626  1.00  0.00    -0.203 F 
ATOM    102  C   UNL     1      19.569   2.176  -3.779  1.00  0.00     0.198 A 
ATOM    103  C   UNL     1      19.548   4.525  -4.282  1.00  0.00     0.198 A 
ATOM    104  F   UNL     1      17.501   5.644  -4.587  1.00  0.00    -0.203 F 
ATOM    105  F   UNL     1      20.248   1.058  -3.488  1.00  0.00    -0.200 F 
ATOM    106  C   UNL     1      20.252   3.363  -4.005  1.00  0.00     0.200 A 
ATOM    107  F   UNL     1      20.206   5.668  -4.515  1.00  0.00    -0.200 F 
ATOM    108  F   UNL     1      21.591   3.387  -3.951  1.00  0.00    -0.200 F 
ENDBRANCH  75  98
ENDBRANCH  49  50
ENDBRANCH  42  44
ENDBRANCH  41  42
ENDBRANCH  40  41
ENDBRANCH  39  40
ENDBRANCH  38  39
ENDBRANCH  37  38
ENDBRANCH  36  37
ENDBRANCH  35  36
ENDBRANCH   1  35
TORSDOF 24
