REMARK SMILES O=C(Cn1cnc(-c2ccccc2)c1-c1ccccc1)OCCOCCOCCOCCOC(=O)c1ccc(-c2c3nc(c(-c4c(F)c(F)c(F)c(F)c4F)c4ccc([nH]4)c(-c4c(F)c(F)c(F)c(F)c4F)c4nc(c(-c5c(F)c(F)c(F)c(F)c5F)c5ccc2[nH]5)C=C4)C=C3)cc1
REMARK SMILES IDX 27 1 26 2 25 3 24 4 23 5 22 6 21 7 2 8 1 9 3 10 4 11 5 12
REMARK SMILES IDX 14 13 6 14 7 15 15 16 16 17 20 18 17 19 19 20 18 21 8 22
REMARK SMILES IDX 9 23 13 24 10 25 12 26 11 27 28 28 29 29 30 30 31 31 32 32
REMARK SMILES IDX 33 33 34 34 35 35 36 36 37 37 98 38 38 39 97 40 39 41 40 42
REMARK SMILES IDX 41 43 91 44 42 45 96 46 90 47 92 48 43 49 95 50 89 51 88 52
REMARK SMILES IDX 44 54 76 55 56 56 75 57 57 58 60 59 74 60 93 61 58 62 59 63
REMARK SMILES IDX 73 65 94 66 61 67 45 68 46 69 54 70 47 71 48 72 52 73 55 74
REMARK SMILES IDX 49 75 50 76 53 77 51 78 77 79 78 80 86 81 79 82 80 83 84 84
REMARK SMILES IDX 87 85 81 86 82 87 85 88 83 89 62 90 63 91 71 92 64 93 65 94
REMARK SMILES IDX 69 95 72 96 66 97 67 98 70 99 68 100
REMARK H PARENT 92 53 60 64
REMARK Flexibility Score: inf
ROOT
ATOM      1  O   UNL     1       3.054   3.432   2.098  1.00  0.00    -0.377 OA
ENDROOT
BRANCH   1   2
ATOM      2  C   UNL     1       2.246   2.683   1.200  1.00  0.00     0.188 C 
BRANCH   2   3
ATOM      3  C   UNL     1       2.562   1.186   1.138  1.00  0.00     0.188 C 
BRANCH   3   4
ATOM      4  O   UNL     1       3.929   0.808   1.188  1.00  0.00    -0.376 OA
BRANCH   4   5
ATOM      5  C   UNL     1       4.766   0.677   0.049  1.00  0.00     0.202 C 
BRANCH   5   6
ATOM      6  C   UNL     1       4.166   0.756  -1.342  1.00  0.00     0.261 C 
BRANCH   6   7
ATOM      7  O   UNL     1       3.027  -0.064  -1.701  1.00  0.00    -0.462 OA
BRANCH   7   8
ATOM      8  C   UNL     1       2.434  -1.140  -1.157  1.00  0.00     0.326 C 
ATOM      9  O   UNL     1       1.337  -1.492  -1.595  1.00  0.00    -0.250 OA
BRANCH   8  10
ATOM     10  C   UNL     1       3.086  -1.911  -0.051  1.00  0.00     0.246 C 
BRANCH  10  11
ATOM     11  N   UNL     1       3.892  -2.985  -0.567  1.00  0.00    -0.319 N 
ATOM     12  C   UNL     1       5.060  -2.816  -1.254  1.00  0.00     0.201 A 
ATOM     13  C   UNL     1       3.658  -4.334  -0.426  1.00  0.00     0.076 A 
ATOM     14  N   UNL     1       5.561  -3.961  -1.638  1.00  0.00    -0.236 NA
ATOM     15  C   UNL     1       4.676  -4.905  -1.176  1.00  0.00     0.096 A 
BRANCH  13  16
ATOM     16  C   UNL     1       2.605  -4.911   0.408  1.00  0.00     0.000 A 
ATOM     17  C   UNL     1       2.954  -5.702   1.509  1.00  0.00     0.010 A 
ATOM     18  C   UNL     1       1.251  -4.633   0.174  1.00  0.00     0.010 A 
ATOM     19  C   UNL     1       1.972  -6.187   2.375  1.00  0.00     0.001 A 
ATOM     20  C   UNL     1       0.271  -5.102   1.051  1.00  0.00     0.001 A 
ATOM     21  C   UNL     1       0.632  -5.878   2.151  1.00  0.00     0.000 A 
ENDBRANCH  13  16
BRANCH  15  22
ATOM     22  C   UNL     1       4.832  -6.305  -1.487  1.00  0.00     0.002 A 
ATOM     23  C   UNL     1       6.088  -6.905  -1.364  1.00  0.00     0.010 A 
ATOM     24  C   UNL     1       3.752  -7.042  -1.986  1.00  0.00     0.010 A 
ATOM     25  C   UNL     1       6.259  -8.241  -1.723  1.00  0.00     0.001 A 
ATOM     26  C   UNL     1       3.926  -8.374  -2.351  1.00  0.00     0.001 A 
ATOM     27  C   UNL     1       5.178  -8.973  -2.217  1.00  0.00     0.000 A 
ENDBRANCH  15  22
ENDBRANCH  10  11
ENDBRANCH   8  10
ENDBRANCH   7   8
ENDBRANCH   6   7
ENDBRANCH   5   6
ENDBRANCH   4   5
ENDBRANCH   3   4
ENDBRANCH   2   3
ENDBRANCH   1   2
BRANCH   1  28
ATOM     28  C   UNL     1       4.401   3.565   1.676  1.00  0.00     0.188 C 
BRANCH  28  29
ATOM     29  C   UNL     1       5.460   3.035   2.667  1.00  0.00     0.188 C 
BRANCH  29  30
ATOM     30  O   UNL     1       5.210   2.004   3.617  1.00  0.00    -0.376 OA
BRANCH  30  31
ATOM     31  C   UNL     1       3.979   1.876   4.317  1.00  0.00     0.202 C 
BRANCH  31  32
ATOM     32  C   UNL     1       3.568   2.929   5.345  1.00  0.00     0.261 C 
BRANCH  32  33
ATOM     33  O   UNL     1       3.371   4.200   4.744  1.00  0.00    -0.460 OA
BRANCH  33  34
ATOM     34  C   UNL     1       4.450   4.994   4.764  1.00  0.00     0.338 C 
ATOM     35  O   UNL     1       5.504   4.803   5.369  1.00  0.00    -0.246 OA
BRANCH  34  36
ATOM     36  C   UNL     1       4.209   6.170   3.920  1.00  0.00     0.060 A 
ATOM     37  C   UNL     1       5.254   7.091   3.819  1.00  0.00     0.016 A 
ATOM     38  C   UNL     1       2.941   6.431   3.377  1.00  0.00     0.016 A 
ATOM     39  C   UNL     1       4.958   8.374   3.425  1.00  0.00     0.010 A 
ATOM     40  C   UNL     1       2.643   7.713   2.974  1.00  0.00     0.010 A 
ATOM     41  C   UNL     1       3.627   8.685   3.134  1.00  0.00    -0.014 A 
BRANCH  41  42
ATOM     42  C   UNL     1       3.247  10.073   3.290  1.00  0.00     0.031 A 
ATOM     43  C   UNL     1       3.434  10.960   2.134  1.00  0.00     0.074 A 
ATOM     44  C   UNL     1       2.715  10.491   4.455  1.00  0.00     0.049 A 
ATOM     45  N   UNL     1       4.188  12.006   2.054  1.00  0.00    -0.248 NA
ATOM     46  C   UNL     1       2.729  10.613   0.895  1.00  0.00     0.031 C 
ATOM     47  C   UNL     1       2.215   9.665   5.560  1.00  0.00     0.029 A 
ATOM     48  N   UNL     1       2.416  11.758   4.848  1.00  0.00    -0.354 N 
ATOM     49  C   UNL     1       3.933  12.551   0.805  1.00  0.00     0.074 A 
ATOM     50  C   UNL     1       3.121  11.598   0.089  1.00  0.00     0.031 C 
ATOM     51  C   UNL     1       1.491  10.441   6.396  1.00  0.00     0.029 A 
ATOM     52  C   UNL     1       1.579  11.820   5.950  1.00  0.00     0.049 A 
ATOM     53  H   UNL     1       2.763  12.558   4.392  1.00  0.00     0.167 HD
ATOM     54  C   UNL     1       4.230  13.845   0.517  1.00  0.00     0.037 A 
ATOM     55  C   UNL     1       0.936  12.920   6.404  1.00  0.00     0.037 A 
ATOM     56  C   UNL     1       5.185  14.408   1.430  1.00  0.00     0.049 A 
ATOM     57  C   UNL     1       1.623  14.113   5.846  1.00  0.00     0.074 A 
ATOM     58  C   UNL     1       6.485  14.100   1.781  1.00  0.00     0.029 A 
ATOM     59  N   UNL     1       4.740  15.281   2.391  1.00  0.00    -0.354 N 
ATOM     60  N   UNL     1       2.805  14.524   6.210  1.00  0.00    -0.248 NA
ATOM     61  C   UNL     1       1.140  14.650   4.582  1.00  0.00     0.031 C 
ATOM     62  C   UNL     1       6.598  14.441   3.160  1.00  0.00     0.029 A 
ATOM     63  C   UNL     1       5.363  14.945   3.566  1.00  0.00     0.049 A 
ATOM     64  H   UNL     1       4.094  16.012   2.261  1.00  0.00     0.167 HD
ATOM     65  C   UNL     1       3.376  15.031   5.052  1.00  0.00     0.074 A 
ATOM     66  C   UNL     1       2.268  15.196   4.121  1.00  0.00     0.031 C 
ATOM     67  C   UNL     1       4.727  15.002   4.861  1.00  0.00     0.037 A 
BRANCH  54  68
ATOM     68  C   UNL     1       3.407  14.677  -0.420  1.00  0.00     0.064 A 
ATOM     69  C   UNL     1       3.933  15.865  -0.952  1.00  0.00     0.173 A 
ATOM     70  C   UNL     1       2.022  14.473  -0.604  1.00  0.00     0.173 A 
ATOM     71  F   UNL     1       5.227  16.173  -0.783  1.00  0.00    -0.203 F 
ATOM     72  C   UNL     1       3.121  16.796  -1.603  1.00  0.00     0.198 A 
ATOM     73  C   UNL     1       1.226  15.375  -1.303  1.00  0.00     0.198 A 
ATOM     74  F   UNL     1       1.377  13.451  -0.024  1.00  0.00    -0.203 F 
ATOM     75  F   UNL     1       3.640  17.963  -2.007  1.00  0.00    -0.200 F 
ATOM     76  C   UNL     1       1.770  16.548  -1.783  1.00  0.00     0.200 A 
ATOM     77  F   UNL     1      -0.084  15.128  -1.445  1.00  0.00    -0.200 F 
ATOM     78  F   UNL     1       0.984  17.458  -2.372  1.00  0.00    -0.200 F 
ENDBRANCH  54  68
BRANCH  55  79
ATOM     79  C   UNL     1      -0.384  12.989   7.069  1.00  0.00     0.064 A 
ATOM     80  C   UNL     1      -0.779  14.135   7.774  1.00  0.00     0.173 A 
ATOM     81  C   UNL     1      -1.386  12.028   6.823  1.00  0.00     0.173 A 
ATOM     82  F   UNL     1       0.100  15.121   8.005  1.00  0.00    -0.203 F 
ATOM     83  C   UNL     1      -2.099  14.316   8.196  1.00  0.00     0.198 A 
ATOM     84  C   UNL     1      -2.699  12.201   7.260  1.00  0.00     0.198 A 
ATOM     85  F   UNL     1      -1.138  10.944   6.074  1.00  0.00    -0.203 F 
ATOM     86  F   UNL     1      -2.453  15.452   8.812  1.00  0.00    -0.200 F 
ATOM     87  C   UNL     1      -3.058  13.351   7.936  1.00  0.00     0.200 A 
ATOM     88  F   UNL     1      -3.623  11.274   6.971  1.00  0.00    -0.200 F 
ATOM     89  F   UNL     1      -4.334  13.546   8.296  1.00  0.00    -0.200 F 
ENDBRANCH  55  79
BRANCH  67  90
ATOM     90  C   UNL     1       5.589  14.723   6.057  1.00  0.00     0.064 A 
ATOM     91  C   UNL     1       5.569  13.507   6.761  1.00  0.00     0.173 A 
ATOM     92  C   UNL     1       6.555  15.669   6.424  1.00  0.00     0.173 A 
ATOM     93  F   UNL     1       4.747  12.514   6.396  1.00  0.00    -0.203 F 
ATOM     94  C   UNL     1       6.442  13.276   7.823  1.00  0.00     0.198 A 
ATOM     95  C   UNL     1       7.450  15.421   7.462  1.00  0.00     0.198 A 
ATOM     96  F   UNL     1       6.661  16.822   5.744  1.00  0.00    -0.203 F 
ATOM     97  F   UNL     1       6.393  12.115   8.493  1.00  0.00    -0.200 F 
ATOM     98  C   UNL     1       7.384  14.231   8.169  1.00  0.00     0.200 A 
ATOM     99  F   UNL     1       8.393  16.325   7.760  1.00  0.00    -0.200 F 
ATOM    100  F   UNL     1       8.247  13.994   9.167  1.00  0.00    -0.200 F 
ENDBRANCH  67  90
ENDBRANCH  41  42
ENDBRANCH  34  36
ENDBRANCH  33  34
ENDBRANCH  32  33
ENDBRANCH  31  32
ENDBRANCH  30  31
ENDBRANCH  29  30
ENDBRANCH  28  29
ENDBRANCH   1  28
TORSDOF 23
