REMARK SMILES O=C(OCCOCCOCCOCCOC(=O)c1cccnc1SCC(=O)c1ccccc1Cl)c1ccc(-c2c3nc(c(-c4c(F)c(F)c(F)c(F)c4F)c4ccc([nH]4)c(-c4c(F)c(F)c(F)c(F)c4F)c4nc(c(-c5c(F)c(F)c(F)c(F)c5F)c5ccc2[nH]5)C=C4)C=C3)cc1
REMARK SMILES IDX 10 1 9 2 8 3 7 4 6 5 5 6 4 7 3 8 2 9 1 10 35 11 36 12 97 13
REMARK SMILES IDX 37 14 96 15 38 16 39 17 40 18 90 19 41 20 95 21 89 22 91 23
REMARK SMILES IDX 42 24 94 25 88 26 87 27 43 29 75 30 55 31 74 32 56 33 59 34
REMARK SMILES IDX 73 35 92 36 57 37 58 38 72 40 93 41 60 42 44 43 45 44 53 45
REMARK SMILES IDX 46 46 47 47 51 48 54 49 48 50 49 51 52 52 50 53 76 54 77 55
REMARK SMILES IDX 85 56 78 57 79 58 83 59 86 60 80 61 81 62 84 63 82 64 61 65
REMARK SMILES IDX 62 66 70 67 63 68 64 69 68 70 71 71 65 72 66 73 69 74 67 75
REMARK SMILES IDX 11 76 12 77 13 78 14 79 15 80 16 81 17 82 18 83 19 84 23 85
REMARK SMILES IDX 20 86 22 87 21 88 24 89 25 90 26 91 27 92 28 93 29 94 33 95
REMARK SMILES IDX 30 96 32 97 34 98 31 99
REMARK H PARENT 91 28 59 39
REMARK Flexibility Score: inf
ROOT
ATOM      1  C   UNL     1       2.634   3.600   1.264  1.00  0.00     0.188 C 
ENDROOT
BRANCH   1   2
ATOM      2  O   UNL     1       1.344   3.297   0.771  1.00  0.00    -0.377 OA
BRANCH   2   3
ATOM      3  C   UNL     1       1.000   1.921   0.888  1.00  0.00     0.188 C 
BRANCH   3   4
ATOM      4  C   UNL     1       1.781   0.996  -0.043  1.00  0.00     0.188 C 
BRANCH   4   5
ATOM      5  O   UNL     1       3.190   0.913   0.219  1.00  0.00    -0.376 OA
BRANCH   5   6
ATOM      6  C   UNL     1       4.013   1.188  -0.926  1.00  0.00     0.202 C 
BRANCH   6   7
ATOM      7  C   UNL     1       4.149   0.027  -1.925  1.00  0.00     0.261 C 
BRANCH   7   8
ATOM      8  O   UNL     1       2.918  -0.687  -2.123  1.00  0.00    -0.460 OA
BRANCH   8   9
ATOM      9  C   UNL     1       2.397  -1.686  -1.369  1.00  0.00     0.338 C 
ATOM     10  O   UNL     1       1.254  -2.068  -1.617  1.00  0.00    -0.246 OA
BRANCH   9  11
ATOM     11  C   UNL     1       3.142  -2.386  -0.273  1.00  0.00     0.060 A 
ATOM     12  C   UNL     1       4.252  -1.885   0.410  1.00  0.00     0.016 A 
ATOM     13  C   UNL     1       2.662  -3.654   0.101  1.00  0.00     0.016 A 
ATOM     14  C   UNL     1       4.960  -2.665   1.308  1.00  0.00     0.010 A 
ATOM     15  C   UNL     1       3.337  -4.431   1.046  1.00  0.00     0.010 A 
ATOM     16  C   UNL     1       4.527  -3.953   1.602  1.00  0.00    -0.014 A 
BRANCH  16  17
ATOM     17  C   UNL     1       5.455  -4.825   2.339  1.00  0.00     0.031 A 
ATOM     18  C   UNL     1       6.225  -5.844   1.554  1.00  0.00     0.074 A 
ATOM     19  C   UNL     1       5.721  -4.571   3.631  1.00  0.00     0.049 A 
ATOM     20  N   UNL     1       7.087  -6.733   1.967  1.00  0.00    -0.248 NA
ATOM     21  C   UNL     1       6.010  -5.849   0.095  1.00  0.00     0.031 C 
ATOM     22  C   UNL     1       5.114  -3.498   4.421  1.00  0.00     0.029 A 
ATOM     23  N   UNL     1       6.597  -5.169   4.495  1.00  0.00    -0.354 N 
ATOM     24  C   UNL     1       7.498  -7.412   0.828  1.00  0.00     0.074 A 
ATOM     25  C   UNL     1       6.788  -6.846  -0.295  1.00  0.00     0.031 C 
ATOM     26  C   UNL     1       5.649  -3.505   5.653  1.00  0.00     0.029 A 
ATOM     27  C   UNL     1       6.579  -4.623   5.754  1.00  0.00     0.049 A 
ATOM     28  H   UNL     1       7.183  -5.918   4.238  1.00  0.00     0.167 HD
ATOM     29  C   UNL     1       8.393  -8.421   0.739  1.00  0.00     0.037 A 
ATOM     30  C   UNL     1       7.220  -5.022   6.867  1.00  0.00     0.037 A 
ATOM     31  C   UNL     1       9.080  -8.960   1.879  1.00  0.00     0.049 A 
ATOM     32  C   UNL     1       8.128  -6.220   6.759  1.00  0.00     0.074 A 
ATOM     33  C   UNL     1       9.939 -10.040   1.948  1.00  0.00     0.029 A 
ATOM     34  N   UNL     1       8.980  -8.440   3.164  1.00  0.00    -0.354 N 
ATOM     35  N   UNL     1       8.449  -6.922   5.698  1.00  0.00    -0.248 NA
ATOM     36  C   UNL     1       8.752  -6.688   8.001  1.00  0.00     0.031 C 
ATOM     37  C   UNL     1      10.330 -10.194   3.283  1.00  0.00     0.029 A 
ATOM     38  C   UNL     1       9.755  -9.181   4.037  1.00  0.00     0.049 A 
ATOM     39  H   UNL     1       8.437  -7.658   3.416  1.00  0.00     0.167 HD
ATOM     40  C   UNL     1       9.319  -7.909   6.139  1.00  0.00     0.074 A 
ATOM     41  C   UNL     1       9.501  -7.689   7.561  1.00  0.00     0.031 C 
ATOM     42  C   UNL     1       9.906  -8.915   5.445  1.00  0.00     0.037 A 
BRANCH  29  43
ATOM     43  C   UNL     1       8.615  -9.026  -0.615  1.00  0.00     0.064 A 
ATOM     44  C   UNL     1       9.319  -8.349  -1.623  1.00  0.00     0.173 A 
ATOM     45  C   UNL     1       8.095 -10.293  -0.916  1.00  0.00     0.173 A 
ATOM     46  F   UNL     1       9.808  -7.121  -1.397  1.00  0.00    -0.203 F 
ATOM     47  C   UNL     1       9.474  -8.911  -2.889  1.00  0.00     0.198 A 
ATOM     48  C   UNL     1       8.273 -10.862  -2.175  1.00  0.00     0.198 A 
ATOM     49  F   UNL     1       7.404 -10.977   0.008  1.00  0.00    -0.203 F 
ATOM     50  F   UNL     1      10.104  -8.225  -3.852  1.00  0.00    -0.200 F 
ATOM     51  C   UNL     1       8.956 -10.168  -3.162  1.00  0.00     0.200 A 
ATOM     52  F   UNL     1       7.772 -12.078  -2.436  1.00  0.00    -0.200 F 
ATOM     53  F   UNL     1       9.103 -10.706  -4.380  1.00  0.00    -0.200 F 
ENDBRANCH  29  43
BRANCH  30  54
ATOM     54  C   UNL     1       6.973  -4.344   8.168  1.00  0.00     0.064 A 
ATOM     55  C   UNL     1       8.000  -3.688   8.860  1.00  0.00     0.173 A 
ATOM     56  C   UNL     1       5.704  -4.372   8.769  1.00  0.00     0.173 A 
ATOM     57  F   UNL     1       9.237  -3.647   8.344  1.00  0.00    -0.203 F 
ATOM     58  C   UNL     1       7.775  -3.114  10.112  1.00  0.00     0.198 A 
ATOM     59  C   UNL     1       5.471  -3.768  10.002  1.00  0.00     0.198 A 
ATOM     60  F   UNL     1       4.683  -4.989   8.156  1.00  0.00    -0.203 F 
ATOM     61  F   UNL     1       8.790  -2.548  10.779  1.00  0.00    -0.200 F 
ATOM     62  C   UNL     1       6.510  -3.151  10.680  1.00  0.00     0.200 A 
ATOM     63  F   UNL     1       4.243  -3.795  10.538  1.00  0.00    -0.200 F 
ATOM     64  F   UNL     1       6.297  -2.605  11.885  1.00  0.00    -0.200 F 
ENDBRANCH  30  54
BRANCH  42  65
ATOM     65  C   UNL     1      10.812  -9.823   6.220  1.00  0.00     0.064 A 
ATOM     66  C   UNL     1      10.304 -10.753   7.138  1.00  0.00     0.173 A 
ATOM     67  C   UNL     1      12.199  -9.778   6.019  1.00  0.00     0.173 A 
ATOM     68  F   UNL     1       8.985 -10.819   7.374  1.00  0.00    -0.203 F 
ATOM     69  C   UNL     1      11.159 -11.585   7.854  1.00  0.00     0.198 A 
ATOM     70  C   UNL     1      13.047 -10.635   6.712  1.00  0.00     0.198 A 
ATOM     71  F   UNL     1      12.728  -8.910   5.144  1.00  0.00    -0.203 F 
ATOM     72  F   UNL     1      10.659 -12.426   8.769  1.00  0.00    -0.200 F 
ATOM     73  C   UNL     1      12.527 -11.530   7.636  1.00  0.00     0.200 A 
ATOM     74  F   UNL     1      14.367 -10.591   6.490  1.00  0.00    -0.200 F 
ATOM     75  F   UNL     1      13.349 -12.334   8.324  1.00  0.00    -0.200 F 
ENDBRANCH  42  65
ENDBRANCH  16  17
ENDBRANCH   9  11
ENDBRANCH   8   9
ENDBRANCH   7   8
ENDBRANCH   6   7
ENDBRANCH   5   6
ENDBRANCH   4   5
ENDBRANCH   3   4
ENDBRANCH   2   3
ENDBRANCH   1   2
BRANCH   1  76
ATOM     76  C   UNL     1       2.810   3.455   2.769  1.00  0.00     0.188 C 
BRANCH  76  77
ATOM     77  O   UNL     1       2.569   2.215   3.424  1.00  0.00    -0.376 OA
BRANCH  77  78
ATOM     78  C   UNL     1       3.263   2.099   4.687  1.00  0.00     0.202 C 
BRANCH  78  79
ATOM     79  C   UNL     1       3.248   3.341   5.611  1.00  0.00     0.261 C 
BRANCH  79  80
ATOM     80  O   UNL     1       3.771   4.525   4.963  1.00  0.00    -0.460 OA
BRANCH  80  81
ATOM     81  C   UNL     1       5.102   4.708   4.842  1.00  0.00     0.340 C 
ATOM     82  O   UNL     1       5.979   4.284   5.584  1.00  0.00    -0.246 OA
BRANCH  81  83
ATOM     83  C   UNL     1       5.346   5.605   3.698  1.00  0.00     0.092 A 
ATOM     84  C   UNL     1       4.686   6.849   3.750  1.00  0.00     0.020 A 
ATOM     85  C   UNL     1       6.099   5.285   2.553  1.00  0.00     0.111 A 
ATOM     86  C   UNL     1       4.821   7.759   2.713  1.00  0.00     0.021 A 
ATOM     87  N   UNL     1       6.313   6.234   1.592  1.00  0.00    -0.249 NA
ATOM     88  C   UNL     1       5.676   7.427   1.684  1.00  0.00     0.112 A 
BRANCH  85  89
ATOM     89  S   UNL     1       6.123   3.667   1.749  1.00  0.00    -0.097 SA
BRANCH  89  90
ATOM     90  C   UNL     1       7.329   2.523   2.429  1.00  0.00     0.157 C 
BRANCH  90  91
ATOM     91  C   UNL     1       7.482   2.451   3.912  1.00  0.00     0.174 C 
ATOM     92  O   UNL     1       6.604   1.919   4.596  1.00  0.00    -0.293 OA
BRANCH  91  93
ATOM     93  C   UNL     1       8.798   2.769   4.539  1.00  0.00     0.037 A 
ATOM     94  C   UNL     1       9.081   2.064   5.725  1.00  0.00     0.013 A 
ATOM     95  C   UNL     1       9.780   3.619   4.012  1.00  0.00     0.051 A 
ATOM     96  C   UNL     1      10.331   2.153   6.334  1.00  0.00     0.001 A 
ATOM     97  C   UNL     1      11.040   3.688   4.620  1.00  0.00     0.021 A 
ATOM     98  Cl  UNL     1       9.560   4.671   2.661  1.00  0.00    -0.084 Cl
ATOM     99  C   UNL     1      11.319   2.949   5.768  1.00  0.00     0.002 A 
ENDBRANCH  91  93
ENDBRANCH  90  91
ENDBRANCH  89  90
ENDBRANCH  85  89
ENDBRANCH  81  83
ENDBRANCH  80  81
ENDBRANCH  79  80
ENDBRANCH  78  79
ENDBRANCH  77  78
ENDBRANCH  76  77
ENDBRANCH   1  76
TORSDOF 24
