REMARK SMILES C[C@@H]1CC[C@@H](C(=O)OCCOCCOCCOCCOC(=O)c2ccc(-c3c4nc(c(-c5c(F)c(F)c(F)c(F)c5F)c5ccc([nH]5)c(-c5c(F)c(F)c(F)c(F)c5F)c5nc(c(-c6c(F)c(F)c(F)c(F)c6F)c6ccc3[nH]6)C=C5)C=C4)cc2)[C@H]2C(=O)N(c3ccccc3)C(=O)[C@@H]21
REMARK SMILES IDX 15 1 14 2 13 3 12 4 11 5 10 6 9 7 8 8 6 9 7 10 5 11 1 12
REMARK SMILES IDX 2 13 3 14 98 15 4 16 86 17 96 18 87 19 89 20 97 21 88 22
REMARK SMILES IDX 90 23 91 24 95 25 92 26 94 27 93 28 16 29 17 30 18 31 19 32
REMARK SMILES IDX 20 33 21 34 22 35 23 36 24 37 85 38 25 39 84 40 26 41 27 42
REMARK SMILES IDX 28 43 78 44 29 45 83 46 77 47 79 48 30 49 82 50 76 51 75 52
REMARK SMILES IDX 31 54 63 55 43 56 62 57 44 58 47 59 61 60 80 61 45 62 46 63
REMARK SMILES IDX 60 65 81 66 48 67 32 68 33 69 41 70 34 71 35 72 39 73 42 74
REMARK SMILES IDX 36 75 37 76 40 77 38 78 64 79 65 80 73 81 66 82 67 83 71 84
REMARK SMILES IDX 74 85 68 86 69 87 72 88 70 89 49 90 50 91 58 92 51 93 52 94
REMARK SMILES IDX 56 95 59 96 53 97 54 98 57 99 55 100
REMARK H PARENT 79 53 47 64
REMARK Flexibility Score: inf
ROOT
ATOM      1  C   UNL     1      -5.579   0.956  -2.701  1.00  0.00     0.188 C 
ENDROOT
BRANCH   1   2
ATOM      2  O   UNL     1      -4.238   1.235  -3.009  1.00  0.00    -0.377 OA
BRANCH   2   3
ATOM      3  C   UNL     1      -3.269   0.658  -2.159  1.00  0.00     0.188 C 
BRANCH   3   4
ATOM      4  C   UNL     1      -3.566  -0.630  -1.344  1.00  0.00     0.188 C 
BRANCH   4   5
ATOM      5  O   UNL     1      -4.835  -0.654  -0.707  1.00  0.00    -0.376 OA
BRANCH   5   6
ATOM      6  C   UNL     1      -4.950  -0.266   0.652  1.00  0.00     0.202 C 
BRANCH   6   7
ATOM      7  C   UNL     1      -4.493   1.153   1.035  1.00  0.00     0.261 C 
BRANCH   7   8
ATOM      8  O   UNL     1      -3.165   1.522   0.622  1.00  0.00    -0.463 OA
BRANCH   8   9
ATOM      9  C   UNL     1      -2.159   0.729   1.055  1.00  0.00     0.309 C 
ATOM     10  O   UNL     1      -2.333  -0.218   1.810  1.00  0.00    -0.252 OA
BRANCH   9  11
ATOM     11  C   UNL     1      -0.788   1.170   0.510  1.00  0.00     0.112 C 
ATOM     12  C   UNL     1       2.635  -0.541   0.272  1.00  0.00     0.008 C 
ATOM     13  C   UNL     1       1.254  -1.139   0.526  1.00  0.00    -0.001 C 
ATOM     14  C   UNL     1       0.309  -0.912  -0.677  1.00  0.00     0.005 C 
ATOM     15  C   UNL     1       0.543  -0.563   1.736  1.00  0.00     0.095 C 
ATOM     16  C   UNL     1      -0.221   0.534  -0.781  1.00  0.00     0.016 C 
ATOM     17  C   UNL     1       0.244   0.920   1.587  1.00  0.00     0.106 C 
ATOM     18  C   UNL     1       1.073  -0.619   3.138  1.00  0.00     0.237 C 
ATOM     19  C   UNL     1      -0.183   1.301   2.965  1.00  0.00     0.238 C 
ATOM     20  N   UNL     1       0.392   0.386   3.820  1.00  0.00    -0.250 N 
ATOM     21  O   UNL     1       1.829  -1.482   3.550  1.00  0.00    -0.274 OA
ATOM     22  O   UNL     1      -0.827   2.314   3.199  1.00  0.00    -0.274 OA
BRANCH  20  23
ATOM     23  C   UNL     1       0.281   0.485   5.218  1.00  0.00     0.052 A 
ATOM     24  C   UNL     1       1.327   0.077   6.045  1.00  0.00     0.027 A 
ATOM     25  C   UNL     1      -0.890   1.001   5.799  1.00  0.00     0.027 A 
ATOM     26  C   UNL     1       1.223   0.220   7.427  1.00  0.00     0.002 A 
ATOM     27  C   UNL     1      -1.007   1.111   7.182  1.00  0.00     0.002 A 
ATOM     28  C   UNL     1       0.057   0.732   7.994  1.00  0.00     0.000 A 
ENDBRANCH  20  23
ENDBRANCH   9  11
ENDBRANCH   8   9
ENDBRANCH   7   8
ENDBRANCH   6   7
ENDBRANCH   5   6
ENDBRANCH   4   5
ENDBRANCH   3   4
ENDBRANCH   2   3
ENDBRANCH   1   2
BRANCH   1  29
ATOM     29  C   UNL     1      -6.085  -0.360  -3.316  1.00  0.00     0.188 C 
BRANCH  29  30
ATOM     30  O   UNL     1      -5.178  -1.355  -3.757  1.00  0.00    -0.376 OA
BRANCH  30  31
ATOM     31  C   UNL     1      -4.154  -1.138  -4.714  1.00  0.00     0.202 C 
BRANCH  31  32
ATOM     32  C   UNL     1      -4.107  -0.040  -5.793  1.00  0.00     0.261 C 
BRANCH  32  33
ATOM     33  O   UNL     1      -4.870   1.144  -5.591  1.00  0.00    -0.460 OA
BRANCH  33  34
ATOM     34  C   UNL     1      -6.112   1.139  -6.115  1.00  0.00     0.338 C 
ATOM     35  O   UNL     1      -6.651   0.244  -6.746  1.00  0.00    -0.246 OA
BRANCH  34  36
ATOM     36  C   UNL     1      -6.808   2.338  -5.619  1.00  0.00     0.060 A 
ATOM     37  C   UNL     1      -7.974   2.165  -4.858  1.00  0.00     0.016 A 
ATOM     38  C   UNL     1      -6.294   3.615  -5.857  1.00  0.00     0.016 A 
ATOM     39  C   UNL     1      -8.629   3.268  -4.325  1.00  0.00     0.010 A 
ATOM     40  C   UNL     1      -6.988   4.726  -5.378  1.00  0.00     0.010 A 
ATOM     41  C   UNL     1      -8.169   4.552  -4.635  1.00  0.00    -0.014 A 
BRANCH  41  42
ATOM     42  C   UNL     1      -9.080   5.694  -4.419  1.00  0.00     0.031 A 
ATOM     43  C   UNL     1      -9.988   6.073  -5.553  1.00  0.00     0.074 A 
ATOM     44  C   UNL     1      -9.130   6.344  -3.245  1.00  0.00     0.049 A 
ATOM     45  N   UNL     1     -10.846   7.054  -5.641  1.00  0.00    -0.248 NA
ATOM     46  C   UNL     1      -9.914   5.225  -6.756  1.00  0.00     0.031 C 
ATOM     47  C   UNL     1      -8.340   6.019  -2.062  1.00  0.00     0.029 A 
ATOM     48  N   UNL     1      -9.884   7.425  -2.866  1.00  0.00    -0.354 N 
ATOM     49  C   UNL     1     -11.408   6.943  -6.906  1.00  0.00     0.074 A 
ATOM     50  C   UNL     1     -10.775   5.822  -7.563  1.00  0.00     0.031 C 
ATOM     51  C   UNL     1      -8.636   6.899  -1.089  1.00  0.00     0.029 A 
ATOM     52  C   UNL     1      -9.611   7.865  -1.596  1.00  0.00     0.049 A 
ATOM     53  H   UNL     1     -10.557   7.845  -3.450  1.00  0.00     0.167 HD
ATOM     54  C   UNL     1     -12.371   7.709  -7.466  1.00  0.00     0.037 A 
ATOM     55  C   UNL     1     -10.078   8.944  -0.939  1.00  0.00     0.037 A 
ATOM     56  C   UNL     1     -12.984   8.831  -6.809  1.00  0.00     0.049 A 
ATOM     57  C   UNL     1     -11.084   9.839  -1.622  1.00  0.00     0.074 A 
ATOM     58  C   UNL     1     -13.973   9.672  -7.283  1.00  0.00     0.029 A 
ATOM     59  N   UNL     1     -12.653   9.274  -5.536  1.00  0.00    -0.354 N 
ATOM     60  N   UNL     1     -11.630   9.723  -2.810  1.00  0.00    -0.248 NA
ATOM     61  C   UNL     1     -11.542  11.015  -0.870  1.00  0.00     0.031 C 
ATOM     62  C   UNL     1     -14.195  10.664  -6.323  1.00  0.00     0.029 A 
ATOM     63  C   UNL     1     -13.398  10.398  -5.221  1.00  0.00     0.049 A 
ATOM     64  H   UNL     1     -11.988   8.852  -4.946  1.00  0.00     0.167 HD
ATOM     65  C   UNL     1     -12.518  10.785  -2.932  1.00  0.00     0.074 A 
ATOM     66  C   UNL     1     -12.447  11.528  -1.691  1.00  0.00     0.031 C 
ATOM     67  C   UNL     1     -13.321  11.116  -3.973  1.00  0.00     0.037 A 
BRANCH  54  68
ATOM     68  C   UNL     1     -12.785   7.381  -8.870  1.00  0.00     0.064 A 
ATOM     69  C   UNL     1     -13.499   6.213  -9.180  1.00  0.00     0.173 A 
ATOM     70  C   UNL     1     -12.478   8.260  -9.920  1.00  0.00     0.173 A 
ATOM     71  F   UNL     1     -13.798   5.329  -8.216  1.00  0.00    -0.203 F 
ATOM     72  C   UNL     1     -13.868   5.926 -10.492  1.00  0.00     0.198 A 
ATOM     73  C   UNL     1     -12.878   7.987 -11.224  1.00  0.00     0.198 A 
ATOM     74  F   UNL     1     -11.794   9.389  -9.679  1.00  0.00    -0.203 F 
ATOM     75  F   UNL     1     -14.502   4.780 -10.772  1.00  0.00    -0.200 F 
ATOM     76  C   UNL     1     -13.566   6.817 -11.511  1.00  0.00     0.200 A 
ATOM     77  F   UNL     1     -12.596   8.855 -12.206  1.00  0.00    -0.200 F 
ATOM     78  F   UNL     1     -13.930   6.545 -12.771  1.00  0.00    -0.200 F 
ENDBRANCH  54  68
BRANCH  55  79
ATOM     79  C   UNL     1      -9.591   9.256   0.430  1.00  0.00     0.064 A 
ATOM     80  C   UNL     1     -10.451   9.207   1.536  1.00  0.00     0.173 A 
ATOM     81  C   UNL     1      -8.261   9.644   0.658  1.00  0.00     0.173 A 
ATOM     82  F   UNL     1     -11.738   8.867   1.368  1.00  0.00    -0.203 F 
ATOM     83  C   UNL     1     -10.009   9.558   2.810  1.00  0.00     0.198 A 
ATOM     84  C   UNL     1      -7.812   9.963   1.938  1.00  0.00     0.198 A 
ATOM     85  F   UNL     1      -7.396   9.712  -0.364  1.00  0.00    -0.203 F 
ATOM     86  F   UNL     1     -10.868   9.557   3.838  1.00  0.00    -0.200 F 
ATOM     87  C   UNL     1      -8.689   9.930   3.011  1.00  0.00     0.200 A 
ATOM     88  F   UNL     1      -6.532  10.310   2.129  1.00  0.00    -0.200 F 
ATOM     89  F   UNL     1      -8.264  10.267   4.237  1.00  0.00    -0.200 F 
ENDBRANCH  55  79
BRANCH  67  90
ATOM     90  C   UNL     1     -14.228  12.302  -3.802  1.00  0.00     0.064 A 
ATOM     91  C   UNL     1     -13.734  13.614  -3.754  1.00  0.00     0.173 A 
ATOM     92  C   UNL     1     -15.620  12.123  -3.736  1.00  0.00     0.173 A 
ATOM     93  F   UNL     1     -12.412  13.840  -3.802  1.00  0.00    -0.203 F 
ATOM     94  C   UNL     1     -14.596  14.699  -3.615  1.00  0.00     0.198 A 
ATOM     95  C   UNL     1     -16.480  13.212  -3.635  1.00  0.00     0.198 A 
ATOM     96  F   UNL     1     -16.147  10.891  -3.788  1.00  0.00    -0.203 F 
ATOM     97  F   UNL     1     -14.098  15.939  -3.518  1.00  0.00    -0.200 F 
ATOM     98  C   UNL     1     -15.968  14.498  -3.566  1.00  0.00     0.200 A 
ATOM     99  F   UNL     1     -17.805  13.017  -3.608  1.00  0.00    -0.200 F 
ATOM    100  F   UNL     1     -16.796  15.545  -3.444  1.00  0.00    -0.200 F 
ENDBRANCH  67  90
ENDBRANCH  41  42
ENDBRANCH  34  36
ENDBRANCH  33  34
ENDBRANCH  32  33
ENDBRANCH  31  32
ENDBRANCH  30  31
ENDBRANCH  29  30
ENDBRANCH   1  29
TORSDOF 21
