REMARK SMILES CC(C)CCn1nc(C(=O)OCCOCCOCCOCCOC(=O)c2ccc(-c3c4nc(c(-c5c(F)c(F)c(F)c(F)c5F)c5ccc([nH]5)c(-c5c(F)c(F)c(F)c(F)c5F)c5nc(c(-c6c(F)c(F)c(F)c(F)c6F)c6ccc3[nH]6)C=C5)C=C4)cc2)c2c1CCN(C(=O)[C@@H]1CCc3nn(C)c(=O)n3C1)C2
REMARK SMILES IDX 16 1 15 2 14 3 13 4 12 5 11 6 9 7 10 8 8 9 6 10 7 11 90 12
REMARK SMILES IDX 89 13 91 14 107 15 92 16 93 17 5 18 4 19 2 20 1 21 3 22
REMARK SMILES IDX 94 23 95 24 96 25 97 26 106 27 98 28 105 29 99 30 103 31
REMARK SMILES IDX 100 32 101 33 104 34 102 35 17 36 18 37 19 38 20 39 21 40
REMARK SMILES IDX 22 41 23 42 24 43 25 44 26 45 27 46 88 47 28 48 87 49 29 50
REMARK SMILES IDX 30 51 31 52 81 53 32 54 86 55 80 56 82 57 33 58 85 59 79 60
REMARK SMILES IDX 78 61 34 63 66 64 46 65 65 66 47 67 50 68 64 69 83 70 48 71
REMARK SMILES IDX 49 72 63 74 84 75 51 76 35 77 36 78 44 79 37 80 38 81 42 82
REMARK SMILES IDX 45 83 39 84 40 85 43 86 41 87 67 88 68 89 76 90 69 91 70 92
REMARK SMILES IDX 74 93 77 94 71 95 72 96 75 97 73 98 52 99 53 100 61 101
REMARK SMILES IDX 54 102 55 103 59 104 62 105 56 106 57 107 60 108 58 109
REMARK H PARENT 82 62 50 73
REMARK Flexibility Score: inf
ROOT
ATOM      1  C   UNL     1       1.512   3.678   4.956  1.00  0.00     0.188 C 
ENDROOT
BRANCH   1   2
ATOM      2  C   UNL     1       0.424   4.760   5.170  1.00  0.00     0.188 C 
BRANCH   2   3
ATOM      3  O   UNL     1       0.498   5.403   6.423  1.00  0.00    -0.376 OA
BRANCH   3   4
ATOM      4  C   UNL     1      -0.515   5.315   7.391  1.00  0.00     0.202 C 
BRANCH   4   5
ATOM      5  C   UNL     1      -0.929   3.937   7.913  1.00  0.00     0.261 C 
BRANCH   5   6
ATOM      6  O   UNL     1      -0.850   2.867   6.973  1.00  0.00    -0.458 OA
BRANCH   6   7
ATOM      7  C   UNL     1      -1.828   2.791   6.032  1.00  0.00     0.359 C 
ATOM      8  O   UNL     1      -2.799   3.552   5.990  1.00  0.00    -0.244 OA
BRANCH   7   9
ATOM      9  C   UNL     1      -1.517   1.758   5.034  1.00  0.00     0.175 A 
ATOM     10  N   UNL     1      -1.463   0.687   3.176  1.00  0.00    -0.268 N 
ATOM     11  N   UNL     1      -1.934   1.819   3.747  1.00  0.00    -0.165 NA
ATOM     12  C   UNL     1      -0.925  -0.150   4.107  1.00  0.00     0.046 A 
ATOM     13  C   UNL     1      -0.715   0.601   5.241  1.00  0.00     0.028 A 
ATOM     14  C   UNL     1      -0.602  -1.587   3.988  1.00  0.00     0.078 C 
ATOM     15  C   UNL     1       0.075   0.141   6.423  1.00  0.00     0.159 C 
ATOM     16  C   UNL     1      -0.151  -2.103   5.380  1.00  0.00     0.126 C 
ATOM     17  N   UNL     1       0.717  -1.155   6.102  1.00  0.00    -0.338 N 
BRANCH  10  18
ATOM     18  C   UNL     1      -1.715   0.410   1.772  1.00  0.00     0.145 C 
BRANCH  18  19
ATOM     19  C   UNL     1      -1.091   1.375   0.747  1.00  0.00     0.027 C 
BRANCH  19  20
ATOM     20  C   UNL     1       0.440   1.314   0.539  1.00  0.00    -0.016 C 
ATOM     21  C   UNL     1       0.940  -0.066   0.106  1.00  0.00     0.007 C 
ATOM     22  C   UNL     1       0.853   2.335  -0.535  1.00  0.00     0.007 C 
ENDBRANCH  19  20
ENDBRANCH  18  19
ENDBRANCH  10  18
BRANCH  17  23
ATOM     23  C   UNL     1       1.863  -1.460   6.809  1.00  0.00     0.227 C 
ATOM     24  O   UNL     1       2.115  -0.854   7.860  1.00  0.00    -0.274 OA
BRANCH  23  25
ATOM     25  C   UNL     1       2.910  -2.478   6.321  1.00  0.00     0.099 C 
ATOM     26  C   UNL     1       3.386  -2.358   4.870  1.00  0.00     0.023 C 
ATOM     27  C   UNL     1       2.692  -3.916   6.766  1.00  0.00     0.142 C 
ATOM     28  C   UNL     1       2.658  -3.229   3.857  1.00  0.00     0.078 C 
ATOM     29  N   UNL     1       2.112  -4.737   5.735  1.00  0.00    -0.278 N 
ATOM     30  C   UNL     1       2.082  -4.492   4.415  1.00  0.00     0.133 A 
ATOM     31  C   UNL     1       1.491  -5.945   5.917  1.00  0.00     0.345 A 
ATOM     32  N   UNL     1       1.441  -5.377   3.709  1.00  0.00    -0.155 NA
ATOM     33  N   UNL     1       1.042  -6.306   4.645  1.00  0.00    -0.216 N 
ATOM     34  O   UNL     1       1.358  -6.556   6.964  1.00  0.00    -0.246 OA
ATOM     35  C   UNL     1       0.267  -7.468   4.311  1.00  0.00     0.179 C 
ENDBRANCH  23  25
ENDBRANCH  17  23
ENDBRANCH   7   9
ENDBRANCH   6   7
ENDBRANCH   5   6
ENDBRANCH   4   5
ENDBRANCH   3   4
ENDBRANCH   2   3
ENDBRANCH   1   2
BRANCH   1  36
ATOM     36  O   UNL     1       2.519   3.385   5.920  1.00  0.00    -0.377 OA
BRANCH  36  37
ATOM     37  C   UNL     1       2.820   4.314   6.948  1.00  0.00     0.188 C 
BRANCH  37  38
ATOM     38  C   UNL     1       3.159   5.788   6.591  1.00  0.00     0.188 C 
BRANCH  38  39
ATOM     39  O   UNL     1       2.704   6.280   5.345  1.00  0.00    -0.376 OA
BRANCH  39  40
ATOM     40  C   UNL     1       3.412   6.290   4.120  1.00  0.00     0.202 C 
BRANCH  40  41
ATOM     41  C   UNL     1       4.459   5.261   3.706  1.00  0.00     0.261 C 
BRANCH  41  42
ATOM     42  O   UNL     1       4.953   4.489   4.767  1.00  0.00    -0.460 OA
BRANCH  42  43
ATOM     43  C   UNL     1       5.810   5.149   5.556  1.00  0.00     0.338 C 
ATOM     44  O   UNL     1       6.179   6.315   5.442  1.00  0.00    -0.246 OA
BRANCH  43  45
ATOM     45  C   UNL     1       6.291   4.214   6.582  1.00  0.00     0.060 A 
ATOM     46  C   UNL     1       7.244   4.773   7.428  1.00  0.00     0.016 A 
ATOM     47  C   UNL     1       6.292   2.861   6.214  1.00  0.00     0.016 A 
ATOM     48  C   UNL     1       8.444   4.124   7.490  1.00  0.00     0.010 A 
ATOM     49  C   UNL     1       7.497   2.227   6.244  1.00  0.00     0.010 A 
ATOM     50  C   UNL     1       8.575   2.934   6.767  1.00  0.00    -0.014 A 
BRANCH  50  51
ATOM     51  C   UNL     1       9.900   2.408   6.595  1.00  0.00     0.031 A 
ATOM     52  C   UNL     1      10.370   1.720   7.809  1.00  0.00     0.074 A 
ATOM     53  C   UNL     1      10.541   2.511   5.418  1.00  0.00     0.049 A 
ATOM     54  N   UNL     1      11.334   2.073   8.588  1.00  0.00    -0.248 NA
ATOM     55  C   UNL     1       9.520   0.640   8.338  1.00  0.00     0.031 C 
ATOM     56  C   UNL     1      10.030   2.965   4.121  1.00  0.00     0.029 A 
ATOM     57  N   UNL     1      11.805   2.115   5.128  1.00  0.00    -0.354 N 
ATOM     58  C   UNL     1      11.326   1.143   9.618  1.00  0.00     0.074 A 
ATOM     59  C   UNL     1      10.081   0.432   9.527  1.00  0.00     0.031 C 
ATOM     60  C   UNL     1      10.898   2.596   3.149  1.00  0.00     0.029 A 
ATOM     61  C   UNL     1      12.067   2.000   3.769  1.00  0.00     0.049 A 
ATOM     62  H   UNL     1      12.479   1.925   5.821  1.00  0.00     0.167 HD
ATOM     63  C   UNL     1      12.461   0.855  10.305  1.00  0.00     0.037 A 
ATOM     64  C   UNL     1      13.124   1.321   3.257  1.00  0.00     0.037 A 
ATOM     65  C   UNL     1      13.435   1.905  10.157  1.00  0.00     0.049 A 
ATOM     66  C   UNL     1      14.134   1.208   4.352  1.00  0.00     0.074 A 
ATOM     67  C   UNL     1      13.470   3.236  10.525  1.00  0.00     0.029 A 
ATOM     68  N   UNL     1      14.408   1.755   9.198  1.00  0.00    -0.354 N 
ATOM     69  N   UNL     1      14.768   2.235   4.854  1.00  0.00    -0.248 NA
ATOM     70  C   UNL     1      14.052   0.041   5.224  1.00  0.00     0.031 C 
ATOM     71  C   UNL     1      14.120   3.904   9.447  1.00  0.00     0.029 A 
ATOM     72  C   UNL     1      14.505   2.941   8.513  1.00  0.00     0.049 A 
ATOM     73  H   UNL     1      14.939   0.943   9.031  1.00  0.00     0.167 HD
ATOM     74  C   UNL     1      14.800   2.002   6.224  1.00  0.00     0.074 A 
ATOM     75  C   UNL     1      14.389   0.610   6.386  1.00  0.00     0.031 C 
ATOM     76  C   UNL     1      14.865   3.034   7.117  1.00  0.00     0.037 A 
BRANCH  63  77
ATOM     77  C   UNL     1      12.804  -0.527  10.791  1.00  0.00     0.064 A 
ATOM     78  C   UNL     1      13.942  -0.698  11.599  1.00  0.00     0.173 A 
ATOM     79  C   UNL     1      12.239  -1.716  10.274  1.00  0.00     0.173 A 
ATOM     80  F   UNL     1      14.567   0.362  12.131  1.00  0.00    -0.203 F 
ATOM     81  C   UNL     1      14.514  -1.955  11.805  1.00  0.00     0.198 A 
ATOM     82  C   UNL     1      12.779  -2.973  10.530  1.00  0.00     0.198 A 
ATOM     83  F   UNL     1      11.216  -1.716   9.412  1.00  0.00    -0.203 F 
ATOM     84  F   UNL     1      15.669  -2.054  12.476  1.00  0.00    -0.200 F 
ATOM     85  C   UNL     1      13.936  -3.090  11.266  1.00  0.00     0.200 A 
ATOM     86  F   UNL     1      12.209  -4.056   9.984  1.00  0.00    -0.200 F 
ATOM     87  F   UNL     1      14.518  -4.287  11.411  1.00  0.00    -0.200 F 
ENDBRANCH  63  77
BRANCH  64  88
ATOM     88  C   UNL     1      13.109   0.414   2.081  1.00  0.00     0.064 A 
ATOM     89  C   UNL     1      14.304  -0.038   1.501  1.00  0.00     0.173 A 
ATOM     90  C   UNL     1      11.930  -0.242   1.670  1.00  0.00     0.173 A 
ATOM     91  F   UNL     1      15.477   0.496   1.874  1.00  0.00    -0.203 F 
ATOM     92  C   UNL     1      14.321  -1.093   0.580  1.00  0.00     0.198 A 
ATOM     93  C   UNL     1      11.946  -1.288   0.747  1.00  0.00     0.198 A 
ATOM     94  F   UNL     1      10.745   0.051   2.225  1.00  0.00    -0.203 F 
ATOM     95  F   UNL     1      15.488  -1.537   0.092  1.00  0.00    -0.200 F 
ATOM     96  C   UNL     1      13.143  -1.722   0.211  1.00  0.00     0.200 A 
ATOM     97  F   UNL     1      10.802  -1.911   0.430  1.00  0.00    -0.200 F 
ATOM     98  F   UNL     1      13.163  -2.770  -0.624  1.00  0.00    -0.200 F 
ENDBRANCH  64  88
BRANCH  76  99
ATOM     99  C   UNL     1      15.106   4.417   6.574  1.00  0.00     0.064 A 
ATOM    100  C   UNL     1      14.207   5.093   5.729  1.00  0.00     0.173 A 
ATOM    101  C   UNL     1      16.199   5.144   7.060  1.00  0.00     0.173 A 
ATOM    102  F   UNL     1      13.083   4.501   5.308  1.00  0.00    -0.203 F 
ATOM    103  C   UNL     1      14.419   6.420   5.357  1.00  0.00     0.198 A 
ATOM    104  C   UNL     1      16.389   6.481   6.718  1.00  0.00     0.198 A 
ATOM    105  F   UNL     1      17.058   4.571   7.918  1.00  0.00    -0.203 F 
ATOM    106  F   UNL     1      13.549   7.039   4.544  1.00  0.00    -0.200 F 
ATOM    107  C   UNL     1      15.505   7.115   5.860  1.00  0.00     0.200 A 
ATOM    108  F   UNL     1      17.412   7.164   7.249  1.00  0.00    -0.200 F 
ATOM    109  F   UNL     1      15.686   8.405   5.541  1.00  0.00    -0.200 F 
ENDBRANCH  76  99
ENDBRANCH  50  51
ENDBRANCH  43  45
ENDBRANCH  42  43
ENDBRANCH  41  42
ENDBRANCH  40  41
ENDBRANCH  39  40
ENDBRANCH  38  39
ENDBRANCH  37  38
ENDBRANCH  36  37
ENDBRANCH   1  36
TORSDOF 25
