REMARK SMILES COC(=O)CCN(C)C(=O)NCc1ccc(C(=O)OCCOCCOCCOCCOC(=O)c2ccc(-c3c4nc(c(-c5c(F)c(F)c(F)c(F)c5F)c5ccc([nH]5)c(-c5c(F)c(F)c(F)c(F)c5F)c5nc(c(-c6c(F)c(F)c(F)c(F)c6F)c6ccc3[nH]6)C=C5)C=C4)cc2)o1
REMARK SMILES IDX 23 1 22 2 21 3 20 4 19 5 17 6 18 7 16 8 13 9 14 10 97 11
REMARK SMILES IDX 15 12 12 13 11 14 9 15 10 16 7 18 8 19 6 20 5 21 3 22 4 23
REMARK SMILES IDX 2 24 1 25 24 26 25 27 26 28 27 29 28 30 29 31 30 32 31 33
REMARK SMILES IDX 32 34 33 35 34 36 35 37 96 38 36 39 95 40 37 41 38 42 39 43
REMARK SMILES IDX 89 44 40 45 94 46 88 47 90 48 41 49 93 50 87 51 86 52 42 54
REMARK SMILES IDX 74 55 54 56 73 57 55 58 58 59 72 60 91 61 56 62 57 63 71 65
REMARK SMILES IDX 92 66 59 67 43 68 44 69 52 70 45 71 46 72 50 73 53 74 47 75
REMARK SMILES IDX 48 76 51 77 49 78 75 79 76 80 84 81 77 82 78 83 82 84 85 85
REMARK SMILES IDX 79 86 80 87 83 88 81 89 60 90 61 91 69 92 62 93 63 94 67 95
REMARK SMILES IDX 70 96 64 97 65 98 68 99 66 100
REMARK H PARENT 11 17 90 53 58 64
REMARK Flexibility Score: inf
ROOT
ATOM      1  C   UNL     1       0.884  -4.933   8.711  1.00  0.00     0.188 C 
ENDROOT
BRANCH   1   2
ATOM      2  O   UNL     1       1.821  -5.391   9.687  1.00  0.00    -0.376 OA
BRANCH   2   3
ATOM      3  C   UNL     1       3.198  -5.202   9.374  1.00  0.00     0.202 C 
BRANCH   3   4
ATOM      4  C   UNL     1       3.737  -3.768   9.524  1.00  0.00     0.261 C 
BRANCH   4   5
ATOM      5  O   UNL     1       3.124  -2.775   8.689  1.00  0.00    -0.457 OA
BRANCH   5   6
ATOM      6  C   UNL     1       3.186  -2.957   7.345  1.00  0.00     0.374 C 
ATOM      7  O   UNL     1       3.852  -3.822   6.790  1.00  0.00    -0.242 OA
BRANCH   6   8
ATOM      8  C   UNL     1       2.217  -2.084   6.728  1.00  0.00     0.211 A 
ATOM      9  C   UNL     1       0.609  -1.619   5.296  1.00  0.00     0.124 A 
ATOM     10  C   UNL     1       0.646  -0.565   6.182  1.00  0.00     0.048 A 
ATOM     11  O   UNL     1       1.564  -2.536   5.616  1.00  0.00    -0.452 OA
ATOM     12  C   UNL     1       1.678  -0.865   7.105  1.00  0.00     0.058 A 
BRANCH   9  13
ATOM     13  C   UNL     1      -0.188  -1.913   4.079  1.00  0.00     0.193 C 
BRANCH  13  14
ATOM     14  N   UNL     1       0.713  -1.733   2.968  1.00  0.00    -0.331 N 
ATOM     15  C   UNL     1       1.206  -2.482   1.977  1.00  0.00     0.317 C 
ATOM     16  O   UNL     1       2.165  -1.978   1.384  1.00  0.00    -0.249 OA
ATOM     17  H   UNL     1       1.056  -0.812   2.928  1.00  0.00     0.165 HD
BRANCH  15  18
ATOM     18  N   UNL     1       0.659  -3.669   1.579  1.00  0.00    -0.327 N 
ATOM     19  C   UNL     1      -0.424  -4.392   2.220  1.00  0.00     0.148 C 
BRANCH  18  20
ATOM     20  C   UNL     1       1.132  -4.210   0.296  1.00  0.00     0.132 C 
BRANCH  20  21
ATOM     21  C   UNL     1       0.355  -3.646  -0.891  1.00  0.00     0.144 C 
BRANCH  21  22
ATOM     22  C   UNL     1       0.869  -2.284  -1.282  1.00  0.00     0.307 C 
ATOM     23  O   UNL     1       1.799  -2.104  -2.057  1.00  0.00    -0.252 OA
BRANCH  22  24
ATOM     24  O   UNL     1       0.163  -1.305  -0.649  1.00  0.00    -0.469 OA
ATOM     25  C   UNL     1       0.761  -0.009  -0.718  1.00  0.00     0.282 C 
ENDBRANCH  22  24
ENDBRANCH  21  22
ENDBRANCH  20  21
ENDBRANCH  18  20
ENDBRANCH  15  18
ENDBRANCH  13  14
ENDBRANCH   9  13
ENDBRANCH   6   8
ENDBRANCH   5   6
ENDBRANCH   4   5
ENDBRANCH   3   4
ENDBRANCH   2   3
ENDBRANCH   1   2
BRANCH   1  26
ATOM     26  C   UNL     1       0.166  -3.643   9.139  1.00  0.00     0.188 C 
BRANCH  26  27
ATOM     27  O   UNL     1       0.742  -3.074  10.306  1.00  0.00    -0.377 OA
BRANCH  27  28
ATOM     28  C   UNL     1       0.164  -3.469  11.549  1.00  0.00     0.188 C 
BRANCH  28  29
ATOM     29  C   UNL     1      -0.330  -4.918  11.739  1.00  0.00     0.188 C 
BRANCH  29  30
ATOM     30  O   UNL     1      -1.338  -5.306  10.801  1.00  0.00    -0.376 OA
BRANCH  30  31
ATOM     31  C   UNL     1      -2.669  -5.391  11.302  1.00  0.00     0.202 C 
BRANCH  31  32
ATOM     32  C   UNL     1      -3.375  -4.030  11.387  1.00  0.00     0.261 C 
BRANCH  32  33
ATOM     33  O   UNL     1      -2.812  -3.136  12.361  1.00  0.00    -0.460 OA
BRANCH  33  34
ATOM     34  C   UNL     1      -2.837  -3.560  13.642  1.00  0.00     0.338 C 
ATOM     35  O   UNL     1      -3.378  -4.560  14.076  1.00  0.00    -0.246 OA
BRANCH  34  36
ATOM     36  C   UNL     1      -1.941  -2.702  14.441  1.00  0.00     0.060 A 
ATOM     37  C   UNL     1      -1.003  -3.326  15.271  1.00  0.00     0.016 A 
ATOM     38  C   UNL     1      -2.063  -1.310  14.422  1.00  0.00     0.016 A 
ATOM     39  C   UNL     1      -0.242  -2.561  16.151  1.00  0.00     0.010 A 
ATOM     40  C   UNL     1      -1.308  -0.543  15.313  1.00  0.00     0.010 A 
ATOM     41  C   UNL     1      -0.438  -1.174  16.219  1.00  0.00    -0.014 A 
BRANCH  41  42
ATOM     42  C   UNL     1       0.071  -0.441  17.401  1.00  0.00     0.031 A 
ATOM     43  C   UNL     1      -0.842  -0.293  18.588  1.00  0.00     0.074 A 
ATOM     44  C   UNL     1       1.327   0.034  17.445  1.00  0.00     0.049 A 
ATOM     45  N   UNL     1      -0.607   0.238  19.760  1.00  0.00    -0.248 NA
ATOM     46  C   UNL     1      -2.208  -0.820  18.430  1.00  0.00     0.031 C 
ATOM     47  C   UNL     1       2.307  -0.060  16.368  1.00  0.00     0.029 A 
ATOM     48  N   UNL     1       1.989   0.690  18.452  1.00  0.00    -0.354 N 
ATOM     49  C   UNL     1      -1.787   0.098  20.479  1.00  0.00     0.074 A 
ATOM     50  C   UNL     1      -2.751  -0.527  19.601  1.00  0.00     0.031 C 
ATOM     51  C   UNL     1       3.451   0.521  16.771  1.00  0.00     0.029 A 
ATOM     52  C   UNL     1       3.278   1.032  18.130  1.00  0.00     0.049 A 
ATOM     53  H   UNL     1       1.578   0.896  19.323  1.00  0.00     0.167 HD
ATOM     54  C   UNL     1      -2.041   0.444  21.762  1.00  0.00     0.037 A 
ATOM     55  C   UNL     1       4.207   1.680  18.858  1.00  0.00     0.037 A 
ATOM     56  C   UNL     1      -1.090   1.078  22.633  1.00  0.00     0.049 A 
ATOM     57  C   UNL     1       3.886   2.094  20.272  1.00  0.00     0.074 A 
ATOM     58  C   UNL     1      -1.249   1.468  23.951  1.00  0.00     0.029 A 
ATOM     59  N   UNL     1       0.202   1.421  22.265  1.00  0.00    -0.354 N 
ATOM     60  N   UNL     1       2.784   1.915  20.959  1.00  0.00    -0.248 NA
ATOM     61  C   UNL     1       4.949   2.786  21.015  1.00  0.00     0.031 C 
ATOM     62  C   UNL     1      -0.063   2.081  24.370  1.00  0.00     0.029 A 
ATOM     63  C   UNL     1       0.848   2.032  23.327  1.00  0.00     0.049 A 
ATOM     64  H   UNL     1       0.601   1.254  21.381  1.00  0.00     0.167 HD
ATOM     65  C   UNL     1       3.031   2.441  22.221  1.00  0.00     0.074 A 
ATOM     66  C   UNL     1       4.391   2.937  22.208  1.00  0.00     0.031 C 
ATOM     67  C   UNL     1       2.207   2.506  23.297  1.00  0.00     0.037 A 
BRANCH  54  68
ATOM     68  C   UNL     1      -3.414   0.154  22.288  1.00  0.00     0.064 A 
ATOM     69  C   UNL     1      -3.824  -1.156  22.579  1.00  0.00     0.173 A 
ATOM     70  C   UNL     1      -4.328   1.194  22.509  1.00  0.00     0.173 A 
ATOM     71  F   UNL     1      -2.993  -2.187  22.364  1.00  0.00    -0.203 F 
ATOM     72  C   UNL     1      -5.109  -1.416  23.050  1.00  0.00     0.198 A 
ATOM     73  C   UNL     1      -5.603   0.933  23.003  1.00  0.00     0.198 A 
ATOM     74  F   UNL     1      -3.985   2.463  22.243  1.00  0.00    -0.203 F 
ATOM     75  F   UNL     1      -5.495  -2.679  23.277  1.00  0.00    -0.200 F 
ATOM     76  C   UNL     1      -5.995  -0.371  23.267  1.00  0.00     0.200 A 
ATOM     77  F   UNL     1      -6.457   1.944  23.216  1.00  0.00    -0.200 F 
ATOM     78  F   UNL     1      -7.231  -0.622  23.719  1.00  0.00    -0.200 F 
ENDBRANCH  54  68
BRANCH  55  79
ATOM     79  C   UNL     1       5.543   1.963  18.274  1.00  0.00     0.064 A 
ATOM     80  C   UNL     1       6.688   1.295  18.729  1.00  0.00     0.173 A 
ATOM     81  C   UNL     1       5.704   2.926  17.267  1.00  0.00     0.173 A 
ATOM     82  F   UNL     1       6.586   0.385  19.709  1.00  0.00    -0.203 F 
ATOM     83  C   UNL     1       7.947   1.594  18.214  1.00  0.00     0.198 A 
ATOM     84  C   UNL     1       6.961   3.207  16.736  1.00  0.00     0.198 A 
ATOM     85  F   UNL     1       4.639   3.594  16.800  1.00  0.00    -0.203 F 
ATOM     86  F   UNL     1       9.032   0.975  18.700  1.00  0.00    -0.200 F 
ATOM     87  C   UNL     1       8.082   2.547  17.215  1.00  0.00     0.200 A 
ATOM     88  F   UNL     1       7.087   4.123  15.766  1.00  0.00    -0.200 F 
ATOM     89  F   UNL     1       9.294   2.836  16.723  1.00  0.00    -0.200 F 
ENDBRANCH  55  79
BRANCH  67  90
ATOM     90  C   UNL     1       2.766   3.097  24.557  1.00  0.00     0.064 A 
ATOM     91  C   UNL     1       2.995   4.475  24.686  1.00  0.00     0.173 A 
ATOM     92  C   UNL     1       3.043   2.277  25.661  1.00  0.00     0.173 A 
ATOM     93  F   UNL     1       2.756   5.298  23.654  1.00  0.00    -0.203 F 
ATOM     94  C   UNL     1       3.507   5.006  25.867  1.00  0.00     0.198 A 
ATOM     95  C   UNL     1       3.531   2.816  26.849  1.00  0.00     0.198 A 
ATOM     96  F   UNL     1       2.834   0.954  25.591  1.00  0.00    -0.203 F 
ATOM     97  F   UNL     1       3.763   6.319  25.953  1.00  0.00    -0.200 F 
ATOM     98  C   UNL     1       3.770   4.178  26.948  1.00  0.00     0.200 A 
ATOM     99  F   UNL     1       3.772   2.015  27.896  1.00  0.00    -0.200 F 
ATOM    100  F   UNL     1       4.261   4.692  28.084  1.00  0.00    -0.200 F 
ENDBRANCH  67  90
ENDBRANCH  41  42
ENDBRANCH  34  36
ENDBRANCH  33  34
ENDBRANCH  32  33
ENDBRANCH  31  32
ENDBRANCH  30  31
ENDBRANCH  29  30
ENDBRANCH  28  29
ENDBRANCH  27  28
ENDBRANCH  26  27
ENDBRANCH   1  26
TORSDOF 27
