REMARK SMILES Cc1c(C(=O)OCCOCCOCCOCCOC(=O)c2ccc(-c3c4nc(c(-c5c(F)c(F)c(F)c(F)c5F)c5ccc([nH]5)c(-c5c(F)c(F)c(F)c(F)c5F)c5nc(c(-c6c(F)c(F)c(F)c(F)c6F)c6ccc3[nH]6)C=C5)C=C4)cc2)oc2c1/C(=N/NC(=O)C(c1ccccc1)c1ccccc1)CCC2
REMARK SMILES IDX 11 1 10 2 9 3 8 4 7 5 6 6 4 7 5 8 3 9 1 10 2 11 86 12 84 13
REMARK SMILES IDX 85 14 87 15 107 16 88 17 105 18 106 19 89 20 90 21 91 23
REMARK SMILES IDX 92 24 93 25 94 26 98 27 95 28 97 29 96 30 99 31 100 32
REMARK SMILES IDX 104 33 101 34 103 35 102 36 12 37 13 38 14 39 15 40 16 41
REMARK SMILES IDX 17 42 18 43 19 44 20 45 21 46 22 47 83 48 23 49 82 50 24 51
REMARK SMILES IDX 25 52 26 53 76 54 27 55 81 56 75 57 77 58 28 59 80 60 74 61
REMARK SMILES IDX 73 62 29 64 61 65 41 66 60 67 42 68 45 69 59 70 78 71 43 72
REMARK SMILES IDX 44 73 58 75 79 76 46 77 30 78 31 79 39 80 32 81 33 82 37 83
REMARK SMILES IDX 40 84 34 85 35 86 38 87 36 88 62 89 63 90 71 91 64 92 65 93
REMARK SMILES IDX 69 94 72 95 66 96 67 97 70 98 68 99 47 100 48 101 56 102
REMARK SMILES IDX 49 103 50 104 54 105 57 106 51 107 52 108 55 109 53 110
REMARK H PARENT 89 22 77 63 45 74
REMARK Flexibility Score: inf
ROOT
ATOM      1  C   UNL     1      -2.936   0.410   2.070  1.00  0.00     0.188 C 
ENDROOT
BRANCH   1   2
ATOM      2  C   UNL     1      -2.529  -1.073   2.224  1.00  0.00     0.188 C 
BRANCH   2   3
ATOM      3  O   UNL     1      -3.050  -1.639   3.423  1.00  0.00    -0.376 OA
BRANCH   3   4
ATOM      4  C   UNL     1      -2.170  -2.276   4.327  1.00  0.00     0.202 C 
BRANCH   4   5
ATOM      5  C   UNL     1      -1.559  -1.284   5.316  1.00  0.00     0.261 C 
BRANCH   5   6
ATOM      6  O   UNL     1      -0.814  -0.236   4.699  1.00  0.00    -0.457 OA
BRANCH   6   7
ATOM      7  C   UNL     1       0.171  -0.553   3.820  1.00  0.00     0.374 C 
ATOM      8  O   UNL     1       0.656  -1.671   3.665  1.00  0.00    -0.242 OA
BRANCH   7   9
ATOM      9  C   UNL     1       0.389   0.606   2.999  1.00  0.00     0.215 A 
ATOM     10  C   UNL     1       1.215  -0.212   0.678  1.00  0.00     0.049 C 
ATOM     11  C   UNL     1       0.828   0.805   1.689  1.00  0.00     0.012 A 
ATOM     12  C   UNL     1       0.837   2.219   1.517  1.00  0.00     0.043 A 
ATOM     13  O   UNL     1      -0.009   1.793   3.548  1.00  0.00    -0.453 OA
ATOM     14  C   UNL     1       0.222   2.738   2.638  1.00  0.00     0.114 A 
ATOM     15  C   UNL     1       1.388   3.134   0.520  1.00  0.00     0.072 C 
ATOM     16  C   UNL     1      -0.093   4.133   3.006  1.00  0.00     0.076 C 
ATOM     17  N   UNL     1       1.745   2.594  -0.605  1.00  0.00    -0.177 NA
ATOM     18  C   UNL     1       1.505   4.513   1.133  1.00  0.00     0.059 C 
ATOM     19  C   UNL     1       0.231   5.016   1.811  1.00  0.00     0.014 C 
BRANCH  17  20
ATOM     20  N   UNL     1       2.380   2.993  -1.748  1.00  0.00    -0.246 N 
ATOM     21  C   UNL     1       3.060   4.076  -2.268  1.00  0.00     0.252 C 
ATOM     22  H   UNL     1       2.338   2.274  -2.420  1.00  0.00     0.193 HD
ATOM     23  O   UNL     1       3.540   3.940  -3.405  1.00  0.00    -0.272 OA
BRANCH  21  24
ATOM     24  C   UNL     1       3.238   5.414  -1.530  1.00  0.00     0.140 C 
BRANCH  24  25
ATOM     25  C   UNL     1       1.837   6.135  -1.525  1.00  0.00    -0.031 A 
ATOM     26  C   UNL     1       1.601   7.364  -0.888  1.00  0.00     0.005 A 
ATOM     27  C   UNL     1       0.695   5.508  -2.097  1.00  0.00     0.005 A 
ATOM     28  C   UNL     1       0.288   7.832  -0.684  1.00  0.00     0.000 A 
ATOM     29  C   UNL     1      -0.608   5.963  -1.885  1.00  0.00     0.000 A 
ATOM     30  C   UNL     1      -0.814   7.116  -1.151  1.00  0.00     0.000 A 
ENDBRANCH  24  25
BRANCH  24  31
ATOM     31  C   UNL     1       4.093   5.135  -0.238  1.00  0.00    -0.031 A 
ATOM     32  C   UNL     1       4.748   3.881  -0.087  1.00  0.00     0.005 A 
ATOM     33  C   UNL     1       4.214   6.016   0.848  1.00  0.00     0.005 A 
ATOM     34  C   UNL     1       5.235   3.429   1.141  1.00  0.00     0.000 A 
ATOM     35  C   UNL     1       4.737   5.573   2.081  1.00  0.00     0.000 A 
ATOM     36  C   UNL     1       5.192   4.265   2.242  1.00  0.00     0.000 A 
ENDBRANCH  24  31
ENDBRANCH  21  24
ENDBRANCH  17  20
ENDBRANCH   7   9
ENDBRANCH   6   7
ENDBRANCH   5   6
ENDBRANCH   4   5
ENDBRANCH   3   4
ENDBRANCH   2   3
ENDBRANCH   1   2
BRANCH   1  37
ATOM     37  O   UNL     1      -4.308   0.783   2.204  1.00  0.00    -0.377 OA
BRANCH  37  38
ATOM     38  C   UNL     1      -5.053   0.087   3.194  1.00  0.00     0.188 C 
BRANCH  38  39
ATOM     39  C   UNL     1      -5.704  -1.207   2.653  1.00  0.00     0.188 C 
BRANCH  39  40
ATOM     40  O   UNL     1      -5.123  -1.762   1.484  1.00  0.00    -0.376 OA
BRANCH  40  41
ATOM     41  C   UNL     1      -5.368  -1.370   0.141  1.00  0.00     0.202 C 
BRANCH  41  42
ATOM     42  C   UNL     1      -5.811   0.009  -0.352  1.00  0.00     0.261 C 
BRANCH  42  43
ATOM     43  O   UNL     1      -6.406   0.835   0.610  1.00  0.00    -0.460 OA
BRANCH  43  44
ATOM     44  C   UNL     1      -7.588   0.409   1.069  1.00  0.00     0.338 C 
ATOM     45  O   UNL     1      -8.226  -0.560   0.700  1.00  0.00    -0.246 OA
BRANCH  44  46
ATOM     46  C   UNL     1      -8.016   1.372   2.095  1.00  0.00     0.060 A 
ATOM     47  C   UNL     1      -9.267   1.105   2.640  1.00  0.00     0.016 A 
ATOM     48  C   UNL     1      -7.455   2.659   2.050  1.00  0.00     0.016 A 
ATOM     49  C   UNL     1     -10.134   2.159   2.698  1.00  0.00     0.010 A 
ATOM     50  C   UNL     1      -8.324   3.707   2.075  1.00  0.00     0.010 A 
ATOM     51  C   UNL     1      -9.669   3.402   2.259  1.00  0.00    -0.014 A 
BRANCH  51  52
ATOM     52  C   UNL     1     -10.660   4.373   1.888  1.00  0.00     0.031 A 
ATOM     53  C   UNL     1     -11.213   5.103   3.036  1.00  0.00     0.074 A 
ATOM     54  C   UNL     1     -10.953   4.585   0.593  1.00  0.00     0.049 A 
ATOM     55  N   UNL     1     -12.438   5.138   3.433  1.00  0.00    -0.248 NA
ATOM     56  C   UNL     1     -10.252   5.743   3.947  1.00  0.00     0.031 C 
ATOM     57  C   UNL     1     -10.258   4.090  -0.601  1.00  0.00     0.029 A 
ATOM     58  N   UNL     1     -11.897   5.408   0.077  1.00  0.00    -0.354 N 
ATOM     59  C   UNL     1     -12.431   5.933   4.571  1.00  0.00     0.074 A 
ATOM     60  C   UNL     1     -11.054   6.140   4.930  1.00  0.00     0.031 C 
ATOM     61  C   UNL     1     -10.656   4.813  -1.672  1.00  0.00     0.029 A 
ATOM     62  C   UNL     1     -11.698   5.736  -1.252  1.00  0.00     0.049 A 
ATOM     63  H   UNL     1     -12.659   5.743   0.602  1.00  0.00     0.167 HD
ATOM     64  C   UNL     1     -13.561   6.539   5.013  1.00  0.00     0.037 A 
ATOM     65  C   UNL     1     -12.272   6.786  -1.886  1.00  0.00     0.037 A 
ATOM     66  C   UNL     1     -14.739   5.925   4.465  1.00  0.00     0.049 A 
ATOM     67  C   UNL     1     -13.449   7.206  -1.071  1.00  0.00     0.074 A 
ATOM     68  C   UNL     1     -15.295   4.664   4.572  1.00  0.00     0.029 A 
ATOM     69  N   UNL     1     -15.335   6.511   3.374  1.00  0.00    -0.354 N 
ATOM     70  N   UNL     1     -14.534   6.490  -0.939  1.00  0.00    -0.248 NA
ATOM     71  C   UNL     1     -13.232   8.195  -0.020  1.00  0.00     0.031 C 
ATOM     72  C   UNL     1     -15.850   4.390   3.290  1.00  0.00     0.029 A 
ATOM     73  C   UNL     1     -15.634   5.510   2.485  1.00  0.00     0.049 A 
ATOM     74  H   UNL     1     -15.514   7.471   3.253  1.00  0.00     0.167 HD
ATOM     75  C   UNL     1     -14.911   6.646   0.390  1.00  0.00     0.074 A 
ATOM     76  C   UNL     1     -14.123   7.772   0.882  1.00  0.00     0.031 C 
ATOM     77  C   UNL     1     -15.602   5.671   1.049  1.00  0.00     0.037 A 
BRANCH  64  78
ATOM     78  C   UNL     1     -13.570   7.880   5.684  1.00  0.00     0.064 A 
ATOM     79  C   UNL     1     -14.754   8.332   6.292  1.00  0.00     0.173 A 
ATOM     80  C   UNL     1     -12.555   8.848   5.515  1.00  0.00     0.173 A 
ATOM     81  F   UNL     1     -15.787   7.498   6.481  1.00  0.00    -0.203 F 
ATOM     82  C   UNL     1     -14.931   9.672   6.641  1.00  0.00     0.198 A 
ATOM     83  C   UNL     1     -12.713  10.169   5.921  1.00  0.00     0.198 A 
ATOM     84  F   UNL     1     -11.420   8.586   4.855  1.00  0.00    -0.203 F 
ATOM     85  F   UNL     1     -16.118  10.085   7.104  1.00  0.00    -0.200 F 
ATOM     86  C   UNL     1     -13.912  10.589   6.453  1.00  0.00     0.200 A 
ATOM     87  F   UNL     1     -11.718  11.044   5.715  1.00  0.00    -0.200 F 
ATOM     88  F   UNL     1     -14.101  11.884   6.734  1.00  0.00    -0.200 F 
ENDBRANCH  64  78
BRANCH  65  89
ATOM     89  C   UNL     1     -11.662   7.630  -2.942  1.00  0.00     0.064 A 
ATOM     90  C   UNL     1     -12.446   8.480  -3.736  1.00  0.00     0.173 A 
ATOM     91  C   UNL     1     -10.264   7.793  -3.048  1.00  0.00     0.173 A 
ATOM     92  F   UNL     1     -13.783   8.434  -3.655  1.00  0.00    -0.203 F 
ATOM     93  C   UNL     1     -11.867   9.432  -4.584  1.00  0.00     0.198 A 
ATOM     94  C   UNL     1      -9.688   8.730  -3.904  1.00  0.00     0.198 A 
ATOM     95  F   UNL     1      -9.425   7.109  -2.258  1.00  0.00    -0.203 F 
ATOM     96  F   UNL     1     -12.648  10.262  -5.289  1.00  0.00    -0.200 F 
ATOM     97  C   UNL     1     -10.489   9.557  -4.666  1.00  0.00     0.200 A 
ATOM     98  F   UNL     1      -8.354   8.861  -3.944  1.00  0.00    -0.200 F 
ATOM     99  F   UNL     1      -9.936  10.497  -5.444  1.00  0.00    -0.200 F 
ENDBRANCH  65  89
BRANCH  77 100
ATOM    100  C   UNL     1     -16.137   4.523   0.239  1.00  0.00     0.064 A 
ATOM    101  C   UNL     1     -15.312   3.603  -0.431  1.00  0.00     0.173 A 
ATOM    102  C   UNL     1     -17.508   4.239   0.295  1.00  0.00     0.173 A 
ATOM    103  F   UNL     1     -13.982   3.747  -0.430  1.00  0.00    -0.203 F 
ATOM    104  C   UNL     1     -15.842   2.475  -1.053  1.00  0.00     0.198 A 
ATOM    105  C   UNL     1     -18.030   3.091  -0.294  1.00  0.00     0.198 A 
ATOM    106  F   UNL     1     -18.334   5.047   0.978  1.00  0.00    -0.203 F 
ATOM    107  F   UNL     1     -15.032   1.616  -1.689  1.00  0.00    -0.200 F 
ATOM    108  C   UNL     1     -17.199   2.215  -0.975  1.00  0.00     0.200 A 
ATOM    109  F   UNL     1     -19.335   2.813  -0.170  1.00  0.00    -0.200 F 
ATOM    110  F   UNL     1     -17.703   1.102  -1.528  1.00  0.00    -0.200 F 
ENDBRANCH  77 100
ENDBRANCH  51  52
ENDBRANCH  44  46
ENDBRANCH  43  44
ENDBRANCH  42  43
ENDBRANCH  41  42
ENDBRANCH  40  41
ENDBRANCH  39  40
ENDBRANCH  38  39
ENDBRANCH  37  38
ENDBRANCH   1  37
TORSDOF 24
