REMARK SMILES NS(=O)(=O)c1ccc(-n2nc(NC(=O)NCCCCCCCCCCC(=O)OCCOCCOCCOCCOC(=O)c3ccc(-c4c5nc(c(-c6c(F)c(F)c(F)c(F)c6F)c6ccc([nH]6)c(-c6c(F)c(F)c(F)c(F)c6F)c6nc(c(-c7c(F)c(F)c(F)c(F)c7F)c7ccc4[nH]7)C=C6)C=C5)cc3)cc2-c2ccccc2)cc1
REMARK SMILES IDX 28 1 26 2 27 3 25 4 24 5 23 6 22 7 21 8 20 9 19 10 18 11
REMARK SMILES IDX 17 12 16 13 15 14 12 15 13 16 14 18 11 20 9 21 10 22 107 23
REMARK SMILES IDX 106 24 8 25 5 26 6 27 115 28 7 29 114 30 2 31 3 32 4 33 1 34
REMARK SMILES IDX 108 37 109 38 113 39 110 40 112 41 111 42 29 43 30 44 31 45
REMARK SMILES IDX 32 46 33 47 34 48 35 49 36 50 37 51 38 52 39 53 40 54 41 55
REMARK SMILES IDX 42 56 43 57 44 58 105 59 45 60 104 61 46 62 47 63 48 64
REMARK SMILES IDX 98 65 49 66 103 67 97 68 99 69 50 70 102 71 96 72 95 73
REMARK SMILES IDX 51 75 83 76 63 77 82 78 64 79 67 80 81 81 100 82 65 83 66 84
REMARK SMILES IDX 80 86 101 87 68 88 52 89 53 90 61 91 54 92 55 93 59 94 62 95
REMARK SMILES IDX 56 96 57 97 60 98 58 99 84 100 85 101 93 102 86 103 87 104
REMARK SMILES IDX 91 105 94 106 88 107 89 108 92 109 90 110 69 111 70 112
REMARK SMILES IDX 78 113 71 114 72 115 76 116 79 117 73 118 74 119 77 120
REMARK SMILES IDX 75 121
REMARK H PARENT 12 17 15 19 1 35 1 36 99 74 67 85
REMARK Flexibility Score: inf
ROOT
ATOM      1  O   UNL     1       6.948   0.329   2.765  1.00  0.00    -0.463 OA
ENDROOT
BRANCH   1   2
ATOM      2  C   UNL     1       6.327  -0.850   2.978  1.00  0.00     0.305 C 
ATOM      3  O   UNL     1       6.700  -1.686   3.793  1.00  0.00    -0.252 OA
BRANCH   2   4
ATOM      4  C   UNL     1       5.045  -1.038   2.180  1.00  0.00     0.123 C 
BRANCH   4   5
ATOM      5  C   UNL     1       4.632  -0.126   1.020  1.00  0.00     0.012 C 
BRANCH   5   6
ATOM      6  C   UNL     1       5.748   0.407   0.127  1.00  0.00     0.001 C 
BRANCH   6   7
ATOM      7  C   UNL     1       6.398  -0.717  -0.662  1.00  0.00     0.000 C 
BRANCH   7   8
ATOM      8  C   UNL     1       5.445  -1.294  -1.704  1.00  0.00     0.000 C 
BRANCH   8   9
ATOM      9  C   UNL     1       5.000  -0.263  -2.745  1.00  0.00     0.000 C 
BRANCH   9  10
ATOM     10  C   UNL     1       6.159   0.394  -3.502  1.00  0.00     0.000 C 
BRANCH  10  11
ATOM     11  C   UNL     1       7.126  -0.606  -4.149  1.00  0.00     0.002 C 
BRANCH  11  12
ATOM     12  C   UNL     1       6.454  -1.711  -4.961  1.00  0.00     0.021 C 
BRANCH  12  13
ATOM     13  C   UNL     1       5.474  -1.211  -6.003  1.00  0.00     0.117 C 
BRANCH  13  14
ATOM     14  N   UNL     1       6.087  -0.606  -7.160  1.00  0.00    -0.338 N 
ATOM     15  N   UNL     1       4.516  -1.201  -8.840  1.00  0.00    -0.291 N 
ATOM     16  C   UNL     1       5.683  -0.642  -8.448  1.00  0.00     0.320 C 
ATOM     17  H   UNL     1       4.497  -1.479  -9.785  1.00  0.00     0.173 HD
ATOM     18  O   UNL     1       6.477  -0.250  -9.309  1.00  0.00    -0.248 OA
ATOM     19  H   UNL     1       6.912  -0.098  -6.986  1.00  0.00     0.165 HD
BRANCH  15  20
ATOM     20  C   UNL     1       3.348  -1.449  -8.152  1.00  0.00     0.157 A 
ATOM     21  N   UNL     1       1.999  -1.631  -6.531  1.00  0.00    -0.231 N 
ATOM     22  N   UNL     1       2.940  -0.814  -7.050  1.00  0.00    -0.149 NA
ATOM     23  C   UNL     1       1.481  -2.477  -7.504  1.00  0.00     0.076 A 
ATOM     24  C   UNL     1       2.389  -2.411  -8.546  1.00  0.00     0.078 A 
BRANCH  21  25
ATOM     25  C   UNL     1       1.704  -1.609  -5.137  1.00  0.00     0.065 A 
ATOM     26  C   UNL     1       0.973  -1.566  -2.445  1.00  0.00     0.082 A 
ATOM     27  C   UNL     1       1.074  -2.788  -3.113  1.00  0.00     0.024 A 
ATOM     28  C   UNL     1       1.290  -0.369  -3.098  1.00  0.00     0.024 A 
ATOM     29  C   UNL     1       1.430  -2.808  -4.461  1.00  0.00     0.030 A 
ATOM     30  C   UNL     1       1.681  -0.393  -4.443  1.00  0.00     0.030 A 
BRANCH  26  31
ATOM     31  S   UNL     1       0.457  -1.595  -0.755  1.00  0.00     0.238 S 
ATOM     32  O   UNL     1       1.181  -2.630  -0.068  1.00  0.00    -0.207 OA
ATOM     33  O   UNL     1      -0.988  -1.489  -0.723  1.00  0.00    -0.207 OA
BRANCH  31  34
ATOM     34  N   UNL     1       1.032  -0.156  -0.104  1.00  0.00    -0.225 NA
ATOM     35  H   UNL     1       0.770  -0.100   0.880  1.00  0.00     0.137 HD
ATOM     36  H   UNL     1       0.627   0.632  -0.610  1.00  0.00     0.137 HD
ENDBRANCH  31  34
ENDBRANCH  26  31
ENDBRANCH  21  25
BRANCH  23  37
ATOM     37  C   UNL     1       0.229  -3.211  -7.352  1.00  0.00     0.000 A 
ATOM     38  C   UNL     1      -0.901  -2.542  -6.853  1.00  0.00     0.010 A 
ATOM     39  C   UNL     1       0.145  -4.579  -7.626  1.00  0.00     0.010 A 
ATOM     40  C   UNL     1      -2.077  -3.233  -6.581  1.00  0.00     0.001 A 
ATOM     41  C   UNL     1      -1.041  -5.269  -7.363  1.00  0.00     0.001 A 
ATOM     42  C   UNL     1      -2.145  -4.600  -6.833  1.00  0.00     0.000 A 
ENDBRANCH  23  37
ENDBRANCH  15  20
ENDBRANCH  13  14
ENDBRANCH  12  13
ENDBRANCH  11  12
ENDBRANCH  10  11
ENDBRANCH   9  10
ENDBRANCH   8   9
ENDBRANCH   7   8
ENDBRANCH   6   7
ENDBRANCH   5   6
ENDBRANCH   4   5
ENDBRANCH   2   4
ENDBRANCH   1   2
BRANCH   1  43
ATOM     43  C   UNL     1       8.127   0.609   3.526  1.00  0.00     0.261 C 
BRANCH  43  44
ATOM     44  C   UNL     1       8.046   1.794   4.503  1.00  0.00     0.202 C 
BRANCH  44  45
ATOM     45  O   UNL     1       6.843   2.341   5.008  1.00  0.00    -0.376 OA
BRANCH  45  46
ATOM     46  C   UNL     1       5.601   2.085   4.394  1.00  0.00     0.188 C 
BRANCH  46  47
ATOM     47  C   UNL     1       5.318   2.641   2.991  1.00  0.00     0.188 C 
BRANCH  47  48
ATOM     48  O   UNL     1       6.369   3.043   2.141  1.00  0.00    -0.377 OA
BRANCH  48  49
ATOM     49  C   UNL     1       7.104   4.221   2.426  1.00  0.00     0.188 C 
BRANCH  49  50
ATOM     50  C   UNL     1       6.783   5.113   3.644  1.00  0.00     0.188 C 
BRANCH  50  51
ATOM     51  O   UNL     1       5.555   4.851   4.298  1.00  0.00    -0.376 OA
BRANCH  51  52
ATOM     52  C   UNL     1       4.400   5.643   4.082  1.00  0.00     0.202 C 
BRANCH  52  53
ATOM     53  C   UNL     1       3.832   5.793   2.670  1.00  0.00     0.261 C 
BRANCH  53  54
ATOM     54  O   UNL     1       4.798   5.932   1.647  1.00  0.00    -0.460 OA
BRANCH  54  55
ATOM     55  C   UNL     1       5.447   7.109   1.677  1.00  0.00     0.338 C 
ATOM     56  O   UNL     1       5.486   7.908   2.597  1.00  0.00    -0.246 OA
BRANCH  55  57
ATOM     57  C   UNL     1       5.960   7.392   0.339  1.00  0.00     0.060 A 
ATOM     58  C   UNL     1       6.757   8.527   0.236  1.00  0.00     0.016 A 
ATOM     59  C   UNL     1       5.316   6.815  -0.768  1.00  0.00     0.016 A 
ATOM     60  C   UNL     1       6.666   9.255  -0.922  1.00  0.00     0.010 A 
ATOM     61  C   UNL     1       5.229   7.545  -1.926  1.00  0.00     0.010 A 
ATOM     62  C   UNL     1       5.816   8.804  -1.945  1.00  0.00    -0.014 A 
BRANCH  62  63
ATOM     63  C   UNL     1       5.708   9.629  -3.125  1.00  0.00     0.031 A 
ATOM     64  C   UNL     1       6.987   9.645  -3.855  1.00  0.00     0.074 A 
ATOM     65  C   UNL     1       4.595  10.287  -3.498  1.00  0.00     0.049 A 
ATOM     66  N   UNL     1       7.845  10.607  -3.844  1.00  0.00    -0.248 NA
ATOM     67  C   UNL     1       7.490   8.388  -4.429  1.00  0.00     0.031 C 
ATOM     68  C   UNL     1       3.243  10.187  -2.951  1.00  0.00     0.029 A 
ATOM     69  N   UNL     1       4.441  11.173  -4.522  1.00  0.00    -0.354 N 
ATOM     70  C   UNL     1       8.898  10.164  -4.627  1.00  0.00     0.074 A 
ATOM     71  C   UNL     1       8.733   8.742  -4.765  1.00  0.00     0.031 C 
ATOM     72  C   UNL     1       2.373  10.797  -3.792  1.00  0.00     0.029 A 
ATOM     73  C   UNL     1       3.119  11.445  -4.859  1.00  0.00     0.049 A 
ATOM     74  H   UNL     1       5.205  11.587  -4.986  1.00  0.00     0.167 HD
ATOM     75  C   UNL     1       9.593  11.070  -5.363  1.00  0.00     0.037 A 
ATOM     76  C   UNL     1       2.697  12.107  -5.970  1.00  0.00     0.037 A 
ATOM     77  C   UNL     1       9.422  12.403  -4.827  1.00  0.00     0.049 A 
ATOM     78  C   UNL     1       3.836  12.940  -6.440  1.00  0.00     0.074 A 
ATOM     79  C   UNL     1       9.656  12.999  -3.600  1.00  0.00     0.029 A 
ATOM     80  N   UNL     1       8.557  13.241  -5.485  1.00  0.00    -0.354 N 
ATOM     81  N   UNL     1       4.279  13.980  -5.792  1.00  0.00    -0.248 NA
ATOM     82  C   UNL     1       4.779  12.331  -7.366  1.00  0.00     0.031 C 
ATOM     83  C   UNL     1       8.571  13.908  -3.410  1.00  0.00     0.029 A 
ATOM     84  C   UNL     1       7.780  13.883  -4.558  1.00  0.00     0.049 A 
ATOM     85  H   UNL     1       8.503  13.360  -6.461  1.00  0.00     0.167 HD
ATOM     86  C   UNL     1       5.658  13.858  -5.851  1.00  0.00     0.074 A 
ATOM     87  C   UNL     1       5.909  12.873  -6.903  1.00  0.00     0.031 C 
ATOM     88  C   UNL     1       6.439  14.335  -4.838  1.00  0.00     0.037 A 
BRANCH  75  89
ATOM     89  C   UNL     1       9.968  10.822  -6.806  1.00  0.00     0.064 A 
ATOM     90  C   UNL     1      10.716  11.808  -7.477  1.00  0.00     0.173 A 
ATOM     91  C   UNL     1       9.353   9.856  -7.636  1.00  0.00     0.173 A 
ATOM     92  F   UNL     1      11.324  12.786  -6.790  1.00  0.00    -0.203 F 
ATOM     93  C   UNL     1      10.753  11.880  -8.871  1.00  0.00     0.198 A 
ATOM     94  C   UNL     1       9.438   9.901  -9.024  1.00  0.00     0.198 A 
ATOM     95  F   UNL     1       8.546   8.900  -7.165  1.00  0.00    -0.203 F 
ATOM     96  F   UNL     1      11.350  12.922  -9.464  1.00  0.00    -0.200 F 
ATOM     97  C   UNL     1      10.106  10.933  -9.643  1.00  0.00     0.200 A 
ATOM     98  F   UNL     1       8.781   8.986  -9.751  1.00  0.00    -0.200 F 
ATOM     99  F   UNL     1      10.079  11.041 -10.977  1.00  0.00    -0.200 F 
ENDBRANCH  75  89
BRANCH  76 100
ATOM    100  C   UNL     1       1.551  11.792  -6.864  1.00  0.00     0.064 A 
ATOM    101  C   UNL     1       1.211  12.655  -7.925  1.00  0.00     0.173 A 
ATOM    102  C   UNL     1       0.975  10.508  -6.903  1.00  0.00     0.173 A 
ATOM    103  F   UNL     1       1.739  13.886  -7.990  1.00  0.00    -0.203 F 
ATOM    104  C   UNL     1       0.395  12.239  -8.983  1.00  0.00     0.198 A 
ATOM    105  C   UNL     1       0.156  10.097  -7.957  1.00  0.00     0.198 A 
ATOM    106  F   UNL     1       1.271   9.590  -5.974  1.00  0.00    -0.203 F 
ATOM    107  F   UNL     1       0.162  13.065 -10.014  1.00  0.00    -0.200 F 
ATOM    108  C   UNL     1      -0.118  10.954  -9.007  1.00  0.00     0.200 A 
ATOM    109  F   UNL     1      -0.309   8.840  -7.984  1.00  0.00    -0.200 F 
ATOM    110  F   UNL     1      -0.838  10.529 -10.055  1.00  0.00    -0.200 F 
ENDBRANCH  76 100
BRANCH  88 111
ATOM    111  C   UNL     1       5.798  15.264  -3.845  1.00  0.00     0.064 A 
ATOM    112  C   UNL     1       4.707  14.933  -3.022  1.00  0.00     0.173 A 
ATOM    113  C   UNL     1       6.380  16.527  -3.664  1.00  0.00     0.173 A 
ATOM    114  F   UNL     1       4.159  13.710  -3.056  1.00  0.00    -0.203 F 
ATOM    115  C   UNL     1       4.185  15.852  -2.111  1.00  0.00     0.198 A 
ATOM    116  C   UNL     1       5.884  17.425  -2.725  1.00  0.00     0.198 A 
ATOM    117  F   UNL     1       7.457  16.879  -4.383  1.00  0.00    -0.203 F 
ATOM    118  F   UNL     1       3.123  15.527  -1.359  1.00  0.00    -0.200 F 
ATOM    119  C   UNL     1       4.777  17.096  -1.962  1.00  0.00     0.200 A 
ATOM    120  F   UNL     1       6.492  18.607  -2.552  1.00  0.00    -0.200 F 
ATOM    121  F   UNL     1       4.294  17.970  -1.068  1.00  0.00    -0.200 F 
ENDBRANCH  88 111
ENDBRANCH  62  63
ENDBRANCH  55  57
ENDBRANCH  54  55
ENDBRANCH  53  54
ENDBRANCH  52  53
ENDBRANCH  51  52
ENDBRANCH  50  51
ENDBRANCH  49  50
ENDBRANCH  48  49
ENDBRANCH  47  48
ENDBRANCH  46  47
ENDBRANCH  45  46
ENDBRANCH  44  45
ENDBRANCH  43  44
ENDBRANCH   1  43
TORSDOF 35
