REMARK SMILES CC1(C)[C@H](C(=O)N(Cc2ccccc2)Cc2ccccc2)CC[C@@]1(C)C(=O)OCCOCCOCCOCCOC(=O)c1ccc(-c2c3nc(c(-c4c(F)c(F)c(F)c(F)c4F)c4ccc([nH]4)c(-c4c(F)c(F)c(F)c(F)c4F)c4nc(c(-c5c(F)c(F)c(F)c(F)c5F)c5ccc2[nH]5)C=C4)C=C3)cc1
REMARK SMILES IDX 33 1 32 2 31 3 30 4 29 5 28 6 26 7 27 8 24 9 1 10 2 11 3 12
REMARK SMILES IDX 4 13 22 14 23 15 25 16 5 17 6 18 7 19 8 20 9 21 10 22 14 23
REMARK SMILES IDX 11 24 13 25 12 26 15 27 16 28 17 29 21 30 18 31 20 32 19 33
REMARK SMILES IDX 34 34 35 35 36 36 37 37 38 38 39 39 40 40 41 41 42 42 43 43
REMARK SMILES IDX 44 44 105 45 45 46 104 47 46 48 47 49 48 50 98 51 49 52
REMARK SMILES IDX 103 53 97 54 99 55 50 56 102 57 96 58 95 59 51 61 83 62
REMARK SMILES IDX 63 63 82 64 64 65 67 66 81 67 100 68 65 69 66 70 80 72
REMARK SMILES IDX 101 73 68 74 52 75 53 76 61 77 54 78 55 79 59 80 62 81 56 82
REMARK SMILES IDX 57 83 60 84 58 85 84 86 85 87 93 88 86 89 87 90 91 91 94 92
REMARK SMILES IDX 88 93 89 94 92 95 90 96 69 97 70 98 78 99 71 100 72 101
REMARK SMILES IDX 76 102 79 103 73 104 74 105 77 106 75 107
REMARK H PARENT 99 60 67 71
REMARK Flexibility Score: inf
ROOT
ATOM      1  C   UNL     1      -1.868  -2.393   3.179  1.00  0.00     0.188 C 
ENDROOT
BRANCH   1   2
ATOM      2  C   UNL     1      -0.618  -1.600   3.665  1.00  0.00     0.188 C 
BRANCH   2   3
ATOM      3  O   UNL     1      -0.913  -0.502   4.520  1.00  0.00    -0.376 OA
BRANCH   3   4
ATOM      4  C   UNL     1      -0.992   0.790   3.933  1.00  0.00     0.202 C 
BRANCH   4   5
ATOM      5  C   UNL     1      -2.087   0.982   2.871  1.00  0.00     0.261 C 
BRANCH   5   6
ATOM      6  O   UNL     1      -1.982   0.089   1.744  1.00  0.00    -0.463 OA
BRANCH   6   7
ATOM      7  C   UNL     1      -0.863   0.218   0.988  1.00  0.00     0.312 C 
ATOM      8  O   UNL     1      -0.075   1.128   1.187  1.00  0.00    -0.252 OA
BRANCH   7   9
ATOM      9  C   UNL     1      -0.769  -0.865  -0.122  1.00  0.00     0.071 C 
ATOM     10  C   UNL     1       1.695   0.217  -0.461  1.00  0.00     0.013 C 
ATOM     11  C   UNL     1       0.589  -0.742  -0.973  1.00  0.00    -0.008 C 
ATOM     12  C   UNL     1       0.221  -0.216  -2.343  1.00  0.00     0.013 C 
ATOM     13  C   UNL     1       1.228  -2.169  -0.895  1.00  0.00     0.085 C 
ATOM     14  C   UNL     1       0.086  -3.134  -0.682  1.00  0.00     0.015 C 
ATOM     15  C   UNL     1      -0.744  -2.354   0.329  1.00  0.00     0.020 C 
ATOM     16  C   UNL     1      -2.102  -0.722  -0.916  1.00  0.00     0.024 C 
BRANCH  13  17
ATOM     17  C   UNL     1       2.449  -2.637  -1.716  1.00  0.00     0.226 C 
ATOM     18  O   UNL     1       3.452  -2.949  -1.055  1.00  0.00    -0.275 OA
ATOM     19  N   UNL     1       2.475  -2.751  -3.098  1.00  0.00    -0.334 N 
BRANCH  19  20
ATOM     20  C   UNL     1       1.290  -3.045  -3.911  1.00  0.00     0.155 C 
BRANCH  20  21
ATOM     21  C   UNL     1       0.883  -2.012  -4.941  1.00  0.00    -0.029 A 
ATOM     22  C   UNL     1       1.513  -0.770  -5.043  1.00  0.00     0.005 A 
ATOM     23  C   UNL     1      -0.267  -2.216  -5.714  1.00  0.00     0.005 A 
ATOM     24  C   UNL     1       1.021   0.257  -5.843  1.00  0.00     0.000 A 
ATOM     25  C   UNL     1      -0.771  -1.190  -6.524  1.00  0.00     0.000 A 
ATOM     26  C   UNL     1      -0.131   0.047  -6.583  1.00  0.00     0.000 A 
ENDBRANCH  20  21
ENDBRANCH  19  20
BRANCH  19  27
ATOM     27  C   UNL     1       3.782  -3.075  -3.722  1.00  0.00     0.155 C 
BRANCH  27  28
ATOM     28  C   UNL     1       4.872  -2.032  -3.520  1.00  0.00    -0.029 A 
ATOM     29  C   UNL     1       5.928  -2.262  -2.626  1.00  0.00     0.005 A 
ATOM     30  C   UNL     1       4.849  -0.803  -4.191  1.00  0.00     0.005 A 
ATOM     31  C   UNL     1       6.856  -1.256  -2.338  1.00  0.00     0.000 A 
ATOM     32  C   UNL     1       5.723   0.229  -3.850  1.00  0.00     0.000 A 
ATOM     33  C   UNL     1       6.724   0.005  -2.915  1.00  0.00     0.000 A 
ENDBRANCH  27  28
ENDBRANCH  19  27
ENDBRANCH  13  17
ENDBRANCH   7   9
ENDBRANCH   6   7
ENDBRANCH   5   6
ENDBRANCH   4   5
ENDBRANCH   3   4
ENDBRANCH   2   3
ENDBRANCH   1   2
BRANCH   1  34
ATOM     34  O   UNL     1      -2.807  -2.865   4.125  1.00  0.00    -0.377 OA
BRANCH  34  35
ATOM     35  C   UNL     1      -3.017  -2.009   5.218  1.00  0.00     0.188 C 
BRANCH  35  36
ATOM     36  C   UNL     1      -2.130  -2.351   6.428  1.00  0.00     0.188 C 
BRANCH  36  37
ATOM     37  O   UNL     1      -0.997  -3.205   6.320  1.00  0.00    -0.376 OA
BRANCH  37  38
ATOM     38  C   UNL     1      -0.999  -4.423   5.589  1.00  0.00     0.202 C 
BRANCH  38  39
ATOM     39  C   UNL     1      -2.117  -5.473   5.675  1.00  0.00     0.261 C 
BRANCH  39  40
ATOM     40  O   UNL     1      -3.457  -4.982   5.643  1.00  0.00    -0.460 OA
BRANCH  40  41
ATOM     41  C   UNL     1      -4.053  -4.851   6.846  1.00  0.00     0.338 C 
ATOM     42  O   UNL     1      -3.597  -5.151   7.939  1.00  0.00    -0.246 OA
BRANCH  41  43
ATOM     43  C   UNL     1      -5.296  -4.078   6.675  1.00  0.00     0.060 A 
ATOM     44  C   UNL     1      -5.455  -2.911   7.440  1.00  0.00     0.016 A 
ATOM     45  C   UNL     1      -6.277  -4.471   5.763  1.00  0.00     0.016 A 
ATOM     46  C   UNL     1      -6.594  -2.130   7.296  1.00  0.00     0.010 A 
ATOM     47  C   UNL     1      -7.455  -3.728   5.672  1.00  0.00     0.010 A 
ATOM     48  C   UNL     1      -7.625  -2.577   6.464  1.00  0.00    -0.014 A 
BRANCH  48  49
ATOM     49  C   UNL     1      -8.977  -2.024   6.678  1.00  0.00     0.031 A 
ATOM     50  C   UNL     1      -9.837  -2.710   7.702  1.00  0.00     0.074 A 
ATOM     51  C   UNL     1      -9.408  -0.930   6.030  1.00  0.00     0.049 A 
ATOM     52  N   UNL     1     -11.076  -2.474   8.043  1.00  0.00    -0.248 NA
ATOM     53  C   UNL     1      -9.208  -3.816   8.446  1.00  0.00     0.031 C 
ATOM     54  C   UNL     1      -8.627  -0.145   5.078  1.00  0.00     0.029 A 
ATOM     55  N   UNL     1     -10.623  -0.297   6.079  1.00  0.00    -0.354 N 
ATOM     56  C   UNL     1     -11.371  -3.403   9.031  1.00  0.00     0.074 A 
ATOM     57  C   UNL     1     -10.198  -4.223   9.222  1.00  0.00     0.031 C 
ATOM     58  C   UNL     1      -9.396   0.856   4.611  1.00  0.00     0.029 A 
ATOM     59  C   UNL     1     -10.728   0.755   5.205  1.00  0.00     0.049 A 
ATOM     60  H   UNL     1     -11.351  -0.572   6.683  1.00  0.00     0.167 HD
ATOM     61  C   UNL     1     -12.524  -3.555   9.722  1.00  0.00     0.037 A 
ATOM     62  C   UNL     1     -11.796   1.519   4.904  1.00  0.00     0.037 A 
ATOM     63  C   UNL     1     -13.690  -2.743   9.515  1.00  0.00     0.049 A 
ATOM     64  C   UNL     1     -13.103   1.262   5.616  1.00  0.00     0.074 A 
ATOM     65  C   UNL     1     -14.916  -2.817  10.149  1.00  0.00     0.029 A 
ATOM     66  N   UNL     1     -13.774  -1.711   8.592  1.00  0.00    -0.354 N 
ATOM     67  N   UNL     1     -13.382   0.386   6.552  1.00  0.00    -0.248 NA
ATOM     68  C   UNL     1     -14.245   2.103   5.230  1.00  0.00     0.031 C 
ATOM     69  C   UNL     1     -15.761  -1.867   9.569  1.00  0.00     0.029 A 
ATOM     70  C   UNL     1     -15.040  -1.154   8.623  1.00  0.00     0.049 A 
ATOM     71  H   UNL     1     -13.041  -1.418   8.002  1.00  0.00     0.167 HD
ATOM     72  C   UNL     1     -14.712   0.598   6.894  1.00  0.00     0.074 A 
ATOM     73  C   UNL     1     -15.183   1.691   6.071  1.00  0.00     0.031 C 
ATOM     74  C   UNL     1     -15.477  -0.049   7.809  1.00  0.00     0.037 A 
BRANCH  61  75
ATOM     75  C   UNL     1     -12.587  -4.664  10.729  1.00  0.00     0.064 A 
ATOM     76  C   UNL     1     -11.864  -4.616  11.930  1.00  0.00     0.173 A 
ATOM     77  C   UNL     1     -13.403  -5.782  10.498  1.00  0.00     0.173 A 
ATOM     78  F   UNL     1     -11.050  -3.580  12.188  1.00  0.00    -0.203 F 
ATOM     79  C   UNL     1     -11.942  -5.654  12.854  1.00  0.00     0.198 A 
ATOM     80  C   UNL     1     -13.503  -6.802  11.438  1.00  0.00     0.198 A 
ATOM     81  F   UNL     1     -14.110  -5.880   9.362  1.00  0.00    -0.203 F 
ATOM     82  F   UNL     1     -11.207  -5.609  13.974  1.00  0.00    -0.200 F 
ATOM     83  C   UNL     1     -12.769  -6.741  12.613  1.00  0.00     0.200 A 
ATOM     84  F   UNL     1     -14.312  -7.846  11.207  1.00  0.00    -0.200 F 
ATOM     85  F   UNL     1     -12.853  -7.733  13.509  1.00  0.00    -0.200 F 
ENDBRANCH  61  75
BRANCH  62  86
ATOM     86  C   UNL     1     -11.695   2.578   3.864  1.00  0.00     0.064 A 
ATOM     87  C   UNL     1     -11.848   3.933   4.190  1.00  0.00     0.173 A 
ATOM     88  C   UNL     1     -11.492   2.254   2.514  1.00  0.00     0.173 A 
ATOM     89  F   UNL     1     -12.069   4.295   5.463  1.00  0.00    -0.203 F 
ATOM     90  C   UNL     1     -11.832   4.919   3.204  1.00  0.00     0.198 A 
ATOM     91  C   UNL     1     -11.443   3.243   1.534  1.00  0.00     0.198 A 
ATOM     92  F   UNL     1     -11.344   0.974   2.144  1.00  0.00    -0.203 F 
ATOM     93  F   UNL     1     -12.043   6.199   3.537  1.00  0.00    -0.200 F 
ATOM     94  C   UNL     1     -11.625   4.573   1.878  1.00  0.00     0.200 A 
ATOM     95  F   UNL     1     -11.230   2.905   0.254  1.00  0.00    -0.200 F 
ATOM     96  F   UNL     1     -11.614   5.520   0.930  1.00  0.00    -0.200 F 
ENDBRANCH  62  86
BRANCH  74  97
ATOM     97  C   UNL     1     -16.879   0.447   8.020  1.00  0.00     0.064 A 
ATOM     98  C   UNL     1     -17.884   0.263   7.060  1.00  0.00     0.173 A 
ATOM     99  C   UNL     1     -17.233   1.062   9.231  1.00  0.00     0.173 A 
ATOM    100  F   UNL     1     -17.597  -0.310   5.881  1.00  0.00    -0.203 F 
ATOM    101  C   UNL     1     -19.185   0.703   7.293  1.00  0.00     0.198 A 
ATOM    102  C   UNL     1     -18.541   1.467   9.476  1.00  0.00     0.198 A 
ATOM    103  F   UNL     1     -16.312   1.251  10.188  1.00  0.00    -0.203 F 
ATOM    104  F   UNL     1     -20.118   0.562   6.342  1.00  0.00    -0.200 F 
ATOM    105  C   UNL     1     -19.514   1.295   8.504  1.00  0.00     0.200 A 
ATOM    106  F   UNL     1     -18.861   2.020  10.654  1.00  0.00    -0.200 F 
ATOM    107  F   UNL     1     -20.770   1.705   8.732  1.00  0.00    -0.200 F 
ENDBRANCH  74  97
ENDBRANCH  48  49
ENDBRANCH  41  43
ENDBRANCH  40  41
ENDBRANCH  39  40
ENDBRANCH  38  39
ENDBRANCH  37  38
ENDBRANCH  36  37
ENDBRANCH  35  36
ENDBRANCH  34  35
ENDBRANCH   1  34
TORSDOF 25
