REMARK SMILES CC(=O)c1c[nH]c(C(=O)N[C@H]2C=C[C@H](C(=O)OCCOCCOCCOCCOC(=O)c3ccc(-c4c5nc(c(-c6c(F)c(F)c(F)c(F)c6F)c6ccc([nH]6)c(-c6c(F)c(F)c(F)c(F)c6F)c6nc(c(-c7c(F)c(F)c(F)c(F)c7F)c7ccc4[nH]7)C=C6)C=C5)cc3)C2)c1
REMARK SMILES IDX 22 1 21 2 20 3 19 4 18 5 17 6 15 7 16 8 14 9 11 10 12 11
REMARK SMILES IDX 95 12 13 13 10 14 8 15 9 16 7 18 4 19 5 20 96 21 6 22 2 24
REMARK SMILES IDX 1 25 3 26 23 27 24 28 25 29 26 30 27 31 28 32 29 33 30 34
REMARK SMILES IDX 31 35 32 36 33 37 94 38 34 39 93 40 35 41 36 42 37 43 87 44
REMARK SMILES IDX 38 45 92 46 86 47 88 48 39 49 91 50 85 51 84 52 40 54 72 55
REMARK SMILES IDX 52 56 71 57 53 58 56 59 70 60 89 61 54 62 55 63 69 65 90 66
REMARK SMILES IDX 57 67 41 68 42 69 50 70 43 71 44 72 48 73 51 74 45 75 46 76
REMARK SMILES IDX 49 77 47 78 73 79 74 80 82 81 75 82 76 83 80 84 83 85 77 86
REMARK SMILES IDX 78 87 81 88 79 89 58 90 59 91 67 92 60 93 61 94 65 95 68 96
REMARK SMILES IDX 62 97 63 98 66 99 64 100
REMARK H PARENT 10 17 6 23 88 53 56 64
REMARK Flexibility Score: inf
ROOT
ATOM      1  C   UNL     1      -5.165   2.719   5.534  1.00  0.00     0.188 C 
ENDROOT
BRANCH   1   2
ATOM      2  C   UNL     1      -3.866   2.824   4.705  1.00  0.00     0.188 C 
BRANCH   2   3
ATOM      3  O   UNL     1      -3.894   3.107   3.311  1.00  0.00    -0.376 OA
BRANCH   3   4
ATOM      4  C   UNL     1      -4.892   2.555   2.466  1.00  0.00     0.202 C 
BRANCH   4   5
ATOM      5  C   UNL     1      -5.223   1.054   2.510  1.00  0.00     0.261 C 
BRANCH   5   6
ATOM      6  O   UNL     1      -5.061   0.449   3.798  1.00  0.00    -0.463 OA
BRANCH   6   7
ATOM      7  C   UNL     1      -4.043  -0.439   3.916  1.00  0.00     0.312 C 
ATOM      8  O   UNL     1      -3.392  -0.891   2.983  1.00  0.00    -0.252 OA
BRANCH   7   9
ATOM      9  C   UNL     1      -3.775  -0.751   5.389  1.00  0.00     0.124 C 
ATOM     10  C   UNL     1      -1.913  -2.256   5.267  1.00  0.00     0.106 C 
ATOM     11  C   UNL     1      -3.136  -2.971   5.758  1.00  0.00    -0.006 C 
ATOM     12  C   UNL     1      -2.266  -0.809   5.630  1.00  0.00     0.048 C 
ATOM     13  C   UNL     1      -4.186  -2.138   5.777  1.00  0.00    -0.014 C 
BRANCH  10  14
ATOM     14  N   UNL     1      -0.721  -2.712   5.912  1.00  0.00    -0.345 N 
ATOM     15  C   UNL     1       0.581  -2.533   5.518  1.00  0.00     0.268 C 
ATOM     16  O   UNL     1       1.451  -3.054   6.219  1.00  0.00    -0.268 OA
ATOM     17  H   UNL     1      -0.851  -3.220   6.746  1.00  0.00     0.164 HD
BRANCH  15  18
ATOM     18  C   UNL     1       0.943  -1.770   4.332  1.00  0.00     0.105 A 
ATOM     19  C   UNL     1       1.165  -0.488   2.437  1.00  0.00     0.035 A 
ATOM     20  C   UNL     1       2.414  -0.934   2.812  1.00  0.00     0.094 A 
ATOM     21  C   UNL     1       0.254  -1.028   3.387  1.00  0.00     0.045 A 
ATOM     22  N   UNL     1       2.273  -1.677   3.956  1.00  0.00    -0.356 N 
ATOM     23  H   UNL     1       3.020  -2.091   4.446  1.00  0.00     0.166 HD
BRANCH  19  24
ATOM     24  C   UNL     1       0.810   0.364   1.307  1.00  0.00     0.161 C 
ATOM     25  C   UNL     1       1.466   0.093  -0.020  1.00  0.00     0.093 C 
ATOM     26  O   UNL     1      -0.057   1.230   1.414  1.00  0.00    -0.294 OA
ENDBRANCH  19  24
ENDBRANCH  15  18
ENDBRANCH  10  14
ENDBRANCH   7   9
ENDBRANCH   6   7
ENDBRANCH   5   6
ENDBRANCH   4   5
ENDBRANCH   3   4
ENDBRANCH   2   3
ENDBRANCH   1   2
BRANCH   1  27
ATOM     27  O   UNL     1      -6.359   2.750   4.769  1.00  0.00    -0.377 OA
BRANCH  27  28
ATOM     28  C   UNL     1      -7.073   3.977   4.840  1.00  0.00     0.188 C 
BRANCH  28  29
ATOM     29  C   UNL     1      -6.290   5.256   4.472  1.00  0.00     0.188 C 
BRANCH  29  30
ATOM     30  O   UNL     1      -5.040   5.398   5.149  1.00  0.00    -0.376 OA
BRANCH  30  31
ATOM     31  C   UNL     1      -4.932   6.400   6.152  1.00  0.00     0.202 C 
BRANCH  31  32
ATOM     32  C   UNL     1      -5.363   5.908   7.541  1.00  0.00     0.261 C 
BRANCH  32  33
ATOM     33  O   UNL     1      -6.703   5.416   7.572  1.00  0.00    -0.460 OA
BRANCH  33  34
ATOM     34  C   UNL     1      -7.604   6.334   7.224  1.00  0.00     0.338 C 
ATOM     35  O   UNL     1      -7.398   7.517   6.906  1.00  0.00    -0.246 OA
BRANCH  34  36
ATOM     36  C   UNL     1      -8.953   5.812   7.300  1.00  0.00     0.060 A 
ATOM     37  C   UNL     1      -9.860   6.387   6.402  1.00  0.00     0.016 A 
ATOM     38  C   UNL     1      -9.322   5.284   8.539  1.00  0.00     0.016 A 
ATOM     39  C   UNL     1     -11.101   6.721   6.879  1.00  0.00     0.010 A 
ATOM     40  C   UNL     1     -10.553   5.646   9.025  1.00  0.00     0.010 A 
ATOM     41  C   UNL     1     -11.383   6.441   8.219  1.00  0.00    -0.014 A 
BRANCH  41  42
ATOM     42  C   UNL     1     -12.593   7.017   8.800  1.00  0.00     0.031 A 
ATOM     43  C   UNL     1     -13.771   6.070   8.688  1.00  0.00     0.074 A 
ATOM     44  C   UNL     1     -12.433   8.265   9.328  1.00  0.00     0.049 A 
ATOM     45  N   UNL     1     -15.027   6.277   8.923  1.00  0.00    -0.248 NA
ATOM     46  C   UNL     1     -13.517   4.676   8.225  1.00  0.00     0.031 C 
ATOM     47  C   UNL     1     -11.164   9.026   9.318  1.00  0.00     0.029 A 
ATOM     48  N   UNL     1     -13.276   9.148   9.963  1.00  0.00    -0.354 N 
ATOM     49  C   UNL     1     -15.662   5.030   8.835  1.00  0.00     0.074 A 
ATOM     50  C   UNL     1     -14.710   4.096   8.318  1.00  0.00     0.031 C 
ATOM     51  C   UNL     1     -11.338  10.257   9.838  1.00  0.00     0.029 A 
ATOM     52  C   UNL     1     -12.711  10.411  10.271  1.00  0.00     0.049 A 
ATOM     53  H   UNL     1     -14.207   8.918  10.188  1.00  0.00     0.167 HD
ATOM     54  C   UNL     1     -16.914   4.798   9.304  1.00  0.00     0.037 A 
ATOM     55  C   UNL     1     -13.323  11.513  10.804  1.00  0.00     0.037 A 
ATOM     56  C   UNL     1     -17.541   6.000   9.738  1.00  0.00     0.049 A 
ATOM     57  C   UNL     1     -14.682  11.058  11.156  1.00  0.00     0.074 A 
ATOM     58  C   UNL     1     -18.183   7.006   9.067  1.00  0.00     0.029 A 
ATOM     59  N   UNL     1     -17.290   6.421  11.018  1.00  0.00    -0.354 N 
ATOM     60  N   UNL     1     -14.965  10.271  12.153  1.00  0.00    -0.248 NA
ATOM     61  C   UNL     1     -15.794  11.404  10.267  1.00  0.00     0.031 C 
ATOM     62  C   UNL     1     -18.035   8.150   9.884  1.00  0.00     0.029 A 
ATOM     63  C   UNL     1     -17.321   7.799  11.031  1.00  0.00     0.049 A 
ATOM     64  H   UNL     1     -17.117   5.840  11.794  1.00  0.00     0.167 HD
ATOM     65  C   UNL     1     -16.211   9.786  11.819  1.00  0.00     0.074 A 
ATOM     66  C   UNL     1     -16.760  10.697  10.845  1.00  0.00     0.031 C 
ATOM     67  C   UNL     1     -16.509   8.477  12.017  1.00  0.00     0.037 A 
BRANCH  54  68
ATOM     68  C   UNL     1     -17.590   3.491   9.552  1.00  0.00     0.064 A 
ATOM     69  C   UNL     1     -18.997   3.431   9.480  1.00  0.00     0.173 A 
ATOM     70  C   UNL     1     -16.941   2.398  10.145  1.00  0.00     0.173 A 
ATOM     71  F   UNL     1     -19.694   4.418   8.897  1.00  0.00    -0.203 F 
ATOM     72  C   UNL     1     -19.715   2.387  10.056  1.00  0.00     0.198 A 
ATOM     73  C   UNL     1     -17.662   1.331  10.684  1.00  0.00     0.198 A 
ATOM     74  F   UNL     1     -15.608   2.383  10.293  1.00  0.00    -0.203 F 
ATOM     75  F   UNL     1     -21.054   2.423  10.061  1.00  0.00    -0.200 F 
ATOM     76  C   UNL     1     -19.047   1.344  10.670  1.00  0.00     0.200 A 
ATOM     77  F   UNL     1     -17.011   0.321  11.276  1.00  0.00    -0.200 F 
ATOM     78  F   UNL     1     -19.736   0.368  11.277  1.00  0.00    -0.200 F 
ENDBRANCH  54  68
BRANCH  55  79
ATOM     79  C   UNL     1     -12.994  12.976  11.015  1.00  0.00     0.064 A 
ATOM     80  C   UNL     1     -11.742  13.582  10.829  1.00  0.00     0.173 A 
ATOM     81  C   UNL     1     -14.027  13.892  11.362  1.00  0.00     0.173 A 
ATOM     82  F   UNL     1     -10.639  12.858  10.629  1.00  0.00    -0.203 F 
ATOM     83  C   UNL     1     -11.567  14.978  10.865  1.00  0.00     0.198 A 
ATOM     84  C   UNL     1     -13.862  15.279  11.369  1.00  0.00     0.198 A 
ATOM     85  F   UNL     1     -15.253  13.471  11.703  1.00  0.00    -0.203 F 
ATOM     86  F   UNL     1     -10.349  15.499  10.654  1.00  0.00    -0.200 F 
ATOM     87  C   UNL     1     -12.632  15.826  11.099  1.00  0.00     0.200 A 
ATOM     88  F   UNL     1     -14.915  16.072  11.619  1.00  0.00    -0.200 F 
ATOM     89  F   UNL     1     -12.471  17.156  11.079  1.00  0.00    -0.200 F 
ENDBRANCH  55  79
BRANCH  67  90
ATOM     90  C   UNL     1     -15.604   7.802  13.020  1.00  0.00     0.064 A 
ATOM     91  C   UNL     1     -15.732   8.090  14.385  1.00  0.00     0.173 A 
ATOM     92  C   UNL     1     -14.531   6.971  12.653  1.00  0.00     0.173 A 
ATOM     93  F   UNL     1     -16.729   8.878  14.811  1.00  0.00    -0.203 F 
ATOM     94  C   UNL     1     -14.837   7.571  15.324  1.00  0.00     0.198 A 
ATOM     95  C   UNL     1     -13.643   6.444  13.588  1.00  0.00     0.198 A 
ATOM     96  F   UNL     1     -14.333   6.647  11.376  1.00  0.00    -0.203 F 
ATOM     97  F   UNL     1     -14.990   7.864  16.623  1.00  0.00    -0.200 F 
ATOM     98  C   UNL     1     -13.795   6.747  14.926  1.00  0.00     0.200 A 
ATOM     99  F   UNL     1     -12.649   5.635  13.188  1.00  0.00    -0.200 F 
ATOM    100  F   UNL     1     -12.947   6.239  15.831  1.00  0.00    -0.200 F 
ENDBRANCH  67  90
ENDBRANCH  41  42
ENDBRANCH  34  36
ENDBRANCH  33  34
ENDBRANCH  32  33
ENDBRANCH  31  32
ENDBRANCH  30  31
ENDBRANCH  29  30
ENDBRANCH  28  29
ENDBRANCH  27  28
ENDBRANCH   1  27
TORSDOF 23
