REMARK SMILES CC1(C)[C@H](C(=O)OCCOCCOCCOCCOC(=O)c2ccc(-c3c4nc(c(-c5c(F)c(F)c(F)c(F)c5F)c5ccc([nH]5)c(-c5c(F)c(F)c(F)c(F)c5F)c5nc(c(-c6c(F)c(F)c(F)c(F)c6F)c6ccc3[nH]6)C=C5)C=C4)cc2)[C@@H]1C(=O)Nc1ccc(NC(=O)C2CCC2)cc1
REMARK SMILES IDX 12 1 11 2 10 3 9 4 8 5 7 6 5 7 6 8 4 9 1 10 2 11 3 12 85 13
REMARK SMILES IDX 86 14 87 15 88 16 89 18 90 19 101 20 91 21 100 22 92 23
REMARK SMILES IDX 93 24 94 25 95 27 96 28 97 29 99 30 98 31 13 32 14 33 15 34
REMARK SMILES IDX 16 35 17 36 18 37 19 38 20 39 21 40 22 41 23 42 84 43 24 44
REMARK SMILES IDX 83 45 25 46 26 47 27 48 77 49 28 50 82 51 76 52 78 53 29 54
REMARK SMILES IDX 81 55 75 56 74 57 30 59 62 60 42 61 61 62 43 63 46 64 60 65
REMARK SMILES IDX 79 66 44 67 45 68 59 70 80 71 47 72 31 73 32 74 40 75 33 76
REMARK SMILES IDX 34 77 38 78 41 79 35 80 36 81 39 82 37 83 63 84 64 85 72 86
REMARK SMILES IDX 65 87 66 88 70 89 73 90 67 91 68 92 71 93 69 94 48 95 49 96
REMARK SMILES IDX 57 97 50 98 51 99 55 100 58 101 52 102 53 103 56 104 54 105
REMARK H PARENT 88 17 93 26 78 58 46 69
REMARK Flexibility Score: inf
ROOT
ATOM      1  C   UNL     1       0.229   0.980  -3.506  1.00  0.00     0.188 C 
ENDROOT
BRANCH   1   2
ATOM      2  C   UNL     1      -1.123   0.874  -4.228  1.00  0.00     0.188 C 
BRANCH   2   3
ATOM      3  O   UNL     1      -1.829   2.104  -4.335  1.00  0.00    -0.376 OA
BRANCH   3   4
ATOM      4  C   UNL     1      -2.726   2.454  -3.297  1.00  0.00     0.202 C 
BRANCH   4   5
ATOM      5  C   UNL     1      -2.123   2.854  -1.942  1.00  0.00     0.261 C 
BRANCH   5   6
ATOM      6  O   UNL     1      -1.516   1.857  -1.096  1.00  0.00    -0.463 OA
BRANCH   6   7
ATOM      7  C   UNL     1      -1.935   0.579  -1.131  1.00  0.00     0.310 C 
ATOM      8  O   UNL     1      -2.788   0.121  -1.873  1.00  0.00    -0.252 OA
BRANCH   7   9
ATOM      9  C   UNL     1      -1.204  -0.361  -0.268  1.00  0.00     0.118 C 
ATOM     10  C   UNL     1       1.081  -1.195   0.461  1.00  0.00     0.013 C 
ATOM     11  C   UNL     1       0.035  -0.107   0.550  1.00  0.00    -0.009 C 
ATOM     12  C   UNL     1       0.650   1.274   0.626  1.00  0.00     0.013 C 
ATOM     13  C   UNL     1      -1.327  -0.421   1.228  1.00  0.00     0.100 C 
BRANCH  13  14
ATOM     14  C   UNL     1      -1.916   0.583   2.146  1.00  0.00     0.228 C 
ATOM     15  O   UNL     1      -1.240   0.969   3.099  1.00  0.00    -0.274 OA
ATOM     16  N   UNL     1      -3.168   1.120   1.985  1.00  0.00    -0.326 N 
ATOM     17  H   UNL     1      -3.432   1.743   2.700  1.00  0.00     0.169 HD
BRANCH  16  18
ATOM     18  C   UNL     1      -4.136   0.947   0.994  1.00  0.00     0.041 A 
ATOM     19  C   UNL     1      -4.690   2.122   0.497  1.00  0.00     0.028 A 
ATOM     20  C   UNL     1      -4.513  -0.263   0.426  1.00  0.00     0.028 A 
ATOM     21  C   UNL     1      -5.419   2.112  -0.694  1.00  0.00     0.028 A 
ATOM     22  C   UNL     1      -5.317  -0.263  -0.735  1.00  0.00     0.028 A 
ATOM     23  C   UNL     1      -5.689   0.940  -1.368  1.00  0.00     0.041 A 
BRANCH  23  24
ATOM     24  N   UNL     1      -6.248   0.850  -2.654  1.00  0.00    -0.326 N 
ATOM     25  C   UNL     1      -6.540   1.681  -3.716  1.00  0.00     0.227 C 
ATOM     26  H   UNL     1      -6.507  -0.078  -2.856  1.00  0.00     0.169 HD
ATOM     27  O   UNL     1      -7.033   1.067  -4.688  1.00  0.00    -0.274 OA
BRANCH  25  28
ATOM     28  C   UNL     1      -6.254   3.183  -3.890  1.00  0.00     0.079 C 
ATOM     29  C   UNL     1      -7.422   3.970  -4.593  1.00  0.00     0.013 C 
ATOM     30  C   UNL     1      -6.322   4.312  -2.838  1.00  0.00     0.013 C 
ATOM     31  C   UNL     1      -6.889   5.241  -3.918  1.00  0.00     0.002 C 
ENDBRANCH  25  28
ENDBRANCH  23  24
ENDBRANCH  16  18
ENDBRANCH  13  14
ENDBRANCH   7   9
ENDBRANCH   6   7
ENDBRANCH   5   6
ENDBRANCH   4   5
ENDBRANCH   3   4
ENDBRANCH   2   3
ENDBRANCH   1   2
BRANCH   1  32
ATOM     32  O   UNL     1       0.713   2.280  -3.203  1.00  0.00    -0.377 OA
BRANCH  32  33
ATOM     33  C   UNL     1       0.640   3.302  -4.192  1.00  0.00     0.188 C 
BRANCH  33  34
ATOM     34  C   UNL     1       0.622   2.945  -5.691  1.00  0.00     0.188 C 
BRANCH  34  35
ATOM     35  O   UNL     1       1.130   1.655  -5.996  1.00  0.00    -0.376 OA
BRANCH  35  36
ATOM     36  C   UNL     1       2.459   1.589  -6.487  1.00  0.00     0.202 C 
BRANCH  36  37
ATOM     37  C   UNL     1       3.544   1.889  -5.446  1.00  0.00     0.261 C 
BRANCH  37  38
ATOM     38  O   UNL     1       3.552   3.227  -4.917  1.00  0.00    -0.460 OA
BRANCH  38  39
ATOM     39  C   UNL     1       3.621   4.256  -5.788  1.00  0.00     0.338 C 
ATOM     40  O   UNL     1       3.767   4.199  -6.995  1.00  0.00    -0.246 OA
BRANCH  39  41
ATOM     41  C   UNL     1       3.287   5.495  -5.054  1.00  0.00     0.060 A 
ATOM     42  C   UNL     1       2.258   6.311  -5.544  1.00  0.00     0.016 A 
ATOM     43  C   UNL     1       3.973   5.842  -3.887  1.00  0.00     0.016 A 
ATOM     44  C   UNL     1       1.957   7.513  -4.903  1.00  0.00     0.010 A 
ATOM     45  C   UNL     1       3.689   7.057  -3.259  1.00  0.00     0.010 A 
ATOM     46  C   UNL     1       2.717   7.919  -3.797  1.00  0.00    -0.014 A 
BRANCH  46  47
ATOM     47  C   UNL     1       2.705   9.351  -3.409  1.00  0.00     0.031 A 
ATOM     48  C   UNL     1       3.726  10.250  -4.055  1.00  0.00     0.074 A 
ATOM     49  C   UNL     1       1.804   9.856  -2.550  1.00  0.00     0.049 A 
ATOM     50  N   UNL     1       3.928  11.533  -3.900  1.00  0.00    -0.248 NA
ATOM     51  C   UNL     1       4.646   9.608  -5.010  1.00  0.00     0.031 C 
ATOM     52  C   UNL     1       0.746   9.100  -1.886  1.00  0.00     0.029 A 
ATOM     53  N   UNL     1       1.645  11.140  -2.089  1.00  0.00    -0.354 N 
ATOM     54  C   UNL     1       4.990  11.848  -4.737  1.00  0.00     0.074 A 
ATOM     55  C   UNL     1       5.417  10.620  -5.370  1.00  0.00     0.031 C 
ATOM     56  C   UNL     1       0.048   9.935  -1.094  1.00  0.00     0.029 A 
ATOM     57  C   UNL     1       0.626  11.277  -1.180  1.00  0.00     0.049 A 
ATOM     58  H   UNL     1       2.208  11.891  -2.384  1.00  0.00     0.167 HD
ATOM     59  C   UNL     1       5.554  13.055  -4.972  1.00  0.00     0.037 A 
ATOM     60  C   UNL     1       0.221  12.362  -0.490  1.00  0.00     0.037 A 
ATOM     61  C   UNL     1       5.140  14.276  -4.338  1.00  0.00     0.049 A 
ATOM     62  C   UNL     1       0.916  13.684  -0.711  1.00  0.00     0.074 A 
ATOM     63  C   UNL     1       5.641  15.553  -4.514  1.00  0.00     0.029 A 
ATOM     64  N   UNL     1       4.127  14.367  -3.395  1.00  0.00    -0.354 N 
ATOM     65  N   UNL     1       1.895  13.982  -1.532  1.00  0.00    -0.248 NA
ATOM     66  C   UNL     1       0.444  14.823   0.090  1.00  0.00     0.031 C 
ATOM     67  C   UNL     1       4.965  16.409  -3.640  1.00  0.00     0.029 A 
ATOM     68  C   UNL     1       4.006  15.675  -2.960  1.00  0.00     0.049 A 
ATOM     69  H   UNL     1       3.577  13.613  -3.081  1.00  0.00     0.167 HD
ATOM     70  C   UNL     1       2.133  15.342  -1.369  1.00  0.00     0.074 A 
ATOM     71  C   UNL     1       1.187  15.815  -0.381  1.00  0.00     0.031 C 
ATOM     72  C   UNL     1       3.051  16.130  -1.982  1.00  0.00     0.037 A 
BRANCH  59  73
ATOM     73  C   UNL     1       6.700  13.101  -5.938  1.00  0.00     0.064 A 
ATOM     74  C   UNL     1       6.508  12.921  -7.316  1.00  0.00     0.173 A 
ATOM     75  C   UNL     1       8.004  13.336  -5.480  1.00  0.00     0.173 A 
ATOM     76  F   UNL     1       5.282  12.671  -7.801  1.00  0.00    -0.203 F 
ATOM     77  C   UNL     1       7.585  12.951  -8.198  1.00  0.00     0.198 A 
ATOM     78  C   UNL     1       9.074  13.394  -6.368  1.00  0.00     0.198 A 
ATOM     79  F   UNL     1       8.240  13.510  -4.171  1.00  0.00    -0.203 F 
ATOM     80  F   UNL     1       7.386  12.727  -9.504  1.00  0.00    -0.200 F 
ATOM     81  C   UNL     1       8.865  13.194  -7.724  1.00  0.00     0.200 A 
ATOM     82  F   UNL     1      10.310  13.637  -5.909  1.00  0.00    -0.200 F 
ATOM     83  F   UNL     1       9.901  13.227  -8.574  1.00  0.00    -0.200 F 
ENDBRANCH  59  73
BRANCH  60  84
ATOM     84  C   UNL     1      -0.896  12.255   0.486  1.00  0.00     0.064 A 
ATOM     85  C   UNL     1      -2.122  12.897   0.258  1.00  0.00     0.173 A 
ATOM     86  C   UNL     1      -0.747  11.543   1.685  1.00  0.00     0.173 A 
ATOM     87  F   UNL     1      -2.304  13.615  -0.860  1.00  0.00    -0.203 F 
ATOM     88  C   UNL     1      -3.147  12.848   1.201  1.00  0.00     0.198 A 
ATOM     89  C   UNL     1      -1.782  11.472   2.615  1.00  0.00     0.198 A 
ATOM     90  F   UNL     1       0.407  10.916   1.955  1.00  0.00    -0.203 F 
ATOM     91  F   UNL     1      -4.289  13.514   0.982  1.00  0.00    -0.200 F 
ATOM     92  C   UNL     1      -2.978  12.132   2.377  1.00  0.00     0.200 A 
ATOM     93  F   UNL     1      -1.619  10.771   3.745  1.00  0.00    -0.200 F 
ATOM     94  F   UNL     1      -3.963  12.086   3.283  1.00  0.00    -0.200 F 
ENDBRANCH  60  84
BRANCH  72  95
ATOM     95  C   UNL     1       3.057  17.591  -1.632  1.00  0.00     0.064 A 
ATOM     96  C   UNL     1       3.513  18.050  -0.388  1.00  0.00     0.173 A 
ATOM     97  C   UNL     1       2.646  18.547  -2.574  1.00  0.00     0.173 A 
ATOM     98  F   UNL     1       3.905  17.176   0.551  1.00  0.00    -0.203 F 
ATOM     99  C   UNL     1       3.532  19.410  -0.090  1.00  0.00     0.198 A 
ATOM    100  C   UNL     1       2.696  19.907  -2.284  1.00  0.00     0.198 A 
ATOM    101  F   UNL     1       2.211  18.162  -3.784  1.00  0.00    -0.203 F 
ATOM    102  F   UNL     1       3.927  19.823   1.122  1.00  0.00    -0.200 F 
ATOM    103  C   UNL     1       3.131  20.337  -1.040  1.00  0.00     0.200 A 
ATOM    104  F   UNL     1       2.323  20.802  -3.210  1.00  0.00    -0.200 F 
ATOM    105  F   UNL     1       3.158  21.646  -0.754  1.00  0.00    -0.200 F 
ENDBRANCH  72  95
ENDBRANCH  46  47
ENDBRANCH  39  41
ENDBRANCH  38  39
ENDBRANCH  37  38
ENDBRANCH  36  37
ENDBRANCH  35  36
ENDBRANCH  34  35
ENDBRANCH  33  34
ENDBRANCH  32  33
ENDBRANCH   1  32
TORSDOF 24
