REMARK SMILES Cc1nn(C)c(C)c1C(=O)N[C@H]1CCCCC[C@H]1C(=O)OCCOCCOCCOCCOC(=O)c1ccc(-c2c3nc(c(-c4c(F)c(F)c(F)c(F)c4F)c4ccc([nH]4)c(-c4c(F)c(F)c(F)c(F)c4F)c4nc(c(-c5c(F)c(F)c(F)c(F)c5F)c5ccc2[nH]5)C=C4)C=C3)cc1
REMARK SMILES IDX 26 1 25 2 24 3 23 4 22 5 21 6 19 7 20 8 18 9 12 10 11 11
REMARK SMILES IDX 9 12 10 13 8 15 1 16 2 17 3 18 4 19 6 20 5 21 7 22 13 23
REMARK SMILES IDX 14 24 17 26 16 27 15 28 27 30 28 31 29 32 30 33 31 34 32 35
REMARK SMILES IDX 33 36 34 37 35 38 36 39 37 40 98 41 38 42 97 43 39 44 40 45
REMARK SMILES IDX 41 46 91 47 42 48 96 49 90 50 92 51 43 52 95 53 89 54 88 55
REMARK SMILES IDX 44 57 76 58 56 59 75 60 57 61 60 62 74 63 93 64 58 65 59 66
REMARK SMILES IDX 73 68 94 69 61 70 45 71 46 72 54 73 47 74 48 75 52 76 55 77
REMARK SMILES IDX 49 78 50 79 53 80 51 81 77 82 78 83 86 84 79 85 80 86 84 87
REMARK SMILES IDX 87 88 81 89 82 90 85 91 83 92 62 93 63 94 71 95 64 96 65 97
REMARK SMILES IDX 69 98 72 99 66 100 67 101 70 102 68 103
REMARK H PARENT 11 14 92 56 60 67
REMARK Flexibility Score: 90.00
ROOT
ATOM      1  C   UNL     1      -5.625   2.245  -2.482  1.00  0.00     0.188 C 
ENDROOT
BRANCH   1   2
ATOM      2  C   UNL     1      -6.031   1.242  -3.562  1.00  0.00     0.188 C 
BRANCH   2   3
ATOM      3  O   UNL     1      -7.205   0.464  -3.400  1.00  0.00    -0.376 OA
BRANCH   3   4
ATOM      4  C   UNL     1      -7.442  -0.253  -2.196  1.00  0.00     0.202 C 
BRANCH   4   5
ATOM      5  C   UNL     1      -6.312  -1.022  -1.497  1.00  0.00     0.261 C 
BRANCH   5   6
ATOM      6  O   UNL     1      -5.364  -0.209  -0.759  1.00  0.00    -0.463 OA
BRANCH   6   7
ATOM      7  C   UNL     1      -4.092  -0.193  -1.221  1.00  0.00     0.311 C 
ATOM      8  O   UNL     1      -3.753  -0.742  -2.269  1.00  0.00    -0.252 OA
BRANCH   7   9
ATOM      9  C   UNL     1      -3.033   0.379  -0.275  1.00  0.00     0.121 C 
BRANCH   9  10
ATOM     10  C   UNL     1      -3.113   1.664   0.609  1.00  0.00     0.096 C 
BRANCH  10  11
ATOM     11  N   UNL     1      -3.726   2.864   0.046  1.00  0.00    -0.348 N 
ATOM     12  C   UNL     1      -3.086   3.927  -0.573  1.00  0.00     0.255 C 
ATOM     13  O   UNL     1      -3.324   4.116  -1.767  1.00  0.00    -0.269 OA
ATOM     14  H   UNL     1      -4.707   2.926   0.113  1.00  0.00     0.164 HD
BRANCH  12  15
ATOM     15  C   UNL     1      -2.369   4.948   0.214  1.00  0.00     0.083 A 
ATOM     16  C   UNL     1      -0.717   3.760   1.921  1.00  0.00     0.069 C 
ATOM     17  C   UNL     1      -1.405   4.897   1.270  1.00  0.00     0.072 A 
ATOM     18  N   UNL     1      -1.014   6.115   1.664  1.00  0.00    -0.178 NA
ATOM     19  N   UNL     1      -1.654   6.958   0.853  1.00  0.00    -0.272 N 
ATOM     20  C   UNL     1      -2.480   6.327  -0.038  1.00  0.00     0.048 A 
ATOM     21  C   UNL     1      -1.358   8.370   0.973  1.00  0.00     0.174 C 
ATOM     22  C   UNL     1      -3.275   7.104  -1.029  1.00  0.00     0.067 C 
ENDBRANCH  12  15
ENDBRANCH  10  11
BRANCH  10  23
ATOM     23  C   UNL     1      -3.574   1.478   2.060  1.00  0.00     0.026 C 
BRANCH  23  24
ATOM     24  C   UNL     1      -4.726   0.510   2.267  1.00  0.00     0.002 CG0
ATOM     25  G   UNL     1      -4.251  -0.926   2.469  1.00  0.00     0.000 G0
ENDBRANCH  23  24
ENDBRANCH  10  23
ENDBRANCH   9  10
BRANCH   9  26
ATOM     26  C   UNL     1      -2.484  -0.818   0.531  1.00  0.00     0.017 C 
BRANCH  26  27
ATOM     27  C   UNL     1      -3.529  -1.621   1.315  1.00  0.00     0.001 C 
BRANCH  27  28
ATOM     28  C   UNL     1      -4.251  -0.926   2.469  1.00  0.00     0.000 CG0
ATOM     29  G   UNL     1      -4.726   0.510   2.267  1.00  0.00     0.000 G0
ENDBRANCH  27  28
ENDBRANCH  26  27
ENDBRANCH   9  26
ENDBRANCH   7   9
ENDBRANCH   6   7
ENDBRANCH   5   6
ENDBRANCH   4   5
ENDBRANCH   3   4
ENDBRANCH   2   3
ENDBRANCH   1   2
BRANCH   1  30
ATOM     30  O   UNL     1      -6.314   2.164  -1.243  1.00  0.00    -0.377 OA
BRANCH  30  31
ATOM     31  C   UNL     1      -7.510   2.922  -1.076  1.00  0.00     0.188 C 
BRANCH  31  32
ATOM     32  C   UNL     1      -8.251   3.438  -2.318  1.00  0.00     0.188 C 
BRANCH  32  33
ATOM     33  O   UNL     1      -7.435   4.205  -3.190  1.00  0.00    -0.376 OA
BRANCH  33  34
ATOM     34  C   UNL     1      -7.345   5.609  -2.977  1.00  0.00     0.202 C 
BRANCH  34  35
ATOM     35  C   UNL     1      -6.757   6.083  -1.638  1.00  0.00     0.261 C 
BRANCH  35  36
ATOM     36  O   UNL     1      -7.558   5.870  -0.459  1.00  0.00    -0.460 OA
BRANCH  36  37
ATOM     37  C   UNL     1      -8.857   6.210  -0.468  1.00  0.00     0.338 C 
ATOM     38  O   UNL     1      -9.468   6.818  -1.336  1.00  0.00    -0.246 OA
BRANCH  37  39
ATOM     39  C   UNL     1      -9.496   5.552   0.683  1.00  0.00     0.060 A 
ATOM     40  C   UNL     1     -10.548   4.658   0.449  1.00  0.00     0.016 A 
ATOM     41  C   UNL     1      -9.081   5.836   1.987  1.00  0.00     0.016 A 
ATOM     42  C   UNL     1     -11.224   4.083   1.523  1.00  0.00     0.010 A 
ATOM     43  C   UNL     1      -9.771   5.275   3.063  1.00  0.00     0.010 A 
ATOM     44  C   UNL     1     -10.872   4.431   2.834  1.00  0.00    -0.014 A 
BRANCH  44  45
ATOM     45  C   UNL     1     -11.796   4.094   3.943  1.00  0.00     0.031 A 
ATOM     46  C   UNL     1     -12.790   5.136   4.376  1.00  0.00     0.074 A 
ATOM     47  C   UNL     1     -11.781   2.883   4.524  1.00  0.00     0.049 A 
ATOM     48  N   UNL     1     -13.691   5.087   5.324  1.00  0.00    -0.248 NA
ATOM     49  C   UNL     1     -12.765   6.409   3.636  1.00  0.00     0.031 C 
ATOM     50  C   UNL     1     -10.893   1.781   4.161  1.00  0.00     0.029 A 
ATOM     51  N   UNL     1     -12.541   2.381   5.551  1.00  0.00    -0.354 N 
ATOM     52  C   UNL     1     -14.335   6.317   5.293  1.00  0.00     0.074 A 
ATOM     53  C   UNL     1     -13.701   7.106   4.260  1.00  0.00     0.031 C 
ATOM     54  C   UNL     1     -11.154   0.732   4.961  1.00  0.00     0.029 A 
ATOM     55  C   UNL     1     -12.205   1.100   5.909  1.00  0.00     0.049 A 
ATOM     56  H   UNL     1     -13.260   2.892   5.989  1.00  0.00     0.167 HD
ATOM     57  C   UNL     1     -15.371   6.747   6.051  1.00  0.00     0.037 A 
ATOM     58  C   UNL     1     -12.682   0.324   6.902  1.00  0.00     0.037 A 
ATOM     59  C   UNL     1     -15.993   5.962   7.083  1.00  0.00     0.049 A 
ATOM     60  C   UNL     1     -13.784   0.855   7.786  1.00  0.00     0.074 A 
ATOM     61  C   UNL     1     -17.053   6.301   7.905  1.00  0.00     0.029 A 
ATOM     62  N   UNL     1     -15.600   4.681   7.442  1.00  0.00    -0.354 N 
ATOM     63  N   UNL     1     -14.407   2.008   7.734  1.00  0.00    -0.248 NA
ATOM     64  C   UNL     1     -14.253  -0.028   8.864  1.00  0.00     0.031 C 
ATOM     65  C   UNL     1     -17.267   5.245   8.797  1.00  0.00     0.029 A 
ATOM     66  C   UNL     1     -16.381   4.224   8.491  1.00  0.00     0.049 A 
ATOM     67  H   UNL     1     -14.875   4.171   7.014  1.00  0.00     0.167 HD
ATOM     68  C   UNL     1     -15.359   1.977   8.746  1.00  0.00     0.074 A 
ATOM     69  C   UNL     1     -15.240   0.684   9.388  1.00  0.00     0.031 C 
ATOM     70  C   UNL     1     -16.253   2.930   9.111  1.00  0.00     0.037 A 
BRANCH  57  71
ATOM     71  C   UNL     1     -15.872   8.141   5.810  1.00  0.00     0.064 A 
ATOM     72  C   UNL     1     -16.569   8.484   4.641  1.00  0.00     0.173 A 
ATOM     73  C   UNL     1     -15.669   9.144   6.771  1.00  0.00     0.173 A 
ATOM     74  F   UNL     1     -16.773   7.568   3.683  1.00  0.00    -0.203 F 
ATOM     75  C   UNL     1     -17.020   9.785   4.432  1.00  0.00     0.198 A 
ATOM     76  C   UNL     1     -16.149  10.435   6.572  1.00  0.00     0.198 A 
ATOM     77  F   UNL     1     -15.009   8.869   7.906  1.00  0.00    -0.203 F 
ATOM     78  F   UNL     1     -17.637  10.102   3.285  1.00  0.00    -0.200 F 
ATOM     79  C   UNL     1     -16.816  10.757   5.400  1.00  0.00     0.200 A 
ATOM     80  F   UNL     1     -15.960  11.371   7.513  1.00  0.00    -0.200 F 
ATOM     81  F   UNL     1     -17.255  12.008   5.199  1.00  0.00    -0.200 F 
ENDBRANCH  57  71
BRANCH  58  82
ATOM     82  C   UNL     1     -12.118  -1.034   7.126  1.00  0.00     0.064 A 
ATOM     83  C   UNL     1     -12.888  -2.185   6.909  1.00  0.00     0.173 A 
ATOM     84  C   UNL     1     -10.804  -1.207   7.586  1.00  0.00     0.173 A 
ATOM     85  F   UNL     1     -14.159  -2.072   6.495  1.00  0.00    -0.203 F 
ATOM     86  C   UNL     1     -12.373  -3.455   7.163  1.00  0.00     0.198 A 
ATOM     87  C   UNL     1     -10.280  -2.479   7.811  1.00  0.00     0.198 A 
ATOM     88  F   UNL     1     -10.025  -0.140   7.813  1.00  0.00    -0.203 F 
ATOM     89  F   UNL     1     -13.148  -4.535   6.995  1.00  0.00    -0.200 F 
ATOM     90  C   UNL     1     -11.068  -3.601   7.607  1.00  0.00     0.200 A 
ATOM     91  F   UNL     1      -9.015  -2.615   8.229  1.00  0.00    -0.200 F 
ATOM     92  F   UNL     1     -10.573  -4.823   7.849  1.00  0.00    -0.200 F 
ENDBRANCH  58  82
BRANCH  70  93
ATOM     93  C   UNL     1     -17.201   2.598  10.228  1.00  0.00     0.064 A 
ATOM     94  C   UNL     1     -16.771   2.496  11.559  1.00  0.00     0.173 A 
ATOM     95  C   UNL     1     -18.570   2.423   9.966  1.00  0.00     0.173 A 
ATOM     96  F   UNL     1     -15.472   2.642  11.861  1.00  0.00    -0.203 F 
ATOM     97  C   UNL     1     -17.670   2.205  12.582  1.00  0.00     0.198 A 
ATOM     98  C   UNL     1     -19.470   2.165  10.995  1.00  0.00     0.198 A 
ATOM     99  F   UNL     1     -19.036   2.519   8.711  1.00  0.00    -0.203 F 
ATOM    100  F   UNL     1     -17.228   2.062  13.839  1.00  0.00    -0.200 F 
ATOM    101  C   UNL     1     -19.019   2.047  12.300  1.00  0.00     0.200 A 
ATOM    102  F   UNL     1     -20.776   2.030  10.723  1.00  0.00    -0.200 F 
ATOM    103  F   UNL     1     -19.883   1.775  13.287  1.00  0.00    -0.200 F 
ENDBRANCH  70  93
ENDBRANCH  44  45
ENDBRANCH  37  39
ENDBRANCH  36  37
ENDBRANCH  35  36
ENDBRANCH  34  35
ENDBRANCH  33  34
ENDBRANCH  32  33
ENDBRANCH  31  32
ENDBRANCH  30  31
ENDBRANCH   1  30
TORSDOF 22
