REMARK SMILES CCOc1ccccc1-c1cc(C(=O)OCCOCCOCCOCCOC(=O)c2ccc(-c3c4nc(c(-c5c(F)c(F)c(F)c(F)c5F)c5ccc([nH]5)c(-c5c(F)c(F)c(F)c(F)c5F)c5nc(c(-c6c(F)c(F)c(F)c(F)c6F)c6ccc3[nH]6)C=C5)C=C4)cc2)c2cc(C)cc(C)c2n1
REMARK SMILES IDX 20 1 19 2 18 3 17 4 16 5 15 6 13 7 14 8 12 9 10 10 11 11
REMARK SMILES IDX 101 12 100 13 93 14 98 15 94 16 97 17 99 18 95 19 96 20 9 21
REMARK SMILES IDX 4 22 5 23 6 24 8 25 7 26 3 27 2 28 1 29 21 30 22 31 23 32
REMARK SMILES IDX 24 33 25 34 26 35 27 36 28 37 29 38 30 39 31 40 92 41 32 42
REMARK SMILES IDX 91 43 33 44 34 45 35 46 85 47 36 48 90 49 84 50 86 51 37 52
REMARK SMILES IDX 89 53 83 54 82 55 38 57 70 58 50 59 69 60 51 61 54 62 68 63
REMARK SMILES IDX 87 64 52 65 53 66 67 68 88 69 55 70 39 71 40 72 48 73 41 74
REMARK SMILES IDX 42 75 46 76 49 77 43 78 44 79 47 80 45 81 71 82 72 83 80 84
REMARK SMILES IDX 73 85 74 86 78 87 81 88 75 89 76 90 79 91 77 92 56 93 57 94
REMARK SMILES IDX 65 95 58 96 59 97 63 98 66 99 60 100 61 101 64 102 62 103
REMARK H PARENT 86 56 54 67
REMARK Flexibility Score: inf
ROOT
ATOM      1  C   UNL     1      -1.353  -2.321   0.470  1.00  0.00     0.188 C 
ENDROOT
BRANCH   1   2
ATOM      2  C   UNL     1      -1.695  -1.489   1.712  1.00  0.00     0.188 C 
BRANCH   2   3
ATOM      3  O   UNL     1      -2.994  -0.935   1.849  1.00  0.00    -0.376 OA
BRANCH   3   4
ATOM      4  C   UNL     1      -3.694  -0.433   0.717  1.00  0.00     0.202 C 
BRANCH   4   5
ATOM      5  C   UNL     1      -2.939   0.298  -0.415  1.00  0.00     0.261 C 
BRANCH   5   6
ATOM      6  O   UNL     1      -1.602   0.722  -0.112  1.00  0.00    -0.460 OA
BRANCH   6   7
ATOM      7  C   UNL     1      -1.540   1.724   0.791  1.00  0.00     0.338 C 
ATOM      8  O   UNL     1      -2.496   2.302   1.281  1.00  0.00    -0.246 OA
BRANCH   7   9
ATOM      9  C   UNL     1      -0.143   2.031   1.161  1.00  0.00     0.071 A 
ATOM     10  C   UNL     1       2.138   2.424   0.740  1.00  0.00     0.076 A 
ATOM     11  C   UNL     1       0.926   1.972   0.259  1.00  0.00     0.045 A 
ATOM     12  N   UNL     1       2.090   3.369   1.698  1.00  0.00    -0.247 NA
ATOM     13  C   UNL     1       1.304   3.061   2.730  1.00  0.00     0.075 A 
ATOM     14  C   UNL     1       0.154   2.300   2.509  1.00  0.00     0.015 A 
ATOM     15  C   UNL     1       1.749   3.299   4.026  1.00  0.00    -0.024 A 
ATOM     16  C   UNL     1      -0.473   1.662   3.603  1.00  0.00     0.014 A 
ATOM     17  C   UNL     1       1.183   2.581   5.088  1.00  0.00     0.009 A 
ATOM     18  C   UNL     1       2.944   4.174   4.284  1.00  0.00     0.047 C 
ATOM     19  C   UNL     1       0.115   1.708   4.870  1.00  0.00    -0.050 A 
ATOM     20  C   UNL     1      -0.259   0.688   5.907  1.00  0.00     0.044 C 
BRANCH  10  21
ATOM     21  C   UNL     1       3.310   1.533   1.073  1.00  0.00     0.042 A 
ATOM     22  C   UNL     1       3.125   0.415   1.924  1.00  0.00     0.128 A 
ATOM     23  C   UNL     1       4.062   0.089   2.912  1.00  0.00     0.047 A 
ATOM     24  C   UNL     1       5.271   0.771   2.970  1.00  0.00     0.004 A 
ATOM     25  C   UNL     1       4.597   2.105   1.058  1.00  0.00     0.014 A 
ATOM     26  C   UNL     1       5.564   1.729   2.002  1.00  0.00     0.001 A 
BRANCH  22  27
ATOM     27  O   UNL     1       1.928  -0.258   1.947  1.00  0.00    -0.493 OA
BRANCH  27  28
ATOM     28  C   UNL     1       2.056  -1.535   1.313  1.00  0.00     0.226 C 
ATOM     29  C   UNL     1       2.015  -1.401  -0.201  1.00  0.00     0.049 C 
ENDBRANCH  27  28
ENDBRANCH  22  27
ENDBRANCH  10  21
ENDBRANCH   7   9
ENDBRANCH   6   7
ENDBRANCH   5   6
ENDBRANCH   4   5
ENDBRANCH   3   4
ENDBRANCH   2   3
ENDBRANCH   1   2
BRANCH   1  30
ATOM     30  O   UNL     1      -2.459  -2.565  -0.383  1.00  0.00    -0.377 OA
BRANCH  30  31
ATOM     31  C   UNL     1      -2.938  -3.895  -0.355  1.00  0.00     0.188 C 
BRANCH  31  32
ATOM     32  C   UNL     1      -3.452  -4.392   1.005  1.00  0.00     0.188 C 
BRANCH  32  33
ATOM     33  O   UNL     1      -2.499  -4.198   2.045  1.00  0.00    -0.376 OA
BRANCH  33  34
ATOM     34  C   UNL     1      -1.905  -5.345   2.627  1.00  0.00     0.202 C 
BRANCH  34  35
ATOM     35  C   UNL     1      -0.730  -5.953   1.847  1.00  0.00     0.261 C 
BRANCH  35  36
ATOM     36  O   UNL     1      -0.945  -6.152   0.443  1.00  0.00    -0.460 OA
BRANCH  36  37
ATOM     37  C   UNL     1      -1.791  -7.149   0.086  1.00  0.00     0.338 C 
ATOM     38  O   UNL     1      -2.393  -7.896   0.819  1.00  0.00    -0.246 OA
BRANCH  37  39
ATOM     39  C   UNL     1      -2.009  -7.034  -1.377  1.00  0.00     0.060 A 
ATOM     40  C   UNL     1      -3.306  -6.771  -1.839  1.00  0.00     0.016 A 
ATOM     41  C   UNL     1      -0.940  -7.111  -2.273  1.00  0.00     0.016 A 
ATOM     42  C   UNL     1      -3.538  -6.581  -3.202  1.00  0.00     0.010 A 
ATOM     43  C   UNL     1      -1.181  -6.965  -3.643  1.00  0.00     0.010 A 
ATOM     44  C   UNL     1      -2.484  -6.721  -4.113  1.00  0.00    -0.014 A 
BRANCH  44  45
ATOM     45  C   UNL     1      -2.781  -6.851  -5.560  1.00  0.00     0.031 A 
ATOM     46  C   UNL     1      -2.959  -8.237  -6.111  1.00  0.00     0.074 A 
ATOM     47  C   UNL     1      -2.899  -5.779  -6.362  1.00  0.00     0.049 A 
ATOM     48  N   UNL     1      -3.141  -8.629  -7.345  1.00  0.00    -0.248 NA
ATOM     49  C   UNL     1      -2.921  -9.333  -5.129  1.00  0.00     0.031 C 
ATOM     50  C   UNL     1      -2.804  -4.386  -5.935  1.00  0.00     0.029 A 
ATOM     51  N   UNL     1      -3.112  -5.705  -7.717  1.00  0.00    -0.354 N 
ATOM     52  C   UNL     1      -3.234 -10.013  -7.287  1.00  0.00     0.074 A 
ATOM     53  C   UNL     1      -3.057 -10.396  -5.904  1.00  0.00     0.031 C 
ATOM     54  C   UNL     1      -2.934  -3.592  -7.013  1.00  0.00     0.029 A 
ATOM     55  C   UNL     1      -3.083  -4.423  -8.208  1.00  0.00     0.049 A 
ATOM     56  H   UNL     1      -3.270  -6.495  -8.282  1.00  0.00     0.167 HD
ATOM     57  C   UNL     1      -3.453 -10.886  -8.297  1.00  0.00     0.037 A 
ATOM     58  C   UNL     1      -3.136  -3.981  -9.481  1.00  0.00     0.037 A 
ATOM     59  C   UNL     1      -3.611 -10.499  -9.673  1.00  0.00     0.049 A 
ATOM     60  C   UNL     1      -3.280  -4.980 -10.604  1.00  0.00     0.074 A 
ATOM     61  C   UNL     1      -3.840 -11.304 -10.774  1.00  0.00     0.029 A 
ATOM     62  N   UNL     1      -3.542  -9.193 -10.136  1.00  0.00    -0.354 N 
ATOM     63  N   UNL     1      -3.388  -6.286 -10.545  1.00  0.00    -0.248 NA
ATOM     64  C   UNL     1      -3.310  -4.443 -11.973  1.00  0.00     0.031 C 
ATOM     65  C   UNL     1      -3.845 -10.492 -11.912  1.00  0.00     0.029 A 
ATOM     66  C   UNL     1      -3.692  -9.174 -11.513  1.00  0.00     0.049 A 
ATOM     67  H   UNL     1      -3.406  -8.399  -9.571  1.00  0.00     0.167 HD
ATOM     68  C   UNL     1      -3.534  -6.721 -11.857  1.00  0.00     0.074 A 
ATOM     69  C   UNL     1      -3.509  -5.539 -12.692  1.00  0.00     0.031 C 
ATOM     70  C   UNL     1      -3.680  -7.985 -12.328  1.00  0.00     0.037 A 
BRANCH  57  71
ATOM     71  C   UNL     1      -3.491 -12.346  -7.952  1.00  0.00     0.064 A 
ATOM     72  C   UNL     1      -4.538 -12.903  -7.202  1.00  0.00     0.173 A 
ATOM     73  C   UNL     1      -2.470 -13.203  -8.390  1.00  0.00     0.173 A 
ATOM     74  F   UNL     1      -5.528 -12.123  -6.742  1.00  0.00    -0.203 F 
ATOM     75  C   UNL     1      -4.546 -14.257  -6.879  1.00  0.00     0.198 A 
ATOM     76  C   UNL     1      -2.499 -14.563  -8.095  1.00  0.00     0.198 A 
ATOM     77  F   UNL     1      -1.444 -12.722  -9.109  1.00  0.00    -0.203 F 
ATOM     78  F   UNL     1      -5.526 -14.756  -6.113  1.00  0.00    -0.200 F 
ATOM     79  C   UNL     1      -3.532 -15.087  -7.333  1.00  0.00     0.200 A 
ATOM     80  F   UNL     1      -1.524 -15.365  -8.545  1.00  0.00    -0.200 F 
ATOM     81  F   UNL     1      -3.544 -16.392  -7.026  1.00  0.00    -0.200 F 
ENDBRANCH  57  71
BRANCH  58  82
ATOM     82  C   UNL     1      -3.025  -2.525  -9.772  1.00  0.00     0.064 A 
ATOM     83  C   UNL     1      -4.099  -1.809 -10.320  1.00  0.00     0.173 A 
ATOM     84  C   UNL     1      -1.831  -1.827  -9.538  1.00  0.00     0.173 A 
ATOM     85  F   UNL     1      -5.253  -2.436 -10.590  1.00  0.00    -0.203 F 
ATOM     86  C   UNL     1      -3.976  -0.458 -10.641  1.00  0.00     0.198 A 
ATOM     87  C   UNL     1      -1.719  -0.468  -9.829  1.00  0.00     0.198 A 
ATOM     88  F   UNL     1      -0.769  -2.464  -9.022  1.00  0.00    -0.203 F 
ATOM     89  F   UNL     1      -5.001   0.188 -11.215  1.00  0.00    -0.200 F 
ATOM     90  C   UNL     1      -2.789   0.213 -10.389  1.00  0.00     0.200 A 
ATOM     91  F   UNL     1      -0.573   0.177  -9.574  1.00  0.00    -0.200 F 
ATOM     92  F   UNL     1      -2.671   1.512 -10.697  1.00  0.00    -0.200 F 
ENDBRANCH  58  82
BRANCH  70  93
ATOM     93  C   UNL     1      -3.876  -8.162 -13.808  1.00  0.00     0.064 A 
ATOM     94  C   UNL     1      -2.835  -7.957 -14.724  1.00  0.00     0.173 A 
ATOM     95  C   UNL     1      -5.109  -8.615 -14.306  1.00  0.00     0.173 A 
ATOM     96  F   UNL     1      -1.641  -7.513 -14.303  1.00  0.00    -0.203 F 
ATOM     97  C   UNL     1      -3.027  -8.178 -16.086  1.00  0.00     0.198 A 
ATOM     98  C   UNL     1      -5.286  -8.869 -15.663  1.00  0.00     0.198 A 
ATOM     99  F   UNL     1      -6.135  -8.838 -13.471  1.00  0.00    -0.203 F 
ATOM    100  F   UNL     1      -2.031  -7.935 -16.949  1.00  0.00    -0.200 F 
ATOM    101  C   UNL     1      -4.247  -8.644 -16.553  1.00  0.00     0.200 A 
ATOM    102  F   UNL     1      -6.460  -9.338 -16.107  1.00  0.00    -0.200 F 
ATOM    103  F   UNL     1      -4.424  -8.873 -17.861  1.00  0.00    -0.200 F 
ENDBRANCH  70  93
ENDBRANCH  44  45
ENDBRANCH  37  39
ENDBRANCH  36  37
ENDBRANCH  35  36
ENDBRANCH  34  35
ENDBRANCH  33  34
ENDBRANCH  32  33
ENDBRANCH  31  32
ENDBRANCH  30  31
ENDBRANCH   1  30
TORSDOF 23
