REMARK SMILES Cc1cc([N+](=O)[O-])ccc1NC(=O)[C@@H]1[C@@H](C(=O)OCCOCCOCCOCCOC(=O)c2ccc(-c3c4nc(c(-c5c(F)c(F)c(F)c(F)c5F)c5ccc([nH]5)c(-c5c(F)c(F)c(F)c(F)c5F)c5nc(c(-c6c(F)c(F)c(F)c(F)c6F)c6ccc3[nH]6)C=C5)C=C4)cc2)[C@H]2C=C[C@@H]1C2
REMARK SMILES IDX 23 1 22 2 21 3 20 4 19 5 18 6 16 7 17 8 15 9 14 10 99 11
REMARK SMILES IDX 96 12 98 13 100 14 97 15 12 16 11 17 13 19 10 20 1 21 2 22
REMARK SMILES IDX 3 23 4 24 9 25 8 26 5 27 6 28 7 29 24 30 25 31 26 32 27 33
REMARK SMILES IDX 28 34 29 35 30 36 31 37 32 38 33 39 34 40 95 41 35 42 94 43
REMARK SMILES IDX 36 44 37 45 38 46 88 47 39 48 93 49 87 50 89 51 40 52 92 53
REMARK SMILES IDX 86 54 85 55 41 57 73 58 53 59 72 60 54 61 57 62 71 63 90 64
REMARK SMILES IDX 55 65 56 66 70 68 91 69 58 70 42 71 43 72 51 73 44 74 45 75
REMARK SMILES IDX 49 76 52 77 46 78 47 79 50 80 48 81 74 82 75 83 83 84 76 85
REMARK SMILES IDX 77 86 81 87 84 88 78 89 79 90 82 91 80 92 59 93 60 94 68 95
REMARK SMILES IDX 61 96 62 97 66 98 69 99 63 100 64 101 67 102 65 103
REMARK H PARENT 11 18 89 56 57 67
REMARK Flexibility Score: inf
ROOT
ATOM      1  C   UNL     1       0.562   6.887  -1.082  1.00  0.00     0.188 C 
ENDROOT
BRANCH   1   2
ATOM      2  C   UNL     1      -0.272   5.738  -1.635  1.00  0.00     0.188 C 
BRANCH   2   3
ATOM      3  O   UNL     1      -1.103   5.905  -2.782  1.00  0.00    -0.376 OA
BRANCH   3   4
ATOM      4  C   UNL     1      -1.725   4.671  -3.203  1.00  0.00     0.202 C 
BRANCH   4   5
ATOM      5  C   UNL     1      -2.865   4.001  -2.357  1.00  0.00     0.261 C 
BRANCH   5   6
ATOM      6  O   UNL     1      -2.890   4.109  -0.920  1.00  0.00    -0.463 OA
BRANCH   6   7
ATOM      7  C   UNL     1      -1.785   3.612  -0.407  1.00  0.00     0.310 C 
ATOM      8  O   UNL     1      -0.948   3.084  -1.137  1.00  0.00    -0.252 OA
BRANCH   7   9
ATOM      9  C   UNL     1      -1.474   3.916   1.023  1.00  0.00     0.119 C 
ATOM     10  C   UNL     1      -0.820   2.579   1.448  1.00  0.00     0.100 C 
ATOM     11  C   UNL     1      -1.272   2.417   2.893  1.00  0.00     0.025 C 
ATOM     12  C   UNL     1      -2.429   4.215   2.188  1.00  0.00     0.027 C 
ATOM     13  C   UNL     1      -2.750   2.028   2.783  1.00  0.00    -0.027 C 
ATOM     14  C   UNL     1      -1.478   3.856   3.358  1.00  0.00     0.017 C 
ATOM     15  C   UNL     1      -3.428   3.111   2.368  1.00  0.00    -0.027 C 
BRANCH  10  16
ATOM     16  C   UNL     1       0.629   2.635   0.996  1.00  0.00     0.228 C 
ATOM     17  N   UNL     1       1.114   1.675   0.132  1.00  0.00    -0.326 N 
ATOM     18  H   UNL     1       1.969   1.891  -0.306  1.00  0.00     0.169 HD
ATOM     19  O   UNL     1       1.365   3.575   1.309  1.00  0.00    -0.274 OA
BRANCH  17  20
ATOM     20  C   UNL     1       0.551   0.424  -0.209  1.00  0.00     0.044 A 
ATOM     21  C   UNL     1       2.820  -0.681   0.160  1.00  0.00     0.047 C 
ATOM     22  C   UNL     1       1.328  -0.720  -0.019  1.00  0.00    -0.021 A 
ATOM     23  C   UNL     1       0.675  -1.968   0.039  1.00  0.00     0.091 A 
ATOM     24  C   UNL     1      -0.712  -2.065  -0.158  1.00  0.00     0.269 A 
ATOM     25  C   UNL     1      -0.782   0.260  -0.625  1.00  0.00     0.033 A 
ATOM     26  C   UNL     1      -1.438  -0.959  -0.560  1.00  0.00     0.088 A 
BRANCH  24  27
ATOM     27  N   UNL     1      -1.418  -3.322   0.078  1.00  0.00     0.062 N 
ATOM     28  O   UNL     1      -0.737  -4.350   0.180  1.00  0.00    -0.258 OA
ATOM     29  O   UNL     1      -2.652  -3.274   0.187  1.00  0.00    -0.258 OA
ENDBRANCH  24  27
ENDBRANCH  17  20
ENDBRANCH  10  16
ENDBRANCH   7   9
ENDBRANCH   6   7
ENDBRANCH   5   6
ENDBRANCH   4   5
ENDBRANCH   3   4
ENDBRANCH   2   3
ENDBRANCH   1   2
BRANCH   1  30
ATOM     30  O   UNL     1      -0.223   7.926  -0.494  1.00  0.00    -0.377 OA
BRANCH  30  31
ATOM     31  C   UNL     1      -0.954   8.702  -1.436  1.00  0.00     0.188 C 
BRANCH  31  32
ATOM     32  C   UNL     1      -0.047   9.437  -2.406  1.00  0.00     0.188 C 
BRANCH  32  33
ATOM     33  O   UNL     1       0.313   8.552  -3.469  1.00  0.00    -0.376 OA
BRANCH  33  34
ATOM     34  C   UNL     1       1.552   8.844  -4.108  1.00  0.00     0.202 C 
BRANCH  34  35
ATOM     35  C   UNL     1       1.642  10.279  -4.641  1.00  0.00     0.261 C 
BRANCH  35  36
ATOM     36  O   UNL     1       0.756  10.423  -5.771  1.00  0.00    -0.460 OA
BRANCH  36  37
ATOM     37  C   UNL     1      -0.357  11.181  -5.552  1.00  0.00     0.338 C 
ATOM     38  O   UNL     1      -0.351  12.362  -5.287  1.00  0.00    -0.246 OA
BRANCH  37  39
ATOM     39  C   UNL     1      -1.572  10.310  -5.503  1.00  0.00     0.060 A 
ATOM     40  C   UNL     1      -2.782  10.816  -4.999  1.00  0.00     0.016 A 
ATOM     41  C   UNL     1      -1.433   8.942  -5.704  1.00  0.00     0.016 A 
ATOM     42  C   UNL     1      -3.796   9.940  -4.580  1.00  0.00     0.010 A 
ATOM     43  C   UNL     1      -2.375   8.087  -5.167  1.00  0.00     0.010 A 
ATOM     44  C   UNL     1      -3.563   8.565  -4.593  1.00  0.00    -0.014 A 
BRANCH  44  45
ATOM     45  C   UNL     1      -4.361   7.565  -3.849  1.00  0.00     0.031 A 
ATOM     46  C   UNL     1      -4.707   6.239  -4.507  1.00  0.00     0.074 A 
ATOM     47  C   UNL     1      -4.328   7.734  -2.504  1.00  0.00     0.049 A 
ATOM     48  N   UNL     1      -5.328   5.226  -3.982  1.00  0.00    -0.248 NA
ATOM     49  C   UNL     1      -4.415   5.984  -5.923  1.00  0.00     0.031 C 
ATOM     50  C   UNL     1      -3.933   6.731  -1.549  1.00  0.00     0.029 A 
ATOM     51  N   UNL     1      -4.322   8.863  -1.695  1.00  0.00    -0.354 N 
ATOM     52  C   UNL     1      -5.172   4.114  -4.824  1.00  0.00     0.074 A 
ATOM     53  C   UNL     1      -4.727   4.691  -6.064  1.00  0.00     0.031 C 
ATOM     54  C   UNL     1      -4.024   7.125  -0.281  1.00  0.00     0.029 A 
ATOM     55  C   UNL     1      -4.526   8.451  -0.354  1.00  0.00     0.049 A 
ATOM     56  H   UNL     1      -4.198   9.791  -2.001  1.00  0.00     0.167 HD
ATOM     57  C   UNL     1      -5.277   2.826  -4.332  1.00  0.00     0.037 A 
ATOM     58  C   UNL     1      -5.602   8.865   0.352  1.00  0.00     0.037 A 
ATOM     59  C   UNL     1      -5.749   2.826  -2.921  1.00  0.00     0.049 A 
ATOM     60  C   UNL     1      -6.623   7.739   0.464  1.00  0.00     0.074 A 
ATOM     61  C   UNL     1      -5.317   2.214  -1.752  1.00  0.00     0.029 A 
ATOM     62  N   UNL     1      -6.733   3.736  -2.508  1.00  0.00    -0.354 N 
ATOM     63  N   UNL     1      -6.624   6.671  -0.314  1.00  0.00    -0.248 NA
ATOM     64  C   UNL     1      -7.620   7.636   1.525  1.00  0.00     0.031 C 
ATOM     65  C   UNL     1      -5.904   2.888  -0.649  1.00  0.00     0.029 A 
ATOM     66  C   UNL     1      -6.787   3.838  -1.133  1.00  0.00     0.049 A 
ATOM     67  H   UNL     1      -7.314   4.239  -3.123  1.00  0.00     0.167 HD
ATOM     68  C   UNL     1      -7.578   5.783   0.110  1.00  0.00     0.074 A 
ATOM     69  C   UNL     1      -8.168   6.434   1.268  1.00  0.00     0.031 C 
ATOM     70  C   UNL     1      -7.852   4.571  -0.468  1.00  0.00     0.037 A 
BRANCH  57  71
ATOM     71  C   UNL     1      -4.713   1.519  -4.998  1.00  0.00     0.064 A 
ATOM     72  C   UNL     1      -4.818   0.256  -4.350  1.00  0.00     0.173 A 
ATOM     73  C   UNL     1      -3.973   1.439  -6.203  1.00  0.00     0.173 A 
ATOM     74  F   UNL     1      -5.560   0.095  -3.248  1.00  0.00    -0.203 F 
ATOM     75  C   UNL     1      -4.178  -0.917  -4.802  1.00  0.00     0.198 A 
ATOM     76  C   UNL     1      -3.390   0.251  -6.691  1.00  0.00     0.198 A 
ATOM     77  F   UNL     1      -3.739   2.501  -6.971  1.00  0.00    -0.203 F 
ATOM     78  F   UNL     1      -4.253  -2.042  -4.075  1.00  0.00    -0.200 F 
ATOM     79  C   UNL     1      -3.468  -0.922  -5.978  1.00  0.00     0.200 A 
ATOM     80  F   UNL     1      -2.729   0.270  -7.859  1.00  0.00    -0.200 F 
ATOM     81  F   UNL     1      -2.870  -2.037  -6.421  1.00  0.00    -0.200 F 
ENDBRANCH  57  71
BRANCH  58  82
ATOM     82  C   UNL     1      -5.580  10.370   0.335  1.00  0.00     0.064 A 
ATOM     83  C   UNL     1      -4.412  10.876   0.981  1.00  0.00     0.173 A 
ATOM     84  C   UNL     1      -5.967  11.031  -0.846  1.00  0.00     0.173 A 
ATOM     85  F   UNL     1      -3.987  10.300   2.119  1.00  0.00    -0.203 F 
ATOM     86  C   UNL     1      -3.514  11.713   0.308  1.00  0.00     0.198 A 
ATOM     87  C   UNL     1      -5.076  11.904  -1.498  1.00  0.00     0.198 A 
ATOM     88  F   UNL     1      -7.058  10.624  -1.510  1.00  0.00    -0.203 F 
ATOM     89  F   UNL     1      -2.284  11.917   0.805  1.00  0.00    -0.200 F 
ATOM     90  C   UNL     1      -3.826  12.180  -0.956  1.00  0.00     0.200 A 
ATOM     91  F   UNL     1      -5.351  12.332  -2.740  1.00  0.00    -0.200 F 
ATOM     92  F   UNL     1      -2.889  12.797  -1.693  1.00  0.00    -0.200 F 
ENDBRANCH  58  82
BRANCH  70  93
ATOM     93  C   UNL     1      -9.200   3.882  -0.387  1.00  0.00     0.064 A 
ATOM     94  C   UNL     1     -10.393   4.596  -0.201  1.00  0.00     0.173 A 
ATOM     95  C   UNL     1      -9.360   2.513  -0.730  1.00  0.00     0.173 A 
ATOM     96  F   UNL     1     -10.390   5.921  -0.004  1.00  0.00    -0.203 F 
ATOM     97  C   UNL     1     -11.642   3.981  -0.280  1.00  0.00     0.198 A 
ATOM     98  C   UNL     1     -10.611   1.919  -0.872  1.00  0.00     0.198 A 
ATOM     99  F   UNL     1      -8.317   1.711  -0.984  1.00  0.00    -0.203 F 
ATOM    100  F   UNL     1     -12.746   4.705  -0.053  1.00  0.00    -0.200 F 
ATOM    101  C   UNL     1     -11.752   2.649  -0.629  1.00  0.00     0.200 A 
ATOM    102  F   UNL     1     -10.699   0.643  -1.276  1.00  0.00    -0.200 F 
ATOM    103  F   UNL     1     -12.957   2.079  -0.757  1.00  0.00    -0.200 F 
ENDBRANCH  70  93
ENDBRANCH  44  45
ENDBRANCH  37  39
ENDBRANCH  36  37
ENDBRANCH  35  36
ENDBRANCH  34  35
ENDBRANCH  33  34
ENDBRANCH  32  33
ENDBRANCH  31  32
ENDBRANCH  30  31
ENDBRANCH   1  30
TORSDOF 23
