REMARK SMILES C[C@H]1CC=C(C2=NN=C(C(=O)OCCOCCOCCOCCOC(=O)c3ccc(-c4c5nc(c(-c6c(F)c(F)c(F)c(F)c6F)c6ccc([nH]6)c(-c6c(F)c(F)c(F)c(F)c6F)c6nc(c(-c7c(F)c(F)c(F)c(F)c7F)c7ccc4[nH]7)C=C6)C=C5)cc3)C2)O1
REMARK SMILES IDX 19 1 18 2 17 3 16 4 15 5 14 6 13 7 12 8 10 9 11 10 9 11 6 12
REMARK SMILES IDX 7 13 90 14 8 15 5 16 1 17 2 18 3 19 91 20 4 21 20 22 21 23
REMARK SMILES IDX 22 24 23 25 24 26 25 27 26 28 27 29 28 30 89 31 29 32 88 33
REMARK SMILES IDX 30 34 31 35 32 36 82 37 33 38 87 39 81 40 83 41 34 42 86 43
REMARK SMILES IDX 80 44 79 45 35 47 67 48 47 49 66 50 48 51 51 52 65 53 84 54
REMARK SMILES IDX 49 55 50 56 64 58 85 59 52 60 36 61 37 62 45 63 38 64 39 65
REMARK SMILES IDX 43 66 46 67 40 68 41 69 44 70 42 71 68 72 69 73 77 74 70 75
REMARK SMILES IDX 71 76 75 77 78 78 72 79 73 80 76 81 74 82 53 83 54 84 62 85
REMARK SMILES IDX 55 86 56 87 60 88 63 89 57 90 58 91 61 92 59 93
REMARK H PARENT 83 46 51 57
REMARK Flexibility Score: inf
ROOT
ATOM      1  C   UNL     1       3.498   9.648  -1.869  1.00  0.00     0.188 C 
ENDROOT
BRANCH   1   2
ATOM      2  O   UNL     1       2.695   8.826  -1.037  1.00  0.00    -0.377 OA
BRANCH   2   3
ATOM      3  C   UNL     1       2.546   7.441  -1.324  1.00  0.00     0.188 C 
BRANCH   3   4
ATOM      4  C   UNL     1       2.750   6.869  -2.745  1.00  0.00     0.188 C 
BRANCH   4   5
ATOM      5  O   UNL     1       2.802   7.843  -3.776  1.00  0.00    -0.376 OA
BRANCH   5   6
ATOM      6  C   UNL     1       1.740   7.825  -4.715  1.00  0.00     0.202 C 
BRANCH   6   7
ATOM      7  C   UNL     1       0.428   8.375  -4.149  1.00  0.00     0.261 C 
BRANCH   7   8
ATOM      8  O   UNL     1      -0.067   7.644  -3.015  1.00  0.00    -0.459 OA
BRANCH   8   9
ATOM      9  C   UNL     1      -0.483   6.391  -3.242  1.00  0.00     0.355 C 
ATOM     10  O   UNL     1      -0.506   5.784  -4.304  1.00  0.00    -0.245 OA
BRANCH   9  11
ATOM     11  C   UNL     1      -0.757   5.700  -1.945  1.00  0.00     0.154 C 
ATOM     12  C   UNL     1      -0.808   4.168  -0.336  1.00  0.00     0.111 C 
ATOM     13  N   UNL     1      -1.651   5.108  -0.029  1.00  0.00    -0.151 NA
ATOM     14  C   UNL     1      -0.040   4.452  -1.584  1.00  0.00     0.128 C 
ATOM     15  N   UNL     1      -1.613   6.103  -1.057  1.00  0.00    -0.147 NA
BRANCH  12  16
ATOM     16  C   UNL     1      -0.646   2.884   0.357  1.00  0.00     0.139 C 
ATOM     17  C   UNL     1       1.065   0.507   2.194  1.00  0.00     0.053 C 
ATOM     18  C   UNL     1       0.295   0.959   0.962  1.00  0.00     0.174 C 
ATOM     19  C   UNL     1      -1.222   0.825   1.151  1.00  0.00     0.076 C 
ATOM     20  O   UNL     1       0.599   2.341   0.645  1.00  0.00    -0.489 OA
ATOM     21  C   UNL     1      -1.697   2.107   0.596  1.00  0.00     0.025 C 
ENDBRANCH  12  16
ENDBRANCH   9  11
ENDBRANCH   8   9
ENDBRANCH   7   8
ENDBRANCH   6   7
ENDBRANCH   5   6
ENDBRANCH   4   5
ENDBRANCH   3   4
ENDBRANCH   2   3
ENDBRANCH   1   2
BRANCH   1  22
ATOM     22  C   UNL     1       4.897   9.161  -2.306  1.00  0.00     0.188 C 
BRANCH  22  23
ATOM     23  O   UNL     1       5.198   7.807  -1.981  1.00  0.00    -0.376 OA
BRANCH  23  24
ATOM     24  C   UNL     1       6.280   7.566  -1.096  1.00  0.00     0.202 C 
BRANCH  24  25
ATOM     25  C   UNL     1       5.894   7.735   0.370  1.00  0.00     0.261 C 
BRANCH  25  26
ATOM     26  O   UNL     1       5.335   9.011   0.647  1.00  0.00    -0.460 OA
BRANCH  26  27
ATOM     27  C   UNL     1       6.140  10.059   0.419  1.00  0.00     0.338 C 
ATOM     28  O   UNL     1       7.276  10.041  -0.048  1.00  0.00    -0.246 OA
BRANCH  27  29
ATOM     29  C   UNL     1       5.503  11.268   0.931  1.00  0.00     0.060 A 
ATOM     30  C   UNL     1       6.200  12.460   0.728  1.00  0.00     0.016 A 
ATOM     31  C   UNL     1       4.496  11.134   1.896  1.00  0.00     0.016 A 
ATOM     32  C   UNL     1       6.100  13.430   1.694  1.00  0.00     0.010 A 
ATOM     33  C   UNL     1       4.424  12.084   2.878  1.00  0.00     0.010 A 
ATOM     34  C   UNL     1       5.304  13.163   2.811  1.00  0.00    -0.014 A 
BRANCH  34  35
ATOM     35  C   UNL     1       5.465  14.017   3.964  1.00  0.00     0.031 A 
ATOM     36  C   UNL     1       4.636  15.228   3.935  1.00  0.00     0.074 A 
ATOM     37  C   UNL     1       6.239  13.642   5.001  1.00  0.00     0.049 A 
ATOM     38  N   UNL     1       5.035  16.454   3.947  1.00  0.00    -0.248 NA
ATOM     39  C   UNL     1       3.184  15.058   3.771  1.00  0.00     0.031 C 
ATOM     40  C   UNL     1       6.823  12.312   5.216  1.00  0.00     0.029 A 
ATOM     41  N   UNL     1       6.575  14.322   6.135  1.00  0.00    -0.354 N 
ATOM     42  C   UNL     1       3.871  17.209   4.004  1.00  0.00     0.074 A 
ATOM     43  C   UNL     1       2.777  16.324   3.709  1.00  0.00     0.031 C 
ATOM     44  C   UNL     1       7.261  12.223   6.490  1.00  0.00     0.029 A 
ATOM     45  C   UNL     1       7.102  13.517   7.133  1.00  0.00     0.049 A 
ATOM     46  H   UNL     1       6.455  15.294   6.235  1.00  0.00     0.167 HD
ATOM     47  C   UNL     1       3.877  18.423   4.608  1.00  0.00     0.037 A 
ATOM     48  C   UNL     1       7.341  13.863   8.420  1.00  0.00     0.037 A 
ATOM     49  C   UNL     1       5.208  18.943   4.762  1.00  0.00     0.049 A 
ATOM     50  C   UNL     1       7.413  15.339   8.511  1.00  0.00     0.074 A 
ATOM     51  C   UNL     1       6.110  19.638   3.989  1.00  0.00     0.029 A 
ATOM     52  N   UNL     1       5.889  18.452   5.841  1.00  0.00    -0.354 N 
ATOM     53  N   UNL     1       8.378  16.053   8.004  1.00  0.00    -0.248 NA
ATOM     54  C   UNL     1       6.234  16.093   8.931  1.00  0.00     0.031 C 
ATOM     55  C   UNL     1       7.386  19.482   4.609  1.00  0.00     0.029 A 
ATOM     56  C   UNL     1       7.235  18.684   5.737  1.00  0.00     0.049 A 
ATOM     57  H   UNL     1       5.464  17.988   6.599  1.00  0.00     0.167 HD
ATOM     58  C   UNL     1       7.775  17.247   7.666  1.00  0.00     0.074 A 
ATOM     59  C   UNL     1       6.529  17.288   8.414  1.00  0.00     0.031 C 
ATOM     60  C   UNL     1       8.157  17.932   6.553  1.00  0.00     0.037 A 
BRANCH  47  61
ATOM     61  C   UNL     1       2.752  18.923   5.481  1.00  0.00     0.064 A 
ATOM     62  C   UNL     1       2.775  20.262   5.909  1.00  0.00     0.173 A 
ATOM     63  C   UNL     1       1.850  18.076   6.164  1.00  0.00     0.173 A 
ATOM     64  F   UNL     1       3.613  21.145   5.344  1.00  0.00    -0.203 F 
ATOM     65  C   UNL     1       2.000  20.704   6.983  1.00  0.00     0.198 A 
ATOM     66  C   UNL     1       1.034  18.535   7.195  1.00  0.00     0.198 A 
ATOM     67  F   UNL     1       1.804  16.756   5.947  1.00  0.00    -0.203 F 
ATOM     68  F   UNL     1       2.143  21.957   7.435  1.00  0.00    -0.200 F 
ATOM     69  C   UNL     1       1.132  19.840   7.626  1.00  0.00     0.200 A 
ATOM     70  F   UNL     1       0.215  17.676   7.819  1.00  0.00    -0.200 F 
ATOM     71  F   UNL     1       0.428  20.247   8.690  1.00  0.00    -0.200 F 
ENDBRANCH  47  61
BRANCH  48  72
ATOM     72  C   UNL     1       7.348  12.996   9.618  1.00  0.00     0.064 A 
ATOM     73  C   UNL     1       8.013  13.385  10.790  1.00  0.00     0.173 A 
ATOM     74  C   UNL     1       6.499  11.877   9.716  1.00  0.00     0.173 A 
ATOM     75  F   UNL     1       8.806  14.466  10.791  1.00  0.00    -0.203 F 
ATOM     76  C   UNL     1       7.824  12.705  11.996  1.00  0.00     0.198 A 
ATOM     77  C   UNL     1       6.324  11.190  10.916  1.00  0.00     0.198 A 
ATOM     78  F   UNL     1       5.756  11.482   8.672  1.00  0.00    -0.203 F 
ATOM     79  F   UNL     1       8.428  13.142  13.110  1.00  0.00    -0.200 F 
ATOM     80  C   UNL     1       6.975  11.612  12.060  1.00  0.00     0.200 A 
ATOM     81  F   UNL     1       5.476  10.153  10.971  1.00  0.00    -0.200 F 
ATOM     82  F   UNL     1       6.754  10.992  13.227  1.00  0.00    -0.200 F 
ENDBRANCH  48  72
BRANCH  60  83
ATOM     83  C   UNL     1       9.550  17.710   6.066  1.00  0.00     0.064 A 
ATOM     84  C   UNL     1      10.002  16.502   5.515  1.00  0.00     0.173 A 
ATOM     85  C   UNL     1      10.456  18.776   6.140  1.00  0.00     0.173 A 
ATOM     86  F   UNL     1       9.165  15.468   5.348  1.00  0.00    -0.203 F 
ATOM     87  C   UNL     1      11.325  16.354   5.106  1.00  0.00     0.198 A 
ATOM     88  C   UNL     1      11.767  18.636   5.699  1.00  0.00     0.198 A 
ATOM     89  F   UNL     1      10.060  19.964   6.622  1.00  0.00    -0.203 F 
ATOM     90  F   UNL     1      11.749  15.181   4.611  1.00  0.00    -0.200 F 
ATOM     91  C   UNL     1      12.206  17.421   5.196  1.00  0.00     0.200 A 
ATOM     92  F   UNL     1      12.604  19.681   5.753  1.00  0.00    -0.200 F 
ATOM     93  F   UNL     1      13.474  17.285   4.784  1.00  0.00    -0.200 F 
ENDBRANCH  60  83
ENDBRANCH  34  35
ENDBRANCH  27  29
ENDBRANCH  26  27
ENDBRANCH  25  26
ENDBRANCH  24  25
ENDBRANCH  23  24
ENDBRANCH  22  23
ENDBRANCH   1  22
TORSDOF 21
