REMARK SMILES COc1ccc(Cl)c2c1N[C@@H](c1ccc(C(=O)OCCOCCOCCOCCOC(=O)c3ccc(-c4c5nc(c(-c6c(F)c(F)c(F)c(F)c6F)c6ccc([nH]6)c(-c6c(F)c(F)c(F)c(F)c6F)c6nc(c(-c7c(F)c(F)c(F)c(F)c7F)c7ccc4[nH]7)C=C6)C=C5)cc3)cc1)[C@@H]1CC=C[C@H]21
REMARK SMILES IDX 24 1 23 2 22 3 21 4 20 5 19 6 18 7 16 8 17 9 15 10 12 11
REMARK SMILES IDX 13 12 97 13 14 14 96 15 11 16 3 17 4 18 9 19 5 20 8 21 10 22
REMARK SMILES IDX 6 23 102 24 7 26 98 27 101 28 99 29 100 30 2 31 1 32 25 33
REMARK SMILES IDX 26 34 27 35 28 36 29 37 30 38 31 39 32 40 33 41 34 42 95 43
REMARK SMILES IDX 35 44 94 45 36 46 37 47 38 48 88 49 39 50 93 51 87 52 89 53
REMARK SMILES IDX 40 54 92 55 86 56 85 57 41 59 73 60 53 61 72 62 54 63 57 64
REMARK SMILES IDX 71 65 90 66 55 67 56 68 70 70 91 71 58 72 42 73 43 74 51 75
REMARK SMILES IDX 44 76 45 77 49 78 52 79 46 80 47 81 50 82 48 83 74 84 75 85
REMARK SMILES IDX 83 86 76 87 77 88 81 89 84 90 78 91 79 92 82 93 80 94 59 95
REMARK SMILES IDX 60 96 68 97 61 98 62 99 66 100 69 101 63 102 64 103 67 104
REMARK SMILES IDX 65 105
REMARK H PARENT 10 25 89 58 57 69
REMARK Flexibility Score: inf
ROOT
ATOM      1  O   UNL     1       8.335  -1.938   3.007  1.00  0.00    -0.377 OA
ENDROOT
BRANCH   1   2
ATOM      2  C   UNL     1       7.406  -2.469   2.075  1.00  0.00     0.188 C 
BRANCH   2   3
ATOM      3  C   UNL     1       7.908  -3.526   1.071  1.00  0.00     0.188 C 
BRANCH   3   4
ATOM      4  O   UNL     1       9.178  -4.073   1.401  1.00  0.00    -0.376 OA
BRANCH   4   5
ATOM      5  C   UNL     1      10.267  -3.804   0.535  1.00  0.00     0.202 C 
BRANCH   5   6
ATOM      6  C   UNL     1      10.787  -2.360   0.493  1.00  0.00     0.261 C 
BRANCH   6   7
ATOM      7  O   UNL     1       9.777  -1.356   0.356  1.00  0.00    -0.460 OA
BRANCH   7   8
ATOM      8  C   UNL     1       9.178  -1.264  -0.851  1.00  0.00     0.338 C 
ATOM      9  O   UNL     1       9.464  -1.898  -1.851  1.00  0.00    -0.246 OA
BRANCH   8  10
ATOM     10  C   UNL     1       7.972  -0.412  -0.712  1.00  0.00     0.060 A 
ATOM     11  C   UNL     1       5.658   1.180  -0.553  1.00  0.00    -0.025 A 
ATOM     12  C   UNL     1       5.700   0.056  -1.397  1.00  0.00     0.007 A 
ATOM     13  C   UNL     1       6.753   1.413   0.298  1.00  0.00     0.007 A 
ATOM     14  C   UNL     1       6.843  -0.741  -1.467  1.00  0.00     0.016 A 
ATOM     15  C   UNL     1       7.917   0.649   0.195  1.00  0.00     0.016 A 
BRANCH  11  16
ATOM     16  C   UNL     1       4.540   2.223  -0.647  1.00  0.00     0.114 C 
ATOM     17  C   UNL     1       0.963   1.733  -1.706  1.00  0.00     0.142 A 
ATOM     18  C   UNL     1      -0.115   2.433  -2.250  1.00  0.00     0.050 A 
ATOM     19  C   UNL     1       2.235   2.328  -1.569  1.00  0.00     0.083 A 
ATOM     20  C   UNL     1       0.052   3.755  -2.644  1.00  0.00     0.025 A 
ATOM     21  C   UNL     1       2.403   3.664  -1.980  1.00  0.00     0.005 A 
ATOM     22  N   UNL     1       3.306   1.592  -1.089  1.00  0.00    -0.375 N 
ATOM     23  C   UNL     1       1.300   4.365  -2.515  1.00  0.00     0.047 A 
ATOM     24  C   UNL     1       3.769   4.293  -1.929  1.00  0.00     0.051 C 
ATOM     25  H   UNL     1       3.230   0.612  -1.046  1.00  0.00     0.161 HD
ATOM     26  Cl  UNL     1       1.435   5.994  -3.089  1.00  0.00    -0.084 Cl
ATOM     27  C   UNL     1       4.945   3.333  -1.648  1.00  0.00     0.031 C 
ATOM     28  C   UNL     1       3.962   5.331  -0.853  1.00  0.00    -0.023 C 
ATOM     29  C   UNL     1       6.030   4.291  -1.114  1.00  0.00     0.034 C 
ATOM     30  C   UNL     1       5.225   5.337  -0.413  1.00  0.00    -0.030 C 
BRANCH  17  31
ATOM     31  O   UNL     1       0.746   0.407  -1.411  1.00  0.00    -0.495 OA
ATOM     32  C   UNL     1       0.703   0.174  -0.003  1.00  0.00     0.278 C 
ENDBRANCH  17  31
ENDBRANCH  11  16
ENDBRANCH   8  10
ENDBRANCH   7   8
ENDBRANCH   6   7
ENDBRANCH   5   6
ENDBRANCH   4   5
ENDBRANCH   3   4
ENDBRANCH   2   3
ENDBRANCH   1   2
BRANCH   1  33
ATOM     33  C   UNL     1       9.103  -2.833   3.810  1.00  0.00     0.188 C 
BRANCH  33  34
ATOM     34  C   UNL     1       8.645  -4.287   4.088  1.00  0.00     0.188 C 
BRANCH  34  35
ATOM     35  O   UNL     1       7.306  -4.571   3.717  1.00  0.00    -0.376 OA
BRANCH  35  36
ATOM     36  C   UNL     1       6.369  -4.758   4.762  1.00  0.00     0.202 C 
BRANCH  36  37
ATOM     37  C   UNL     1       6.068  -3.534   5.637  1.00  0.00     0.261 C 
BRANCH  37  38
ATOM     38  O   UNL     1       7.205  -2.882   6.225  1.00  0.00    -0.460 OA
BRANCH  38  39
ATOM     39  C   UNL     1       7.896  -3.554   7.170  1.00  0.00     0.338 C 
ATOM     40  O   UNL     1       7.677  -4.674   7.598  1.00  0.00    -0.246 OA
BRANCH  39  41
ATOM     41  C   UNL     1       9.090  -2.745   7.485  1.00  0.00     0.060 A 
ATOM     42  C   UNL     1      10.359  -3.206   7.107  1.00  0.00     0.016 A 
ATOM     43  C   UNL     1       8.944  -1.513   8.125  1.00  0.00     0.016 A 
ATOM     44  C   UNL     1      11.489  -2.434   7.375  1.00  0.00     0.010 A 
ATOM     45  C   UNL     1      10.080  -0.761   8.432  1.00  0.00     0.010 A 
ATOM     46  C   UNL     1      11.358  -1.231   8.083  1.00  0.00    -0.014 A 
BRANCH  46  47
ATOM     47  C   UNL     1      12.560  -0.609   8.684  1.00  0.00     0.031 A 
ATOM     48  C   UNL     1      12.964  -1.072  10.057  1.00  0.00     0.074 A 
ATOM     49  C   UNL     1      13.288   0.316   8.033  1.00  0.00     0.049 A 
ATOM     50  N   UNL     1      13.951  -0.669  10.814  1.00  0.00    -0.248 NA
ATOM     51  C   UNL     1      12.145  -2.142  10.655  1.00  0.00     0.031 C 
ATOM     52  C   UNL     1      13.029   0.802   6.680  1.00  0.00     0.029 A 
ATOM     53  N   UNL     1      14.401   1.013   8.434  1.00  0.00    -0.354 N 
ATOM     54  C   UNL     1      13.881  -1.447  11.961  1.00  0.00     0.074 A 
ATOM     55  C   UNL     1      12.737  -2.318  11.826  1.00  0.00     0.031 C 
ATOM     56  C   UNL     1      13.955   1.727   6.365  1.00  0.00     0.029 A 
ATOM     57  C   UNL     1      14.852   1.919   7.505  1.00  0.00     0.049 A 
ATOM     58  H   UNL     1      14.836   0.876   9.307  1.00  0.00     0.167 HD
ATOM     59  C   UNL     1      14.710  -1.445  13.029  1.00  0.00     0.037 A 
ATOM     60  C   UNL     1      15.863   2.808   7.582  1.00  0.00     0.037 A 
ATOM     61  C   UNL     1      15.838  -0.568  13.173  1.00  0.00     0.049 A 
ATOM     62  C   UNL     1      16.695   2.873   8.843  1.00  0.00     0.074 A 
ATOM     63  C   UNL     1      16.729  -0.482  14.226  1.00  0.00     0.029 A 
ATOM     64  N   UNL     1      16.224   0.378  12.237  1.00  0.00    -0.354 N 
ATOM     65  N   UNL     1      16.641   2.118   9.913  1.00  0.00    -0.248 NA
ATOM     66  C   UNL     1      17.729   3.918   8.905  1.00  0.00     0.031 C 
ATOM     67  C   UNL     1      17.627   0.551  13.951  1.00  0.00     0.029 A 
ATOM     68  C   UNL     1      17.328   1.071  12.702  1.00  0.00     0.049 A 
ATOM     69  H   UNL     1      15.780   0.534  11.372  1.00  0.00     0.167 HD
ATOM     70  C   UNL     1      17.648   2.572  10.756  1.00  0.00     0.074 A 
ATOM     71  C   UNL     1      18.311   3.659  10.068  1.00  0.00     0.031 C 
ATOM     72  C   UNL     1      17.991   2.134  11.992  1.00  0.00     0.037 A 
BRANCH  59  73
ATOM     73  C   UNL     1      14.438  -2.422  14.130  1.00  0.00     0.064 A 
ATOM     74  C   UNL     1      14.720  -3.787  13.975  1.00  0.00     0.173 A 
ATOM     75  C   UNL     1      13.985  -1.978  15.381  1.00  0.00     0.173 A 
ATOM     76  F   UNL     1      15.136  -4.260  12.791  1.00  0.00    -0.203 F 
ATOM     77  C   UNL     1      14.563  -4.673  15.037  1.00  0.00     0.198 A 
ATOM     78  C   UNL     1      13.854  -2.863  16.447  1.00  0.00     0.198 A 
ATOM     79  F   UNL     1      13.701  -0.682  15.576  1.00  0.00    -0.203 F 
ATOM     80  F   UNL     1      14.823  -5.976  14.863  1.00  0.00    -0.200 F 
ATOM     81  C   UNL     1      14.145  -4.208  16.275  1.00  0.00     0.200 A 
ATOM     82  F   UNL     1      13.463  -2.410  17.646  1.00  0.00    -0.200 F 
ATOM     83  F   UNL     1      14.024  -5.057  17.305  1.00  0.00    -0.200 F 
ENDBRANCH  59  73
BRANCH  60  84
ATOM     84  C   UNL     1      16.156   3.724   6.446  1.00  0.00     0.064 A 
ATOM     85  C   UNL     1      17.370   3.643   5.748  1.00  0.00     0.173 A 
ATOM     86  C   UNL     1      15.258   4.735   6.070  1.00  0.00     0.173 A 
ATOM     87  F   UNL     1      18.276   2.715   6.088  1.00  0.00    -0.203 F 
ATOM     88  C   UNL     1      17.686   4.551   4.738  1.00  0.00     0.198 A 
ATOM     89  C   UNL     1      15.562   5.623   5.038  1.00  0.00     0.198 A 
ATOM     90  F   UNL     1      14.087   4.867   6.708  1.00  0.00    -0.203 F 
ATOM     91  F   UNL     1      18.879   4.487   4.132  1.00  0.00    -0.200 F 
ATOM     92  C   UNL     1      16.779   5.538   4.381  1.00  0.00     0.200 A 
ATOM     93  F   UNL     1      14.679   6.570   4.691  1.00  0.00    -0.200 F 
ATOM     94  F   UNL     1      17.085   6.414   3.415  1.00  0.00    -0.200 F 
ENDBRANCH  60  84
BRANCH  72  95
ATOM     95  C   UNL     1      19.150   2.795  12.681  1.00  0.00     0.064 A 
ATOM     96  C   UNL     1      19.047   4.091  13.204  1.00  0.00     0.173 A 
ATOM     97  C   UNL     1      20.338   2.084  12.913  1.00  0.00     0.173 A 
ATOM     98  F   UNL     1      17.936   4.815  13.002  1.00  0.00    -0.203 F 
ATOM     99  C   UNL     1      20.096   4.657  13.925  1.00  0.00     0.198 A 
ATOM    100  C   UNL     1      21.371   2.640  13.662  1.00  0.00     0.198 A 
ATOM    101  F   UNL     1      20.482   0.835  12.445  1.00  0.00    -0.203 F 
ATOM    102  F   UNL     1      19.987   5.909  14.391  1.00  0.00    -0.200 F 
ATOM    103  C   UNL     1      21.251   3.926  14.164  1.00  0.00     0.200 A 
ATOM    104  F   UNL     1      22.477   1.925  13.911  1.00  0.00    -0.200 F 
ATOM    105  F   UNL     1      22.248   4.463  14.881  1.00  0.00    -0.200 F 
ENDBRANCH  72  95
ENDBRANCH  46  47
ENDBRANCH  39  41
ENDBRANCH  38  39
ENDBRANCH  37  38
ENDBRANCH  36  37
ENDBRANCH  35  36
ENDBRANCH  34  35
ENDBRANCH  33  34
ENDBRANCH   1  33
TORSDOF 22
