REMARK SMILES CCCn1cc(Br)cc1C(=O)NC[C@H]1CC[C@@H](C(=O)OCCOCCOCCOCCOC(=O)c2ccc(-c3c4nc(c(-c5c(F)c(F)c(F)c(F)c5F)c5ccc([nH]5)c(-c5c(F)c(F)c(F)c(F)c5F)c5nc(c(-c6c(F)c(F)c(F)c(F)c6F)c6ccc3[nH]6)C=C5)C=C4)cc2)O1
REMARK SMILES IDX 24 1 23 2 22 3 21 4 20 5 18 6 19 7 17 8 14 9 15 10 98 11
REMARK SMILES IDX 16 12 13 13 12 14 10 15 11 16 9 18 4 19 5 20 6 21 8 22 7 23
REMARK SMILES IDX 3 24 2 25 1 26 25 27 26 28 27 29 28 30 29 31 30 32 31 33
REMARK SMILES IDX 32 34 33 35 34 36 35 37 36 38 97 39 37 40 96 41 38 42 39 43
REMARK SMILES IDX 40 44 90 45 41 46 95 47 89 48 91 49 42 50 94 51 88 52 87 53
REMARK SMILES IDX 43 55 75 56 55 57 74 58 56 59 59 60 73 61 92 62 57 63 58 64
REMARK SMILES IDX 72 66 93 67 60 68 44 69 45 70 53 71 46 72 47 73 51 74 54 75
REMARK SMILES IDX 48 76 49 77 52 78 50 79 76 80 77 81 85 82 78 83 79 84 83 85
REMARK SMILES IDX 86 86 80 87 81 88 84 89 82 90 61 91 62 92 70 93 63 94 64 95
REMARK SMILES IDX 68 96 71 97 65 98 66 99 69 100 67 101
REMARK H PARENT 12 17 91 54 59 65
REMARK Flexibility Score: inf
ROOT
ATOM      1  C   UNL     1      -1.271   5.554  -5.737  1.00  0.00     0.188 C 
ENDROOT
BRANCH   1   2
ATOM      2  O   UNL     1      -2.171   6.644  -5.647  1.00  0.00    -0.376 OA
BRANCH   2   3
ATOM      3  C   UNL     1      -3.007   6.697  -4.505  1.00  0.00     0.202 C 
BRANCH   3   4
ATOM      4  C   UNL     1      -2.305   6.740  -3.140  1.00  0.00     0.261 C 
BRANCH   4   5
ATOM      5  O   UNL     1      -1.178   5.848  -3.046  1.00  0.00    -0.461 OA
BRANCH   5   6
ATOM      6  C   UNL     1      -1.362   4.651  -2.440  1.00  0.00     0.335 C 
ATOM      7  O   UNL     1      -2.390   4.326  -1.860  1.00  0.00    -0.249 OA
BRANCH   6   8
ATOM      8  C   UNL     1      -0.101   3.765  -2.557  1.00  0.00     0.228 C 
ATOM      9  C   UNL     1      -0.172   1.457  -2.208  1.00  0.00     0.138 C 
ATOM     10  C   UNL     1       0.622   1.677  -3.468  1.00  0.00     0.037 C 
ATOM     11  O   UNL     1      -0.207   2.726  -1.552  1.00  0.00    -0.361 OA
ATOM     12  C   UNL     1       0.119   3.029  -3.888  1.00  0.00     0.047 C 
BRANCH   9  13
ATOM     13  C   UNL     1      -1.575   0.895  -2.498  1.00  0.00     0.148 C 
BRANCH  13  14
ATOM     14  N   UNL     1      -2.623   1.821  -2.896  1.00  0.00    -0.348 N 
ATOM     15  C   UNL     1      -3.568   1.917  -3.881  1.00  0.00     0.268 C 
ATOM     16  O   UNL     1      -4.391   2.822  -3.708  1.00  0.00    -0.268 OA
ATOM     17  H   UNL     1      -2.664   2.595  -2.288  1.00  0.00     0.163 HD
BRANCH  15  18
ATOM     18  C   UNL     1      -3.596   1.154  -5.121  1.00  0.00     0.108 A 
ATOM     19  N   UNL     1      -3.285  -0.151  -5.474  1.00  0.00    -0.342 N 
ATOM     20  C   UNL     1      -3.421  -0.303  -6.848  1.00  0.00     0.102 A 
ATOM     21  C   UNL     1      -4.024   0.816  -7.339  1.00  0.00     0.036 A 
ATOM     22  C   UNL     1      -4.154   1.717  -6.282  1.00  0.00     0.049 A 
ATOM     23  Br  UNL     1      -4.601   1.125  -9.091  1.00  0.00    -0.049 Br
BRANCH  19  24
ATOM     24  C   UNL     1      -2.943  -1.310  -4.667  1.00  0.00     0.122 C 
BRANCH  24  25
ATOM     25  C   UNL     1      -3.605  -1.468  -3.299  1.00  0.00     0.018 C 
ATOM     26  C   UNL     1      -5.105  -1.667  -3.329  1.00  0.00     0.006 C 
ENDBRANCH  24  25
ENDBRANCH  19  24
ENDBRANCH  15  18
ENDBRANCH  13  14
ENDBRANCH   9  13
ENDBRANCH   6   8
ENDBRANCH   5   6
ENDBRANCH   4   5
ENDBRANCH   3   4
ENDBRANCH   2   3
ENDBRANCH   1   2
BRANCH   1  27
ATOM     27  C   UNL     1       0.227   5.925  -5.521  1.00  0.00     0.188 C 
BRANCH  27  28
ATOM     28  O   UNL     1       0.685   7.255  -5.305  1.00  0.00    -0.377 OA
BRANCH  28  29
ATOM     29  C   UNL     1      -0.098   8.333  -5.782  1.00  0.00     0.188 C 
BRANCH  29  30
ATOM     30  C   UNL     1      -0.555   8.295  -7.260  1.00  0.00     0.188 C 
BRANCH  30  31
ATOM     31  O   UNL     1      -0.554   6.995  -7.840  1.00  0.00    -0.376 OA
BRANCH  31  32
ATOM     32  C   UNL     1       0.284   6.663  -8.932  1.00  0.00     0.202 C 
BRANCH  32  33
ATOM     33  C   UNL     1       1.786   6.508  -8.672  1.00  0.00     0.261 C 
BRANCH  33  34
ATOM     34  O   UNL     1       2.288   7.417  -7.715  1.00  0.00    -0.460 OA
BRANCH  34  35
ATOM     35  C   UNL     1       2.267   8.694  -8.116  1.00  0.00     0.338 C 
ATOM     36  O   UNL     1       1.911   9.118  -9.213  1.00  0.00    -0.246 OA
BRANCH  35  37
ATOM     37  C   UNL     1       2.794   9.538  -7.043  1.00  0.00     0.060 A 
ATOM     38  C   UNL     1       2.783  10.903  -7.322  1.00  0.00     0.016 A 
ATOM     39  C   UNL     1       3.683   8.950  -6.132  1.00  0.00     0.016 A 
ATOM     40  C   UNL     1       3.932  11.588  -7.048  1.00  0.00     0.010 A 
ATOM     41  C   UNL     1       4.837   9.630  -5.867  1.00  0.00     0.010 A 
ATOM     42  C   UNL     1       4.986  10.875  -6.467  1.00  0.00    -0.014 A 
BRANCH  42  43
ATOM     43  C   UNL     1       6.300  11.442  -6.606  1.00  0.00     0.031 A 
ATOM     44  C   UNL     1       6.556  12.524  -5.648  1.00  0.00     0.074 A 
ATOM     45  C   UNL     1       7.164  10.974  -7.523  1.00  0.00     0.049 A 
ATOM     46  N   UNL     1       6.692  13.782  -5.897  1.00  0.00    -0.248 NA
ATOM     47  C   UNL     1       6.455  12.185  -4.222  1.00  0.00     0.031 C 
ATOM     48  C   UNL     1       7.093   9.751  -8.330  1.00  0.00     0.029 A 
ATOM     49  N   UNL     1       8.370  11.490  -7.858  1.00  0.00    -0.354 N 
ATOM     50  C   UNL     1       6.860  14.382  -4.657  1.00  0.00     0.074 A 
ATOM     51  C   UNL     1       6.524  13.393  -3.668  1.00  0.00     0.031 C 
ATOM     52  C   UNL     1       8.310   9.509  -8.873  1.00  0.00     0.029 A 
ATOM     53  C   UNL     1       9.188  10.623  -8.562  1.00  0.00     0.049 A 
ATOM     54  H   UNL     1       8.643  12.406  -7.620  1.00  0.00     0.167 HD
ATOM     55  C   UNL     1       7.485  15.580  -4.535  1.00  0.00     0.037 A 
ATOM     56  C   UNL     1      10.521  10.801  -8.736  1.00  0.00     0.037 A 
ATOM     57  C   UNL     1       7.533  16.282  -5.790  1.00  0.00     0.049 A 
ATOM     58  C   UNL     1      10.806  12.244  -8.485  1.00  0.00     0.074 A 
ATOM     59  C   UNL     1       6.571  16.810  -6.630  1.00  0.00     0.029 A 
ATOM     60  N   UNL     1       8.679  16.188  -6.543  1.00  0.00    -0.354 N 
ATOM     61  N   UNL     1      10.395  13.208  -9.265  1.00  0.00    -0.248 NA
ATOM     62  C   UNL     1      11.116  12.643  -7.117  1.00  0.00     0.031 C 
ATOM     63  C   UNL     1       7.053  16.565  -7.949  1.00  0.00     0.029 A 
ATOM     64  C   UNL     1       8.299  15.947  -7.840  1.00  0.00     0.049 A 
ATOM     65  H   UNL     1       9.602  16.276  -6.213  1.00  0.00     0.167 HD
ATOM     66  C   UNL     1      10.015  14.232  -8.405  1.00  0.00     0.074 A 
ATOM     67  C   UNL     1      10.542  13.850  -7.098  1.00  0.00     0.031 C 
ATOM     68  C   UNL     1       9.063  15.142  -8.765  1.00  0.00     0.037 A 
BRANCH  55  69
ATOM     69  C   UNL     1       8.341  15.948  -3.358  1.00  0.00     0.064 A 
ATOM     70  C   UNL     1       8.786  17.275  -3.223  1.00  0.00     0.173 A 
ATOM     71  C   UNL     1       8.967  15.002  -2.517  1.00  0.00     0.173 A 
ATOM     72  F   UNL     1       8.273  18.249  -3.990  1.00  0.00    -0.203 F 
ATOM     73  C   UNL     1       9.827  17.613  -2.357  1.00  0.00     0.198 A 
ATOM     74  C   UNL     1       9.962  15.353  -1.611  1.00  0.00     0.198 A 
ATOM     75  F   UNL     1       8.727  13.688  -2.613  1.00  0.00    -0.203 F 
ATOM     76  F   UNL     1      10.303  18.866  -2.350  1.00  0.00    -0.200 F 
ATOM     77  C   UNL     1      10.416  16.653  -1.555  1.00  0.00     0.200 A 
ATOM     78  F   UNL     1      10.530  14.403  -0.855  1.00  0.00    -0.200 F 
ATOM     79  F   UNL     1      11.453  16.964  -0.767  1.00  0.00    -0.200 F 
ENDBRANCH  55  69
BRANCH  56  80
ATOM     80  C   UNL     1      11.568   9.754  -8.700  1.00  0.00     0.064 A 
ATOM     81  C   UNL     1      12.854   9.996  -9.207  1.00  0.00     0.173 A 
ATOM     82  C   UNL     1      11.407   8.582  -7.934  1.00  0.00     0.173 A 
ATOM     83  F   UNL     1      13.103  11.115  -9.902  1.00  0.00    -0.203 F 
ATOM     84  C   UNL     1      13.918   9.123  -8.952  1.00  0.00     0.198 A 
ATOM     85  C   UNL     1      12.466   7.708  -7.687  1.00  0.00     0.198 A 
ATOM     86  F   UNL     1      10.242   8.306  -7.330  1.00  0.00    -0.203 F 
ATOM     87  F   UNL     1      15.144   9.413  -9.407  1.00  0.00    -0.200 F 
ATOM     88  C   UNL     1      13.724   7.984  -8.186  1.00  0.00     0.200 A 
ATOM     89  F   UNL     1      12.272   6.631  -6.912  1.00  0.00    -0.200 F 
ATOM     90  F   UNL     1      14.754   7.177  -7.897  1.00  0.00    -0.200 F 
ENDBRANCH  56  80
BRANCH  68  91
ATOM     91  C   UNL     1       8.590  15.135 -10.191  1.00  0.00     0.064 A 
ATOM     92  C   UNL     1       7.880  14.066 -10.766  1.00  0.00     0.173 A 
ATOM     93  C   UNL     1       8.697  16.314 -10.938  1.00  0.00     0.173 A 
ATOM     94  F   UNL     1       7.647  12.945 -10.072  1.00  0.00    -0.203 F 
ATOM     95  C   UNL     1       7.332  14.166 -12.044  1.00  0.00     0.198 A 
ATOM     96  C   UNL     1       8.119  16.424 -12.200  1.00  0.00     0.198 A 
ATOM     97  F   UNL     1       9.312  17.387 -10.415  1.00  0.00    -0.203 F 
ATOM     98  F   UNL     1       6.659  13.132 -12.570  1.00  0.00    -0.200 F 
ATOM     99  C   UNL     1       7.444  15.348 -12.756  1.00  0.00     0.200 A 
ATOM    100  F   UNL     1       8.184  17.587 -12.863  1.00  0.00    -0.200 F 
ATOM    101  F   UNL     1       6.874  15.464 -13.964  1.00  0.00    -0.200 F 
ENDBRANCH  68  91
ENDBRANCH  42  43
ENDBRANCH  35  37
ENDBRANCH  34  35
ENDBRANCH  33  34
ENDBRANCH  32  33
ENDBRANCH  31  32
ENDBRANCH  30  31
ENDBRANCH  29  30
ENDBRANCH  28  29
ENDBRANCH  27  28
ENDBRANCH   1  27
TORSDOF 25
