REMARK SMILES Cc1ccc(N2C(=O)/C(=C\c3ccccc3O[C@H](C)C(=O)OCCOCCOCCOCCOC(=O)c3ccc(-c4c5nc(c(-c6c(F)c(F)c(F)c(F)c6F)c6ccc([nH]6)c(-c6c(F)c(F)c(F)c(F)c6F)c6nc(c(-c7c(F)c(F)c(F)c(F)c7F)c7ccc4[nH]7)C=C6)C=C5)cc3)SC2=S)c(C)c1
REMARK SMILES IDX 27 1 26 2 25 3 24 4 23 5 22 6 20 7 21 8 18 9 19 10 17 11
REMARK SMILES IDX 16 12 11 13 12 14 13 15 15 16 14 17 10 18 6 19 7 20 101 21
REMARK SMILES IDX 8 22 9 23 100 24 102 25 5 26 1 27 2 28 3 29 105 30 4 31
REMARK SMILES IDX 103 32 104 33 28 34 29 35 30 36 31 37 32 38 33 39 34 40
REMARK SMILES IDX 35 41 36 42 37 43 38 44 99 45 39 46 98 47 40 48 41 49 42 50
REMARK SMILES IDX 92 51 43 52 97 53 91 54 93 55 44 56 96 57 90 58 89 59 45 61
REMARK SMILES IDX 77 62 57 63 76 64 58 65 61 66 75 67 94 68 59 69 60 70 74 72
REMARK SMILES IDX 95 73 62 74 46 75 47 76 55 77 48 78 49 79 53 80 56 81 50 82
REMARK SMILES IDX 51 83 54 84 52 85 78 86 79 87 87 88 80 89 81 90 85 91 88 92
REMARK SMILES IDX 82 93 83 94 86 95 84 96 63 97 64 98 72 99 65 100 66 101
REMARK SMILES IDX 70 102 73 103 67 104 68 105 71 106 69 107
REMARK H PARENT 93 60 61 71
REMARK Flexibility Score: inf
ROOT
ATOM      1  C   UNL     1      -4.897  -5.198  -4.167  1.00  0.00     0.188 C 
ENDROOT
BRANCH   1   2
ATOM      2  C   UNL     1      -4.769  -6.272  -3.078  1.00  0.00     0.188 C 
BRANCH   2   3
ATOM      3  O   UNL     1      -5.914  -6.776  -2.407  1.00  0.00    -0.376 OA
BRANCH   3   4
ATOM      4  C   UNL     1      -6.923  -5.910  -1.901  1.00  0.00     0.202 C 
BRANCH   4   5
ATOM      5  C   UNL     1      -6.576  -4.691  -1.034  1.00  0.00     0.261 C 
BRANCH   5   6
ATOM      6  O   UNL     1      -5.737  -3.719  -1.675  1.00  0.00    -0.461 OA
BRANCH   6   7
ATOM      7  C   UNL     1      -4.451  -3.646  -1.254  1.00  0.00     0.347 C 
ATOM      8  O   UNL     1      -4.009  -4.303  -0.313  1.00  0.00    -0.248 OA
BRANCH   7   9
ATOM      9  C   UNL     1      -3.606  -2.623  -2.024  1.00  0.00     0.279 C 
ATOM     10  C   UNL     1      -4.141  -2.067  -3.343  1.00  0.00     0.066 C 
BRANCH   9  11
ATOM     11  O   UNL     1      -3.564  -1.591  -1.053  1.00  0.00    -0.478 OA
BRANCH  11  12
ATOM     12  C   UNL     1      -2.602  -0.627  -1.107  1.00  0.00     0.127 A 
ATOM     13  C   UNL     1      -2.584   0.194   0.033  1.00  0.00     0.018 A 
ATOM     14  C   UNL     1      -1.864   1.387  -0.008  1.00  0.00     0.012 A 
ATOM     15  C   UNL     1      -1.075   1.685  -1.124  1.00  0.00     0.001 A 
ATOM     16  C   UNL     1      -1.729  -0.391  -2.166  1.00  0.00     0.047 A 
ATOM     17  C   UNL     1      -0.968   0.774  -2.176  1.00  0.00     0.004 A 
BRANCH  13  18
ATOM     18  C   UNL     1      -3.324  -0.232   1.238  1.00  0.00     0.033 C 
ATOM     19  N   UNL     1      -2.319  -3.604   2.343  1.00  0.00    -0.261 N 
ATOM     20  C   UNL     1      -2.139  -2.488   1.528  1.00  0.00     0.270 C 
ATOM     21  C   UNL     1      -3.389  -3.553   3.223  1.00  0.00     0.152 C 
ATOM     22  O   UNL     1      -1.268  -2.356   0.675  1.00  0.00    -0.268 OA
ATOM     23  C   UNL     1      -3.160  -1.429   1.838  1.00  0.00     0.081 C 
ATOM     24  S   UNL     1      -4.205  -1.989   3.088  1.00  0.00    -0.054 SA
ATOM     25  S   UNL     1      -3.875  -4.649   4.394  1.00  0.00    -0.051 S 
BRANCH  19  26
ATOM     26  C   UNL     1      -1.420  -4.716   2.219  1.00  0.00     0.054 A 
ATOM     27  C   UNL     1       1.227  -8.105   1.643  1.00  0.00     0.044 C 
ATOM     28  C   UNL     1       0.295  -6.947   1.845  1.00  0.00    -0.051 A 
ATOM     29  C   UNL     1      -1.089  -7.108   1.814  1.00  0.00     0.005 A 
ATOM     30  C   UNL     1       0.818  -5.670   2.066  1.00  0.00     0.009 A 
ATOM     31  C   UNL     1      -1.935  -6.005   1.990  1.00  0.00     0.027 A 
ATOM     32  C   UNL     1      -0.017  -4.554   2.274  1.00  0.00    -0.027 A 
ATOM     33  C   UNL     1       0.673  -3.245   2.556  1.00  0.00     0.046 C 
ENDBRANCH  19  26
ENDBRANCH  13  18
ENDBRANCH  11  12
ENDBRANCH   9  11
ENDBRANCH   7   9
ENDBRANCH   6   7
ENDBRANCH   5   6
ENDBRANCH   4   5
ENDBRANCH   3   4
ENDBRANCH   2   3
ENDBRANCH   1   2
BRANCH   1  34
ATOM     34  O   UNL     1      -6.099  -4.459  -4.118  1.00  0.00    -0.377 OA
BRANCH  34  35
ATOM     35  C   UNL     1      -7.090  -4.737  -5.097  1.00  0.00     0.188 C 
BRANCH  35  36
ATOM     36  C   UNL     1      -7.313  -6.211  -5.481  1.00  0.00     0.188 C 
BRANCH  36  37
ATOM     37  O   UNL     1      -6.126  -6.886  -5.873  1.00  0.00    -0.376 OA
BRANCH  37  38
ATOM     38  C   UNL     1      -5.805  -6.944  -7.257  1.00  0.00     0.202 C 
BRANCH  38  39
ATOM     39  C   UNL     1      -5.494  -5.620  -7.979  1.00  0.00     0.261 C 
BRANCH  39  40
ATOM     40  O   UNL     1      -6.555  -4.652  -8.047  1.00  0.00    -0.460 OA
BRANCH  40  41
ATOM     41  C   UNL     1      -7.755  -5.032  -8.526  1.00  0.00     0.338 C 
ATOM     42  O   UNL     1      -8.054  -6.109  -9.012  1.00  0.00    -0.246 OA
BRANCH  41  43
ATOM     43  C   UNL     1      -8.726  -3.976  -8.174  1.00  0.00     0.060 A 
ATOM     44  C   UNL     1      -9.828  -4.298  -7.369  1.00  0.00     0.016 A 
ATOM     45  C   UNL     1      -8.545  -2.671  -8.637  1.00  0.00     0.016 A 
ATOM     46  C   UNL     1     -10.772  -3.322  -7.050  1.00  0.00     0.010 A 
ATOM     47  C   UNL     1      -9.504  -1.702  -8.341  1.00  0.00     0.010 A 
ATOM     48  C   UNL     1     -10.638  -2.031  -7.575  1.00  0.00    -0.014 A 
BRANCH  48  49
ATOM     49  C   UNL     1     -11.774  -1.081  -7.534  1.00  0.00     0.031 A 
ATOM     50  C   UNL     1     -12.647  -0.984  -8.754  1.00  0.00     0.074 A 
ATOM     51  C   UNL     1     -12.009  -0.302  -6.465  1.00  0.00     0.049 A 
ATOM     52  N   UNL     1     -13.585  -0.122  -9.043  1.00  0.00    -0.248 NA
ATOM     53  C   UNL     1     -12.416  -1.998  -9.797  1.00  0.00     0.031 C 
ATOM     54  C   UNL     1     -11.276  -0.351  -5.204  1.00  0.00     0.029 A 
ATOM     55  N   UNL     1     -12.925   0.706  -6.287  1.00  0.00    -0.354 N 
ATOM     56  C   UNL     1     -14.040  -0.475 -10.307  1.00  0.00     0.074 A 
ATOM     57  C   UNL     1     -13.263  -1.615 -10.739  1.00  0.00     0.031 C 
ATOM     58  C   UNL     1     -11.751   0.608  -4.389  1.00  0.00     0.029 A 
ATOM     59  C   UNL     1     -12.785   1.367  -5.091  1.00  0.00     0.049 A 
ATOM     60  H   UNL     1     -13.614   0.933  -6.952  1.00  0.00     0.167 HD
ATOM     61  C   UNL     1     -15.019   0.104 -11.040  1.00  0.00     0.037 A 
ATOM     62  C   UNL     1     -13.394   2.482  -4.641  1.00  0.00     0.037 A 
ATOM     63  C   UNL     1     -15.783   1.241 -10.602  1.00  0.00     0.049 A 
ATOM     64  C   UNL     1     -14.418   3.169  -5.514  1.00  0.00     0.074 A 
ATOM     65  C   UNL     1     -16.802   1.901 -11.264  1.00  0.00     0.029 A 
ATOM     66  N   UNL     1     -15.601   1.892  -9.391  1.00  0.00    -0.354 N 
ATOM     67  N   UNL     1     -14.849   2.833  -6.706  1.00  0.00    -0.248 NA
ATOM     68  C   UNL     1     -15.036   4.392  -4.982  1.00  0.00     0.031 C 
ATOM     69  C   UNL     1     -17.193   2.991 -10.481  1.00  0.00     0.029 A 
ATOM     70  C   UNL     1     -16.471   2.963  -9.297  1.00  0.00     0.049 A 
ATOM     71  H   UNL     1     -14.949   1.630  -8.700  1.00  0.00     0.167 HD
ATOM     72  C   UNL     1     -15.818   3.771  -7.044  1.00  0.00     0.074 A 
ATOM     73  C   UNL     1     -15.908   4.695  -5.934  1.00  0.00     0.031 C 
ATOM     74  C   UNL     1     -16.571   3.853  -8.168  1.00  0.00     0.037 A 
BRANCH  61  75
ATOM     75  C   UNL     1     -15.288  -0.455 -12.407  1.00  0.00     0.064 A 
ATOM     76  C   UNL     1     -15.867  -1.719 -12.591  1.00  0.00     0.173 A 
ATOM     77  C   UNL     1     -14.986   0.301 -13.550  1.00  0.00     0.173 A 
ATOM     78  F   UNL     1     -16.160  -2.490 -11.533  1.00  0.00    -0.203 F 
ATOM     79  C   UNL     1     -16.108  -2.217 -13.870  1.00  0.00     0.198 A 
ATOM     80  C   UNL     1     -15.261  -0.185 -14.825  1.00  0.00     0.198 A 
ATOM     81  F   UNL     1     -14.432   1.517 -13.431  1.00  0.00    -0.203 F 
ATOM     82  F   UNL     1     -16.612  -3.450 -14.023  1.00  0.00    -0.200 F 
ATOM     83  C   UNL     1     -15.813  -1.447 -14.984  1.00  0.00     0.200 A 
ATOM     84  F   UNL     1     -14.988   0.567 -15.900  1.00  0.00    -0.200 F 
ATOM     85  F   UNL     1     -16.053  -1.924 -16.213  1.00  0.00    -0.200 F 
ENDBRANCH  61  75
BRANCH  62  86
ATOM     86  C   UNL     1     -13.038   3.041  -3.308  1.00  0.00     0.064 A 
ATOM     87  C   UNL     1     -13.968   3.060  -2.260  1.00  0.00     0.173 A 
ATOM     88  C   UNL     1     -11.771   3.591  -3.062  1.00  0.00     0.173 A 
ATOM     89  F   UNL     1     -15.203   2.572  -2.452  1.00  0.00    -0.203 F 
ATOM     90  C   UNL     1     -13.652   3.625  -1.025  1.00  0.00     0.198 A 
ATOM     91  C   UNL     1     -11.445   4.126  -1.817  1.00  0.00     0.198 A 
ATOM     92  F   UNL     1     -10.844   3.604  -4.032  1.00  0.00    -0.203 F 
ATOM     93  F   UNL     1     -14.579   3.677  -0.059  1.00  0.00    -0.200 F 
ATOM     94  C   UNL     1     -12.389   4.151  -0.803  1.00  0.00     0.200 A 
ATOM     95  F   UNL     1     -10.219   4.623  -1.604  1.00  0.00    -0.200 F 
ATOM     96  F   UNL     1     -12.086   4.692   0.385  1.00  0.00    -0.200 F 
ENDBRANCH  62  86
BRANCH  74  97
ATOM     97  C   UNL     1     -17.619   4.927  -8.239  1.00  0.00     0.064 A 
ATOM     98  C   UNL     1     -17.292   6.277  -8.424  1.00  0.00     0.173 A 
ATOM     99  C   UNL     1     -18.979   4.577  -8.220  1.00  0.00     0.173 A 
ATOM    100  F   UNL     1     -16.008   6.665  -8.438  1.00  0.00    -0.203 F 
ATOM    101  C   UNL     1     -18.288   7.238  -8.578  1.00  0.00     0.198 A 
ATOM    102  C   UNL     1     -19.971   5.535  -8.407  1.00  0.00     0.198 A 
ATOM    103  F   UNL     1     -19.345   3.296  -8.055  1.00  0.00    -0.203 F 
ATOM    104  F   UNL     1     -17.955   8.528  -8.725  1.00  0.00    -0.200 F 
ATOM    105  C   UNL     1     -19.625   6.865  -8.583  1.00  0.00     0.200 A 
ATOM    106  F   UNL     1     -21.259   5.168  -8.431  1.00  0.00    -0.200 F 
ATOM    107  F   UNL     1     -20.580   7.789  -8.757  1.00  0.00    -0.200 F 
ENDBRANCH  74  97
ENDBRANCH  48  49
ENDBRANCH  41  43
ENDBRANCH  40  41
ENDBRANCH  39  40
ENDBRANCH  38  39
ENDBRANCH  37  38
ENDBRANCH  36  37
ENDBRANCH  35  36
ENDBRANCH  34  35
ENDBRANCH   1  34
TORSDOF 24
