REMARK SMILES COc1ccc(-c2cc(C[C@H]3CCCC3=O)ccc2[C@@H](C)C(=O)OCCOCCOCCOCCOC(=O)c2ccc(-c3c4nc(c(-c5c(F)c(F)c(F)c(F)c5F)c5ccc([nH]5)c(-c5c(F)c(F)c(F)c(F)c5F)c5nc(c(-c6c(F)c(F)c(F)c(F)c6F)c6ccc3[nH]6)C=C5)C=C4)cc2)cc1
REMARK SMILES IDX 29 1 28 2 27 3 26 4 25 5 24 6 22 7 23 8 20 9 21 10 19 11
REMARK SMILES IDX 7 12 8 13 9 14 18 15 17 16 6 17 3 18 4 19 103 20 5 21 102 22
REMARK SMILES IDX 2 23 1 24 10 25 11 26 12 27 15 28 13 29 14 30 16 31 30 32
REMARK SMILES IDX 31 33 32 34 33 35 34 36 35 37 36 38 37 39 38 40 39 41 40 42
REMARK SMILES IDX 101 43 41 44 100 45 42 46 43 47 44 48 94 49 45 50 99 51
REMARK SMILES IDX 93 52 95 53 46 54 98 55 92 56 91 57 47 59 79 60 59 61 78 62
REMARK SMILES IDX 60 63 63 64 77 65 96 66 61 67 62 68 76 70 97 71 64 72 48 73
REMARK SMILES IDX 49 74 57 75 50 76 51 77 55 78 58 79 52 80 53 81 56 82 54 83
REMARK SMILES IDX 80 84 81 85 89 86 82 87 83 88 87 89 90 90 84 91 85 92 88 93
REMARK SMILES IDX 86 94 65 95 66 96 74 97 67 98 68 99 72 100 75 101 69 102
REMARK SMILES IDX 70 103 73 104 71 105
REMARK H PARENT 95 58 63 69
REMARK Flexibility Score: inf
ROOT
ATOM      1  C   UNL     1       5.460   6.360   0.759  1.00  0.00     0.188 C 
ENDROOT
BRANCH   1   2
ATOM      2  C   UNL     1       6.208   5.087   0.330  1.00  0.00     0.188 C 
BRANCH   2   3
ATOM      3  O   UNL     1       7.586   5.135  -0.011  1.00  0.00    -0.376 OA
BRANCH   3   4
ATOM      4  C   UNL     1       8.112   6.267  -0.684  1.00  0.00     0.202 C 
BRANCH   4   5
ATOM      5  C   UNL     1       7.447   6.812  -1.965  1.00  0.00     0.261 C 
BRANCH   5   6
ATOM      6  O   UNL     1       6.010   6.956  -1.968  1.00  0.00    -0.463 OA
BRANCH   6   7
ATOM      7  C   UNL     1       5.310   6.036  -2.679  1.00  0.00     0.313 C 
ATOM      8  O   UNL     1       5.845   5.124  -3.307  1.00  0.00    -0.252 OA
BRANCH   7   9
ATOM      9  C   UNL     1       3.791   6.230  -2.711  1.00  0.00     0.127 C 
ATOM     10  C   UNL     1       3.416   6.809  -4.075  1.00  0.00     0.025 C 
BRANCH   9  11
ATOM     11  C   UNL     1       3.086   6.994  -1.582  1.00  0.00    -0.026 A 
ATOM     12  C   UNL     1       2.175   6.362  -0.690  1.00  0.00    -0.014 A 
ATOM     13  C   UNL     1       1.550   7.134   0.316  1.00  0.00     0.012 A 
ATOM     14  C   UNL     1       1.725   8.518   0.407  1.00  0.00    -0.047 A 
ATOM     15  C   UNL     1       3.324   8.375  -1.413  1.00  0.00     0.005 A 
ATOM     16  C   UNL     1       2.650   9.125  -0.441  1.00  0.00     0.004 A 
BRANCH  12  17
ATOM     17  C   UNL     1       1.786   4.943  -0.756  1.00  0.00    -0.018 A 
ATOM     18  C   UNL     1       0.927   2.248  -0.744  1.00  0.00     0.118 A 
ATOM     19  C   UNL     1       0.109   3.251  -1.263  1.00  0.00     0.047 A 
ATOM     20  C   UNL     1       2.177   2.590  -0.234  1.00  0.00     0.047 A 
ATOM     21  C   UNL     1       0.534   4.582  -1.273  1.00  0.00     0.012 A 
ATOM     22  C   UNL     1       2.594   3.928  -0.230  1.00  0.00     0.012 A 
BRANCH  18  23
ATOM     23  O   UNL     1       0.401   0.989  -0.808  1.00  0.00    -0.497 OA
ATOM     24  C   UNL     1       1.048  -0.017  -0.039  1.00  0.00     0.278 C 
ENDBRANCH  18  23
ENDBRANCH  12  17
BRANCH  14  25
ATOM     25  C   UNL     1       0.862   9.341   1.336  1.00  0.00     0.047 C 
BRANCH  25  26
ATOM     26  C   UNL     1      -0.606   9.502   0.902  1.00  0.00     0.060 C 
ATOM     27  C   UNL     1      -0.865   9.839  -0.572  1.00  0.00     0.012 C 
ATOM     28  C   UNL     1      -1.395   8.224   1.070  1.00  0.00     0.136 C 
ATOM     29  C   UNL     1      -1.174   8.518  -1.270  1.00  0.00     0.009 C 
ATOM     30  C   UNL     1      -1.908   7.676  -0.236  1.00  0.00     0.076 C 
ATOM     31  O   UNL     1      -1.604   7.693   2.155  1.00  0.00    -0.299 OA
ENDBRANCH  25  26
ENDBRANCH  14  25
ENDBRANCH   9  11
ENDBRANCH   7   9
ENDBRANCH   6   7
ENDBRANCH   5   6
ENDBRANCH   4   5
ENDBRANCH   3   4
ENDBRANCH   2   3
ENDBRANCH   1   2
BRANCH   1  32
ATOM     32  O   UNL     1       6.217   7.551   0.717  1.00  0.00    -0.377 OA
BRANCH  32  33
ATOM     33  C   UNL     1       6.700   8.021   1.962  1.00  0.00     0.188 C 
BRANCH  33  34
ATOM     34  C   UNL     1       7.250   6.962   2.933  1.00  0.00     0.188 C 
BRANCH  34  35
ATOM     35  O   UNL     1       6.331   5.915   3.220  1.00  0.00    -0.376 OA
BRANCH  35  36
ATOM     36  C   UNL     1       5.535   5.998   4.394  1.00  0.00     0.202 C 
BRANCH  36  37
ATOM     37  C   UNL     1       4.461   7.099   4.474  1.00  0.00     0.261 C 
BRANCH  37  38
ATOM     38  O   UNL     1       4.904   8.458   4.328  1.00  0.00    -0.460 OA
BRANCH  38  39
ATOM     39  C   UNL     1       5.851   8.918   5.174  1.00  0.00     0.338 C 
ATOM     40  O   UNL     1       6.342   8.336   6.116  1.00  0.00    -0.246 OA
BRANCH  39  41
ATOM     41  C   UNL     1       6.352  10.201   4.623  1.00  0.00     0.060 A 
ATOM     42  C   UNL     1       7.712  10.312   4.306  1.00  0.00     0.016 A 
ATOM     43  C   UNL     1       5.488  11.277   4.409  1.00  0.00     0.016 A 
ATOM     44  C   UNL     1       8.220  11.511   3.806  1.00  0.00     0.010 A 
ATOM     45  C   UNL     1       6.003  12.488   3.936  1.00  0.00     0.010 A 
ATOM     46  C   UNL     1       7.378  12.621   3.667  1.00  0.00    -0.014 A 
BRANCH  46  47
ATOM     47  C   UNL     1       7.969  13.965   3.460  1.00  0.00     0.031 A 
ATOM     48  C   UNL     1       8.177  14.840   4.666  1.00  0.00     0.074 A 
ATOM     49  C   UNL     1       8.341  14.396   2.242  1.00  0.00     0.049 A 
ATOM     50  N   UNL     1       8.627  16.066   4.743  1.00  0.00    -0.248 NA
ATOM     51  C   UNL     1       7.824  14.246   5.965  1.00  0.00     0.031 C 
ATOM     52  C   UNL     1       8.243  13.625   1.006  1.00  0.00     0.029 A 
ATOM     53  N   UNL     1       8.873  15.600   1.850  1.00  0.00    -0.354 N 
ATOM     54  C   UNL     1       8.601  16.391   6.093  1.00  0.00     0.074 A 
ATOM     55  C   UNL     1       8.060  15.248   6.796  1.00  0.00     0.031 C 
ATOM     56  C   UNL     1       8.689  14.380  -0.013  1.00  0.00     0.029 A 
ATOM     57  C   UNL     1       9.069  15.698   0.494  1.00  0.00     0.049 A 
ATOM     58  H   UNL     1       9.094  16.323   2.480  1.00  0.00     0.167 HD
ATOM     59  C   UNL     1       9.000  17.537   6.694  1.00  0.00     0.037 A 
ATOM     60  C   UNL     1       9.484  16.744  -0.248  1.00  0.00     0.037 A 
ATOM     61  C   UNL     1       9.533  18.673   5.990  1.00  0.00     0.049 A 
ATOM     62  C   UNL     1       9.838  18.043   0.434  1.00  0.00     0.074 A 
ATOM     63  C   UNL     1       9.981  19.875   6.508  1.00  0.00     0.029 A 
ATOM     64  N   UNL     1       9.675  18.753   4.612  1.00  0.00    -0.354 N 
ATOM     65  N   UNL     1       9.835  18.338   1.712  1.00  0.00    -0.248 NA
ATOM     66  C   UNL     1      10.255  19.155  -0.433  1.00  0.00     0.031 C 
ATOM     67  C   UNL     1      10.330  20.707   5.439  1.00  0.00     0.029 A 
ATOM     68  C   UNL     1      10.170  19.997   4.259  1.00  0.00     0.049 A 
ATOM     69  H   UNL     1       9.456  18.031   3.979  1.00  0.00     0.167 HD
ATOM     70  C   UNL     1      10.279  19.652   1.805  1.00  0.00     0.074 A 
ATOM     71  C   UNL     1      10.556  20.093   0.454  1.00  0.00     0.031 C 
ATOM     72  C   UNL     1      10.446  20.422   2.909  1.00  0.00     0.037 A 
BRANCH  59  73
ATOM     73  C   UNL     1       8.833  17.630   8.184  1.00  0.00     0.064 A 
ATOM     74  C   UNL     1       9.600  16.857   9.069  1.00  0.00     0.173 A 
ATOM     75  C   UNL     1       7.897  18.520   8.735  1.00  0.00     0.173 A 
ATOM     76  F   UNL     1      10.497  15.979   8.595  1.00  0.00    -0.203 F 
ATOM     77  C   UNL     1       9.412  16.945  10.446  1.00  0.00     0.198 A 
ATOM     78  C   UNL     1       7.738  18.631  10.114  1.00  0.00     0.198 A 
ATOM     79  F   UNL     1       7.138  19.285   7.936  1.00  0.00    -0.203 F 
ATOM     80  F   UNL     1      10.114  16.152  11.268  1.00  0.00    -0.200 F 
ATOM     81  C   UNL     1       8.488  17.837  10.967  1.00  0.00     0.200 A 
ATOM     82  F   UNL     1       6.854  19.505  10.615  1.00  0.00    -0.200 F 
ATOM     83  F   UNL     1       8.312  17.924  12.293  1.00  0.00    -0.200 F 
ENDBRANCH  59  73
BRANCH  60  84
ATOM     84  C   UNL     1       9.576  16.616  -1.728  1.00  0.00     0.064 A 
ATOM     85  C   UNL     1      10.814  16.666  -2.384  1.00  0.00     0.173 A 
ATOM     86  C   UNL     1       8.427  16.465  -2.519  1.00  0.00     0.173 A 
ATOM     87  F   UNL     1      11.940  16.839  -1.676  1.00  0.00    -0.203 F 
ATOM     88  C   UNL     1      10.898  16.588  -3.773  1.00  0.00     0.198 A 
ATOM     89  C   UNL     1       8.514  16.354  -3.905  1.00  0.00     0.198 A 
ATOM     90  F   UNL     1       7.217  16.417  -1.943  1.00  0.00    -0.203 F 
ATOM     91  F   UNL     1      12.090  16.689  -4.377  1.00  0.00    -0.200 F 
ATOM     92  C   UNL     1       9.749  16.424  -4.532  1.00  0.00     0.200 A 
ATOM     93  F   UNL     1       7.402  16.183  -4.632  1.00  0.00    -0.200 F 
ATOM     94  F   UNL     1       9.830  16.344  -5.867  1.00  0.00    -0.200 F 
ENDBRANCH  60  84
BRANCH  72  95
ATOM     95  C   UNL     1      10.992  21.810   2.713  1.00  0.00     0.064 A 
ATOM     96  C   UNL     1      10.241  22.824   2.100  1.00  0.00     0.173 A 
ATOM     97  C   UNL     1      12.272  22.141   3.188  1.00  0.00     0.173 A 
ATOM     98  F   UNL     1       9.018  22.560   1.617  1.00  0.00    -0.203 F 
ATOM     99  C   UNL     1      10.761  24.107   1.943  1.00  0.00     0.198 A 
ATOM    100  C   UNL     1      12.774  23.434   3.063  1.00  0.00     0.198 A 
ATOM    101  F   UNL     1      13.030  21.214   3.792  1.00  0.00    -0.203 F 
ATOM    102  F   UNL     1      10.046  25.044   1.305  1.00  0.00    -0.200 F 
ATOM    103  C   UNL     1      12.023  24.413   2.432  1.00  0.00     0.200 A 
ATOM    104  F   UNL     1      13.985  23.731   3.554  1.00  0.00    -0.200 F 
ATOM    105  F   UNL     1      12.517  25.650   2.289  1.00  0.00    -0.200 F 
ENDBRANCH  72  95
ENDBRANCH  46  47
ENDBRANCH  39  41
ENDBRANCH  38  39
ENDBRANCH  37  38
ENDBRANCH  36  37
ENDBRANCH  35  36
ENDBRANCH  34  35
ENDBRANCH  33  34
ENDBRANCH  32  33
ENDBRANCH   1  32
TORSDOF 25
