REMARK SMILES Cc1ccn(-c2cccc(NS(=O)(=O)c3cc(C(=O)OCCOCCOCCOCCOC(=O)c4ccc(-c5c6nc(c(-c7c(F)c(F)c(F)c(F)c7F)c7ccc([nH]7)c(-c7c(F)c(F)c(F)c(F)c7F)c7nc(c(-c8c(F)c(F)c(F)c(F)c8F)c8ccc5[nH]8)C=C7)C=C6)cc4)cc(F)c3C)c2)n1
REMARK SMILES IDX 25 1 24 2 23 3 22 4 21 5 20 6 18 7 19 8 17 9 15 10 16 11
REMARK SMILES IDX 101 12 99 13 102 14 98 15 100 16 12 17 13 18 14 19 11 20
REMARK SMILES IDX 10 22 6 23 7 24 103 25 8 26 9 27 5 28 1 29 2 30 3 31 104 32
REMARK SMILES IDX 4 33 26 34 27 35 28 36 29 37 30 38 31 39 32 40 33 41 34 42
REMARK SMILES IDX 35 43 36 44 97 45 37 46 96 47 38 48 39 49 40 50 90 51 41 52
REMARK SMILES IDX 95 53 89 54 91 55 42 56 94 57 88 58 87 59 43 61 75 62 55 63
REMARK SMILES IDX 74 64 56 65 59 66 73 67 92 68 57 69 58 70 72 72 93 73 60 74
REMARK SMILES IDX 44 75 45 76 53 77 46 78 47 79 51 80 54 81 48 82 49 83 52 84
REMARK SMILES IDX 50 85 76 86 77 87 85 88 78 89 79 90 83 91 86 92 80 93 81 94
REMARK SMILES IDX 84 95 82 96 61 97 62 98 70 99 63 100 64 101 68 102 71 103
REMARK SMILES IDX 65 104 66 105 69 106 67 107
REMARK H PARENT 11 21 91 60 59 71
REMARK Flexibility Score: inf
ROOT
ATOM      1  C   UNL     1      -4.652  -2.389  12.099  1.00  0.00     0.188 C 
ENDROOT
BRANCH   1   2
ATOM      2  C   UNL     1      -4.572  -3.564  11.098  1.00  0.00     0.188 C 
BRANCH   2   3
ATOM      3  O   UNL     1      -4.322  -4.811  11.714  1.00  0.00    -0.376 OA
BRANCH   3   4
ATOM      4  C   UNL     1      -3.028  -5.367  11.759  1.00  0.00     0.202 C 
BRANCH   4   5
ATOM      5  C   UNL     1      -1.743  -4.539  11.933  1.00  0.00     0.261 C 
BRANCH   5   6
ATOM      6  O   UNL     1      -1.808  -3.147  11.621  1.00  0.00    -0.460 OA
BRANCH   6   7
ATOM      7  C   UNL     1      -1.591  -2.797  10.340  1.00  0.00     0.338 C 
ATOM      8  O   UNL     1      -1.300  -3.533   9.406  1.00  0.00    -0.246 OA
BRANCH   7   9
ATOM      9  C   UNL     1      -1.995  -1.386  10.185  1.00  0.00     0.064 A 
ATOM     10  C   UNL     1      -3.286   0.273   8.957  1.00  0.00     0.094 A 
ATOM     11  C   UNL     1      -2.907  -1.064   9.174  1.00  0.00     0.038 A 
ATOM     12  C   UNL     1      -2.769   1.297   9.773  1.00  0.00     0.005 A 
ATOM     13  C   UNL     1      -1.927   0.921  10.835  1.00  0.00     0.128 A 
ATOM     14  C   UNL     1      -2.971   2.768   9.544  1.00  0.00     0.049 C 
ATOM     15  C   UNL     1      -1.531  -0.397  11.046  1.00  0.00     0.055 A 
ATOM     16  F   UNL     1      -1.423   1.867  11.641  1.00  0.00    -0.207 F 
BRANCH  10  17
ATOM     17  S   UNL     1      -4.280   0.586   7.506  1.00  0.00     0.262 S 
ATOM     18  O   UNL     1      -5.221   1.635   7.830  1.00  0.00    -0.201 OA
ATOM     19  O   UNL     1      -4.768  -0.687   7.015  1.00  0.00    -0.201 OA
BRANCH  17  20
ATOM     20  N   UNL     1      -3.184   1.205   6.340  1.00  0.00    -0.280 N 
ATOM     21  H   UNL     1      -3.343   2.078   5.914  1.00  0.00     0.180 HD
BRANCH  20  22
ATOM     22  C   UNL     1      -2.025   0.418   5.998  1.00  0.00     0.051 A 
ATOM     23  C   UNL     1      -0.702  -0.852   4.429  1.00  0.00     0.067 A 
ATOM     24  C   UNL     1       0.155  -1.266   5.460  1.00  0.00     0.028 A 
ATOM     25  C   UNL     1      -1.805  -0.019   4.693  1.00  0.00     0.055 A 
ATOM     26  C   UNL     1      -0.003  -0.731   6.724  1.00  0.00     0.004 A 
ATOM     27  C   UNL     1      -1.046   0.157   6.959  1.00  0.00     0.027 A 
BRANCH  23  28
ATOM     28  N   UNL     1      -0.353  -1.202   3.104  1.00  0.00    -0.241 N 
ATOM     29  C   UNL     1       0.706   0.007  -0.058  1.00  0.00     0.069 C 
ATOM     30  C   UNL     1       0.343  -0.794   1.137  1.00  0.00     0.060 A 
ATOM     31  C   UNL     1       0.785  -2.099   1.440  1.00  0.00     0.045 A 
ATOM     32  N   UNL     1      -0.458  -0.302   2.094  1.00  0.00    -0.173 NA
ATOM     33  C   UNL     1       0.320  -2.335   2.708  1.00  0.00     0.115 A 
ENDBRANCH  23  28
ENDBRANCH  20  22
ENDBRANCH  17  20
ENDBRANCH  10  17
ENDBRANCH   7   9
ENDBRANCH   6   7
ENDBRANCH   5   6
ENDBRANCH   4   5
ENDBRANCH   3   4
ENDBRANCH   2   3
ENDBRANCH   1   2
BRANCH   1  34
ATOM     34  O   UNL     1      -4.123  -2.610  13.395  1.00  0.00    -0.377 OA
BRANCH  34  35
ATOM     35  C   UNL     1      -4.727  -3.590  14.237  1.00  0.00     0.188 C 
BRANCH  35  36
ATOM     36  C   UNL     1      -6.004  -4.399  13.855  1.00  0.00     0.188 C 
BRANCH  36  37
ATOM     37  O   UNL     1      -6.674  -3.999  12.671  1.00  0.00    -0.376 OA
BRANCH  37  38
ATOM     38  C   UNL     1      -7.945  -3.380  12.660  1.00  0.00     0.202 C 
BRANCH  38  39
ATOM     39  C   UNL     1      -8.059  -1.994  13.283  1.00  0.00     0.261 C 
BRANCH  39  40
ATOM     40  O   UNL     1      -7.300  -1.867  14.466  1.00  0.00    -0.460 OA
BRANCH  40  41
ATOM     41  C   UNL     1      -7.757  -2.596  15.492  1.00  0.00     0.338 C 
ATOM     42  O   UNL     1      -8.683  -3.407  15.481  1.00  0.00    -0.246 OA
BRANCH  41  43
ATOM     43  C   UNL     1      -7.041  -2.187  16.695  1.00  0.00     0.060 A 
ATOM     44  C   UNL     1      -7.389  -2.882  17.852  1.00  0.00     0.016 A 
ATOM     45  C   UNL     1      -6.524  -0.884  16.704  1.00  0.00     0.016 A 
ATOM     46  C   UNL     1      -7.579  -2.139  18.984  1.00  0.00     0.010 A 
ATOM     47  C   UNL     1      -6.760  -0.134  17.817  1.00  0.00     0.010 A 
ATOM     48  C   UNL     1      -7.388  -0.758  18.892  1.00  0.00    -0.014 A 
BRANCH  48  49
ATOM     49  C   UNL     1      -7.830   0.053  19.992  1.00  0.00     0.031 A 
ATOM     50  C   UNL     1      -6.862   0.044  21.099  1.00  0.00     0.074 A 
ATOM     51  C   UNL     1      -8.949   0.791  19.901  1.00  0.00     0.049 A 
ATOM     52  N   UNL     1      -7.019  -0.461  22.274  1.00  0.00    -0.248 NA
ATOM     53  C   UNL     1      -5.479   0.444  20.788  1.00  0.00     0.031 C 
ATOM     54  C   UNL     1      -9.789   1.033  18.724  1.00  0.00     0.029 A 
ATOM     55  N   UNL     1      -9.504   1.592  20.844  1.00  0.00    -0.354 N 
ATOM     56  C   UNL     1      -5.810  -0.241  22.922  1.00  0.00     0.074 A 
ATOM     57  C   UNL     1      -4.851   0.074  21.902  1.00  0.00     0.031 C 
ATOM     58  C   UNL     1     -10.595   2.092  18.966  1.00  0.00     0.029 A 
ATOM     59  C   UNL     1     -10.400   2.524  20.339  1.00  0.00     0.049 A 
ATOM     60  H   UNL     1      -9.291   1.518  21.802  1.00  0.00     0.167 HD
ATOM     61  C   UNL     1      -5.787  -0.008  24.260  1.00  0.00     0.037 A 
ATOM     62  C   UNL     1     -10.807   3.635  21.002  1.00  0.00     0.037 A 
ATOM     63  C   UNL     1      -6.980  -0.530  24.888  1.00  0.00     0.049 A 
ATOM     64  C   UNL     1     -10.530   3.403  22.451  1.00  0.00     0.074 A 
ATOM     65  C   UNL     1      -7.566  -1.782  24.944  1.00  0.00     0.029 A 
ATOM     66  N   UNL     1      -7.968   0.355  25.251  1.00  0.00    -0.354 N 
ATOM     67  N   UNL     1     -11.158   2.514  23.174  1.00  0.00    -0.248 NA
ATOM     68  C   UNL     1      -9.224   3.805  22.961  1.00  0.00     0.031 C 
ATOM     69  C   UNL     1      -8.969  -1.543  24.864  1.00  0.00     0.029 A 
ATOM     70  C   UNL     1      -9.166  -0.163  24.830  1.00  0.00     0.049 A 
ATOM     71  H   UNL     1      -7.838   1.206  25.728  1.00  0.00     0.167 HD
ATOM     72  C   UNL     1     -10.174   1.941  23.969  1.00  0.00     0.074 A 
ATOM     73  C   UNL     1      -9.017   2.824  23.844  1.00  0.00     0.031 C 
ATOM     74  C   UNL     1     -10.282   0.652  24.411  1.00  0.00     0.037 A 
BRANCH  61  75
ATOM     75  C   UNL     1      -4.925   1.064  24.892  1.00  0.00     0.064 A 
ATOM     76  C   UNL     1      -4.986   1.222  26.289  1.00  0.00     0.173 A 
ATOM     77  C   UNL     1      -4.298   2.124  24.194  1.00  0.00     0.173 A 
ATOM     78  F   UNL     1      -5.543   0.275  27.059  1.00  0.00    -0.203 F 
ATOM     79  C   UNL     1      -4.576   2.399  26.918  1.00  0.00     0.198 A 
ATOM     80  C   UNL     1      -3.845   3.276  24.831  1.00  0.00     0.198 A 
ATOM     81  F   UNL     1      -4.179   2.159  22.864  1.00  0.00    -0.203 F 
ATOM     82  F   UNL     1      -4.793   2.558  28.229  1.00  0.00    -0.200 F 
ATOM     83  C   UNL     1      -4.022   3.432  26.186  1.00  0.00     0.200 A 
ATOM     84  F   UNL     1      -3.314   4.265  24.098  1.00  0.00    -0.200 F 
ATOM     85  F   UNL     1      -3.700   4.591  26.774  1.00  0.00    -0.200 F 
ENDBRANCH  61  75
BRANCH  62  86
ATOM     86  C   UNL     1     -11.033   4.987  20.429  1.00  0.00     0.064 A 
ATOM     87  C   UNL     1     -11.664   5.992  21.180  1.00  0.00     0.173 A 
ATOM     88  C   UNL     1     -10.412   5.404  19.233  1.00  0.00     0.173 A 
ATOM     89  F   UNL     1     -12.235   5.695  22.357  1.00  0.00    -0.203 F 
ATOM     90  C   UNL     1     -11.658   7.330  20.769  1.00  0.00     0.198 A 
ATOM     91  C   UNL     1     -10.419   6.735  18.818  1.00  0.00     0.198 A 
ATOM     92  F   UNL     1      -9.702   4.549  18.484  1.00  0.00    -0.203 F 
ATOM     93  F   UNL     1     -12.217   8.270  21.544  1.00  0.00    -0.200 F 
ATOM     94  C   UNL     1     -11.030   7.701  19.592  1.00  0.00     0.200 A 
ATOM     95  F   UNL     1      -9.775   7.083  17.694  1.00  0.00    -0.200 F 
ATOM     96  F   UNL     1     -10.977   8.989  19.225  1.00  0.00    -0.200 F 
ENDBRANCH  62  86
BRANCH  74  97
ATOM     97  C   UNL     1     -11.597  -0.051  24.222  1.00  0.00     0.064 A 
ATOM     98  C   UNL     1     -12.164  -0.326  22.965  1.00  0.00     0.173 A 
ATOM     99  C   UNL     1     -12.222  -0.607  25.346  1.00  0.00     0.173 A 
ATOM    100  F   UNL     1     -11.566   0.076  21.837  1.00  0.00    -0.203 F 
ATOM    101  C   UNL     1     -13.329  -1.084  22.847  1.00  0.00     0.198 A 
ATOM    102  C   UNL     1     -13.363  -1.395  25.222  1.00  0.00     0.198 A 
ATOM    103  F   UNL     1     -11.692  -0.428  26.566  1.00  0.00    -0.203 F 
ATOM    104  F   UNL     1     -13.855  -1.323  21.637  1.00  0.00    -0.200 F 
ATOM    105  C   UNL     1     -13.922  -1.625  23.975  1.00  0.00     0.200 A 
ATOM    106  F   UNL     1     -13.902  -1.960  26.311  1.00  0.00    -0.200 F 
ATOM    107  F   UNL     1     -15.015  -2.392  23.859  1.00  0.00    -0.200 F 
ENDBRANCH  74  97
ENDBRANCH  48  49
ENDBRANCH  41  43
ENDBRANCH  40  41
ENDBRANCH  39  40
ENDBRANCH  38  39
ENDBRANCH  37  38
ENDBRANCH  36  37
ENDBRANCH  35  36
ENDBRANCH  34  35
ENDBRANCH   1  34
TORSDOF 24
