REMARK SMILES CC1(C)CCCN(c2cncc(C(=O)OCCOCCOCCOCCOC(=O)c3ccc(-c4c5nc(c(-c6c(F)c(F)c(F)c(F)c6F)c6ccc([nH]6)c(-c6c(F)c(F)c(F)c(F)c6F)c6nc(c(-c7c(F)c(F)c(F)c(F)c7F)c7ccc4[nH]7)C=C6)C=C5)cc3)n2)CC1
REMARK SMILES IDX 20 1 19 2 18 3 17 4 16 5 15 6 13 7 14 8 12 9 8 10 9 11 93 12
REMARK SMILES IDX 10 13 11 14 7 15 94 16 95 17 2 18 1 19 3 20 6 22 5 23 4 24
REMARK SMILES IDX 21 26 22 27 23 28 24 29 25 30 26 31 27 32 28 33 29 34 30 35
REMARK SMILES IDX 31 36 92 37 32 38 91 39 33 40 34 41 35 42 85 43 36 44 90 45
REMARK SMILES IDX 84 46 86 47 37 48 89 49 83 50 82 51 38 53 70 54 50 55 69 56
REMARK SMILES IDX 51 57 54 58 68 59 87 60 52 61 53 62 67 64 88 65 55 66 39 67
REMARK SMILES IDX 40 68 48 69 41 70 42 71 46 72 49 73 43 74 44 75 47 76 45 77
REMARK SMILES IDX 71 78 72 79 80 80 73 81 74 82 78 83 81 84 75 85 76 86 79 87
REMARK SMILES IDX 77 88 56 89 57 90 65 91 58 92 59 93 63 94 66 95 60 96 61 97
REMARK SMILES IDX 64 98 62 99
REMARK H PARENT 86 52 54 63
REMARK Flexibility Score: 90.00
ROOT
ATOM      1  C   UNL     1       4.699   0.377  -8.072  1.00  0.00     0.188 C 
ENDROOT
BRANCH   1   2
ATOM      2  C   UNL     1       4.969   1.306  -9.284  1.00  0.00     0.188 C 
BRANCH   2   3
ATOM      3  O   UNL     1       6.247   1.914  -9.298  1.00  0.00    -0.376 OA
BRANCH   3   4
ATOM      4  C   UNL     1       6.358   3.306  -9.087  1.00  0.00     0.202 C 
BRANCH   4   5
ATOM      5  C   UNL     1       5.950   3.839  -7.708  1.00  0.00     0.261 C 
BRANCH   5   6
ATOM      6  O   UNL     1       4.685   3.383  -7.214  1.00  0.00    -0.458 OA
BRANCH   6   7
ATOM      7  C   UNL     1       3.568   3.884  -7.796  1.00  0.00     0.358 C 
ATOM      8  O   UNL     1       3.532   4.692  -8.708  1.00  0.00    -0.244 OA
BRANCH   7   9
ATOM      9  C   UNL     1       2.406   3.097  -7.317  1.00  0.00     0.169 A 
ATOM     10  C   UNL     1       1.350   1.930  -5.617  1.00  0.00     0.148 A 
ATOM     11  C   UNL     1       0.549   1.339  -6.606  1.00  0.00     0.157 A 
ATOM     12  N   UNL     1       2.307   2.814  -5.990  1.00  0.00    -0.221 NA
ATOM     13  N   UNL     1       0.629   1.621  -7.935  1.00  0.00    -0.258 NA
ATOM     14  C   UNL     1       1.572   2.530  -8.265  1.00  0.00     0.147 A 
BRANCH  10  15
ATOM     15  N   UNL     1       1.169   1.675  -4.264  1.00  0.00    -0.355 N 
BRANCH  15  16
ATOM     16  C   UNL     1       0.798   0.339  -3.811  1.00  0.00     0.118 C 
BRANCH  16  17
ATOM     17  C   UNL     1       1.274  -0.016  -2.396  1.00  0.00     0.028 C 
BRANCH  17  18
ATOM     18  C   UNL     1       0.468   0.565  -1.205  1.00  0.00    -0.034 CG0
ATOM     19  C   UNL     1       1.000  -0.091   0.093  1.00  0.00     0.011 C 
ATOM     20  C   UNL     1      -1.029   0.215  -1.312  1.00  0.00     0.011 C 
ATOM     21  G   UNL     1       0.654   2.090  -1.048  1.00  0.00     0.000 G0
ENDBRANCH  17  18
ENDBRANCH  16  17
ENDBRANCH  15  16
BRANCH  15  22
ATOM     22  C   UNL     1       1.480   2.766  -3.352  1.00  0.00     0.118 C 
BRANCH  22  23
ATOM     23  C   UNL     1       0.395   2.934  -2.291  1.00  0.00     0.022 C 
BRANCH  23  24
ATOM     24  C   UNL     1       0.654   2.090  -1.048  1.00  0.00     0.008 CG0
ATOM     25  G   UNL     1       0.468   0.565  -1.205  1.00  0.00     0.000 G0
ENDBRANCH  23  24
ENDBRANCH  22  23
ENDBRANCH  15  22
ENDBRANCH  10  15
ENDBRANCH   7   9
ENDBRANCH   6   7
ENDBRANCH   5   6
ENDBRANCH   4   5
ENDBRANCH   3   4
ENDBRANCH   2   3
ENDBRANCH   1   2
BRANCH   1  26
ATOM     26  O   UNL     1       5.726  -0.097  -7.204  1.00  0.00    -0.377 OA
BRANCH  26  27
ATOM     27  C   UNL     1       7.089   0.129  -7.528  1.00  0.00     0.188 C 
BRANCH  27  28
ATOM     28  C   UNL     1       7.585  -0.454  -8.866  1.00  0.00     0.188 C 
BRANCH  28  29
ATOM     29  O   UNL     1       6.537  -0.975  -9.667  1.00  0.00    -0.376 OA
BRANCH  29  30
ATOM     30  C   UNL     1       6.354  -2.378  -9.700  1.00  0.00     0.202 C 
BRANCH  30  31
ATOM     31  C   UNL     1       6.167  -3.155  -8.387  1.00  0.00     0.261 C 
BRANCH  31  32
ATOM     32  O   UNL     1       7.077  -2.867  -7.316  1.00  0.00    -0.460 OA
BRANCH  32  33
ATOM     33  C   UNL     1       8.361  -3.249  -7.456  1.00  0.00     0.338 C 
ATOM     34  O   UNL     1       8.865  -3.824  -8.408  1.00  0.00    -0.246 OA
BRANCH  33  35
ATOM     35  C   UNL     1       9.115  -2.680  -6.319  1.00  0.00     0.060 A 
ATOM     36  C   UNL     1      10.136  -1.753  -6.566  1.00  0.00     0.016 A 
ATOM     37  C   UNL     1       8.796  -3.049  -5.010  1.00  0.00     0.016 A 
ATOM     38  C   UNL     1      10.864  -1.215  -5.504  1.00  0.00     0.010 A 
ATOM     39  C   UNL     1       9.541  -2.529  -3.949  1.00  0.00     0.010 A 
ATOM     40  C   UNL     1      10.600  -1.636  -4.194  1.00  0.00    -0.014 A 
BRANCH  40  41
ATOM     41  C   UNL     1      11.556  -1.308  -3.109  1.00  0.00     0.031 A 
ATOM     42  C   UNL     1      12.575  -2.345  -2.724  1.00  0.00     0.074 A 
ATOM     43  C   UNL     1      11.538  -0.115  -2.490  1.00  0.00     0.049 A 
ATOM     44  N   UNL     1      13.475  -2.321  -1.775  1.00  0.00    -0.248 NA
ATOM     45  C   UNL     1      12.573  -3.583  -3.521  1.00  0.00     0.031 C 
ATOM     46  C   UNL     1      10.631   0.986  -2.803  1.00  0.00     0.029 A 
ATOM     47  N   UNL     1      12.306   0.363  -1.458  1.00  0.00    -0.354 N 
ATOM     48  C   UNL     1      14.139  -3.538  -1.857  1.00  0.00     0.074 A 
ATOM     49  C   UNL     1      13.517  -4.292  -2.922  1.00  0.00     0.031 C 
ATOM     50  C   UNL     1      10.887   2.010  -1.970  1.00  0.00     0.029 A 
ATOM     51  C   UNL     1      11.949   1.622  -1.043  1.00  0.00     0.049 A 
ATOM     52  H   UNL     1      13.044  -0.149  -1.053  1.00  0.00     0.167 HD
ATOM     53  C   UNL     1      15.183  -3.981  -1.117  1.00  0.00     0.037 A 
ATOM     54  C   UNL     1      12.413   2.361  -0.015  1.00  0.00     0.037 A 
ATOM     55  C   UNL     1      15.794  -3.229  -0.053  1.00  0.00     0.049 A 
ATOM     56  C   UNL     1      13.517   1.808   0.853  1.00  0.00     0.074 A 
ATOM     57  C   UNL     1      16.861  -3.585   0.752  1.00  0.00     0.029 A 
ATOM     58  N   UNL     1      15.382  -1.971   0.361  1.00  0.00    -0.354 N 
ATOM     59  N   UNL     1      14.158   0.667   0.757  1.00  0.00    -0.248 NA
ATOM     60  C   UNL     1      13.964   2.649   1.972  1.00  0.00     0.031 C 
ATOM     61  C   UNL     1      17.055  -2.570   1.694  1.00  0.00     0.029 A 
ATOM     62  C   UNL     1      16.156  -1.549   1.431  1.00  0.00     0.049 A 
ATOM     63  H   UNL     1      14.648  -1.454  -0.044  1.00  0.00     0.167 HD
ATOM     64  C   UNL     1      15.105   0.671   1.774  1.00  0.00     0.074 A 
ATOM     65  C   UNL     1      14.963   1.934   2.468  1.00  0.00     0.031 C 
ATOM     66  C   UNL     1      16.011  -0.283   2.104  1.00  0.00     0.037 A 
BRANCH  53  67
ATOM     67  C   UNL     1      15.706  -5.358  -1.412  1.00  0.00     0.064 A 
ATOM     68  C   UNL     1      16.387  -5.651  -2.603  1.00  0.00     0.173 A 
ATOM     69  C   UNL     1      15.546  -6.392  -0.477  1.00  0.00     0.173 A 
ATOM     70  F   UNL     1      16.554  -4.703  -3.538  1.00  0.00    -0.203 F 
ATOM     71  C   UNL     1      16.862  -6.935  -2.860  1.00  0.00     0.198 A 
ATOM     72  C   UNL     1      16.053  -7.665  -0.722  1.00  0.00     0.198 A 
ATOM     73  F   UNL     1      14.905  -6.166   0.679  1.00  0.00    -0.203 F 
ATOM     74  F   UNL     1      17.462  -7.205  -4.027  1.00  0.00    -0.200 F 
ATOM     75  C   UNL     1      16.702  -7.938  -1.916  1.00  0.00     0.200 A 
ATOM     76  F   UNL     1      15.910  -8.629   0.199  1.00  0.00    -0.200 F 
ATOM     77  F   UNL     1      17.168  -9.171  -2.160  1.00  0.00    -0.200 F 
ENDBRANCH  53  67
BRANCH  54  78
ATOM     78  C   UNL     1      11.830   3.700   0.266  1.00  0.00     0.064 A 
ATOM     79  C   UNL     1      12.594   4.868   0.125  1.00  0.00     0.173 A 
ATOM     80  C   UNL     1      10.508   3.839   0.717  1.00  0.00     0.173 A 
ATOM     81  F   UNL     1      13.871   4.787  -0.276  1.00  0.00    -0.203 F 
ATOM     82  C   UNL     1      12.067   6.118   0.447  1.00  0.00     0.198 A 
ATOM     83  C   UNL     1       9.972   5.093   1.006  1.00  0.00     0.198 A 
ATOM     84  F   UNL     1       9.735   2.756   0.876  1.00  0.00    -0.203 F 
ATOM     85  F   UNL     1      12.839   7.210   0.358  1.00  0.00    -0.200 F 
ATOM     86  C   UNL     1      10.755   6.230   0.881  1.00  0.00     0.200 A 
ATOM     87  F   UNL     1       8.700   5.197   1.415  1.00  0.00    -0.200 F 
ATOM     88  F   UNL     1      10.250   7.431   1.190  1.00  0.00    -0.200 F 
ENDBRANCH  54  78
BRANCH  66  89
ATOM     89  C   UNL     1      16.959   0.019   3.232  1.00  0.00     0.064 A 
ATOM     90  C   UNL     1      16.529   0.094   4.565  1.00  0.00     0.173 A 
ATOM     91  C   UNL     1      18.329   0.195   2.976  1.00  0.00     0.173 A 
ATOM     92  F   UNL     1      15.229  -0.055   4.865  1.00  0.00    -0.203 F 
ATOM     93  C   UNL     1      17.427   0.365   5.594  1.00  0.00     0.198 A 
ATOM     94  C   UNL     1      19.230   0.428   4.012  1.00  0.00     0.198 A 
ATOM     95  F   UNL     1      18.798   0.123   1.721  1.00  0.00    -0.203 F 
ATOM     96  F   UNL     1      16.984   0.487   6.853  1.00  0.00    -0.200 F 
ATOM     97  C   UNL     1      18.777   0.523   5.318  1.00  0.00     0.200 A 
ATOM     98  F   UNL     1      20.536   0.561   3.744  1.00  0.00    -0.200 F 
ATOM     99  F   UNL     1      19.641   0.775   6.311  1.00  0.00    -0.200 F 
ENDBRANCH  66  89
ENDBRANCH  40  41
ENDBRANCH  33  35
ENDBRANCH  32  33
ENDBRANCH  31  32
ENDBRANCH  30  31
ENDBRANCH  29  30
ENDBRANCH  28  29
ENDBRANCH  27  28
ENDBRANCH  26  27
ENDBRANCH   1  26
TORSDOF 21
