REMARK SMILES O=C(OCCOCCOCCOCCOC(=O)[C@H]1C=C[C@H](NC(=O)c2ccc(Cl)cc2Cl)C1)c1ccc(-c2c3nc(c(-c4c(F)c(F)c(F)c(F)c4F)c4ccc([nH]4)c(-c4c(F)c(F)c(F)c(F)c4F)c4nc(c(-c5c(F)c(F)c(F)c(F)c5F)c5ccc2[nH]5)C=C4)C=C3)cc1
REMARK SMILES IDX 9 1 8 2 7 3 6 4 5 5 4 6 3 7 2 8 1 9 34 10 35 11 96 12 36 13
REMARK SMILES IDX 95 14 37 15 38 16 39 17 89 18 40 19 94 20 88 21 90 22 41 23
REMARK SMILES IDX 93 24 87 25 86 26 42 28 74 29 54 30 73 31 55 32 58 33 72 34
REMARK SMILES IDX 91 35 56 36 57 37 71 39 92 40 59 41 43 42 44 43 52 44 45 45
REMARK SMILES IDX 46 46 50 47 53 48 47 49 48 50 51 51 49 52 75 53 76 54 84 55
REMARK SMILES IDX 77 56 78 57 82 58 85 59 79 60 80 61 83 62 81 63 60 64 61 65
REMARK SMILES IDX 69 66 62 67 63 68 67 69 70 70 64 71 65 72 68 73 66 74 10 75
REMARK SMILES IDX 11 76 12 77 13 78 14 79 15 80 16 81 17 82 18 83 19 84 33 85
REMARK SMILES IDX 20 86 21 87 22 88 23 89 24 91 25 92 26 93 31 94 27 95 30 96
REMARK SMILES IDX 32 97 28 98 29 99
REMARK H PARENT 90 27 58 38 22 90
REMARK Flexibility Score: inf
ROOT
ATOM      1  O   UNL     1       3.027   3.940   0.646  1.00  0.00    -0.377 OA
ENDROOT
BRANCH   1   2
ATOM      2  C   UNL     1       2.173   2.805   0.793  1.00  0.00     0.188 C 
BRANCH   2   3
ATOM      3  C   UNL     1       2.549   1.565  -0.021  1.00  0.00     0.188 C 
BRANCH   3   4
ATOM      4  O   UNL     1       3.863   1.137   0.294  1.00  0.00    -0.376 OA
BRANCH   4   5
ATOM      5  C   UNL     1       4.681   0.499  -0.669  1.00  0.00     0.202 C 
BRANCH   5   6
ATOM      6  C   UNL     1       4.044  -0.565  -1.559  1.00  0.00     0.261 C 
BRANCH   6   7
ATOM      7  O   UNL     1       2.654  -0.875  -1.310  1.00  0.00    -0.460 OA
BRANCH   7   8
ATOM      8  C   UNL     1       2.075  -1.702  -0.405  1.00  0.00     0.338 C 
ATOM      9  O   UNL     1       0.882  -1.972  -0.495  1.00  0.00    -0.246 OA
BRANCH   8  10
ATOM     10  C   UNL     1       2.852  -2.309   0.697  1.00  0.00     0.060 A 
ATOM     11  C   UNL     1       3.812  -1.600   1.394  1.00  0.00     0.016 A 
ATOM     12  C   UNL     1       2.546  -3.596   1.143  1.00  0.00     0.016 A 
ATOM     13  C   UNL     1       4.676  -2.208   2.267  1.00  0.00     0.010 A 
ATOM     14  C   UNL     1       3.288  -4.170   2.184  1.00  0.00     0.010 A 
ATOM     15  C   UNL     1       4.406  -3.495   2.698  1.00  0.00    -0.014 A 
BRANCH  15  16
ATOM     16  C   UNL     1       5.404  -4.109   3.590  1.00  0.00     0.031 A 
ATOM     17  C   UNL     1       6.186  -5.271   3.064  1.00  0.00     0.074 A 
ATOM     18  C   UNL     1       5.736  -3.493   4.743  1.00  0.00     0.049 A 
ATOM     19  N   UNL     1       7.075  -6.010   3.666  1.00  0.00    -0.248 NA
ATOM     20  C   UNL     1       5.943  -5.647   1.659  1.00  0.00     0.031 C 
ATOM     21  C   UNL     1       5.134  -2.250   5.247  1.00  0.00     0.029 A 
ATOM     22  N   UNL     1       6.698  -3.785   5.671  1.00  0.00    -0.354 N 
ATOM     23  C   UNL     1       7.463  -6.958   2.730  1.00  0.00     0.074 A 
ATOM     24  C   UNL     1       6.708  -6.717   1.524  1.00  0.00     0.031 C 
ATOM     25  C   UNL     1       5.776  -1.864   6.358  1.00  0.00     0.029 A 
ATOM     26  C   UNL     1       6.743  -2.890   6.713  1.00  0.00     0.049 A 
ATOM     27  H   UNL     1       7.299  -4.561   5.599  1.00  0.00     0.167 HD
ATOM     28  C   UNL     1       8.376  -7.942   2.880  1.00  0.00     0.037 A 
ATOM     29  C   UNL     1       7.449  -2.938   7.857  1.00  0.00     0.037 A 
ATOM     30  C   UNL     1       9.117  -8.137   4.095  1.00  0.00     0.049 A 
ATOM     31  C   UNL     1       8.362  -4.118   8.048  1.00  0.00     0.074 A 
ATOM     32  C   UNL     1       9.993  -9.151   4.426  1.00  0.00     0.029 A 
ATOM     33  N   UNL     1       9.064  -7.273   5.184  1.00  0.00    -0.354 N 
ATOM     34  N   UNL     1       8.639  -5.093   7.213  1.00  0.00    -0.248 NA
ATOM     35  C   UNL     1       9.045  -4.220   9.341  1.00  0.00     0.031 C 
ATOM     36  C   UNL     1      10.437  -8.924   5.734  1.00  0.00     0.029 A 
ATOM     37  C   UNL     1       9.885  -7.737   6.195  1.00  0.00     0.049 A 
ATOM     38  H   UNL     1       8.522  -6.453   5.228  1.00  0.00     0.167 HD
ATOM     39  C   UNL     1       9.537  -5.917   7.871  1.00  0.00     0.074 A 
ATOM     40  C   UNL     1       9.785  -5.304   9.163  1.00  0.00     0.031 C 
ATOM     41  C   UNL     1      10.100  -7.081   7.461  1.00  0.00     0.037 A 
BRANCH  28  42
ATOM     42  C   UNL     1       8.544  -8.899   1.738  1.00  0.00     0.064 A 
ATOM     43  C   UNL     1       9.150  -8.520   0.530  1.00  0.00     0.173 A 
ATOM     44  C   UNL     1       8.044 -10.206   1.839  1.00  0.00     0.173 A 
ATOM     45  F   UNL     1       9.606  -7.269   0.366  1.00  0.00    -0.203 F 
ATOM     46  C   UNL     1       9.226  -9.407  -0.542  1.00  0.00     0.198 A 
ATOM     47  C   UNL     1       8.149 -11.099   0.776  1.00  0.00     0.198 A 
ATOM     48  F   UNL     1       7.439 -10.613   2.965  1.00  0.00    -0.203 F 
ATOM     49  F   UNL     1       9.750  -9.004  -1.708  1.00  0.00    -0.200 F 
ATOM     50  C   UNL     1       8.731 -10.697  -0.415  1.00  0.00     0.200 A 
ATOM     51  F   UNL     1       7.669 -12.344   0.901  1.00  0.00    -0.200 F 
ATOM     52  F   UNL     1       8.800 -11.547  -1.449  1.00  0.00    -0.200 F 
ENDBRANCH  28  42
BRANCH  29  53
ATOM     53  C   UNL     1       7.244  -1.921   8.927  1.00  0.00     0.064 A 
ATOM     54  C   UNL     1       8.293  -1.115   9.389  1.00  0.00     0.173 A 
ATOM     55  C   UNL     1       5.992  -1.768   9.549  1.00  0.00     0.173 A 
ATOM     56  F   UNL     1       9.514  -1.228   8.845  1.00  0.00    -0.203 F 
ATOM     57  C   UNL     1       8.110  -0.228  10.450  1.00  0.00     0.198 A 
ATOM     58  C   UNL     1       5.800  -0.852  10.581  1.00  0.00     0.198 A 
ATOM     59  F   UNL     1       4.947  -2.510   9.153  1.00  0.00    -0.203 F 
ATOM     60  F   UNL     1       9.149   0.477  10.917  1.00  0.00    -0.200 F 
ATOM     61  C   UNL     1       6.863  -0.094  11.042  1.00  0.00     0.200 A 
ATOM     62  F   UNL     1       4.588  -0.715  11.134  1.00  0.00    -0.200 F 
ATOM     63  F   UNL     1       6.690   0.753  12.066  1.00  0.00    -0.200 F 
ENDBRANCH  29  53
BRANCH  41  64
ATOM     64  C   UNL     1      11.061  -7.728   8.412  1.00  0.00     0.064 A 
ATOM     65  C   UNL     1      10.628  -8.325   9.604  1.00  0.00     0.173 A 
ATOM     66  C   UNL     1      12.430  -7.768   8.110  1.00  0.00     0.173 A 
ATOM     67  F   UNL     1       9.329  -8.296   9.942  1.00  0.00    -0.203 F 
ATOM     68  C   UNL     1      11.538  -8.906  10.480  1.00  0.00     0.198 A 
ATOM     69  C   UNL     1      13.332  -8.385   8.969  1.00  0.00     0.198 A 
ATOM     70  F   UNL     1      12.890  -7.217   6.976  1.00  0.00    -0.203 F 
ATOM     71  F   UNL     1      11.112  -9.412  11.646  1.00  0.00    -0.200 F 
ATOM     72  C   UNL     1      12.887  -8.942  10.158  1.00  0.00     0.200 A 
ATOM     73  F   UNL     1      14.631  -8.436   8.647  1.00  0.00    -0.200 F 
ATOM     74  F   UNL     1      13.762  -9.507  11.001  1.00  0.00    -0.200 F 
ENDBRANCH  41  64
ENDBRANCH  15  16
ENDBRANCH   8  10
ENDBRANCH   7   8
ENDBRANCH   6   7
ENDBRANCH   5   6
ENDBRANCH   4   5
ENDBRANCH   3   4
ENDBRANCH   2   3
ENDBRANCH   1   2
BRANCH   1  75
ATOM     75  C   UNL     1       4.429   3.687   0.658  1.00  0.00     0.188 C 
BRANCH  75  76
ATOM     76  C   UNL     1       5.096   3.122   1.944  1.00  0.00     0.188 C 
BRANCH  76  77
ATOM     77  O   UNL     1       4.294   2.216   2.679  1.00  0.00    -0.376 OA
BRANCH  77  78
ATOM     78  C   UNL     1       3.703   2.604   3.910  1.00  0.00     0.202 C 
BRANCH  78  79
ATOM     79  C   UNL     1       3.093   3.999   4.157  1.00  0.00     0.261 C 
BRANCH  79  80
ATOM     80  O   UNL     1       3.365   4.996   3.174  1.00  0.00    -0.463 OA
BRANCH  80  81
ATOM     81  C   UNL     1       4.403   5.837   3.407  1.00  0.00     0.312 C 
ATOM     82  O   UNL     1       5.089   5.836   4.428  1.00  0.00    -0.252 OA
BRANCH  81  83
ATOM     83  C   UNL     1       4.657   6.710   2.184  1.00  0.00     0.124 C 
ATOM     84  C   UNL     1       4.557   8.145   2.578  1.00  0.00    -0.014 C 
ATOM     85  C   UNL     1       6.107   6.575   1.671  1.00  0.00     0.048 C 
ATOM     86  C   UNL     1       5.665   8.829   2.272  1.00  0.00    -0.006 C 
ATOM     87  C   UNL     1       6.681   7.986   1.595  1.00  0.00     0.106 C 
BRANCH  87  88
ATOM     88  N   UNL     1       7.006   8.419   0.239  1.00  0.00    -0.346 N 
ATOM     89  C   UNL     1       6.276   8.660  -0.901  1.00  0.00     0.253 C 
ATOM     90  H   UNL     1       7.970   8.575   0.111  1.00  0.00     0.164 HD
ATOM     91  O   UNL     1       6.861   8.784  -1.974  1.00  0.00    -0.269 OA
BRANCH  89  92
ATOM     92  C   UNL     1       4.815   8.838  -0.861  1.00  0.00     0.058 A 
ATOM     93  C   UNL     1       4.305   9.940  -0.162  1.00  0.00     0.017 A 
ATOM     94  C   UNL     1       3.940   7.995  -1.555  1.00  0.00     0.055 A 
ATOM     95  C   UNL     1       2.928  10.102  -0.014  1.00  0.00     0.021 A 
ATOM     96  C   UNL     1       2.558   8.187  -1.446  1.00  0.00     0.041 A 
ATOM     97  Cl  UNL     1       4.490   6.683  -2.534  1.00  0.00    -0.083 Cl
ATOM     98  C   UNL     1       2.061   9.214  -0.645  1.00  0.00     0.042 A 
ATOM     99  Cl  UNL     1       0.364   9.384  -0.420  1.00  0.00    -0.084 Cl
ENDBRANCH  89  92
ENDBRANCH  87  88
ENDBRANCH  81  83
ENDBRANCH  80  81
ENDBRANCH  79  80
ENDBRANCH  78  79
ENDBRANCH  77  78
ENDBRANCH  76  77
ENDBRANCH  75  76
ENDBRANCH   1  75
TORSDOF 22
