REMARK SMILES O=C(OCCOCCOCCOCCOC(=O)c1nsc2c1N=C(O)C[C@@H]2c1ccc(F)cc1Cl)c1ccc(-c2c3nc(c(-c4c(F)c(F)c(F)c(F)c4F)c4ccc([nH]4)c(-c4c(F)c(F)c(F)c(F)c4F)c4nc(c(-c5c(F)c(F)c(F)c(F)c5F)c5ccc2[nH]5)C=C4)C=C3)cc1
REMARK SMILES IDX 8 1 7 2 6 3 5 4 4 5 3 6 2 7 1 8 36 9 37 10 98 11 38 12 97 13
REMARK SMILES IDX 39 14 40 15 41 16 91 17 42 18 96 19 90 20 92 21 43 22 95 23
REMARK SMILES IDX 89 24 88 25 44 27 76 28 56 29 75 30 57 31 60 32 74 33 93 34
REMARK SMILES IDX 58 35 59 36 73 38 94 39 61 40 45 41 46 42 54 43 47 44 48 45
REMARK SMILES IDX 52 46 55 47 49 48 50 49 53 50 51 51 77 52 78 53 86 54 79 55
REMARK SMILES IDX 80 56 84 57 87 58 81 59 82 60 85 61 83 62 62 63 63 64 71 65
REMARK SMILES IDX 64 66 65 67 69 68 72 69 66 70 67 71 70 72 68 73 9 74 10 75
REMARK SMILES IDX 11 76 12 77 13 78 14 79 15 80 16 81 17 82 18 83 19 84 22 85
REMARK SMILES IDX 20 86 21 87 23 88 27 89 24 90 26 91 28 92 29 93 34 94 30 95
REMARK SMILES IDX 33 96 35 97 31 98 32 99 25 100
REMARK H PARENT 92 26 60 37 25 101
REMARK Flexibility Score: inf
ROOT
ATOM      1  C   UNL     1       2.310   0.378  -1.900  1.00  0.00     0.188 C 
ENDROOT
BRANCH   1   2
ATOM      2  C   UNL     1       2.959   1.321  -0.871  1.00  0.00     0.188 C 
BRANCH   2   3
ATOM      3  O   UNL     1       4.034   0.971   0.003  1.00  0.00    -0.376 OA
BRANCH   3   4
ATOM      4  C   UNL     1       4.944  -0.083  -0.212  1.00  0.00     0.202 C 
BRANCH   4   5
ATOM      5  C   UNL     1       4.534  -1.464   0.306  1.00  0.00     0.261 C 
BRANCH   5   6
ATOM      6  O   UNL     1       3.159  -1.810   0.120  1.00  0.00    -0.460 OA
BRANCH   6   7
ATOM      7  C   UNL     1       2.057  -1.336   0.736  1.00  0.00     0.338 C 
ATOM      8  O   UNL     1       0.958  -1.694   0.310  1.00  0.00    -0.246 OA
BRANCH   7   9
ATOM      9  C   UNL     1       2.063  -0.395   1.889  1.00  0.00     0.060 A 
ATOM     10  C   UNL     1       3.173  -0.059   2.666  1.00  0.00     0.016 A 
ATOM     11  C   UNL     1       0.803   0.127   2.246  1.00  0.00     0.016 A 
ATOM     12  C   UNL     1       3.013   0.612   3.860  1.00  0.00     0.010 A 
ATOM     13  C   UNL     1       0.634   0.815   3.433  1.00  0.00     0.010 A 
ATOM     14  C   UNL     1       1.733   0.964   4.268  1.00  0.00    -0.014 A 
BRANCH  14  15
ATOM     15  C   UNL     1       1.601   1.453   5.623  1.00  0.00     0.031 A 
ATOM     16  C   UNL     1       2.208   2.779   5.875  1.00  0.00     0.074 A 
ATOM     17  C   UNL     1       0.947   0.719   6.543  1.00  0.00     0.049 A 
ATOM     18  N   UNL     1       3.124   3.085   6.734  1.00  0.00    -0.248 NA
ATOM     19  C   UNL     1       1.829   3.880   4.978  1.00  0.00     0.031 C 
ATOM     20  C   UNL     1       0.138  -0.481   6.310  1.00  0.00     0.029 A 
ATOM     21  N   UNL     1       0.770   0.957   7.870  1.00  0.00    -0.354 N 
ATOM     22  C   UNL     1       3.304   4.462   6.617  1.00  0.00     0.074 A 
ATOM     23  C   UNL     1       2.606   4.865   5.426  1.00  0.00     0.031 C 
ATOM     24  C   UNL     1      -0.635  -0.708   7.392  1.00  0.00     0.029 A 
ATOM     25  C   UNL     1      -0.288   0.253   8.424  1.00  0.00     0.049 A 
ATOM     26  H   UNL     1       1.339   1.571   8.388  1.00  0.00     0.167 HD
ATOM     27  C   UNL     1       3.772   5.187   7.668  1.00  0.00     0.037 A 
ATOM     28  C   UNL     1      -0.900   0.518   9.603  1.00  0.00     0.037 A 
ATOM     29  C   UNL     1       4.549   4.360   8.561  1.00  0.00     0.049 A 
ATOM     30  C   UNL     1       0.022   1.357  10.409  1.00  0.00     0.074 A 
ATOM     31  C   UNL     1       5.682   3.579   8.425  1.00  0.00     0.029 A 
ATOM     32  N   UNL     1       3.993   3.989   9.759  1.00  0.00    -0.354 N 
ATOM     33  N   UNL     1       1.139   0.927  10.928  1.00  0.00    -0.248 NA
ATOM     34  C   UNL     1      -0.087   2.804  10.286  1.00  0.00     0.031 C 
ATOM     35  C   UNL     1       5.485   2.473   9.305  1.00  0.00     0.029 A 
ATOM     36  C   UNL     1       4.267   2.663   9.957  1.00  0.00     0.049 A 
ATOM     37  H   UNL     1       3.486   4.573  10.368  1.00  0.00     0.167 HD
ATOM     38  C   UNL     1       2.024   1.984  10.783  1.00  0.00     0.074 A 
ATOM     39  C   UNL     1       1.187   3.144  10.494  1.00  0.00     0.031 C 
ATOM     40  C   UNL     1       3.361   1.759  10.623  1.00  0.00     0.037 A 
BRANCH  27  41
ATOM     41  C   UNL     1       3.123   6.484   8.123  1.00  0.00     0.064 A 
ATOM     42  C   UNL     1       3.635   7.117   9.274  1.00  0.00     0.173 A 
ATOM     43  C   UNL     1       1.842   6.921   7.717  1.00  0.00     0.173 A 
ATOM     44  F   UNL     1       4.855   6.808   9.739  1.00  0.00    -0.203 F 
ATOM     45  C   UNL     1       2.858   7.981  10.049  1.00  0.00     0.198 A 
ATOM     46  C   UNL     1       1.088   7.820   8.468  1.00  0.00     0.198 A 
ATOM     47  F   UNL     1       1.213   6.433   6.644  1.00  0.00    -0.203 F 
ATOM     48  F   UNL     1       3.326   8.419  11.226  1.00  0.00    -0.200 F 
ATOM     49  C   UNL     1       1.575   8.312   9.658  1.00  0.00     0.200 A 
ATOM     50  F   UNL     1      -0.155   8.128   8.069  1.00  0.00    -0.200 F 
ATOM     51  F   UNL     1       0.793   9.062  10.444  1.00  0.00    -0.200 F 
ENDBRANCH  27  41
BRANCH  28  52
ATOM     52  C   UNL     1      -2.336   0.355   9.931  1.00  0.00     0.064 A 
ATOM     53  C   UNL     1      -2.780   0.402  11.262  1.00  0.00     0.173 A 
ATOM     54  C   UNL     1      -3.337   0.401   8.938  1.00  0.00     0.173 A 
ATOM     55  F   UNL     1      -1.894   0.413  12.268  1.00  0.00    -0.203 F 
ATOM     56  C   UNL     1      -4.138   0.506  11.579  1.00  0.00     0.198 A 
ATOM     57  C   UNL     1      -4.692   0.487   9.255  1.00  0.00     0.198 A 
ATOM     58  F   UNL     1      -3.021   0.458   7.637  1.00  0.00    -0.203 F 
ATOM     59  F   UNL     1      -4.519   0.615  12.859  1.00  0.00    -0.200 F 
ATOM     60  C   UNL     1      -5.092   0.555  10.575  1.00  0.00     0.200 A 
ATOM     61  F   UNL     1      -5.600   0.568   8.272  1.00  0.00    -0.200 F 
ATOM     62  F   UNL     1      -6.388   0.710  10.877  1.00  0.00    -0.200 F 
ENDBRANCH  28  52
BRANCH  40  63
ATOM     63  C   UNL     1       3.876   0.386  10.937  1.00  0.00     0.064 A 
ATOM     64  C   UNL     1       3.487  -0.776  10.248  1.00  0.00     0.173 A 
ATOM     65  C   UNL     1       4.888   0.260  11.898  1.00  0.00     0.173 A 
ATOM     66  F   UNL     1       2.608  -0.719   9.240  1.00  0.00    -0.203 F 
ATOM     67  C   UNL     1       4.044  -2.016  10.556  1.00  0.00     0.198 A 
ATOM     68  C   UNL     1       5.470  -0.973  12.175  1.00  0.00     0.198 A 
ATOM     69  F   UNL     1       5.341   1.346  12.544  1.00  0.00    -0.203 F 
ATOM     70  F   UNL     1       3.640  -3.115   9.902  1.00  0.00    -0.200 F 
ATOM     71  C   UNL     1       5.038  -2.112  11.516  1.00  0.00     0.200 A 
ATOM     72  F   UNL     1       6.467  -1.053  13.067  1.00  0.00    -0.200 F 
ATOM     73  F   UNL     1       5.598  -3.299  11.787  1.00  0.00    -0.200 F 
ENDBRANCH  40  63
ENDBRANCH  14  15
ENDBRANCH   7   9
ENDBRANCH   6   7
ENDBRANCH   5   6
ENDBRANCH   4   5
ENDBRANCH   3   4
ENDBRANCH   2   3
ENDBRANCH   1   2
BRANCH   1  74
ATOM     74  O   UNL     1       2.768   0.523  -3.234  1.00  0.00    -0.377 OA
BRANCH  74  75
ATOM     75  C   UNL     1       4.067   0.030  -3.475  1.00  0.00     0.188 C 
BRANCH  75  76
ATOM     76  C   UNL     1       5.144   1.130  -3.576  1.00  0.00     0.188 C 
BRANCH  76  77
ATOM     77  O   UNL     1       4.808   2.512  -3.623  1.00  0.00    -0.376 OA
BRANCH  77  78
ATOM     78  C   UNL     1       3.572   2.966  -4.149  1.00  0.00     0.202 C 
BRANCH  78  79
ATOM     79  C   UNL     1       3.158   2.613  -5.584  1.00  0.00     0.261 C 
BRANCH  79  80
ATOM     80  O   UNL     1       3.507   1.303  -6.029  1.00  0.00    -0.458 OA
BRANCH  80  81
ATOM     81  C   UNL     1       4.697   1.180  -6.685  1.00  0.00     0.360 C 
ATOM     82  O   UNL     1       5.441   2.123  -6.953  1.00  0.00    -0.244 OA
BRANCH  81  83
ATOM     83  C   UNL     1       5.047  -0.225  -6.914  1.00  0.00     0.188 A 
ATOM     84  N   UNL     1       6.242  -0.701  -6.520  1.00  0.00    -0.183 NA
ATOM     85  C   UNL     1       4.202  -1.203  -7.518  1.00  0.00     0.116 A 
ATOM     86  S   UNL     1       6.338  -2.321  -6.871  1.00  0.00    -0.038 S 
ATOM     87  C   UNL     1       4.797  -2.440  -7.571  1.00  0.00     0.060 A 
ATOM     88  N   UNL     1       2.954  -0.928  -8.090  1.00  0.00    -0.214 NA
ATOM     89  C   UNL     1       4.259  -3.611  -8.309  1.00  0.00     0.074 C 
ATOM     90  C   UNL     1       2.571  -1.808  -8.953  1.00  0.00     0.187 C 
ATOM     91  C   UNL     1       3.320  -3.042  -9.405  1.00  0.00     0.111 C 
BRANCH  89  92
ATOM     92  C   UNL     1       3.629  -4.797  -7.567  1.00  0.00    -0.020 A 
ATOM     93  C   UNL     1       3.374  -5.932  -8.386  1.00  0.00     0.009 A 
ATOM     94  C   UNL     1       3.298  -4.914  -6.203  1.00  0.00     0.047 A 
ATOM     95  C   UNL     1       2.800  -7.101  -7.888  1.00  0.00     0.039 A 
ATOM     96  C   UNL     1       2.742  -6.105  -5.700  1.00  0.00     0.060 A 
ATOM     97  Cl  UNL     1       3.518  -3.665  -5.036  1.00  0.00    -0.084 Cl
ATOM     98  C   UNL     1       2.493  -7.178  -6.543  1.00  0.00     0.124 A 
ATOM     99  F   UNL     1       1.952  -8.300  -6.053  1.00  0.00    -0.207 F 
ENDBRANCH  89  92
BRANCH  90 100
ATOM    100  O   UNL     1       1.426  -1.577  -9.623  1.00  0.00    -0.496 OA
ATOM    101  H   UNL     1       0.899  -0.833  -9.407  1.00  0.00     0.294 HD
ENDBRANCH  90 100
ENDBRANCH  81  83
ENDBRANCH  80  81
ENDBRANCH  79  80
ENDBRANCH  78  79
ENDBRANCH  77  78
ENDBRANCH  76  77
ENDBRANCH  75  76
ENDBRANCH  74  75
ENDBRANCH   1  74
TORSDOF 22
