REMARK SMILES O=C(CCCC[C@@H]1CCSS1)OCCOCCOCCOCCOC(=O)c1ccc(-c2c3nc(c(-c4c(F)c(F)c(F)c(F)c4F)c4ccc([nH]4)c(-c4c(F)c(F)c(F)c(F)c4F)c4nc(c(-c5c(F)c(F)c(F)c(F)c5F)c5ccc2[nH]5)C=C4)C=C3)cc1
REMARK SMILES IDX 17 1 16 2 15 3 14 4 13 5 12 6 2 7 1 8 3 9 4 10 5 11 6 12
REMARK SMILES IDX 7 13 8 14 11 15 9 16 10 17 18 18 19 19 20 20 21 21 22 22
REMARK SMILES IDX 23 23 24 24 25 25 26 26 27 27 28 28 89 29 29 30 88 31 30 32
REMARK SMILES IDX 31 33 32 34 82 35 33 36 87 37 81 38 83 39 34 40 86 41 80 42
REMARK SMILES IDX 79 43 35 45 67 46 47 47 66 48 48 49 51 50 65 51 84 52 49 53
REMARK SMILES IDX 50 54 64 56 85 57 52 58 36 59 37 60 45 61 38 62 39 63 43 64
REMARK SMILES IDX 46 65 40 66 41 67 44 68 42 69 68 70 69 71 77 72 70 73 71 74
REMARK SMILES IDX 75 75 78 76 72 77 73 78 76 79 74 80 53 81 54 82 62 83 55 84
REMARK SMILES IDX 56 85 60 86 63 87 57 88 58 89 61 90 59 91
REMARK H PARENT 83 44 51 55
REMARK Flexibility Score: inf
ROOT
ATOM      1  C   UNL     1       2.238   2.962   0.642  1.00  0.00     0.188 C 
ENDROOT
BRANCH   1   2
ATOM      2  C   UNL     1       2.467   1.475   0.882  1.00  0.00     0.188 C 
BRANCH   2   3
ATOM      3  O   UNL     1       3.491   0.867   0.095  1.00  0.00    -0.376 OA
BRANCH   3   4
ATOM      4  C   UNL     1       3.572   1.201  -1.272  1.00  0.00     0.202 C 
BRANCH   4   5
ATOM      5  C   UNL     1       3.551  -0.040  -2.146  1.00  0.00     0.261 C 
BRANCH   5   6
ATOM      6  O   UNL     1       2.519  -1.017  -1.907  1.00  0.00    -0.463 OA
BRANCH   6   7
ATOM      7  C   UNL     1       2.015  -1.386  -0.713  1.00  0.00     0.305 C 
ATOM      8  O   UNL     1       0.792  -1.387  -0.561  1.00  0.00    -0.252 OA
BRANCH   7   9
ATOM      9  C   UNL     1       2.918  -1.871   0.410  1.00  0.00     0.123 C 
BRANCH   9  10
ATOM     10  C   UNL     1       3.971  -2.929   0.128  1.00  0.00     0.012 C 
BRANCH  10  11
ATOM     11  C   UNL     1       5.317  -2.491  -0.455  1.00  0.00     0.002 C 
BRANCH  11  12
ATOM     12  C   UNL     1       6.124  -1.390   0.255  1.00  0.00     0.015 C 
BRANCH  12  13
ATOM     13  C   UNL     1       6.769  -1.699   1.622  1.00  0.00     0.059 C 
ATOM     14  C   UNL     1       6.985  -3.182   1.959  1.00  0.00     0.027 C 
ATOM     15  S   UNL     1       5.816  -0.921   2.972  1.00  0.00    -0.091 SA
ATOM     16  C   UNL     1       7.136  -3.410   3.459  1.00  0.00     0.083 C 
ATOM     17  S   UNL     1       5.771  -2.523   4.233  1.00  0.00    -0.094 SA
ENDBRANCH  12  13
ENDBRANCH  11  12
ENDBRANCH  10  11
ENDBRANCH   9  10
ENDBRANCH   7   9
ENDBRANCH   6   7
ENDBRANCH   5   6
ENDBRANCH   4   5
ENDBRANCH   3   4
ENDBRANCH   2   3
ENDBRANCH   1   2
BRANCH   1  18
ATOM     18  O   UNL     1       3.327   3.863   0.828  1.00  0.00    -0.377 OA
BRANCH  18  19
ATOM     19  C   UNL     1       4.645   3.380   1.026  1.00  0.00     0.188 C 
BRANCH  19  20
ATOM     20  C   UNL     1       5.256   3.656   2.404  1.00  0.00     0.188 C 
BRANCH  20  21
ATOM     21  O   UNL     1       4.488   3.333   3.550  1.00  0.00    -0.376 OA
BRANCH  21  22
ATOM     22  C   UNL     1       3.241   3.994   3.744  1.00  0.00     0.202 C 
BRANCH  22  23
ATOM     23  C   UNL     1       3.159   5.529   3.623  1.00  0.00     0.261 C 
BRANCH  23  24
ATOM     24  O   UNL     1       3.381   6.042   2.293  1.00  0.00    -0.460 OA
BRANCH  24  25
ATOM     25  C   UNL     1       4.505   6.775   2.097  1.00  0.00     0.338 C 
ATOM     26  O   UNL     1       5.310   7.126   2.936  1.00  0.00    -0.246 OA
BRANCH  25  27
ATOM     27  C   UNL     1       4.742   6.959   0.646  1.00  0.00     0.060 A 
ATOM     28  C   UNL     1       5.950   6.503   0.092  1.00  0.00     0.016 A 
ATOM     29  C   UNL     1       3.829   7.654  -0.144  1.00  0.00     0.016 A 
ATOM     30  C   UNL     1       6.252   6.745  -1.251  1.00  0.00     0.010 A 
ATOM     31  C   UNL     1       4.149   7.933  -1.477  1.00  0.00     0.010 A 
ATOM     32  C   UNL     1       5.373   7.505  -2.030  1.00  0.00    -0.014 A 
BRANCH  32  33
ATOM     33  C   UNL     1       5.811   8.081  -3.326  1.00  0.00     0.031 A 
ATOM     34  C   UNL     1       6.382   9.471  -3.315  1.00  0.00     0.074 A 
ATOM     35  C   UNL     1       5.647   7.433  -4.491  1.00  0.00     0.049 A 
ATOM     36  N   UNL     1       6.646  10.277  -4.311  1.00  0.00    -0.248 NA
ATOM     37  C   UNL     1       6.677  10.033  -1.988  1.00  0.00     0.031 C 
ATOM     38  C   UNL     1       5.155   6.067  -4.636  1.00  0.00     0.029 A 
ATOM     39  N   UNL     1       5.842   7.864  -5.782  1.00  0.00    -0.354 N 
ATOM     40  C   UNL     1       7.106  11.451  -3.729  1.00  0.00     0.074 A 
ATOM     41  C   UNL     1       7.073  11.257  -2.296  1.00  0.00     0.031 C 
ATOM     42  C   UNL     1       5.039   5.786  -5.946  1.00  0.00     0.029 A 
ATOM     43  C   UNL     1       5.404   6.969  -6.728  1.00  0.00     0.049 A 
ATOM     44  H   UNL     1       6.255   8.729  -6.007  1.00  0.00     0.167 HD
ATOM     45  C   UNL     1       7.508  12.593  -4.336  1.00  0.00     0.037 A 
ATOM     46  C   UNL     1       5.265   7.110  -8.062  1.00  0.00     0.037 A 
ATOM     47  C   UNL     1       7.524  12.784  -5.762  1.00  0.00     0.049 A 
ATOM     48  C   UNL     1       5.651   8.413  -8.720  1.00  0.00     0.074 A 
ATOM     49  C   UNL     1       7.942  13.889  -6.479  1.00  0.00     0.029 A 
ATOM     50  N   UNL     1       7.078  11.851  -6.687  1.00  0.00    -0.354 N 
ATOM     51  N   UNL     1       6.110   9.513  -8.173  1.00  0.00    -0.248 NA
ATOM     52  C   UNL     1       5.498   8.494 -10.181  1.00  0.00     0.031 C 
ATOM     53  C   UNL     1       7.681  13.655  -7.832  1.00  0.00     0.029 A 
ATOM     54  C   UNL     1       7.176  12.370  -7.967  1.00  0.00     0.049 A 
ATOM     55  H   UNL     1       6.741  10.952  -6.466  1.00  0.00     0.167 HD
ATOM     56  C   UNL     1       6.330  10.402  -9.220  1.00  0.00     0.074 A 
ATOM     57  C   UNL     1       5.954   9.714 -10.436  1.00  0.00     0.031 C 
ATOM     58  C   UNL     1       6.809  11.671  -9.174  1.00  0.00     0.037 A 
BRANCH  45  59
ATOM     59  C   UNL     1       7.899  13.741  -3.449  1.00  0.00     0.064 A 
ATOM     60  C   UNL     1       9.040  13.699  -2.633  1.00  0.00     0.173 A 
ATOM     61  C   UNL     1       7.106  14.897  -3.404  1.00  0.00     0.173 A 
ATOM     62  F   UNL     1       9.828  12.612  -2.626  1.00  0.00    -0.203 F 
ATOM     63  C   UNL     1       9.343  14.749  -1.769  1.00  0.00     0.198 A 
ATOM     64  C   UNL     1       7.433  15.962  -2.569  1.00  0.00     0.198 A 
ATOM     65  F   UNL     1       6.006  14.995  -4.167  1.00  0.00    -0.203 F 
ATOM     66  F   UNL     1      10.394  14.654  -0.944  1.00  0.00    -0.200 F 
ATOM     67  C   UNL     1       8.542  15.881  -1.742  1.00  0.00     0.200 A 
ATOM     68  F   UNL     1       6.667  17.061  -2.557  1.00  0.00    -0.200 F 
ATOM     69  F   UNL     1       8.832  16.889  -0.908  1.00  0.00    -0.200 F 
ENDBRANCH  45  59
BRANCH  46  70
ATOM     70  C   UNL     1       4.695   5.991  -8.860  1.00  0.00     0.064 A 
ATOM     71  C   UNL     1       5.485   5.265  -9.761  1.00  0.00     0.173 A 
ATOM     72  C   UNL     1       3.350   5.615  -8.724  1.00  0.00     0.173 A 
ATOM     73  F   UNL     1       6.769   5.603  -9.949  1.00  0.00    -0.203 F 
ATOM     74  C   UNL     1       4.951   4.208 -10.497  1.00  0.00     0.198 A 
ATOM     75  C   UNL     1       2.825   4.540  -9.437  1.00  0.00     0.198 A 
ATOM     76  F   UNL     1       2.549   6.280  -7.878  1.00  0.00    -0.203 F 
ATOM     77  F   UNL     1       5.720   3.550 -11.375  1.00  0.00    -0.200 F 
ATOM     78  C   UNL     1       3.625   3.839 -10.326  1.00  0.00     0.200 A 
ATOM     79  F   UNL     1       1.547   4.178  -9.258  1.00  0.00    -0.200 F 
ATOM     80  F   UNL     1       3.118   2.810 -11.020  1.00  0.00    -0.200 F 
ENDBRANCH  46  70
BRANCH  58  81
ATOM     81  C   UNL     1       7.014  12.396 -10.476  1.00  0.00     0.064 A 
ATOM     82  C   UNL     1       5.940  12.871 -11.241  1.00  0.00     0.173 A 
ATOM     83  C   UNL     1       8.314  12.697 -10.914  1.00  0.00     0.173 A 
ATOM     84  F   UNL     1       4.678  12.602 -10.875  1.00  0.00    -0.203 F 
ATOM     85  C   UNL     1       6.160  13.612 -12.401  1.00  0.00     0.198 A 
ATOM     86  C   UNL     1       8.530  13.465 -12.055  1.00  0.00     0.198 A 
ATOM     87  F   UNL     1       9.378  12.273 -10.215  1.00  0.00    -0.203 F 
ATOM     88  F   UNL     1       5.119  14.029 -13.135  1.00  0.00    -0.200 F 
ATOM     89  C   UNL     1       7.453  13.918 -12.799  1.00  0.00     0.200 A 
ATOM     90  F   UNL     1       9.780  13.775 -12.425  1.00  0.00    -0.200 F 
ATOM     91  F   UNL     1       7.661  14.650 -13.903  1.00  0.00    -0.200 F 
ENDBRANCH  58  81
ENDBRANCH  32  33
ENDBRANCH  25  27
ENDBRANCH  24  25
ENDBRANCH  23  24
ENDBRANCH  22  23
ENDBRANCH  21  22
ENDBRANCH  20  21
ENDBRANCH  19  20
ENDBRANCH  18  19
ENDBRANCH   1  18
TORSDOF 24
