REMARK SMILES Cc1cc(F)cc(NC(=O)N[C@@H]2COC[C@H]2C(=O)OCCOCCOCCOCCOC(=O)c2ccc(-c3c4nc(c(-c5c(F)c(F)c(F)c(F)c5F)c5ccc([nH]5)c(-c5c(F)c(F)c(F)c(F)c5F)c5nc(c(-c6c(F)c(F)c(F)c(F)c6F)c6ccc3[nH]6)C=C5)C=C4)cc2)c1
REMARK SMILES IDX 25 1 24 2 23 3 22 4 21 5 20 6 19 7 17 8 18 9 16 10 12 11
REMARK SMILES IDX 13 12 14 13 15 14 11 15 8 16 9 17 10 19 7 21 1 22 2 23 3 24
REMARK SMILES IDX 97 25 4 26 5 27 6 28 26 29 27 30 28 31 29 32 30 33 31 34
REMARK SMILES IDX 32 35 33 36 34 37 35 38 96 39 36 40 95 41 37 42 38 43 39 44
REMARK SMILES IDX 89 45 40 46 94 47 88 48 90 49 41 50 93 51 87 52 86 53 42 55
REMARK SMILES IDX 74 56 54 57 73 58 55 59 58 60 72 61 91 62 56 63 57 64 71 66
REMARK SMILES IDX 92 67 59 68 43 69 44 70 52 71 45 72 46 73 50 74 53 75 47 76
REMARK SMILES IDX 48 77 51 78 49 79 75 80 76 81 84 82 77 83 78 84 82 85 85 86
REMARK SMILES IDX 79 87 80 88 83 89 81 90 60 91 61 92 69 93 62 94 63 95 67 96
REMARK SMILES IDX 70 97 64 98 65 99 68 100 66 101
REMARK H PARENT 8 18 11 20 90 54 58 65
REMARK Flexibility Score: inf
ROOT
ATOM      1  O   UNL     1      -3.549  -3.792   2.351  1.00  0.00    -0.377 OA
ENDROOT
BRANCH   1   2
ATOM      2  C   UNL     1      -2.403  -3.525   3.157  1.00  0.00     0.188 C 
BRANCH   2   3
ATOM      3  C   UNL     1      -2.623  -2.924   4.549  1.00  0.00     0.188 C 
BRANCH   3   4
ATOM      4  O   UNL     1      -3.909  -3.194   5.069  1.00  0.00    -0.376 OA
BRANCH   4   5
ATOM      5  C   UNL     1      -4.770  -2.081   5.243  1.00  0.00     0.202 C 
BRANCH   5   6
ATOM      6  C   UNL     1      -5.159  -1.160   4.058  1.00  0.00     0.261 C 
BRANCH   6   7
ATOM      7  O   UNL     1      -4.522  -1.340   2.778  1.00  0.00    -0.463 OA
BRANCH   7   8
ATOM      8  C   UNL     1      -3.485  -0.512   2.513  1.00  0.00     0.313 C 
ATOM      9  O   UNL     1      -3.034   0.283   3.336  1.00  0.00    -0.252 OA
BRANCH   8  10
ATOM     10  C   UNL     1      -2.951  -0.537   1.095  1.00  0.00     0.150 C 
ATOM     11  C   UNL     1      -3.188  -1.678   0.124  1.00  0.00     0.126 C 
ATOM     12  C   UNL     1      -3.494  -1.032  -1.226  1.00  0.00     0.186 C 
ATOM     13  O   UNL     1      -3.647   0.372  -1.018  1.00  0.00    -0.378 OA
ATOM     14  C   UNL     1      -3.610   0.638   0.388  1.00  0.00     0.177 C 
BRANCH  11  15
ATOM     15  N   UNL     1      -2.180  -2.751   0.000  1.00  0.00    -0.332 N 
ATOM     16  N   UNL     1       0.177  -2.279  -0.272  1.00  0.00    -0.308 N 
ATOM     17  C   UNL     1      -0.907  -3.045  -0.215  1.00  0.00     0.319 C 
ATOM     18  H   UNL     1       0.975  -2.854  -0.303  1.00  0.00     0.171 HD
ATOM     19  O   UNL     1      -0.670  -4.261  -0.308  1.00  0.00    -0.248 OA
ATOM     20  H   UNL     1      -2.652  -3.604   0.133  1.00  0.00     0.165 HD
BRANCH  16  21
ATOM     21  C   UNL     1       0.581  -0.940  -0.302  1.00  0.00     0.046 A 
ATOM     22  C   UNL     1       3.912   0.925   0.110  1.00  0.00     0.044 C 
ATOM     23  C   UNL     1       2.450   0.639  -0.065  1.00  0.00    -0.046 A 
ATOM     24  C   UNL     1       1.558   1.701  -0.211  1.00  0.00     0.042 A 
ATOM     25  C   UNL     1       1.949  -0.676  -0.089  1.00  0.00     0.029 A 
ATOM     26  C   UNL     1       0.225   1.434  -0.474  1.00  0.00     0.125 A 
ATOM     27  F   UNL     1      -0.630   2.450  -0.648  1.00  0.00    -0.207 F 
ATOM     28  C   UNL     1      -0.244   0.129  -0.572  1.00  0.00     0.065 A 
ENDBRANCH  16  21
ENDBRANCH  11  15
ENDBRANCH   8  10
ENDBRANCH   7   8
ENDBRANCH   6   7
ENDBRANCH   5   6
ENDBRANCH   4   5
ENDBRANCH   3   4
ENDBRANCH   2   3
ENDBRANCH   1   2
BRANCH   1  29
ATOM     29  C   UNL     1      -4.601  -4.575   2.908  1.00  0.00     0.188 C 
BRANCH  29  30
ATOM     30  C   UNL     1      -4.237  -5.873   3.651  1.00  0.00     0.188 C 
BRANCH  30  31
ATOM     31  O   UNL     1      -2.872  -6.258   3.544  1.00  0.00    -0.376 OA
BRANCH  31  32
ATOM     32  C   UNL     1      -2.551  -7.265   2.593  1.00  0.00     0.202 C 
BRANCH  32  33
ATOM     33  C   UNL     1      -2.551  -6.831   1.121  1.00  0.00     0.261 C 
BRANCH  33  34
ATOM     34  O   UNL     1      -3.756  -6.208   0.676  1.00  0.00    -0.460 OA
BRANCH  34  35
ATOM     35  C   UNL     1      -4.842  -6.984   0.778  1.00  0.00     0.338 C 
ATOM     36  O   UNL     1      -4.896  -8.150   1.169  1.00  0.00    -0.246 OA
BRANCH  35  37
ATOM     37  C   UNL     1      -6.020  -6.246   0.274  1.00  0.00     0.060 A 
ATOM     38  C   UNL     1      -7.201  -6.661   0.911  1.00  0.00     0.016 A 
ATOM     39  C   UNL     1      -5.925  -6.136  -1.110  1.00  0.00     0.016 A 
ATOM     40  C   UNL     1      -8.029  -7.496   0.199  1.00  0.00     0.010 A 
ATOM     41  C   UNL     1      -6.728  -6.987  -1.820  1.00  0.00     0.010 A 
ATOM     42  C   UNL     1      -7.678  -7.748  -1.124  1.00  0.00    -0.014 A 
BRANCH  42  43
ATOM     43  C   UNL     1      -8.209  -8.874  -1.848  1.00  0.00     0.031 A 
ATOM     44  C   UNL     1      -9.470  -8.690  -2.555  1.00  0.00     0.074 A 
ATOM     45  C   UNL     1      -7.510 -10.025  -1.871  1.00  0.00     0.049 A 
ATOM     46  N   UNL     1     -10.259  -9.643  -2.899  1.00  0.00    -0.248 NA
ATOM     47  C   UNL     1      -9.989  -7.359  -2.838  1.00  0.00     0.031 C 
ATOM     48  C   UNL     1      -7.705 -11.156  -2.764  1.00  0.00     0.029 A 
ATOM     49  N   UNL     1      -6.576 -10.467  -0.927  1.00  0.00    -0.354 N 
ATOM     50  C   UNL     1     -11.230  -9.090  -3.698  1.00  0.00     0.074 A 
ATOM     51  C   UNL     1     -11.093  -7.664  -3.519  1.00  0.00     0.031 C 
ATOM     52  C   UNL     1      -7.109 -12.233  -2.228  1.00  0.00     0.029 A 
ATOM     53  C   UNL     1      -6.659 -11.872  -0.892  1.00  0.00     0.049 A 
ATOM     54  H   UNL     1      -5.975  -9.902  -0.390  1.00  0.00     0.167 HD
ATOM     55  C   UNL     1     -11.918  -9.916  -4.537  1.00  0.00     0.037 A 
ATOM     56  C   UNL     1      -7.087 -12.485   0.250  1.00  0.00     0.037 A 
ATOM     57  C   UNL     1     -11.578 -11.319  -4.273  1.00  0.00     0.049 A 
ATOM     58  C   UNL     1      -8.458 -13.130   0.143  1.00  0.00     0.074 A 
ATOM     59  C   UNL     1     -10.687 -12.218  -4.839  1.00  0.00     0.029 A 
ATOM     60  N   UNL     1     -11.938 -11.865  -3.053  1.00  0.00    -0.354 N 
ATOM     61  N   UNL     1      -9.233 -13.060  -0.905  1.00  0.00    -0.248 NA
ATOM     62  C   UNL     1      -9.097 -13.833   1.258  1.00  0.00     0.031 C 
ATOM     63  C   UNL     1     -10.491 -13.291  -3.917  1.00  0.00     0.029 A 
ATOM     64  C   UNL     1     -11.273 -13.050  -2.802  1.00  0.00     0.049 A 
ATOM     65  H   UNL     1     -12.590 -11.457  -2.438  1.00  0.00     0.167 HD
ATOM     66  C   UNL     1     -10.434 -13.652  -0.625  1.00  0.00     0.074 A 
ATOM     67  C   UNL     1     -10.306 -14.113   0.745  1.00  0.00     0.031 C 
ATOM     68  C   UNL     1     -11.465 -13.704  -1.517  1.00  0.00     0.037 A 
BRANCH  55  69
ATOM     69  C   UNL     1     -12.644  -9.437  -5.774  1.00  0.00     0.064 A 
ATOM     70  C   UNL     1     -12.823 -10.308  -6.868  1.00  0.00     0.173 A 
ATOM     71  C   UNL     1     -13.113  -8.126  -5.992  1.00  0.00     0.173 A 
ATOM     72  F   UNL     1     -12.539 -11.614  -6.775  1.00  0.00    -0.203 F 
ATOM     73  C   UNL     1     -13.304  -9.872  -8.106  1.00  0.00     0.198 A 
ATOM     74  C   UNL     1     -13.539  -7.674  -7.244  1.00  0.00     0.198 A 
ATOM     75  F   UNL     1     -13.249  -7.249  -4.994  1.00  0.00    -0.203 F 
ATOM     76  F   UNL     1     -13.442 -10.748  -9.110  1.00  0.00    -0.200 F 
ATOM     77  C   UNL     1     -13.623  -8.545  -8.306  1.00  0.00     0.200 A 
ATOM     78  F   UNL     1     -13.875  -6.385  -7.404  1.00  0.00    -0.200 F 
ATOM     79  F   UNL     1     -14.043  -8.117  -9.503  1.00  0.00    -0.200 F 
ENDBRANCH  55  69
BRANCH  56  80
ATOM     80  C   UNL     1      -6.537 -11.873   1.489  1.00  0.00     0.064 A 
ATOM     81  C   UNL     1      -5.150 -11.943   1.724  1.00  0.00     0.173 A 
ATOM     82  C   UNL     1      -7.282 -10.991   2.281  1.00  0.00     0.173 A 
ATOM     83  F   UNL     1      -4.386 -12.765   0.987  1.00  0.00    -0.203 F 
ATOM     84  C   UNL     1      -4.530 -11.128   2.669  1.00  0.00     0.198 A 
ATOM     85  C   UNL     1      -6.659 -10.178   3.230  1.00  0.00     0.198 A 
ATOM     86  F   UNL     1      -8.605 -10.867   2.098  1.00  0.00    -0.203 F 
ATOM     87  F   UNL     1      -3.198 -11.170   2.821  1.00  0.00    -0.200 F 
ATOM     88  C   UNL     1      -5.286 -10.240   3.416  1.00  0.00     0.200 A 
ATOM     89  F   UNL     1      -7.386  -9.299   3.935  1.00  0.00    -0.200 F 
ATOM     90  F   UNL     1      -4.691  -9.425   4.299  1.00  0.00    -0.200 F 
ENDBRANCH  56  80
BRANCH  68  91
ATOM     91  C   UNL     1     -12.755 -14.414  -1.232  1.00  0.00     0.064 A 
ATOM     92  C   UNL     1     -12.785 -15.713  -0.702  1.00  0.00     0.173 A 
ATOM     93  C   UNL     1     -13.997 -13.864  -1.610  1.00  0.00     0.173 A 
ATOM     94  F   UNL     1     -11.650 -16.342  -0.362  1.00  0.00    -0.203 F 
ATOM     95  C   UNL     1     -13.986 -16.404  -0.527  1.00  0.00     0.198 A 
ATOM     96  C   UNL     1     -15.187 -14.578  -1.490  1.00  0.00     0.198 A 
ATOM     97  F   UNL     1     -14.093 -12.613  -2.081  1.00  0.00    -0.203 F 
ATOM     98  F   UNL     1     -13.977 -17.621   0.033  1.00  0.00    -0.200 F 
ATOM     99  C   UNL     1     -15.183 -15.843  -0.936  1.00  0.00     0.200 A 
ATOM    100  F   UNL     1     -16.336 -14.029  -1.909  1.00  0.00    -0.200 F 
ATOM    101  F   UNL     1     -16.331 -16.518  -0.794  1.00  0.00    -0.200 F 
ENDBRANCH  68  91
ENDBRANCH  42  43
ENDBRANCH  35  37
ENDBRANCH  34  35
ENDBRANCH  33  34
ENDBRANCH  32  33
ENDBRANCH  31  32
ENDBRANCH  30  31
ENDBRANCH  29  30
ENDBRANCH   1  29
TORSDOF 22
