REMARK SMILES O=C(OCCOCCOCCOCCOC(=O)c1nccnc1C(=O)Nc1n[nH]c2ncccc12)c1ccc(-c2c3nc(c(-c4c(F)c(F)c(F)c(F)c4F)c4ccc([nH]4)c(-c4c(F)c(F)c(F)c(F)c4F)c4nc(c(-c5c(F)c(F)c(F)c(F)c5F)c5ccc2[nH]5)C=C4)C=C3)cc1
REMARK SMILES IDX 9 1 8 2 7 3 6 4 5 5 4 6 3 7 2 8 1 9 36 10 37 11 98 12 38 13
REMARK SMILES IDX 97 14 39 15 40 16 41 17 91 18 42 19 96 20 90 21 92 22 43 23
REMARK SMILES IDX 95 24 89 25 88 26 44 28 76 29 56 30 75 31 57 32 60 33 74 34
REMARK SMILES IDX 93 35 58 36 59 37 73 39 94 40 61 41 45 42 46 43 54 44 47 45
REMARK SMILES IDX 48 46 52 47 55 48 49 49 50 50 53 51 51 52 77 53 78 54 86 55
REMARK SMILES IDX 79 56 80 57 84 58 87 59 81 60 82 61 85 62 83 63 62 64 63 65
REMARK SMILES IDX 71 66 64 67 65 68 69 69 72 70 66 71 67 72 70 73 68 74 10 75
REMARK SMILES IDX 11 76 12 77 13 78 14 79 15 80 16 81 17 82 18 83 19 84 23 85
REMARK SMILES IDX 20 86 22 87 21 88 24 89 25 90 26 91 27 93 28 94 35 95 29 96
REMARK SMILES IDX 30 97 34 98 31 100 33 101 32 102
REMARK H PARENT 92 27 60 38 26 92 29 99
REMARK Flexibility Score: inf
ROOT
ATOM      1  O   UNL     1       3.432   1.830  -1.653  1.00  0.00    -0.377 OA
ENDROOT
BRANCH   1   2
ATOM      2  C   UNL     1       2.086   1.369  -1.641  1.00  0.00     0.188 C 
BRANCH   2   3
ATOM      3  C   UNL     1       1.825   0.411  -0.503  1.00  0.00     0.188 C 
BRANCH   3   4
ATOM      4  O   UNL     1       3.037  -0.226  -0.132  1.00  0.00    -0.376 OA
BRANCH   4   5
ATOM      5  C   UNL     1       3.387  -1.416  -0.807  1.00  0.00     0.202 C 
BRANCH   5   6
ATOM      6  C   UNL     1       3.728  -2.462   0.258  1.00  0.00     0.261 C 
BRANCH   6   7
ATOM      7  O   UNL     1       2.701  -2.602   1.272  1.00  0.00    -0.460 OA
BRANCH   7   8
ATOM      8  C   UNL     1       2.133  -1.619   2.019  1.00  0.00     0.338 C 
ATOM      9  O   UNL     1       0.935  -1.706   2.289  1.00  0.00    -0.246 OA
BRANCH   8  10
ATOM     10  C   UNL     1       2.913  -0.492   2.653  1.00  0.00     0.060 A 
ATOM     11  C   UNL     1       4.202  -0.080   2.293  1.00  0.00     0.016 A 
ATOM     12  C   UNL     1       2.264   0.229   3.677  1.00  0.00     0.016 A 
ATOM     13  C   UNL     1       4.835   0.986   2.925  1.00  0.00     0.010 A 
ATOM     14  C   UNL     1       2.912   1.264   4.363  1.00  0.00     0.010 A 
ATOM     15  C   UNL     1       4.222   1.603   4.013  1.00  0.00    -0.014 A 
BRANCH  15  16
ATOM     16  C   UNL     1       5.121   2.270   4.973  1.00  0.00     0.031 A 
ATOM     17  C   UNL     1       5.767   1.377   5.997  1.00  0.00     0.074 A 
ATOM     18  C   UNL     1       5.471   3.557   4.831  1.00  0.00     0.049 A 
ATOM     19  N   UNL     1       6.634   1.662   6.930  1.00  0.00    -0.248 NA
ATOM     20  C   UNL     1       5.403  -0.052   5.935  1.00  0.00     0.031 C 
ATOM     21  C   UNL     1       5.002   4.451   3.775  1.00  0.00     0.029 A 
ATOM     22  N   UNL     1       6.334   4.325   5.567  1.00  0.00    -0.354 N 
ATOM     23  C   UNL     1       6.907   0.455   7.561  1.00  0.00     0.074 A 
ATOM     24  C   UNL     1       6.124  -0.567   6.913  1.00  0.00     0.031 C 
ATOM     25  C   UNL     1       5.592   5.651   3.927  1.00  0.00     0.029 A 
ATOM     26  C   UNL     1       6.442   5.617   5.115  1.00  0.00     0.049 A 
ATOM     27  H   UNL     1       6.829   3.983   6.346  1.00  0.00     0.167 HD
ATOM     28  C   UNL     1       7.732   0.224   8.607  1.00  0.00     0.037 A 
ATOM     29  C   UNL     1       7.139   6.646   5.634  1.00  0.00     0.037 A 
ATOM     30  C   UNL     1       8.471   1.265   9.260  1.00  0.00     0.049 A 
ATOM     31  C   UNL     1       7.955   6.391   6.879  1.00  0.00     0.074 A 
ATOM     32  C   UNL     1       9.269   1.191  10.384  1.00  0.00     0.029 A 
ATOM     33  N   UNL     1       8.483   2.588   8.835  1.00  0.00    -0.354 N 
ATOM     34  N   UNL     1       8.165   5.263   7.518  1.00  0.00    -0.248 NA
ATOM     35  C   UNL     1       8.619   7.553   7.484  1.00  0.00     0.031 C 
ATOM     36  C   UNL     1       9.724   2.483  10.669  1.00  0.00     0.029 A 
ATOM     37  C   UNL     1       9.259   3.349   9.689  1.00  0.00     0.049 A 
ATOM     38  H   UNL     1       8.010   2.932   8.044  1.00  0.00     0.167 HD
ATOM     39  C   UNL     1       9.005   5.570   8.579  1.00  0.00     0.074 A 
ATOM     40  C   UNL     1       9.276   6.992   8.490  1.00  0.00     0.031 C 
ATOM     41  C   UNL     1       9.508   4.761   9.545  1.00  0.00     0.037 A 
BRANCH  28  42
ATOM     42  C   UNL     1       7.768  -1.177   9.142  1.00  0.00     0.064 A 
ATOM     43  C   UNL     1       8.370  -2.230   8.436  1.00  0.00     0.173 A 
ATOM     44  C   UNL     1       7.111  -1.483  10.343  1.00  0.00     0.173 A 
ATOM     45  F   UNL     1       8.974  -1.997   7.260  1.00  0.00    -0.203 F 
ATOM     46  C   UNL     1       8.282  -3.542   8.896  1.00  0.00     0.198 A 
ATOM     47  C   UNL     1       7.049  -2.792  10.813  1.00  0.00     0.198 A 
ATOM     48  F   UNL     1       6.503  -0.517  11.046  1.00  0.00    -0.203 F 
ATOM     49  F   UNL     1       8.800  -4.542   8.168  1.00  0.00    -0.200 F 
ATOM     50  C   UNL     1       7.624  -3.822  10.084  1.00  0.00     0.200 A 
ATOM     51  F   UNL     1       6.410  -3.060  11.960  1.00  0.00    -0.200 F 
ATOM     52  F   UNL     1       7.525  -5.087  10.516  1.00  0.00    -0.200 F 
ENDBRANCH  28  42
BRANCH  29  53
ATOM     53  C   UNL     1       7.071   7.999   5.017  1.00  0.00     0.064 A 
ATOM     54  C   UNL     1       8.207   8.611   4.468  1.00  0.00     0.173 A 
ATOM     55  C   UNL     1       5.871   8.728   4.993  1.00  0.00     0.173 A 
ATOM     56  F   UNL     1       9.387   7.973   4.489  1.00  0.00    -0.203 F 
ATOM     57  C   UNL     1       8.150   9.900   3.937  1.00  0.00     0.198 A 
ATOM     58  C   UNL     1       5.808  10.004   4.436  1.00  0.00     0.198 A 
ATOM     59  F   UNL     1       4.753   8.200   5.513  1.00  0.00    -0.203 F 
ATOM     60  F   UNL     1       9.264  10.479   3.468  1.00  0.00    -0.200 F 
ATOM     61  C   UNL     1       6.950  10.593   3.916  1.00  0.00     0.200 A 
ATOM     62  F   UNL     1       4.643  10.666   4.411  1.00  0.00    -0.200 F 
ATOM     63  F   UNL     1       6.896  11.833   3.409  1.00  0.00    -0.200 F 
ENDBRANCH  29  53
BRANCH  41  64
ATOM     64  C   UNL     1      10.433   5.388  10.545  1.00  0.00     0.064 A 
ATOM     65  C   UNL     1       9.961   6.244  11.549  1.00  0.00     0.173 A 
ATOM     66  C   UNL     1      11.801   5.075  10.528  1.00  0.00     0.173 A 
ATOM     67  F   UNL     1       8.662   6.577  11.597  1.00  0.00    -0.203 F 
ATOM     68  C   UNL     1      10.832   6.787  12.487  1.00  0.00     0.198 A 
ATOM     69  C   UNL     1      12.663   5.595  11.487  1.00  0.00     0.198 A 
ATOM     70  F   UNL     1      12.295   4.250   9.593  1.00  0.00    -0.203 F 
ATOM     71  F   UNL     1      10.370   7.640  13.412  1.00  0.00    -0.200 F 
ATOM     72  C   UNL     1      12.180   6.457  12.461  1.00  0.00     0.200 A 
ATOM     73  F   UNL     1      13.960   5.261  11.471  1.00  0.00    -0.200 F 
ATOM     74  F   UNL     1      13.015   6.973  13.372  1.00  0.00    -0.200 F 
ENDBRANCH  41  64
ENDBRANCH  15  16
ENDBRANCH   8  10
ENDBRANCH   7   8
ENDBRANCH   6   7
ENDBRANCH   5   6
ENDBRANCH   4   5
ENDBRANCH   3   4
ENDBRANCH   2   3
ENDBRANCH   1   2
BRANCH   1  75
ATOM     75  C   UNL     1       3.900   2.643  -0.586  1.00  0.00     0.188 C 
BRANCH  75  76
ATOM     76  C   UNL     1       3.288   4.059  -0.525  1.00  0.00     0.188 C 
BRANCH  76  77
ATOM     77  O   UNL     1       3.680   4.901  -1.635  1.00  0.00    -0.376 OA
BRANCH  77  78
ATOM     78  C   UNL     1       2.590   5.429  -2.422  1.00  0.00     0.202 C 
BRANCH  78  79
ATOM     79  C   UNL     1       3.089   6.255  -3.662  1.00  0.00     0.261 C 
BRANCH  79  80
ATOM     80  O   UNL     1       3.457   5.482  -4.854  1.00  0.00    -0.458 OA
BRANCH  80  81
ATOM     81  C   UNL     1       4.718   5.537  -5.404  1.00  0.00     0.359 C 
ATOM     82  O   UNL     1       5.648   6.183  -4.946  1.00  0.00    -0.244 OA
BRANCH  81  83
ATOM     83  C   UNL     1       4.831   4.632  -6.616  1.00  0.00     0.179 A 
ATOM     84  N   UNL     1       3.686   4.524  -7.370  1.00  0.00    -0.245 NA
ATOM     85  C   UNL     1       5.953   3.852  -6.940  1.00  0.00     0.161 A 
ATOM     86  C   UNL     1       3.709   3.626  -8.388  1.00  0.00     0.132 A 
ATOM     87  N   UNL     1       5.949   2.943  -7.975  1.00  0.00    -0.247 NA
ATOM     88  C   UNL     1       4.811   2.848  -8.681  1.00  0.00     0.132 A 
BRANCH  85  89
ATOM     89  C   UNL     1       7.221   3.728  -6.170  1.00  0.00     0.278 C 
ATOM     90  O   UNL     1       8.181   4.442  -6.449  1.00  0.00    -0.267 OA
ATOM     91  N   UNL     1       7.345   2.673  -5.264  1.00  0.00    -0.303 N 
ATOM     92  H   UNL     1       8.167   2.135  -5.208  1.00  0.00     0.172 HD
BRANCH  91  93
ATOM     93  C   UNL     1       6.265   2.423  -4.453  1.00  0.00     0.164 A 
ATOM     94  N   UNL     1       6.248   3.151  -3.342  1.00  0.00    -0.155 NA
ATOM     95  C   UNL     1       4.978   1.906  -4.785  1.00  0.00     0.063 A 
ATOM     96  N   UNL     1       4.953   3.455  -3.251  1.00  0.00    -0.259 N 
ATOM     97  C   UNL     1       4.135   2.733  -4.072  1.00  0.00     0.157 A 
ATOM     98  C   UNL     1       4.365   1.026  -5.690  1.00  0.00     0.017 A 
ATOM     99  H   UNL     1       4.613   4.146  -2.639  1.00  0.00     0.192 HD
ATOM    100  N   UNL     1       2.799   2.866  -4.201  1.00  0.00    -0.237 NA
ATOM    101  C   UNL     1       2.967   1.075  -5.807  1.00  0.00     0.021 A 
ATOM    102  C   UNL     1       2.255   2.019  -5.086  1.00  0.00     0.113 A 
ENDBRANCH  91  93
ENDBRANCH  85  89
ENDBRANCH  81  83
ENDBRANCH  80  81
ENDBRANCH  79  80
ENDBRANCH  78  79
ENDBRANCH  77  78
ENDBRANCH  76  77
ENDBRANCH  75  76
ENDBRANCH   1  75
TORSDOF 22
