REMARK SMILES C[C@H](c1ccccc1)N1C(=O)c2ccc(C(=O)OCCOCCOCCOCCOC(=O)c3ccc(-c4c5nc(c(-c6c(F)c(F)c(F)c(F)c6F)c6ccc([nH]6)c(-c6c(F)c(F)c(F)c(F)c6F)c6nc(c(-c7c(F)c(F)c(F)c(F)c7F)c7ccc4[nH]7)C=C6)C=C5)cc3)cc2C1=O
REMARK SMILES IDX 24 1 23 2 22 3 21 4 20 5 19 6 18 7 16 8 17 9 15 10 9 11
REMARK SMILES IDX 10 12 98 13 11 14 12 15 97 16 99 17 13 18 96 19 14 20 2 21
REMARK SMILES IDX 1 22 3 23 4 24 8 25 5 26 7 27 6 28 25 29 26 30 27 31 28 32
REMARK SMILES IDX 29 33 30 34 31 35 32 36 33 37 34 38 95 39 35 40 94 41 36 42
REMARK SMILES IDX 37 43 38 44 88 45 39 46 93 47 87 48 89 49 40 50 92 51 86 52
REMARK SMILES IDX 85 53 41 55 73 56 53 57 72 58 54 59 57 60 71 61 90 62 55 63
REMARK SMILES IDX 56 64 70 66 91 67 58 68 42 69 43 70 51 71 44 72 45 73 49 74
REMARK SMILES IDX 52 75 46 76 47 77 50 78 48 79 74 80 75 81 83 82 76 83 77 84
REMARK SMILES IDX 81 85 84 86 78 87 79 88 82 89 80 90 59 91 60 92 68 93 61 94
REMARK SMILES IDX 62 95 66 96 69 97 63 98 64 99 67 100 65 101
REMARK H PARENT 89 54 57 65
REMARK Flexibility Score: inf
ROOT
ATOM      1  O   UNL     1      -8.108   2.833  -3.091  1.00  0.00    -0.377 OA
ENDROOT
BRANCH   1   2
ATOM      2  C   UNL     1      -7.606   1.508  -3.095  1.00  0.00     0.188 C 
BRANCH   2   3
ATOM      3  C   UNL     1      -8.531   0.359  -2.656  1.00  0.00     0.188 C 
BRANCH   3   4
ATOM      4  O   UNL     1      -9.738   0.776  -2.027  1.00  0.00    -0.376 OA
BRANCH   4   5
ATOM      5  C   UNL     1      -9.801   0.560  -0.622  1.00  0.00     0.202 C 
BRANCH   5   6
ATOM      6  C   UNL     1      -9.021   1.604   0.182  1.00  0.00     0.261 C 
BRANCH   6   7
ATOM      7  O   UNL     1      -7.596   1.507   0.009  1.00  0.00    -0.460 OA
BRANCH   7   8
ATOM      8  C   UNL     1      -6.987   0.438   0.567  1.00  0.00     0.338 C 
ATOM      9  O   UNL     1      -7.486  -0.441   1.241  1.00  0.00    -0.246 OA
BRANCH   8  10
ATOM     10  C   UNL     1      -5.611   0.420   0.042  1.00  0.00     0.060 A 
ATOM     11  N   UNL     1      -1.153   1.209  -0.488  1.00  0.00    -0.267 N 
ATOM     12  C   UNL     1      -1.799   0.728  -1.588  1.00  0.00     0.262 C 
ATOM     13  C   UNL     1      -2.066   1.679   0.423  1.00  0.00     0.262 C 
ATOM     14  O   UNL     1      -1.417   0.547  -2.727  1.00  0.00    -0.269 OA
ATOM     15  C   UNL     1      -3.173   0.497  -1.181  1.00  0.00     0.053 A 
ATOM     16  C   UNL     1      -3.377   1.181   0.002  1.00  0.00     0.054 A 
ATOM     17  O   UNL     1      -1.894   2.369   1.411  1.00  0.00    -0.269 OA
ATOM     18  C   UNL     1      -4.127  -0.319  -1.748  1.00  0.00     0.015 A 
ATOM     19  C   UNL     1      -4.615   1.218   0.617  1.00  0.00     0.030 A 
ATOM     20  C   UNL     1      -5.348  -0.396  -1.085  1.00  0.00     0.016 A 
BRANCH  11  21
ATOM     21  C   UNL     1       0.294   1.370  -0.341  1.00  0.00     0.121 C 
ATOM     22  C   UNL     1       0.840   2.461  -1.263  1.00  0.00     0.037 C 
BRANCH  21  23
ATOM     23  C   UNL     1       1.128   0.083  -0.456  1.00  0.00    -0.025 A 
ATOM     24  C   UNL     1       0.802  -1.011  -1.274  1.00  0.00     0.006 A 
ATOM     25  C   UNL     1       2.349   0.012   0.242  1.00  0.00     0.006 A 
ATOM     26  C   UNL     1       1.656  -2.109  -1.415  1.00  0.00     0.000 A 
ATOM     27  C   UNL     1       3.206  -1.087   0.104  1.00  0.00     0.000 A 
ATOM     28  C   UNL     1       2.863  -2.144  -0.732  1.00  0.00     0.000 A 
ENDBRANCH  21  23
ENDBRANCH  11  21
ENDBRANCH   8  10
ENDBRANCH   7   8
ENDBRANCH   6   7
ENDBRANCH   5   6
ENDBRANCH   4   5
ENDBRANCH   3   4
ENDBRANCH   2   3
ENDBRANCH   1   2
BRANCH   1  29
ATOM     29  C   UNL     1      -9.415   3.094  -3.582  1.00  0.00     0.188 C 
BRANCH  29  30
ATOM     30  C   UNL     1     -10.044   2.193  -4.662  1.00  0.00     0.188 C 
BRANCH  30  31
ATOM     31  O   UNL     1      -9.108   1.427  -5.412  1.00  0.00    -0.376 OA
BRANCH  31  32
ATOM     32  C   UNL     1      -8.926   1.820  -6.766  1.00  0.00     0.202 C 
BRANCH  32  33
ATOM     33  C   UNL     1      -8.003   3.032  -6.916  1.00  0.00     0.261 C 
BRANCH  33  34
ATOM     34  O   UNL     1      -8.525   4.248  -6.355  1.00  0.00    -0.460 OA
BRANCH  34  35
ATOM     35  C   UNL     1      -9.672   4.719  -6.891  1.00  0.00     0.338 C 
ATOM     36  O   UNL     1     -10.298   4.258  -7.828  1.00  0.00    -0.246 OA
BRANCH  35  37
ATOM     37  C   UNL     1     -10.157   5.814  -6.031  1.00  0.00     0.060 A 
ATOM     38  C   UNL     1     -11.451   5.731  -5.505  1.00  0.00     0.016 A 
ATOM     39  C   UNL     1      -9.339   6.910  -5.747  1.00  0.00     0.016 A 
ATOM     40  C   UNL     1     -11.946   6.770  -4.719  1.00  0.00     0.010 A 
ATOM     41  C   UNL     1      -9.842   7.957  -4.973  1.00  0.00     0.010 A 
ATOM     42  C   UNL     1     -11.158   7.905  -4.482  1.00  0.00    -0.014 A 
BRANCH  42  43
ATOM     43  C   UNL     1     -11.771   9.108  -3.874  1.00  0.00     0.031 A 
ATOM     44  C   UNL     1     -12.306  10.178  -4.784  1.00  0.00     0.074 A 
ATOM     45  C   UNL     1     -11.874   9.238  -2.540  1.00  0.00     0.049 A 
ATOM     46  N   UNL     1     -12.886  11.312  -4.485  1.00  0.00    -0.248 NA
ATOM     47  C   UNL     1     -12.169   9.935  -6.230  1.00  0.00     0.031 C 
ATOM     48  C   UNL     1     -11.411   8.263  -1.556  1.00  0.00     0.029 A 
ATOM     49  N   UNL     1     -12.402  10.256  -1.785  1.00  0.00    -0.354 N 
ATOM     50  C   UNL     1     -13.193  11.909  -5.700  1.00  0.00     0.074 A 
ATOM     51  C   UNL     1     -12.703  11.033  -6.742  1.00  0.00     0.031 C 
ATOM     52  C   UNL     1     -11.665   8.736  -0.322  1.00  0.00     0.029 A 
ATOM     53  C   UNL     1     -12.290  10.053  -0.432  1.00  0.00     0.049 A 
ATOM     54  H   UNL     1     -12.820  11.056  -2.177  1.00  0.00     0.167 HD
ATOM     55  C   UNL     1     -13.841  13.075  -5.928  1.00  0.00     0.037 A 
ATOM     56  C   UNL     1     -12.643  10.850   0.595  1.00  0.00     0.037 A 
ATOM     57  C   UNL     1     -14.316  13.955  -4.894  1.00  0.00     0.049 A 
ATOM     58  C   UNL     1     -13.302  12.177   0.311  1.00  0.00     0.074 A 
ATOM     59  C   UNL     1     -14.984  15.160  -5.026  1.00  0.00     0.029 A 
ATOM     60  N   UNL     1     -14.165  13.727  -3.535  1.00  0.00    -0.354 N 
ATOM     61  N   UNL     1     -13.623  12.715  -0.840  1.00  0.00    -0.248 NA
ATOM     62  C   UNL     1     -13.654  13.003   1.476  1.00  0.00     0.031 C 
ATOM     63  C   UNL     1     -15.202  15.681  -3.746  1.00  0.00     0.029 A 
ATOM     64  C   UNL     1     -14.711  14.778  -2.817  1.00  0.00     0.049 A 
ATOM     65  H   UNL     1     -13.734  12.935  -3.139  1.00  0.00     0.167 HD
ATOM     66  C   UNL     1     -14.236  13.925  -0.539  1.00  0.00     0.074 A 
ATOM     67  C   UNL     1     -14.261  14.033   0.904  1.00  0.00     0.031 C 
ATOM     68  C   UNL     1     -14.732  14.866  -1.380  1.00  0.00     0.037 A 
BRANCH  55  69
ATOM     69  C   UNL     1     -14.068  13.471  -7.355  1.00  0.00     0.064 A 
ATOM     70  C   UNL     1     -15.023  12.821  -8.150  1.00  0.00     0.173 A 
ATOM     71  C   UNL     1     -13.356  14.538  -7.921  1.00  0.00     0.173 A 
ATOM     72  F   UNL     1     -15.717  11.783  -7.659  1.00  0.00    -0.203 F 
ATOM     73  C   UNL     1     -15.248  13.217  -9.466  1.00  0.00     0.198 A 
ATOM     74  C   UNL     1     -13.601  14.947  -9.229  1.00  0.00     0.198 A 
ATOM     75  F   UNL     1     -12.431  15.192  -7.201  1.00  0.00    -0.203 F 
ATOM     76  F   UNL     1     -16.141  12.560 -10.218  1.00  0.00    -0.200 F 
ATOM     77  C   UNL     1     -14.543  14.284 -10.001  1.00  0.00     0.200 A 
ATOM     78  F   UNL     1     -12.925  15.985  -9.742  1.00  0.00    -0.200 F 
ATOM     79  F   UNL     1     -14.768  14.672 -11.264  1.00  0.00    -0.200 F 
ENDBRANCH  55  69
BRANCH  56  80
ATOM     80  C   UNL     1     -12.373  10.431   1.996  1.00  0.00     0.064 A 
ATOM     81  C   UNL     1     -13.422  10.133   2.878  1.00  0.00     0.173 A 
ATOM     82  C   UNL     1     -11.064  10.371   2.495  1.00  0.00     0.173 A 
ATOM     83  F   UNL     1     -14.693  10.204   2.455  1.00  0.00    -0.203 F 
ATOM     84  C   UNL     1     -13.172   9.819   4.213  1.00  0.00     0.198 A 
ATOM     85  C   UNL     1     -10.814  10.029   3.822  1.00  0.00     0.198 A 
ATOM     86  F   UNL     1     -10.026  10.652   1.694  1.00  0.00    -0.203 F 
ATOM     87  F   UNL     1     -14.196   9.598   5.049  1.00  0.00    -0.200 F 
ATOM     88  C   UNL     1     -11.869   9.764   4.683  1.00  0.00     0.200 A 
ATOM     89  F   UNL     1      -9.553   9.970   4.271  1.00  0.00    -0.200 F 
ATOM     90  F   UNL     1     -11.630   9.471   5.968  1.00  0.00    -0.200 F 
ENDBRANCH  56  80
BRANCH  68  91
ATOM     91  C   UNL     1     -15.369  16.076  -0.761  1.00  0.00     0.064 A 
ATOM     92  C   UNL     1     -14.605  17.062  -0.120  1.00  0.00     0.173 A 
ATOM     93  C   UNL     1     -16.758  16.264  -0.833  1.00  0.00     0.173 A 
ATOM     94  F   UNL     1     -13.275  16.922  -0.013  1.00  0.00    -0.203 F 
ATOM     95  C   UNL     1     -15.211  18.177   0.453  1.00  0.00     0.198 A 
ATOM     96  C   UNL     1     -17.357  17.395  -0.285  1.00  0.00     0.198 A 
ATOM     97  F   UNL     1     -17.533  15.355  -1.443  1.00  0.00    -0.203 F 
ATOM     98  F   UNL     1     -14.467  19.081   1.106  1.00  0.00    -0.200 F 
ATOM     99  C   UNL     1     -16.585  18.345   0.365  1.00  0.00     0.200 A 
ATOM    100  F   UNL     1     -18.683  17.563  -0.382  1.00  0.00    -0.200 F 
ATOM    101  F   UNL     1     -17.166  19.420   0.916  1.00  0.00    -0.200 F 
ENDBRANCH  68  91
ENDBRANCH  42  43
ENDBRANCH  35  37
ENDBRANCH  34  35
ENDBRANCH  33  34
ENDBRANCH  32  33
ENDBRANCH  31  32
ENDBRANCH  30  31
ENDBRANCH  29  30
ENDBRANCH   1  29
TORSDOF 22
