REMARK SMILES C[C@H]1[C@H](C(=O)OCCOCCOCCOCCOC(=O)c2ccc(-c3c4nc(c(-c5c(F)c(F)c(F)c(F)c5F)c5ccc([nH]5)c(-c5c(F)c(F)c(F)c(F)c5F)c5nc(c(-c6c(F)c(F)c(F)c(F)c6F)c6ccc3[nH]6)C=C5)C=C4)cc2)CC[N@@H+]1Cc1nnnn1-c1ccccc1
REMARK SMILES IDX 11 1 10 2 9 3 8 4 7 5 6 6 4 7 5 8 3 9 1 10 2 11 86 12 84 13
REMARK SMILES IDX 85 14 87 16 88 17 89 18 92 19 90 20 91 21 93 22 94 23 98 24
REMARK SMILES IDX 95 25 97 26 96 27 12 28 13 29 14 30 15 31 16 32 17 33 18 34
REMARK SMILES IDX 19 35 20 36 21 37 22 38 83 39 23 40 82 41 24 42 25 43 26 44
REMARK SMILES IDX 76 45 27 46 81 47 75 48 77 49 28 50 80 51 74 52 73 53 29 55
REMARK SMILES IDX 61 56 41 57 60 58 42 59 45 60 59 61 78 62 43 63 44 64 58 66
REMARK SMILES IDX 79 67 46 68 30 69 31 70 39 71 32 72 33 73 37 74 40 75 34 76
REMARK SMILES IDX 35 77 38 78 36 79 62 80 63 81 71 82 64 83 65 84 69 85 72 86
REMARK SMILES IDX 66 87 67 88 70 89 68 90 47 91 48 92 56 93 49 94 50 95 54 96
REMARK SMILES IDX 57 97 51 98 52 99 55 100 53 101
REMARK H PARENT 86 15 77 54 45 65
REMARK Flexibility Score: inf
ROOT
ATOM      1  C   UNL     1       2.010   2.226   1.990  1.00  0.00     0.188 C 
ENDROOT
BRANCH   1   2
ATOM      2  C   UNL     1       1.843   3.701   1.623  1.00  0.00     0.188 C 
BRANCH   2   3
ATOM      3  O   UNL     1       1.180   4.582   2.510  1.00  0.00    -0.376 OA
BRANCH   3   4
ATOM      4  C   UNL     1      -0.029   4.257   3.175  1.00  0.00     0.202 C 
BRANCH   4   5
ATOM      5  C   UNL     1      -1.178   3.451   2.539  1.00  0.00     0.261 C 
BRANCH   5   6
ATOM      6  O   UNL     1      -0.797   2.293   1.774  1.00  0.00    -0.463 OA
BRANCH   6   7
ATOM      7  C   UNL     1      -0.951   2.363   0.437  1.00  0.00     0.315 C 
ATOM      8  O   UNL     1      -1.492   3.307  -0.132  1.00  0.00    -0.252 OA
BRANCH   7   9
ATOM      9  C   UNL     1      -0.380   1.191  -0.362  1.00  0.00     0.162 C 
ATOM     10  C   UNL     1       1.690  -0.239  -0.607  1.00  0.00     0.076 C 
ATOM     11  C   UNL     1       0.435   0.037   0.256  1.00  0.00     0.195 C 
ATOM     12  N   UNL     1      -0.380  -1.172   0.158  1.00  0.00    -0.326 N 
ATOM     13  C   UNL     1      -1.538   0.502  -1.073  1.00  0.00     0.083 C 
ATOM     14  C   UNL     1      -1.294  -0.990  -0.951  1.00  0.00     0.263 C 
ATOM     15  H   UNL     1       0.196  -1.980  -0.077  1.00  0.00     0.348 HD
BRANCH  12  16
ATOM     16  C   UNL     1      -0.843  -1.767   1.416  1.00  0.00     0.343 C 
BRANCH  16  17
ATOM     17  C   UNL     1      -1.590  -0.910   2.386  1.00  0.00     0.210 A 
ATOM     18  N   UNL     1      -1.085  -0.344   3.469  1.00  0.00    -0.107 NA
ATOM     19  N   UNL     1      -2.914  -0.519   2.288  1.00  0.00    -0.192 N 
ATOM     20  N   UNL     1      -2.065   0.465   3.978  1.00  0.00    -0.023 NA
ATOM     21  N   UNL     1      -3.148   0.434   3.216  1.00  0.00    -0.040 NA
BRANCH  19  22
ATOM     22  C   UNL     1      -3.879  -0.888   1.336  1.00  0.00     0.069 A 
ATOM     23  C   UNL     1      -4.585   0.119   0.669  1.00  0.00     0.028 A 
ATOM     24  C   UNL     1      -4.008  -2.226   0.951  1.00  0.00     0.028 A 
ATOM     25  C   UNL     1      -5.283  -0.205  -0.495  1.00  0.00     0.002 A 
ATOM     26  C   UNL     1      -4.747  -2.545  -0.186  1.00  0.00     0.002 A 
ATOM     27  C   UNL     1      -5.346  -1.530  -0.932  1.00  0.00     0.000 A 
ENDBRANCH  19  22
ENDBRANCH  16  17
ENDBRANCH  12  16
ENDBRANCH   7   9
ENDBRANCH   6   7
ENDBRANCH   5   6
ENDBRANCH   4   5
ENDBRANCH   3   4
ENDBRANCH   2   3
ENDBRANCH   1   2
BRANCH   1  28
ATOM     28  O   UNL     1       2.928   1.804   2.960  1.00  0.00    -0.377 OA
BRANCH  28  29
ATOM     29  C   UNL     1       2.680   2.325   4.241  1.00  0.00     0.188 C 
BRANCH  29  30
ATOM     30  C   UNL     1       3.613   3.493   4.524  1.00  0.00     0.188 C 
BRANCH  30  31
ATOM     31  O   UNL     1       4.603   3.854   3.577  1.00  0.00    -0.376 OA
BRANCH  31  32
ATOM     32  C   UNL     1       5.328   2.923   2.787  1.00  0.00     0.202 C 
BRANCH  32  33
ATOM     33  C   UNL     1       5.710   1.473   3.177  1.00  0.00     0.261 C 
BRANCH  33  34
ATOM     34  O   UNL     1       5.119   0.871   4.327  1.00  0.00    -0.460 OA
BRANCH  34  35
ATOM     35  C   UNL     1       5.649   1.208   5.515  1.00  0.00     0.338 C 
ATOM     36  O   UNL     1       6.587   1.960   5.723  1.00  0.00    -0.246 OA
BRANCH  35  37
ATOM     37  C   UNL     1       4.788   0.639   6.571  1.00  0.00     0.060 A 
ATOM     38  C   UNL     1       4.225   1.518   7.503  1.00  0.00     0.016 A 
ATOM     39  C   UNL     1       4.537  -0.735   6.649  1.00  0.00     0.016 A 
ATOM     40  C   UNL     1       3.456   1.026   8.550  1.00  0.00     0.010 A 
ATOM     41  C   UNL     1       3.795  -1.235   7.724  1.00  0.00     0.010 A 
ATOM     42  C   UNL     1       3.299  -0.356   8.704  1.00  0.00    -0.014 A 
BRANCH  42  43
ATOM     43  C   UNL     1       2.877  -0.853  10.033  1.00  0.00     0.031 A 
ATOM     44  C   UNL     1       3.956  -1.224  11.014  1.00  0.00     0.074 A 
ATOM     45  C   UNL     1       1.585  -0.868  10.398  1.00  0.00     0.049 A 
ATOM     46  N   UNL     1       3.855  -1.620  12.257  1.00  0.00    -0.248 NA
ATOM     47  C   UNL     1       5.343  -1.127  10.526  1.00  0.00     0.031 C 
ATOM     48  C   UNL     1       0.462  -0.476   9.552  1.00  0.00     0.029 A 
ATOM     49  N   UNL     1       1.007  -1.217  11.592  1.00  0.00    -0.354 N 
ATOM     50  C   UNL     1       5.159  -1.817  12.694  1.00  0.00     0.074 A 
ATOM     51  C   UNL     1       6.032  -1.539  11.577  1.00  0.00     0.031 C 
ATOM     52  C   UNL     1      -0.677  -0.609  10.254  1.00  0.00     0.029 A 
ATOM     53  C   UNL     1      -0.362  -1.117  11.588  1.00  0.00     0.049 A 
ATOM     54  H   UNL     1       1.524  -1.512  12.376  1.00  0.00     0.167 HD
ATOM     55  C   UNL     1       5.590  -2.182  13.924  1.00  0.00     0.037 A 
ATOM     56  C   UNL     1      -1.251  -1.416  12.555  1.00  0.00     0.037 A 
ATOM     57  C   UNL     1       4.716  -2.461  15.031  1.00  0.00     0.049 A 
ATOM     58  C   UNL     1      -0.748  -1.897  13.893  1.00  0.00     0.074 A 
ATOM     59  C   UNL     1       5.049  -2.838  16.320  1.00  0.00     0.029 A 
ATOM     60  N   UNL     1       3.331  -2.399  14.975  1.00  0.00    -0.354 N 
ATOM     61  N   UNL     1       0.485  -2.063  14.309  1.00  0.00    -0.248 NA
ATOM     62  C   UNL     1      -1.766  -2.221  14.903  1.00  0.00     0.031 C 
ATOM     63  C   UNL     1       3.863  -3.065  17.026  1.00  0.00     0.029 A 
ATOM     64  C   UNL     1       2.793  -2.759  16.200  1.00  0.00     0.049 A 
ATOM     65  H   UNL     1       2.808  -2.139  14.183  1.00  0.00     0.167 HD
ATOM     66  C   UNL     1       0.393  -2.474  15.633  1.00  0.00     0.074 A 
ATOM     67  C   UNL     1      -1.018  -2.515  15.956  1.00  0.00     0.031 C 
ATOM     68  C   UNL     1       1.384  -2.788  16.505  1.00  0.00     0.037 A 
BRANCH  55  69
ATOM     69  C   UNL     1       7.071  -2.337  14.118  1.00  0.00     0.064 A 
ATOM     70  C   UNL     1       7.941  -1.235  14.111  1.00  0.00     0.173 A 
ATOM     71  C   UNL     1       7.627  -3.608  14.329  1.00  0.00     0.173 A 
ATOM     72  F   UNL     1       7.465   0.000  13.893  1.00  0.00    -0.203 F 
ATOM     73  C   UNL     1       9.313  -1.404  14.278  1.00  0.00     0.198 A 
ATOM     74  C   UNL     1       8.995  -3.769  14.530  1.00  0.00     0.198 A 
ATOM     75  F   UNL     1       6.842  -4.696  14.344  1.00  0.00    -0.203 F 
ATOM     76  F   UNL     1      10.131  -0.344  14.211  1.00  0.00    -0.200 F 
ATOM     77  C   UNL     1       9.838  -2.669  14.496  1.00  0.00     0.200 A 
ATOM     78  F   UNL     1       9.498  -4.991  14.753  1.00  0.00    -0.200 F 
ATOM     79  F   UNL     1      11.158  -2.830  14.664  1.00  0.00    -0.200 F 
ENDBRANCH  55  69
BRANCH  56  80
ATOM     80  C   UNL     1      -2.709  -1.277  12.296  1.00  0.00     0.064 A 
ATOM     81  C   UNL     1      -3.485  -0.331  12.981  1.00  0.00     0.173 A 
ATOM     82  C   UNL     1      -3.364  -2.115  11.380  1.00  0.00     0.173 A 
ATOM     83  F   UNL     1      -2.911   0.475  13.887  1.00  0.00    -0.203 F 
ATOM     84  C   UNL     1      -4.861  -0.245  12.780  1.00  0.00     0.198 A 
ATOM     85  C   UNL     1      -4.735  -2.006  11.155  1.00  0.00     0.198 A 
ATOM     86  F   UNL     1      -2.672  -3.041  10.701  1.00  0.00    -0.203 F 
ATOM     87  F   UNL     1      -5.587   0.627  13.492  1.00  0.00    -0.200 F 
ATOM     88  C   UNL     1      -5.484  -1.079  11.863  1.00  0.00     0.200 A 
ATOM     89  F   UNL     1      -5.331  -2.807  10.261  1.00  0.00    -0.200 F 
ATOM     90  F   UNL     1      -6.808  -0.998  11.672  1.00  0.00    -0.200 F 
ENDBRANCH  56  80
BRANCH  68  91
ATOM     91  C   UNL     1       0.980  -3.155  17.907  1.00  0.00     0.064 A 
ATOM     92  C   UNL     1       0.296  -4.346  18.196  1.00  0.00     0.173 A 
ATOM     93  C   UNL     1       1.302  -2.308  18.980  1.00  0.00     0.173 A 
ATOM     94  F   UNL     1      -0.044  -5.186  17.207  1.00  0.00    -0.203 F 
ATOM     95  C   UNL     1      -0.088  -4.653  19.499  1.00  0.00     0.198 A 
ATOM     96  C   UNL     1       0.951  -2.639  20.286  1.00  0.00     0.198 A 
ATOM     97  F   UNL     1       1.966  -1.163  18.764  1.00  0.00    -0.203 F 
ATOM     98  F   UNL     1      -0.799  -5.763  19.741  1.00  0.00    -0.200 F 
ATOM     99  C   UNL     1       0.245  -3.803  20.543  1.00  0.00     0.200 A 
ATOM    100  F   UNL     1       1.292  -1.825  21.295  1.00  0.00    -0.200 F 
ATOM    101  F   UNL     1      -0.124  -4.102  21.796  1.00  0.00    -0.200 F 
ENDBRANCH  68  91
ENDBRANCH  42  43
ENDBRANCH  35  37
ENDBRANCH  34  35
ENDBRANCH  33  34
ENDBRANCH  32  33
ENDBRANCH  31  32
ENDBRANCH  30  31
ENDBRANCH  29  30
ENDBRANCH  28  29
ENDBRANCH   1  28
TORSDOF 23
