REMARK SMILES O=C(CSc1nnc(-c2ccncc2)s1)Nc1cccc(C(=O)OCCOCCOCCOCCOC(=O)c2ccc(-c3c4nc(c(-c5c(F)c(F)c(F)c(F)c5F)c5ccc([nH]5)c(-c5c(F)c(F)c(F)c(F)c5F)c5nc(c(-c6c(F)c(F)c(F)c(F)c6F)c6ccc3[nH]6)C=C5)C=C4)cc2)c1
REMARK SMILES IDX 28 1 27 2 26 3 25 4 24 5 22 6 23 7 21 8 17 9 18 10 102 11
REMARK SMILES IDX 19 12 20 13 16 14 1 15 2 16 3 18 4 19 5 20 6 21 15 22 7 23
REMARK SMILES IDX 8 24 9 25 10 26 14 27 11 28 13 29 12 30 29 31 30 32 31 33
REMARK SMILES IDX 32 34 33 35 34 36 35 37 36 38 37 39 38 40 39 41 40 42 101 43
REMARK SMILES IDX 41 44 100 45 42 46 43 47 44 48 94 49 45 50 99 51 93 52 95 53
REMARK SMILES IDX 46 54 98 55 92 56 91 57 47 59 79 60 59 61 78 62 60 63 63 64
REMARK SMILES IDX 77 65 96 66 61 67 62 68 76 70 97 71 64 72 48 73 49 74 57 75
REMARK SMILES IDX 50 76 51 77 55 78 58 79 52 80 53 81 56 82 54 83 80 84 81 85
REMARK SMILES IDX 89 86 82 87 83 88 87 89 90 90 84 91 85 92 88 93 86 94 65 95
REMARK SMILES IDX 66 96 74 97 67 98 68 99 72 100 75 101 69 102 70 103 73 104
REMARK SMILES IDX 71 105
REMARK H PARENT 16 17 95 58 63 69
REMARK Flexibility Score: inf
ROOT
ATOM      1  C   UNL     1      -0.455   4.954   3.993  1.00  0.00     0.188 C 
ENDROOT
BRANCH   1   2
ATOM      2  O   UNL     1      -1.544   4.526   4.791  1.00  0.00    -0.376 OA
BRANCH   2   3
ATOM      3  C   UNL     1      -2.686   3.977   4.165  1.00  0.00     0.202 C 
BRANCH   3   4
ATOM      4  C   UNL     1      -2.522   2.712   3.312  1.00  0.00     0.261 C 
BRANCH   4   5
ATOM      5  O   UNL     1      -1.386   2.684   2.444  1.00  0.00    -0.460 OA
BRANCH   5   6
ATOM      6  C   UNL     1      -1.430   3.436   1.321  1.00  0.00     0.338 C 
ATOM      7  O   UNL     1      -2.340   4.161   0.960  1.00  0.00    -0.246 OA
BRANCH   6   8
ATOM      8  C   UNL     1      -0.071   3.407   0.728  1.00  0.00     0.062 A 
ATOM      9  C   UNL     1       1.948   2.182   0.185  1.00  0.00     0.042 A 
ATOM     10  C   UNL     1       2.582   3.394  -0.116  1.00  0.00     0.026 A 
ATOM     11  C   UNL     1       0.632   2.201   0.643  1.00  0.00     0.041 A 
ATOM     12  C   UNL     1       1.879   4.602  -0.037  1.00  0.00     0.003 A 
ATOM     13  C   UNL     1       0.543   4.609   0.363  1.00  0.00     0.016 A 
BRANCH   9  14
ATOM     14  N   UNL     1       2.673   0.988  -0.009  1.00  0.00    -0.325 N 
ATOM     15  O   UNL     1       0.944  -0.573   0.036  1.00  0.00    -0.274 OA
ATOM     16  C   UNL     1       2.131  -0.288  -0.097  1.00  0.00     0.234 C 
ATOM     17  H   UNL     1       3.651   1.066  -0.090  1.00  0.00     0.169 HD
BRANCH  16  18
ATOM     18  C   UNL     1       3.150  -1.385  -0.358  1.00  0.00     0.177 C 
BRANCH  18  19
ATOM     19  S   UNL     1       4.265  -0.976  -1.730  1.00  0.00    -0.084 SA
BRANCH  19  20
ATOM     20  C   UNL     1       3.109  -0.755  -3.024  1.00  0.00     0.175 A 
ATOM     21  N   UNL     1       2.269  -1.690  -3.401  1.00  0.00    -0.131 NA
ATOM     22  S   UNL     1       3.013   0.697  -3.920  1.00  0.00    -0.086 S 
ATOM     23  N   UNL     1       1.497  -1.282  -4.479  1.00  0.00    -0.137 NA
ATOM     24  C   UNL     1       1.806  -0.065  -4.888  1.00  0.00     0.148 A 
BRANCH  24  25
ATOM     25  C   UNL     1       1.198   0.634  -6.025  1.00  0.00     0.015 A 
ATOM     26  C   UNL     1       1.950   1.455  -6.873  1.00  0.00     0.031 A 
ATOM     27  C   UNL     1      -0.163   0.472  -6.299  1.00  0.00     0.031 A 
ATOM     28  C   UNL     1       1.316   2.084  -7.930  1.00  0.00     0.111 A 
ATOM     29  C   UNL     1      -0.709   1.149  -7.378  1.00  0.00     0.111 A 
ATOM     30  N   UNL     1       0.001   1.954  -8.196  1.00  0.00    -0.265 NA
ENDBRANCH  24  25
ENDBRANCH  19  20
ENDBRANCH  18  19
ENDBRANCH  16  18
ENDBRANCH   9  14
ENDBRANCH   6   8
ENDBRANCH   5   6
ENDBRANCH   4   5
ENDBRANCH   3   4
ENDBRANCH   2   3
ENDBRANCH   1   2
BRANCH   1  31
ATOM     31  C   UNL     1       0.811   4.078   4.138  1.00  0.00     0.188 C 
BRANCH  31  32
ATOM     32  O   UNL     1       0.766   2.876   4.896  1.00  0.00    -0.377 OA
BRANCH  32  33
ATOM     33  C   UNL     1       0.058   2.838   6.131  1.00  0.00     0.188 C 
BRANCH  33  34
ATOM     34  C   UNL     1      -0.042   4.092   7.032  1.00  0.00     0.188 C 
BRANCH  34  35
ATOM     35  O   UNL     1       0.676   5.217   6.557  1.00  0.00    -0.376 OA
BRANCH  35  36
ATOM     36  C   UNL     1       1.857   5.587   7.243  1.00  0.00     0.202 C 
BRANCH  36  37
ATOM     37  C   UNL     1       3.011   4.574   7.248  1.00  0.00     0.261 C 
BRANCH  37  38
ATOM     38  O   UNL     1       2.682   3.244   7.676  1.00  0.00    -0.460 OA
BRANCH  38  39
ATOM     39  C   UNL     1       2.342   3.085   8.971  1.00  0.00     0.338 C 
ATOM     40  O   UNL     1       2.296   3.948   9.835  1.00  0.00    -0.246 OA
BRANCH  39  41
ATOM     41  C   UNL     1       1.845   1.707   9.145  1.00  0.00     0.060 A 
ATOM     42  C   UNL     1       0.533   1.512   9.596  1.00  0.00     0.016 A 
ATOM     43  C   UNL     1       2.673   0.614   8.876  1.00  0.00     0.016 A 
ATOM     44  C   UNL     1       0.063   0.222   9.832  1.00  0.00     0.010 A 
ATOM     45  C   UNL     1       2.208  -0.679   9.133  1.00  0.00     0.010 A 
ATOM     46  C   UNL     1       0.918  -0.875   9.659  1.00  0.00    -0.014 A 
BRANCH  46  47
ATOM     47  C   UNL     1       0.538  -2.179  10.253  1.00  0.00     0.031 A 
ATOM     48  C   UNL     1       1.102  -2.534  11.602  1.00  0.00     0.074 A 
ATOM     49  C   UNL     1      -0.332  -3.003   9.645  1.00  0.00     0.049 A 
ATOM     50  N   UNL     1       0.908  -3.601  12.335  1.00  0.00    -0.248 NA
ATOM     51  C   UNL     1       2.012  -1.547  12.206  1.00  0.00     0.031 C 
ATOM     52  C   UNL     1      -0.976  -2.753   8.359  1.00  0.00     0.029 A 
ATOM     53  N   UNL     1      -0.825  -4.222  10.041  1.00  0.00    -0.354 N 
ATOM     54  C   UNL     1       1.674  -3.414  13.479  1.00  0.00     0.074 A 
ATOM     55  C   UNL     1       2.368  -2.155  13.326  1.00  0.00     0.031 C 
ATOM     56  C   UNL     1      -1.779  -3.791   8.066  1.00  0.00     0.029 A 
ATOM     57  C   UNL     1      -1.683  -4.788   9.132  1.00  0.00     0.049 A 
ATOM     58  H   UNL     1      -0.585  -4.649  10.895  1.00  0.00     0.167 HD
ATOM     59  C   UNL     1       1.779  -4.214  14.567  1.00  0.00     0.037 A 
ATOM     60  C   UNL     1      -2.305  -5.983   9.156  1.00  0.00     0.037 A 
ATOM     61  C   UNL     1       1.091  -5.470  14.714  1.00  0.00     0.049 A 
ATOM     62  C   UNL     1      -2.121  -6.888  10.349  1.00  0.00     0.074 A 
ATOM     63  C   UNL     1       1.119  -6.350  15.781  1.00  0.00     0.029 A 
ATOM     64  N   UNL     1       0.257  -6.029  13.756  1.00  0.00    -0.354 N 
ATOM     65  N   UNL     1      -1.419  -6.695  11.440  1.00  0.00    -0.248 NA
ATOM     66  C   UNL     1      -2.831  -8.174  10.317  1.00  0.00     0.031 C 
ATOM     67  C   UNL     1       0.356  -7.472  15.441  1.00  0.00     0.029 A 
ATOM     68  C   UNL     1      -0.212  -7.258  14.195  1.00  0.00     0.049 A 
ATOM     69  H   UNL     1       0.033  -5.615  12.892  1.00  0.00     0.167 HD
ATOM     70  C   UNL     1      -1.629  -7.814  12.237  1.00  0.00     0.074 A 
ATOM     71  C   UNL     1      -2.540  -8.674  11.509  1.00  0.00     0.031 C 
ATOM     72  C   UNL     1      -1.119  -8.104  13.461  1.00  0.00     0.037 A 
BRANCH  59  73
ATOM     73  C   UNL     1       2.705  -3.768  15.664  1.00  0.00     0.064 A 
ATOM     74  C   UNL     1       2.432  -2.644  16.458  1.00  0.00     0.173 A 
ATOM     75  C   UNL     1       3.885  -4.482  15.926  1.00  0.00     0.173 A 
ATOM     76  F   UNL     1       1.327  -1.914  16.239  1.00  0.00    -0.203 F 
ATOM     77  C   UNL     1       3.321  -2.230  17.448  1.00  0.00     0.198 A 
ATOM     78  C   UNL     1       4.753  -4.088  16.941  1.00  0.00     0.198 A 
ATOM     79  F   UNL     1       4.197  -5.565  15.199  1.00  0.00    -0.203 F 
ATOM     80  F   UNL     1       3.070  -1.117  18.149  1.00  0.00    -0.200 F 
ATOM     81  C   UNL     1       4.477  -2.957  17.693  1.00  0.00     0.200 A 
ATOM     82  F   UNL     1       5.862  -4.799  17.185  1.00  0.00    -0.200 F 
ATOM     83  F   UNL     1       5.330  -2.560  18.647  1.00  0.00    -0.200 F 
ENDBRANCH  59  73
BRANCH  60  84
ATOM     84  C   UNL     1      -3.163  -6.397   8.014  1.00  0.00     0.064 A 
ATOM     85  C   UNL     1      -4.549  -6.545   8.161  1.00  0.00     0.173 A 
ATOM     86  C   UNL     1      -2.608  -6.676   6.755  1.00  0.00     0.173 A 
ATOM     87  F   UNL     1      -5.125  -6.317   9.351  1.00  0.00    -0.203 F 
ATOM     88  C   UNL     1      -5.345  -6.975   7.100  1.00  0.00     0.198 A 
ATOM     89  C   UNL     1      -3.409  -7.075   5.687  1.00  0.00     0.198 A 
ATOM     90  F   UNL     1      -1.287  -6.555   6.562  1.00  0.00    -0.203 F 
ATOM     91  F   UNL     1      -6.659  -7.160   7.284  1.00  0.00    -0.200 F 
ATOM     92  C   UNL     1      -4.775  -7.233   5.862  1.00  0.00     0.200 A 
ATOM     93  F   UNL     1      -2.855  -7.312   4.490  1.00  0.00    -0.200 F 
ATOM     94  F   UNL     1      -5.540  -7.644   4.843  1.00  0.00    -0.200 F 
ENDBRANCH  60  84
BRANCH  72  95
ATOM     95  C   UNL     1      -1.576  -9.381  14.114  1.00  0.00     0.064 A 
ATOM     96  C   UNL     1      -1.222 -10.643  13.611  1.00  0.00     0.173 A 
ATOM     97  C   UNL     1      -2.372  -9.339  15.270  1.00  0.00     0.173 A 
ATOM     98  F   UNL     1      -0.469 -10.743  12.505  1.00  0.00    -0.203 F 
ATOM     99  C   UNL     1      -1.689 -11.811  14.211  1.00  0.00     0.198 A 
ATOM    100  C   UNL     1      -2.802 -10.509  15.890  1.00  0.00     0.198 A 
ATOM    101  F   UNL     1      -2.730  -8.162  15.803  1.00  0.00    -0.203 F 
ATOM    102  F   UNL     1      -1.398 -13.002  13.670  1.00  0.00    -0.200 F 
ATOM    103  C   UNL     1      -2.473 -11.743  15.353  1.00  0.00     0.200 A 
ATOM    104  F   UNL     1      -3.543 -10.440  17.005  1.00  0.00    -0.200 F 
ATOM    105  F   UNL     1      -2.922 -12.867  15.928  1.00  0.00    -0.200 F 
ENDBRANCH  72  95
ENDBRANCH  46  47
ENDBRANCH  39  41
ENDBRANCH  38  39
ENDBRANCH  37  38
ENDBRANCH  36  37
ENDBRANCH  35  36
ENDBRANCH  34  35
ENDBRANCH  33  34
ENDBRANCH  32  33
ENDBRANCH  31  32
ENDBRANCH   1  31
TORSDOF 25
