REMARK SMILES O=C(CCC(=O)N1CCC(c2nnc3ccccn23)CC1)OCCOCCOCCOCCOC(=O)c1ccc(-c2c3nc(c(-c4c(F)c(F)c(F)c(F)c4F)c4ccc([nH]4)c(-c4c(F)c(F)c(F)c(F)c4F)c4nc(c(-c5c(F)c(F)c(F)c(F)c5F)c5ccc2[nH]5)C=C4)C=C3)cc1
REMARK SMILES IDX 27 1 26 2 25 3 24 4 23 5 22 6 2 7 1 8 3 9 4 10 5 11 6 12
REMARK SMILES IDX 7 13 8 14 21 15 9 16 20 17 10 18 11 19 12 20 19 21 13 22
REMARK SMILES IDX 14 23 18 24 15 25 17 26 16 27 28 28 29 29 30 30 31 31 32 32
REMARK SMILES IDX 33 33 34 34 35 35 36 36 37 37 38 38 99 39 39 40 98 41 40 42
REMARK SMILES IDX 41 43 42 44 92 45 43 46 97 47 91 48 93 49 44 50 96 51 90 52
REMARK SMILES IDX 89 53 45 55 77 56 57 57 76 58 58 59 61 60 75 61 94 62 59 63
REMARK SMILES IDX 60 64 74 66 95 67 62 68 46 69 47 70 55 71 48 72 49 73 53 74
REMARK SMILES IDX 56 75 50 76 51 77 54 78 52 79 78 80 79 81 87 82 80 83 81 84
REMARK SMILES IDX 85 85 88 86 82 87 83 88 86 89 84 90 63 91 64 92 72 93 65 94
REMARK SMILES IDX 66 95 70 96 73 97 67 98 68 99 71 100 69 101
REMARK H PARENT 93 54 61 65
REMARK Flexibility Score: inf
ROOT
ATOM      1  C   UNL     1       2.166  -1.343   2.100  1.00  0.00     0.188 C 
ENDROOT
BRANCH   1   2
ATOM      2  C   UNL     1       2.871  -2.421   1.240  1.00  0.00     0.188 C 
BRANCH   2   3
ATOM      3  O   UNL     1       4.291  -2.373   1.303  1.00  0.00    -0.376 OA
BRANCH   3   4
ATOM      4  C   UNL     1       5.044  -1.855   0.224  1.00  0.00     0.202 C 
BRANCH   4   5
ATOM      5  C   UNL     1       4.878  -0.365  -0.044  1.00  0.00     0.261 C 
BRANCH   5   6
ATOM      6  O   UNL     1       3.496   0.029  -0.102  1.00  0.00    -0.463 OA
BRANCH   6   7
ATOM      7  C   UNL     1       2.626  -0.330  -1.066  1.00  0.00     0.306 C 
ATOM      8  O   UNL     1       1.414  -0.281  -0.873  1.00  0.00    -0.252 OA
BRANCH   7   9
ATOM      9  C   UNL     1       3.192  -0.641  -2.400  1.00  0.00     0.132 C 
BRANCH   9  10
ATOM     10  C   UNL     1       3.349   0.651  -3.171  1.00  0.00     0.112 C 
BRANCH  10  11
ATOM     11  C   UNL     1       4.424   1.586  -2.654  1.00  0.00     0.223 C 
ATOM     12  O   UNL     1       5.584   1.383  -3.031  1.00  0.00    -0.275 OA
ATOM     13  N   UNL     1       4.118   2.660  -1.830  1.00  0.00    -0.343 N 
ATOM     14  C   UNL     1       5.086   3.741  -1.799  1.00  0.00     0.120 C 
ATOM     15  C   UNL     1       2.972   2.870  -0.918  1.00  0.00     0.120 C 
ATOM     16  C   UNL     1       5.625   3.923  -0.403  1.00  0.00     0.033 C 
ATOM     17  C   UNL     1       3.442   3.139   0.542  1.00  0.00     0.033 C 
ATOM     18  C   UNL     1       4.476   4.275   0.560  1.00  0.00     0.062 C 
BRANCH  18  19
ATOM     19  C   UNL     1       5.108   4.592   1.880  1.00  0.00     0.140 A 
ATOM     20  N   UNL     1       5.360   3.768   2.878  1.00  0.00    -0.134 NA
ATOM     21  N   UNL     1       5.848   5.749   2.053  1.00  0.00    -0.286 N 
ATOM     22  N   UNL     1       6.383   4.312   3.629  1.00  0.00    -0.130 NA
ATOM     23  C   UNL     1       6.712   5.468   3.096  1.00  0.00     0.160 A 
ATOM     24  C   UNL     1       5.906   6.925   1.302  1.00  0.00     0.095 A 
ATOM     25  C   UNL     1       7.758   6.402   3.346  1.00  0.00     0.050 A 
ATOM     26  C   UNL     1       6.877   7.817   1.554  1.00  0.00     0.019 A 
ATOM     27  C   UNL     1       7.851   7.515   2.590  1.00  0.00     0.005 A 
ENDBRANCH  18  19
ENDBRANCH  10  11
ENDBRANCH   9  10
ENDBRANCH   7   9
ENDBRANCH   6   7
ENDBRANCH   5   6
ENDBRANCH   4   5
ENDBRANCH   3   4
ENDBRANCH   2   3
ENDBRANCH   1   2
BRANCH   1  28
ATOM     28  O   UNL     1       2.668  -1.194   3.429  1.00  0.00    -0.377 OA
BRANCH  28  29
ATOM     29  C   UNL     1       4.001  -0.703   3.501  1.00  0.00     0.188 C 
BRANCH  29  30
ATOM     30  C   UNL     1       5.101  -1.751   3.799  1.00  0.00     0.188 C 
BRANCH  30  31
ATOM     31  O   UNL     1       4.833  -3.133   4.009  1.00  0.00    -0.376 OA
BRANCH  31  32
ATOM     32  C   UNL     1       3.574  -3.554   4.500  1.00  0.00     0.202 C 
BRANCH  32  33
ATOM     33  C   UNL     1       3.137  -3.114   5.901  1.00  0.00     0.261 C 
BRANCH  33  34
ATOM     34  O   UNL     1       3.455  -1.760   6.248  1.00  0.00    -0.460 OA
BRANCH  34  35
ATOM     35  C   UNL     1       4.621  -1.607   6.905  1.00  0.00     0.338 C 
ATOM     36  O   UNL     1       5.394  -2.491   7.273  1.00  0.00    -0.246 OA
BRANCH  35  37
ATOM     37  C   UNL     1       4.945  -0.178   7.040  1.00  0.00     0.060 A 
ATOM     38  C   UNL     1       6.201   0.264   6.600  1.00  0.00     0.016 A 
ATOM     39  C   UNL     1       4.075   0.691   7.702  1.00  0.00     0.016 A 
ATOM     40  C   UNL     1       6.625   1.555   6.885  1.00  0.00     0.010 A 
ATOM     41  C   UNL     1       4.520   1.973   8.032  1.00  0.00     0.010 A 
ATOM     42  C   UNL     1       5.820   2.377   7.682  1.00  0.00    -0.014 A 
BRANCH  42  43
ATOM     43  C   UNL     1       6.475   3.491   8.403  1.00  0.00     0.031 A 
ATOM     44  C   UNL     1       7.070   3.194   9.748  1.00  0.00     0.074 A 
ATOM     45  C   UNL     1       6.550   4.724   7.880  1.00  0.00     0.049 A 
ATOM     46  N   UNL     1       7.722   3.984  10.561  1.00  0.00    -0.248 NA
ATOM     47  C   UNL     1       6.852   1.836  10.273  1.00  0.00     0.031 C 
ATOM     48  C   UNL     1       5.928   5.133   6.631  1.00  0.00     0.029 A 
ATOM     49  N   UNL     1       7.191   5.851   8.329  1.00  0.00    -0.354 N 
ATOM     50  C   UNL     1       7.924   3.242  11.717  1.00  0.00     0.074 A 
ATOM     51  C   UNL     1       7.339   1.938  11.498  1.00  0.00     0.031 C 
ATOM     52  C   UNL     1       6.265   6.408   6.379  1.00  0.00     0.029 A 
ATOM     53  C   UNL     1       7.136   6.898   7.440  1.00  0.00     0.049 A 
ATOM     54  H   UNL     1       7.644   5.905   9.201  1.00  0.00     0.167 HD
ATOM     55  C   UNL     1       8.518   3.632  12.868  1.00  0.00     0.037 A 
ATOM     56  C   UNL     1       7.756   8.093   7.476  1.00  0.00     0.037 A 
ATOM     57  C   UNL     1       9.100   4.933  13.065  1.00  0.00     0.049 A 
ATOM     58  C   UNL     1       8.552   8.445   8.708  1.00  0.00     0.074 A 
ATOM     59  C   UNL     1       9.741   5.435  14.182  1.00  0.00     0.029 A 
ATOM     60  N   UNL     1       9.105   5.943  12.112  1.00  0.00    -0.354 N 
ATOM     61  N   UNL     1       8.786   7.727   9.779  1.00  0.00    -0.248 NA
ATOM     62  C   UNL     1       9.146   9.788   8.747  1.00  0.00     0.031 C 
ATOM     63  C   UNL     1      10.091   6.765  13.924  1.00  0.00     0.029 A 
ATOM     64  C   UNL     1       9.732   7.069  12.620  1.00  0.00     0.049 A 
ATOM     65  H   UNL     1       8.721   5.870  11.208  1.00  0.00     0.167 HD
ATOM     66  C   UNL     1       9.540   8.530  10.621  1.00  0.00     0.074 A 
ATOM     67  C   UNL     1       9.787   9.765   9.906  1.00  0.00     0.031 C 
ATOM     68  C   UNL     1       9.962   8.288  11.887  1.00  0.00     0.037 A 
BRANCH  55  69
ATOM     69  C   UNL     1       8.491   2.663  14.014  1.00  0.00     0.064 A 
ATOM     70  C   UNL     1       9.213   1.460  13.996  1.00  0.00     0.173 A 
ATOM     71  C   UNL     1       7.705   2.938  15.144  1.00  0.00     0.173 A 
ATOM     72  F   UNL     1       9.963   1.138  12.932  1.00  0.00    -0.203 F 
ATOM     73  C   UNL     1       9.116   0.551  15.047  1.00  0.00     0.198 A 
ATOM     74  C   UNL     1       7.640   2.044  16.209  1.00  0.00     0.198 A 
ATOM     75  F   UNL     1       6.991   4.072  15.214  1.00  0.00    -0.203 F 
ATOM     76  F   UNL     1       9.758  -0.624  14.976  1.00  0.00    -0.200 F 
ATOM     77  C   UNL     1       8.335   0.846  16.154  1.00  0.00     0.200 A 
ATOM     78  F   UNL     1       6.894   2.338  17.283  1.00  0.00    -0.200 F 
ATOM     79  F   UNL     1       8.243  -0.030  17.164  1.00  0.00    -0.200 F 
ENDBRANCH  55  69
BRANCH  56  80
ATOM     80  C   UNL     1       7.715   9.026   6.314  1.00  0.00     0.064 A 
ATOM     81  C   UNL     1       8.903   9.376   5.649  1.00  0.00     0.173 A 
ATOM     82  C   UNL     1       6.528   9.614   5.858  1.00  0.00     0.173 A 
ATOM     83  F   UNL     1      10.071   8.839   6.033  1.00  0.00    -0.203 F 
ATOM     84  C   UNL     1       8.909  10.303   4.609  1.00  0.00     0.198 A 
ATOM     85  C   UNL     1       6.527  10.500   4.781  1.00  0.00     0.198 A 
ATOM     86  F   UNL     1       5.361   9.322   6.449  1.00  0.00    -0.203 F 
ATOM     87  F   UNL     1      10.065  10.642   4.022  1.00  0.00    -0.200 F 
ATOM     88  C   UNL     1       7.719  10.856   4.167  1.00  0.00     0.200 A 
ATOM     89  F   UNL     1       5.371  11.009   4.334  1.00  0.00    -0.200 F 
ATOM     90  F   UNL     1       7.719  11.717   3.141  1.00  0.00    -0.200 F 
ENDBRANCH  56  80
BRANCH  68  91
ATOM     91  C   UNL     1      10.745   9.378  12.560  1.00  0.00     0.064 A 
ATOM     92  C   UNL     1      10.151  10.596  12.926  1.00  0.00     0.173 A 
ATOM     93  C   UNL     1      12.107   9.200  12.844  1.00  0.00     0.173 A 
ATOM     94  F   UNL     1       8.854  10.822  12.664  1.00  0.00    -0.203 F 
ATOM     95  C   UNL     1      10.903  11.613  13.507  1.00  0.00     0.198 A 
ATOM     96  C   UNL     1      12.847  10.204  13.460  1.00  0.00     0.198 A 
ATOM     97  F   UNL     1      12.721   8.052  12.522  1.00  0.00    -0.203 F 
ATOM     98  F   UNL     1      10.332  12.794  13.779  1.00  0.00    -0.200 F 
ATOM     99  C   UNL     1      12.248  11.414  13.778  1.00  0.00     0.200 A 
ATOM    100  F   UNL     1      14.143  10.006  13.735  1.00  0.00    -0.200 F 
ATOM    101  F   UNL     1      12.973  12.396  14.333  1.00  0.00    -0.200 F 
ENDBRANCH  68  91
ENDBRANCH  42  43
ENDBRANCH  35  37
ENDBRANCH  34  35
ENDBRANCH  33  34
ENDBRANCH  32  33
ENDBRANCH  31  32
ENDBRANCH  30  31
ENDBRANCH  29  30
ENDBRANCH  28  29
ENDBRANCH   1  28
TORSDOF 23
