REMARK SMILES CC(=O)N[C@@H](C(=O)N(CC(=O)OCCOCCOCCOCCOC(=O)c1ccc(-c2c3nc(c(-c4c(F)c(F)c(F)c(F)c4F)c4ccc([nH]4)c(-c4c(F)c(F)c(F)c(F)c4F)c4nc(c(-c5c(F)c(F)c(F)c(F)c5F)c5ccc2[nH]5)C=C4)C=C3)cc1)C(C)(C)C)C(C)C
REMARK SMILES IDX 17 1 16 2 15 3 14 4 13 5 12 6 10 7 11 8 9 9 8 10 6 11 7 12
REMARK SMILES IDX 5 13 4 14 1 15 2 16 3 17 94 19 95 20 96 21 90 22 91 23 92 24
REMARK SMILES IDX 93 25 18 26 19 27 20 28 21 29 22 30 23 31 24 32 25 33 26 34
REMARK SMILES IDX 27 35 28 36 89 37 29 38 88 39 30 40 31 41 32 42 82 43 33 44
REMARK SMILES IDX 87 45 81 46 83 47 34 48 86 49 80 50 79 51 35 53 67 54 47 55
REMARK SMILES IDX 66 56 48 57 51 58 65 59 84 60 49 61 50 62 64 64 85 65 52 66
REMARK SMILES IDX 36 67 37 68 45 69 38 70 39 71 43 72 46 73 40 74 41 75 44 76
REMARK SMILES IDX 42 77 68 78 69 79 77 80 70 81 71 82 75 83 78 84 72 85 73 86
REMARK SMILES IDX 76 87 74 88 53 89 54 90 62 91 55 92 56 93 60 94 63 95 57 96
REMARK SMILES IDX 58 97 61 98 59 99
REMARK H PARENT 4 18 83 52 51 63
REMARK Flexibility Score: inf
ROOT
ATOM      1  C   UNL     1       4.532  -2.579   4.378  1.00  0.00     0.188 C 
ENDROOT
BRANCH   1   2
ATOM      2  C   UNL     1       4.895  -1.112   4.668  1.00  0.00     0.188 C 
BRANCH   2   3
ATOM      3  O   UNL     1       4.032  -0.303   5.459  1.00  0.00    -0.376 OA
BRANCH   3   4
ATOM      4  C   UNL     1       2.665  -0.664   5.584  1.00  0.00     0.202 C 
BRANCH   4   5
ATOM      5  C   UNL     1       1.805  -0.684   4.303  1.00  0.00     0.261 C 
BRANCH   5   6
ATOM      6  O   UNL     1       2.378  -1.338   3.140  1.00  0.00    -0.462 OA
BRANCH   6   7
ATOM      7  C   UNL     1       2.883  -0.539   2.166  1.00  0.00     0.325 C 
ATOM      8  O   UNL     1       2.809   0.688   2.183  1.00  0.00    -0.250 OA
BRANCH   7   9
ATOM      9  C   UNL     1       3.639  -1.261   1.006  1.00  0.00     0.242 C 
BRANCH   9  10
ATOM     10  N   UNL     1       3.784  -2.732   0.799  1.00  0.00    -0.325 N 
BRANCH  10  11
ATOM     11  C   UNL     1       2.732  -3.508   0.274  1.00  0.00     0.246 C 
ATOM     12  O   UNL     1       2.765  -4.742   0.319  1.00  0.00    -0.272 OA
BRANCH  11  13
ATOM     13  C   UNL     1       1.516  -2.808  -0.402  1.00  0.00     0.174 C 
BRANCH  13  14
ATOM     14  N   UNL     1       0.674  -2.287   0.673  1.00  0.00    -0.344 N 
ATOM     15  C   UNL     1       0.298  -0.038  -0.278  1.00  0.00     0.114 C 
ATOM     16  C   UNL     1       0.069  -1.072   0.791  1.00  0.00     0.217 C 
ATOM     17  O   UNL     1      -0.622  -0.841   1.780  1.00  0.00    -0.275 OA
ATOM     18  H   UNL     1       0.521  -2.906   1.424  1.00  0.00     0.164 HD
ENDBRANCH  13  14
BRANCH  13  19
ATOM     19  C   UNL     1       0.731  -3.821  -1.293  1.00  0.00     0.015 C 
ATOM     20  C   UNL     1      -0.589  -3.253  -1.823  1.00  0.00     0.010 C 
ATOM     21  C   UNL     1       1.570  -4.288  -2.494  1.00  0.00     0.010 C 
ENDBRANCH  13  19
ENDBRANCH  11  13
ENDBRANCH  10  11
BRANCH  10  22
ATOM     22  C   UNL     1       5.143  -3.417   0.907  1.00  0.00     0.035 C 
ATOM     23  C   UNL     1       5.078  -4.692   1.790  1.00  0.00     0.034 C 
ATOM     24  C   UNL     1       5.622  -3.858  -0.503  1.00  0.00     0.034 C 
ATOM     25  C   UNL     1       6.288  -2.512   1.427  1.00  0.00     0.034 C 
ENDBRANCH  10  22
ENDBRANCH   9  10
ENDBRANCH   7   9
ENDBRANCH   6   7
ENDBRANCH   5   6
ENDBRANCH   4   5
ENDBRANCH   3   4
ENDBRANCH   2   3
ENDBRANCH   1   2
BRANCH   1  26
ATOM     26  O   UNL     1       3.688  -3.160   5.349  1.00  0.00    -0.377 OA
BRANCH  26  27
ATOM     27  C   UNL     1       4.278  -4.182   6.124  1.00  0.00     0.188 C 
BRANCH  27  28
ATOM     28  C   UNL     1       5.564  -3.769   6.862  1.00  0.00     0.188 C 
BRANCH  28  29
ATOM     29  O   UNL     1       6.541  -3.228   5.990  1.00  0.00    -0.376 OA
BRANCH  29  30
ATOM     30  C   UNL     1       7.627  -3.985   5.497  1.00  0.00     0.202 C 
BRANCH  30  31
ATOM     31  C   UNL     1       7.495  -5.398   4.896  1.00  0.00     0.261 C 
BRANCH  31  32
ATOM     32  O   UNL     1       6.306  -6.135   5.175  1.00  0.00    -0.460 OA
BRANCH  32  33
ATOM     33  C   UNL     1       6.333  -6.907   6.281  1.00  0.00     0.338 C 
ATOM     34  O   UNL     1       7.258  -7.023   7.074  1.00  0.00    -0.246 OA
BRANCH  33  35
ATOM     35  C   UNL     1       4.984  -7.455   6.516  1.00  0.00     0.060 A 
ATOM     36  C   UNL     1       4.315  -7.063   7.683  1.00  0.00     0.016 A 
ATOM     37  C   UNL     1       4.389  -8.349   5.623  1.00  0.00     0.016 A 
ATOM     38  C   UNL     1       3.062  -7.587   7.981  1.00  0.00     0.010 A 
ATOM     39  C   UNL     1       3.148  -8.910   5.945  1.00  0.00     0.010 A 
ATOM     40  C   UNL     1       2.502  -8.559   7.145  1.00  0.00    -0.014 A 
BRANCH  40  41
ATOM     41  C   UNL     1       1.393  -9.386   7.675  1.00  0.00     0.031 A 
ATOM     42  C   UNL     1       1.751 -10.673   8.366  1.00  0.00     0.074 A 
ATOM     43  C   UNL     1       0.116  -8.977   7.615  1.00  0.00     0.049 A 
ATOM     44  N   UNL     1       0.976 -11.573   8.913  1.00  0.00    -0.248 NA
ATOM     45  C   UNL     1       3.188 -10.984   8.454  1.00  0.00     0.031 C 
ATOM     46  C   UNL     1      -0.343  -7.718   7.035  1.00  0.00     0.029 A 
ATOM     47  N   UNL     1      -1.032  -9.587   8.056  1.00  0.00    -0.354 N 
ATOM     48  C   UNL     1       1.828 -12.551   9.408  1.00  0.00     0.074 A 
ATOM     49  C   UNL     1       3.176 -12.157   9.066  1.00  0.00     0.031 C 
ATOM     50  C   UNL     1      -1.682  -7.652   7.146  1.00  0.00     0.029 A 
ATOM     51  C   UNL     1      -2.173  -8.878   7.775  1.00  0.00     0.049 A 
ATOM     52  H   UNL     1      -1.036 -10.451   8.527  1.00  0.00     0.167 HD
ATOM     53  C   UNL     1       1.515 -13.674  10.096  1.00  0.00     0.037 A 
ATOM     54  C   UNL     1      -3.464  -9.200   7.988  1.00  0.00     0.037 A 
ATOM     55  C   UNL     1       0.171 -14.069  10.419  1.00  0.00     0.049 A 
ATOM     56  C   UNL     1      -3.794 -10.509   8.664  1.00  0.00     0.074 A 
ATOM     57  C   UNL     1      -0.260 -15.193  11.100  1.00  0.00     0.029 A 
ATOM     58  N   UNL     1      -0.965 -13.351  10.070  1.00  0.00    -0.354 N 
ATOM     59  N   UNL     1      -2.986 -11.427   9.138  1.00  0.00    -0.248 NA
ATOM     60  C   UNL     1      -5.219 -10.821   8.839  1.00  0.00     0.031 C 
ATOM     61  C   UNL     1      -1.658 -15.187  11.109  1.00  0.00     0.029 A 
ATOM     62  C   UNL     1      -2.098 -14.022  10.500  1.00  0.00     0.049 A 
ATOM     63  H   UNL     1      -0.965 -12.493   9.588  1.00  0.00     0.167 HD
ATOM     64  C   UNL     1      -3.801 -12.402   9.703  1.00  0.00     0.074 A 
ATOM     65  C   UNL     1      -5.166 -11.958   9.519  1.00  0.00     0.031 C 
ATOM     66  C   UNL     1      -3.451 -13.556  10.324  1.00  0.00     0.037 A 
BRANCH  53  67
ATOM     67  C   UNL     1       2.649 -14.570  10.504  1.00  0.00     0.064 A 
ATOM     68  C   UNL     1       3.582 -14.188  11.481  1.00  0.00     0.173 A 
ATOM     69  C   UNL     1       2.802 -15.832   9.912  1.00  0.00     0.173 A 
ATOM     70  F   UNL     1       3.494 -12.983  12.065  1.00  0.00    -0.203 F 
ATOM     71  C   UNL     1       4.643 -15.022  11.824  1.00  0.00     0.198 A 
ATOM     72  C   UNL     1       3.844 -16.678  10.283  1.00  0.00     0.198 A 
ATOM     73  F   UNL     1       1.940 -16.248   8.972  1.00  0.00    -0.203 F 
ATOM     74  F   UNL     1       5.556 -14.610  12.714  1.00  0.00    -0.200 F 
ATOM     75  C   UNL     1       4.769 -16.268  11.230  1.00  0.00     0.200 A 
ATOM     76  F   UNL     1       3.957 -17.887   9.716  1.00  0.00    -0.200 F 
ATOM     77  F   UNL     1       5.789 -17.071  11.564  1.00  0.00    -0.200 F 
ENDBRANCH  53  67
BRANCH  54  78
ATOM     78  C   UNL     1      -4.546  -8.277   7.553  1.00  0.00     0.064 A 
ATOM     79  C   UNL     1      -5.377  -7.642   8.486  1.00  0.00     0.173 A 
ATOM     80  C   UNL     1      -4.795  -8.039   6.192  1.00  0.00     0.173 A 
ATOM     81  F   UNL     1      -5.198  -7.859   9.798  1.00  0.00    -0.203 F 
ATOM     82  C   UNL     1      -6.428  -6.824   8.077  1.00  0.00     0.198 A 
ATOM     83  C   UNL     1      -5.827  -7.195   5.785  1.00  0.00     0.198 A 
ATOM     84  F   UNL     1      -4.035  -8.627   5.257  1.00  0.00    -0.203 F 
ATOM     85  F   UNL     1      -7.242  -6.276   8.990  1.00  0.00    -0.200 F 
ATOM     86  C   UNL     1      -6.649  -6.596   6.727  1.00  0.00     0.200 A 
ATOM     87  F   UNL     1      -6.031  -6.972   4.480  1.00  0.00    -0.200 F 
ATOM     88  F   UNL     1      -7.662  -5.812   6.334  1.00  0.00    -0.200 F 
ENDBRANCH  54  78
BRANCH  66  89
ATOM     89  C   UNL     1      -4.554 -14.392  10.910  1.00  0.00     0.064 A 
ATOM     90  C   UNL     1      -5.470 -15.088  10.107  1.00  0.00     0.173 A 
ATOM     91  C   UNL     1      -4.668 -14.532  12.303  1.00  0.00     0.173 A 
ATOM     92  F   UNL     1      -5.413 -14.982   8.771  1.00  0.00    -0.203 F 
ATOM     93  C   UNL     1      -6.476 -15.864  10.676  1.00  0.00     0.198 A 
ATOM     94  C   UNL     1      -5.651 -15.338  12.867  1.00  0.00     0.198 A 
ATOM     95  F   UNL     1      -3.812 -13.898  13.118  1.00  0.00    -0.203 F 
ATOM     96  F   UNL     1      -7.374 -16.475   9.890  1.00  0.00    -0.200 F 
ATOM     97  C   UNL     1      -6.561 -15.995  12.054  1.00  0.00     0.200 A 
ATOM     98  F   UNL     1      -5.718 -15.479  14.198  1.00  0.00    -0.200 F 
ATOM     99  F   UNL     1      -7.525 -16.751  12.600  1.00  0.00    -0.200 F 
ENDBRANCH  66  89
ENDBRANCH  40  41
ENDBRANCH  33  35
ENDBRANCH  32  33
ENDBRANCH  31  32
ENDBRANCH  30  31
ENDBRANCH  29  30
ENDBRANCH  28  29
ENDBRANCH  27  28
ENDBRANCH  26  27
ENDBRANCH   1  26
TORSDOF 26
