REMARK SMILES CCc1nnc(/[NH+]=C2/S/C(=C/c3ccccc3OCCC(=O)OCCOCCOCCOCCOC(=O)c3ccc(-c4c5nc(c(-c6c(F)c(F)c(F)c(F)c6F)c6ccc([nH]6)c(-c6c(F)c(F)c(F)c(F)c6F)c6nc(c(-c7c(F)c(F)c(F)c(F)c7F)c7ccc4[nH]7)C=C6)C=C5)cc3)C(=O)N2C)s1
REMARK SMILES IDX 27 1 26 2 25 3 24 4 23 5 21 6 22 7 20 8 19 9 18 10 17 11
REMARK SMILES IDX 12 12 13 13 14 14 16 15 15 16 11 17 7 18 8 19 9 21 103 22
REMARK SMILES IDX 10 23 101 24 104 25 102 26 6 27 3 28 4 29 105 30 5 31 2 32
REMARK SMILES IDX 1 33 28 34 29 35 30 36 31 37 32 38 33 39 34 40 35 41 36 42
REMARK SMILES IDX 37 43 38 44 39 45 100 46 40 47 99 48 41 49 42 50 43 51 93 52
REMARK SMILES IDX 44 53 98 54 92 55 94 56 45 57 97 58 91 59 90 60 46 62 78 63
REMARK SMILES IDX 58 64 77 65 59 66 62 67 76 68 95 69 60 70 61 71 75 73 96 74
REMARK SMILES IDX 63 75 47 76 48 77 56 78 49 79 50 80 54 81 57 82 51 83 52 84
REMARK SMILES IDX 55 85 53 86 79 87 80 88 88 89 81 90 82 91 86 92 89 93 83 94
REMARK SMILES IDX 84 95 87 96 85 97 64 98 65 99 73 100 66 101 67 102 71 103
REMARK SMILES IDX 74 104 68 105 69 106 72 107 70 108
REMARK H PARENT 7 20 94 61 62 72
REMARK Flexibility Score: inf
ROOT
ATOM      1  C   UNL     1       3.201   0.950  -9.803  1.00  0.00     0.188 C 
ENDROOT
BRANCH   1   2
ATOM      2  O   UNL     1       3.795  -0.019 -10.658  1.00  0.00    -0.376 OA
BRANCH   2   3
ATOM      3  C   UNL     1       3.528  -1.393 -10.328  1.00  0.00     0.202 C 
BRANCH   3   4
ATOM      4  C   UNL     1       3.959  -1.875  -8.919  1.00  0.00     0.261 C 
BRANCH   4   5
ATOM      5  O   UNL     1       2.849  -2.040  -7.987  1.00  0.00    -0.463 OA
BRANCH   5   6
ATOM      6  C   UNL     1       3.187  -2.647  -6.808  1.00  0.00     0.309 C 
ATOM      7  O   UNL     1       4.333  -3.024  -6.564  1.00  0.00    -0.252 OA
BRANCH   6   8
ATOM      8  C   UNL     1       2.026  -3.020  -5.870  1.00  0.00     0.164 C 
BRANCH   8   9
ATOM      9  C   UNL     1       1.169  -1.990  -5.111  1.00  0.00     0.241 C 
BRANCH   9  10
ATOM     10  O   UNL     1      -0.188  -1.731  -5.515  1.00  0.00    -0.492 OA
BRANCH  10  11
ATOM     11  C   UNL     1      -0.346  -1.760  -6.864  1.00  0.00     0.126 A 
ATOM     12  C   UNL     1       0.247  -0.845  -7.728  1.00  0.00     0.018 A 
ATOM     13  C   UNL     1       0.206  -1.199  -9.081  1.00  0.00     0.012 A 
ATOM     14  C   UNL     1      -0.468  -2.316  -9.580  1.00  0.00     0.001 A 
ATOM     15  C   UNL     1      -1.134  -2.824  -7.350  1.00  0.00     0.047 A 
ATOM     16  C   UNL     1      -1.202  -3.099  -8.713  1.00  0.00     0.004 A 
BRANCH  12  17
ATOM     17  C   UNL     1       0.656   0.550  -7.411  1.00  0.00     0.035 C 
ATOM     18  N   UNL     1       1.398   3.608  -3.956  1.00  0.00    -0.226 N 
ATOM     19  C   UNL     1       1.897   2.743  -4.771  1.00  0.00     0.271 C 
ATOM     20  H   UNL     1       1.091   4.487  -4.276  1.00  0.00     0.268 HD
ATOM     21  S   UNL     1       1.476   2.936  -6.472  1.00  0.00    -0.012 SA
ATOM     22  N   UNL     1       2.608   1.580  -4.612  1.00  0.00    -0.222 N 
ATOM     23  C   UNL     1       1.570   1.208  -6.673  1.00  0.00     0.100 C 
ATOM     24  C   UNL     1       2.667   0.788  -5.752  1.00  0.00     0.321 C 
ATOM     25  C   UNL     1       3.329   1.139  -3.425  1.00  0.00     0.252 C 
ATOM     26  O   UNL     1       3.470  -0.083  -5.976  1.00  0.00    -0.250 OA
BRANCH  18  27
ATOM     27  C   UNL     1       1.310   3.274  -2.655  1.00  0.00     0.345 A 
ATOM     28  C   UNL     1       0.697   2.240  -0.598  1.00  0.00     0.138 A 
ATOM     29  N   UNL     1       1.733   3.039  -0.463  1.00  0.00    -0.067 NA
ATOM     30  S   UNL     1       0.004   2.244  -2.162  1.00  0.00    -0.044 S 
ATOM     31  N   UNL     1       2.072   3.656  -1.651  1.00  0.00     0.023 NA
BRANCH  28  32
ATOM     32  C   UNL     1       0.180   1.326   0.459  1.00  0.00     0.068 C 
ATOM     33  C   UNL     1       0.831  -0.046   0.337  1.00  0.00     0.012 C 
ENDBRANCH  28  32
ENDBRANCH  18  27
ENDBRANCH  12  17
ENDBRANCH  10  11
ENDBRANCH   9  10
ENDBRANCH   8   9
ENDBRANCH   6   8
ENDBRANCH   5   6
ENDBRANCH   4   5
ENDBRANCH   3   4
ENDBRANCH   2   3
ENDBRANCH   1   2
BRANCH   1  34
ATOM     34  C   UNL     1       2.055   1.770 -10.419  1.00  0.00     0.188 C 
BRANCH  34  35
ATOM     35  O   UNL     1       1.007   1.023 -11.031  1.00  0.00    -0.377 OA
BRANCH  35  36
ATOM     36  C   UNL     1       1.216   0.706 -12.400  1.00  0.00     0.188 C 
BRANCH  36  37
ATOM     37  C   UNL     1       0.913   1.866 -13.358  1.00  0.00     0.188 C 
BRANCH  37  38
ATOM     38  O   UNL     1       0.987   3.138 -12.725  1.00  0.00    -0.376 OA
BRANCH  38  39
ATOM     39  C   UNL     1      -0.260   3.812 -12.557  1.00  0.00     0.202 C 
BRANCH  39  40
ATOM     40  C   UNL     1      -1.260   3.203 -11.557  1.00  0.00     0.261 C 
BRANCH  40  41
ATOM     41  O   UNL     1      -1.700   1.861 -11.831  1.00  0.00    -0.460 OA
BRANCH  41  42
ATOM     42  C   UNL     1      -2.470   1.678 -12.921  1.00  0.00     0.338 C 
ATOM     43  O   UNL     1      -2.799   2.504 -13.751  1.00  0.00    -0.246 OA
BRANCH  42  44
ATOM     44  C   UNL     1      -2.810   0.247 -13.000  1.00  0.00     0.060 A 
ATOM     45  C   UNL     1      -2.148  -0.567 -13.926  1.00  0.00     0.016 A 
ATOM     46  C   UNL     1      -3.850  -0.263 -12.219  1.00  0.00     0.016 A 
ATOM     47  C   UNL     1      -2.552  -1.891 -14.098  1.00  0.00     0.010 A 
ATOM     48  C   UNL     1      -4.264  -1.585 -12.404  1.00  0.00     0.010 A 
ATOM     49  C   UNL     1      -3.643  -2.392 -13.373  1.00  0.00    -0.014 A 
BRANCH  49  50
ATOM     50  C   UNL     1      -4.275  -3.665 -13.799  1.00  0.00     0.031 A 
ATOM     51  C   UNL     1      -5.383  -3.599 -14.816  1.00  0.00     0.074 A 
ATOM     52  C   UNL     1      -3.856  -4.854 -13.333  1.00  0.00     0.049 A 
ATOM     53  N   UNL     1      -6.080  -4.567 -15.355  1.00  0.00    -0.248 NA
ATOM     54  C   UNL     1      -5.747  -2.256 -15.297  1.00  0.00     0.031 C 
ATOM     55  C   UNL     1      -2.762  -5.055 -12.387  1.00  0.00     0.029 A 
ATOM     56  N   UNL     1      -4.308  -6.123 -13.601  1.00  0.00    -0.354 N 
ATOM     57  C   UNL     1      -6.948  -3.951 -16.249  1.00  0.00     0.074 A 
ATOM     58  C   UNL     1      -6.720  -2.526 -16.152  1.00  0.00     0.031 C 
ATOM     59  C   UNL     1      -2.632  -6.372 -12.144  1.00  0.00     0.029 A 
ATOM     60  C   UNL     1      -3.650  -7.103 -12.899  1.00  0.00     0.049 A 
ATOM     61  H   UNL     1      -5.036  -6.312 -14.236  1.00  0.00     0.167 HD
ATOM     62  C   UNL     1      -7.847  -4.522 -17.085  1.00  0.00     0.037 A 
ATOM     63  C   UNL     1      -3.861  -8.434 -12.865  1.00  0.00     0.037 A 
ATOM     64  C   UNL     1      -8.099  -5.935 -17.159  1.00  0.00     0.049 A 
ATOM     65  C   UNL     1      -4.945  -9.035 -13.727  1.00  0.00     0.074 A 
ATOM     66  C   UNL     1      -9.009  -6.611 -17.953  1.00  0.00     0.029 A 
ATOM     67  N   UNL     1      -7.445  -6.892 -16.397  1.00  0.00    -0.354 N 
ATOM     68  N   UNL     1      -5.744  -8.450 -14.586  1.00  0.00    -0.248 NA
ATOM     69  C   UNL     1      -5.152 -10.487 -13.616  1.00  0.00     0.031 C 
ATOM     70  C   UNL     1      -8.938  -7.971 -17.638  1.00  0.00     0.029 A 
ATOM     71  C   UNL     1      -7.945  -8.150 -16.689  1.00  0.00     0.049 A 
ATOM     72  H   UNL     1      -6.731  -6.704 -15.745  1.00  0.00     0.167 HD
ATOM     73  C   UNL     1      -6.513  -9.463 -15.148  1.00  0.00     0.074 A 
ATOM     74  C   UNL     1      -6.082 -10.701 -14.537  1.00  0.00     0.031 C 
ATOM     75  C   UNL     1      -7.486  -9.377 -16.089  1.00  0.00     0.037 A 
BRANCH  62  76
ATOM     76  C   UNL     1      -8.640  -3.606 -17.970  1.00  0.00     0.064 A 
ATOM     77  C   UNL     1      -8.049  -2.944 -19.057  1.00  0.00     0.173 A 
ATOM     78  C   UNL     1     -10.009  -3.405 -17.743  1.00  0.00     0.173 A 
ATOM     79  F   UNL     1      -6.739  -3.090 -19.305  1.00  0.00    -0.203 F 
ATOM     80  C   UNL     1      -8.796  -2.095 -19.870  1.00  0.00     0.198 A 
ATOM     81  C   UNL     1     -10.759  -2.577 -18.575  1.00  0.00     0.198 A 
ATOM     82  F   UNL     1     -10.622  -4.015 -16.717  1.00  0.00    -0.203 F 
ATOM     83  F   UNL     1      -8.201  -1.437 -20.874  1.00  0.00    -0.200 F 
ATOM     84  C   UNL     1     -10.151  -1.918 -19.632  1.00  0.00     0.200 A 
ATOM     85  F   UNL     1     -12.070  -2.415 -18.350  1.00  0.00    -0.200 F 
ATOM     86  F   UNL     1     -10.870  -1.105 -20.419  1.00  0.00    -0.200 F 
ENDBRANCH  62  76
BRANCH  63  87
ATOM     87  C   UNL     1      -3.037  -9.304 -11.982  1.00  0.00     0.064 A 
ATOM     88  C   UNL     1      -2.163 -10.261 -12.517  1.00  0.00     0.173 A 
ATOM     89  C   UNL     1      -3.149  -9.235 -10.585  1.00  0.00     0.173 A 
ATOM     90  F   UNL     1      -2.041 -10.386 -13.847  1.00  0.00    -0.203 F 
ATOM     91  C   UNL     1      -1.454 -11.132 -11.692  1.00  0.00     0.198 A 
ATOM     92  C   UNL     1      -2.417 -10.087  -9.760  1.00  0.00     0.198 A 
ATOM     93  F   UNL     1      -3.974  -8.342 -10.020  1.00  0.00    -0.203 F 
ATOM     94  F   UNL     1      -0.671 -12.076 -12.233  1.00  0.00    -0.200 F 
ATOM     95  C   UNL     1      -1.579 -11.042 -10.314  1.00  0.00     0.200 A 
ATOM     96  F   UNL     1      -2.534  -9.990  -8.429  1.00  0.00    -0.200 F 
ATOM     97  F   UNL     1      -0.902 -11.884  -9.521  1.00  0.00    -0.200 F 
ENDBRANCH  63  87
BRANCH  75  98
ATOM     98  C   UNL     1      -8.110 -10.658 -16.565  1.00  0.00     0.064 A 
ATOM     99  C   UNL     1      -8.979 -11.405 -15.757  1.00  0.00     0.173 A 
ATOM    100  C   UNL     1      -7.869 -11.118 -17.869  1.00  0.00     0.173 A 
ATOM    101  F   UNL     1      -9.233 -11.016 -14.498  1.00  0.00    -0.203 F 
ATOM    102  C   UNL     1      -9.562 -12.579 -16.227  1.00  0.00     0.198 A 
ATOM    103  C   UNL     1      -8.478 -12.274 -18.347  1.00  0.00     0.198 A 
ATOM    104  F   UNL     1      -7.053 -10.435 -18.687  1.00  0.00    -0.203 F 
ATOM    105  F   UNL     1     -10.351 -13.303 -15.421  1.00  0.00    -0.200 F 
ATOM    106  C   UNL     1      -9.317 -13.008 -17.524  1.00  0.00     0.200 A 
ATOM    107  F   UNL     1      -8.253 -12.678 -19.605  1.00  0.00    -0.200 F 
ATOM    108  F   UNL     1      -9.886 -14.134 -17.977  1.00  0.00    -0.200 F 
ENDBRANCH  75  98
ENDBRANCH  49  50
ENDBRANCH  42  44
ENDBRANCH  41  42
ENDBRANCH  40  41
ENDBRANCH  39  40
ENDBRANCH  38  39
ENDBRANCH  37  38
ENDBRANCH  36  37
ENDBRANCH  35  36
ENDBRANCH  34  35
ENDBRANCH   1  34
TORSDOF 26
