REMARK SMILES O=C(OCCOCCOCCOCCOC(=O)[C@@H]1[C@@H](C(=O)Nc2cccc([N+](=O)[O-])c2)[C@@H]2C=C[C@H]1O2)c1ccc(-c2c3nc(c(-c4c(F)c(F)c(F)c(F)c4F)c4ccc([nH]4)c(-c4c(F)c(F)c(F)c(F)c4F)c4nc(c(-c5c(F)c(F)c(F)c(F)c5F)c5ccc2[nH]5)C=C4)C=C3)cc1
REMARK SMILES IDX 10 1 9 2 8 3 7 4 6 5 5 6 4 7 3 8 2 9 1 10 37 11 38 12 99 13
REMARK SMILES IDX 39 14 98 15 40 16 41 17 42 18 92 19 43 20 97 21 91 22 93 23
REMARK SMILES IDX 44 24 96 25 90 26 89 27 45 29 77 30 57 31 76 32 58 33 61 34
REMARK SMILES IDX 75 35 94 36 59 37 60 38 74 40 95 41 62 42 46 43 47 44 55 45
REMARK SMILES IDX 48 46 49 47 53 48 56 49 50 50 51 51 54 52 52 53 78 54 79 55
REMARK SMILES IDX 87 56 80 57 81 58 85 59 88 60 82 61 83 62 86 63 84 64 63 65
REMARK SMILES IDX 64 66 72 67 65 68 66 69 70 70 73 71 67 72 68 73 71 74 69 75
REMARK SMILES IDX 11 76 12 77 13 78 14 79 15 80 16 81 17 82 18 83 19 84 35 85
REMARK SMILES IDX 32 86 34 87 36 88 33 89 20 90 21 91 22 92 23 94 24 95 31 96
REMARK SMILES IDX 25 97 27 98 26 99 28 100 29 101 30 102
REMARK H PARENT 93 28 61 39 22 93
REMARK Flexibility Score: inf
ROOT
ATOM      1  C   UNL     1       3.461  -0.821   3.433  1.00  0.00     0.188 C 
ENDROOT
BRANCH   1   2
ATOM      2  O   UNL     1       2.052  -0.908   3.275  1.00  0.00    -0.377 OA
BRANCH   2   3
ATOM      3  C   UNL     1       1.571  -0.992   1.940  1.00  0.00     0.188 C 
BRANCH   3   4
ATOM      4  C   UNL     1       2.102   0.110   1.028  1.00  0.00     0.188 C 
BRANCH   4   5
ATOM      5  O   UNL     1       3.487  -0.113   0.736  1.00  0.00    -0.376 OA
BRANCH   5   6
ATOM      6  C   UNL     1       4.311   1.052   0.737  1.00  0.00     0.202 C 
BRANCH   6   7
ATOM      7  C   UNL     1       4.334   1.792  -0.598  1.00  0.00     0.261 C 
BRANCH   7   8
ATOM      8  O   UNL     1       3.066   1.761  -1.264  1.00  0.00    -0.460 OA
BRANCH   8   9
ATOM      9  C   UNL     1       2.574   0.810  -2.095  1.00  0.00     0.338 C 
ATOM     10  O   UNL     1       1.459   1.007  -2.581  1.00  0.00    -0.246 OA
BRANCH   9  11
ATOM     11  C   UNL     1       3.261  -0.481  -2.449  1.00  0.00     0.060 A 
ATOM     12  C   UNL     1       4.391  -1.024  -1.829  1.00  0.00     0.016 A 
ATOM     13  C   UNL     1       2.664  -1.241  -3.474  1.00  0.00     0.016 A 
ATOM     14  C   UNL     1       4.911  -2.260  -2.195  1.00  0.00     0.010 A 
ATOM     15  C   UNL     1       3.189  -2.476  -3.868  1.00  0.00     0.010 A 
ATOM     16  C   UNL     1       4.326  -2.977  -3.230  1.00  0.00    -0.014 A 
BRANCH  16  17
ATOM     17  C   UNL     1       5.048  -4.151  -3.741  1.00  0.00     0.031 A 
ATOM     18  C   UNL     1       5.946  -3.944  -4.921  1.00  0.00     0.074 A 
ATOM     19  C   UNL     1       4.992  -5.320  -3.082  1.00  0.00     0.049 A 
ATOM     20  N   UNL     1       6.623  -4.818  -5.612  1.00  0.00    -0.248 NA
ATOM     21  C   UNL     1       6.122  -2.551  -5.372  1.00  0.00     0.031 C 
ATOM     22  C   UNL     1       4.261  -5.550  -1.834  1.00  0.00     0.029 A 
ATOM     23  N   UNL     1       5.569  -6.529  -3.361  1.00  0.00    -0.354 N 
ATOM     24  C   UNL     1       7.273  -4.088  -6.597  1.00  0.00     0.074 A 
ATOM     25  C   UNL     1       6.933  -2.698  -6.407  1.00  0.00     0.031 C 
ATOM     26  C   UNL     1       4.421  -6.832  -1.465  1.00  0.00     0.029 A 
ATOM     27  C   UNL     1       5.206  -7.522  -2.484  1.00  0.00     0.049 A 
ATOM     28  H   UNL     1       6.183  -6.673  -4.117  1.00  0.00     0.167 HD
ATOM     29  C   UNL     1       8.066  -4.558  -7.585  1.00  0.00     0.037 A 
ATOM     30  C   UNL     1       5.440  -8.846  -2.550  1.00  0.00     0.037 A 
ATOM     31  C   UNL     1       8.381  -5.951  -7.736  1.00  0.00     0.049 A 
ATOM     32  C   UNL     1       6.232  -9.357  -3.728  1.00  0.00     0.074 A 
ATOM     33  C   UNL     1       9.140  -6.566  -8.711  1.00  0.00     0.029 A 
ATOM     34  N   UNL     1       7.937  -6.946  -6.875  1.00  0.00    -0.354 N 
ATOM     35  N   UNL     1       6.811  -8.679  -4.693  1.00  0.00    -0.248 NA
ATOM     36  C   UNL     1       6.382 -10.813  -3.848  1.00  0.00     0.031 C 
ATOM     37  C   UNL     1       9.108  -7.944  -8.471  1.00  0.00     0.029 A 
ATOM     38  C   UNL     1       8.372  -8.180  -7.318  1.00  0.00     0.049 A 
ATOM     39  H   UNL     1       7.392  -6.795  -6.069  1.00  0.00     0.167 HD
ATOM     40  C   UNL     1       7.397  -9.620  -5.527  1.00  0.00     0.074 A 
ATOM     41  C   UNL     1       7.131 -10.917  -4.936  1.00  0.00     0.031 C 
ATOM     42  C   UNL     1       8.081  -9.441  -6.684  1.00  0.00     0.037 A 
BRANCH  29  43
ATOM     43  C   UNL     1       8.553  -3.580  -8.608  1.00  0.00     0.064 A 
ATOM     44  C   UNL     1       9.564  -2.648  -8.334  1.00  0.00     0.173 A 
ATOM     45  C   UNL     1       7.985  -3.576  -9.892  1.00  0.00     0.173 A 
ATOM     46  F   UNL     1      10.115  -2.589  -7.113  1.00  0.00    -0.203 F 
ATOM     47  C   UNL     1       9.981  -1.740  -9.306  1.00  0.00     0.198 A 
ATOM     48  C   UNL     1       8.419  -2.683 -10.866  1.00  0.00     0.198 A 
ATOM     49  F   UNL     1       7.004  -4.438 -10.199  1.00  0.00    -0.203 F 
ATOM     50  F   UNL     1      10.919  -0.830  -9.011  1.00  0.00    -0.200 F 
ATOM     51  C   UNL     1       9.414  -1.763 -10.572  1.00  0.00     0.200 A 
ATOM     52  F   UNL     1       7.869  -2.707 -12.088  1.00  0.00    -0.200 F 
ATOM     53  F   UNL     1       9.817  -0.890 -11.505  1.00  0.00    -0.200 F 
ENDBRANCH  29  43
BRANCH  30  54
ATOM     54  C   UNL     1       4.845  -9.779  -1.552  1.00  0.00     0.064 A 
ATOM     55  C   UNL     1       5.646 -10.591  -0.736  1.00  0.00     0.173 A 
ATOM     56  C   UNL     1       3.452  -9.922  -1.435  1.00  0.00     0.173 A 
ATOM     57  F   UNL     1       6.982 -10.517  -0.823  1.00  0.00    -0.203 F 
ATOM     58  C   UNL     1       5.080 -11.525   0.133  1.00  0.00     0.198 A 
ATOM     59  C   UNL     1       2.888 -10.830  -0.541  1.00  0.00     0.198 A 
ATOM     60  F   UNL     1       2.633  -9.182  -2.196  1.00  0.00    -0.203 F 
ATOM     61  F   UNL     1       5.871 -12.333   0.851  1.00  0.00    -0.200 F 
ATOM     62  C   UNL     1       3.702 -11.641   0.232  1.00  0.00     0.200 A 
ATOM     63  F   UNL     1       1.555 -10.929  -0.442  1.00  0.00    -0.200 F 
ATOM     64  F   UNL     1       3.160 -12.545   1.060  1.00  0.00    -0.200 F 
ENDBRANCH  30  54
BRANCH  42  65
ATOM     65  C   UNL     1       8.588 -10.673  -7.369  1.00  0.00     0.064 A 
ATOM     66  C   UNL     1       7.719 -11.533  -8.055  1.00  0.00     0.173 A 
ATOM     67  C   UNL     1       9.961 -10.953  -7.398  1.00  0.00     0.173 A 
ATOM     68  F   UNL     1       6.396 -11.310  -8.039  1.00  0.00    -0.203 F 
ATOM     69  C   UNL     1       8.208 -12.642  -8.736  1.00  0.00     0.198 A 
ATOM     70  C   UNL     1      10.450 -12.044  -8.107  1.00  0.00     0.198 A 
ATOM     71  F   UNL     1      10.829 -10.152  -6.763  1.00  0.00    -0.203 F 
ATOM     72  F   UNL     1       7.359 -13.473  -9.354  1.00  0.00    -0.200 F 
ATOM     73  C   UNL     1       9.573 -12.890  -8.771  1.00  0.00     0.200 A 
ATOM     74  F   UNL     1      11.769 -12.273  -8.156  1.00  0.00    -0.200 F 
ATOM     75  F   UNL     1      10.044 -13.949  -9.444  1.00  0.00    -0.200 F 
ENDBRANCH  42  65
ENDBRANCH  16  17
ENDBRANCH   9  11
ENDBRANCH   8   9
ENDBRANCH   7   8
ENDBRANCH   6   7
ENDBRANCH   5   6
ENDBRANCH   4   5
ENDBRANCH   3   4
ENDBRANCH   2   3
ENDBRANCH   1   2
BRANCH   1  76
ATOM     76  C   UNL     1       4.329  -1.947   2.824  1.00  0.00     0.188 C 
BRANCH  76  77
ATOM     77  O   UNL     1       3.596  -3.105   2.459  1.00  0.00    -0.376 OA
BRANCH  77  78
ATOM     78  C   UNL     1       3.553  -4.136   3.440  1.00  0.00     0.202 C 
BRANCH  78  79
ATOM     79  C   UNL     1       2.932  -3.750   4.793  1.00  0.00     0.261 C 
BRANCH  79  80
ATOM     80  O   UNL     1       3.612  -2.692   5.517  1.00  0.00    -0.463 OA
BRANCH  80  81
ATOM     81  C   UNL     1       4.902  -2.870   5.888  1.00  0.00     0.312 C 
ATOM     82  O   UNL     1       5.485  -3.940   5.750  1.00  0.00    -0.252 OA
BRANCH  81  83
ATOM     83  C   UNL     1       5.492  -1.612   6.529  1.00  0.00     0.147 C 
ATOM     84  C   UNL     1       5.990  -0.352   5.665  1.00  0.00     0.129 C 
ATOM     85  C   UNL     1       6.800  -1.994   7.241  1.00  0.00     0.157 C 
ATOM     86  C   UNL     1       7.441  -0.230   6.144  1.00  0.00     0.155 C 
ATOM     87  C   UNL     1       7.848  -2.453   6.265  1.00  0.00     0.004 C 
ATOM     88  O   UNL     1       7.320  -0.669   7.521  1.00  0.00    -0.365 OA
ATOM     89  C   UNL     1       8.229  -1.371   5.576  1.00  0.00     0.004 C 
BRANCH  84  90
ATOM     90  C   UNL     1       5.187   0.901   6.001  1.00  0.00     0.231 C 
ATOM     91  O   UNL     1       4.069   0.783   6.522  1.00  0.00    -0.274 OA
ATOM     92  N   UNL     1       5.535   2.191   5.754  1.00  0.00    -0.325 N 
ATOM     93  H   UNL     1       4.885   2.799   6.173  1.00  0.00     0.169 HD
BRANCH  92  94
ATOM     94  C   UNL     1       6.527   2.934   5.092  1.00  0.00     0.048 A 
ATOM     95  C   UNL     1       6.588   4.297   5.456  1.00  0.00     0.026 A 
ATOM     96  C   UNL     1       7.395   2.475   4.104  1.00  0.00     0.111 A 
ATOM     97  C   UNL     1       7.518   5.179   4.898  1.00  0.00     0.009 A 
ATOM     98  C   UNL     1       8.320   3.378   3.525  1.00  0.00     0.271 A 
ATOM     99  C   UNL     1       8.395   4.720   3.927  1.00  0.00     0.086 A 
BRANCH  98 100
ATOM    100  N   UNL     1       9.207   2.925   2.445  1.00  0.00     0.062 N 
ATOM    101  O   UNL     1      10.125   3.679   2.093  1.00  0.00    -0.258 OA
ATOM    102  O   UNL     1       8.966   1.821   1.938  1.00  0.00    -0.258 OA
ENDBRANCH  98 100
ENDBRANCH  92  94
ENDBRANCH  84  90
ENDBRANCH  81  83
ENDBRANCH  80  81
ENDBRANCH  79  80
ENDBRANCH  78  79
ENDBRANCH  77  78
ENDBRANCH  76  77
ENDBRANCH   1  76
TORSDOF 23
