REMARK SMILES Cc1cc(C)c(S(=O)(=O)Nc2ccc(N3CC[NH+](C)CC3)c(C(=O)OCCOCCOCCOCCOC(=O)c3ccc(-c4c5nc(c(-c6c(F)c(F)c(F)c(F)c6F)c6ccc([nH]6)c(-c6c(F)c(F)c(F)c(F)c6F)c6nc(c(-c7c(F)c(F)c(F)c(F)c7F)c7ccc4[nH]7)C=C6)C=C5)cc3)c2)c(C)c1
REMARK SMILES IDX 30 1 29 2 28 3 27 4 26 5 25 6 23 7 24 8 22 9 11 10 12 11
REMARK SMILES IDX 103 12 13 13 14 14 10 15 7 17 8 18 9 19 6 20 1 21 2 22 3 23
REMARK SMILES IDX 106 24 4 25 104 26 5 27 105 28 15 29 16 30 21 31 17 32 20 33
REMARK SMILES IDX 18 34 19 35 31 37 32 38 33 39 34 40 35 41 36 42 37 43 38 44
REMARK SMILES IDX 39 45 40 46 41 47 102 48 42 49 101 50 43 51 44 52 45 53
REMARK SMILES IDX 95 54 46 55 100 56 94 57 96 58 47 59 99 60 93 61 92 62 48 64
REMARK SMILES IDX 80 65 60 66 79 67 61 68 64 69 78 70 97 71 62 72 63 73 77 75
REMARK SMILES IDX 98 76 65 77 49 78 50 79 58 80 51 81 52 82 56 83 59 84 53 85
REMARK SMILES IDX 54 86 57 87 55 88 81 89 82 90 90 91 83 92 84 93 88 94 91 95
REMARK SMILES IDX 85 96 86 97 89 98 87 99 66 100 67 101 75 102 68 103 69 104
REMARK SMILES IDX 73 105 76 106 70 107 71 108 74 109 72 110
REMARK H PARENT 10 16 18 36 96 63 64 74
REMARK Flexibility Score: inf
ROOT
ATOM      1  C   UNL     1       2.493  -4.027   3.824  1.00  0.00     0.188 C 
ENDROOT
BRANCH   1   2
ATOM      2  C   UNL     1       3.935  -3.574   3.546  1.00  0.00     0.188 C 
BRANCH   2   3
ATOM      3  O   UNL     1       4.365  -2.478   4.331  1.00  0.00    -0.376 OA
BRANCH   3   4
ATOM      4  C   UNL     1       4.235  -1.149   3.858  1.00  0.00     0.202 C 
BRANCH   4   5
ATOM      5  C   UNL     1       3.169  -0.664   2.858  1.00  0.00     0.261 C 
BRANCH   5   6
ATOM      6  O   UNL     1       2.414  -1.669   2.192  1.00  0.00    -0.460 OA
BRANCH   6   7
ATOM      7  C   UNL     1       2.832  -2.069   0.969  1.00  0.00     0.340 C 
ATOM      8  O   UNL     1       3.760  -1.598   0.331  1.00  0.00    -0.246 OA
BRANCH   7   9
ATOM      9  C   UNL     1       1.988  -3.230   0.577  1.00  0.00     0.085 A 
ATOM     10  C   UNL     1      -0.254  -3.975   0.138  1.00  0.00     0.050 A 
ATOM     11  C   UNL     1       0.259  -5.165  -0.384  1.00  0.00     0.029 A 
ATOM     12  C   UNL     1       0.602  -3.091   0.766  1.00  0.00     0.044 A 
ATOM     13  C   UNL     1       1.641  -5.379  -0.432  1.00  0.00     0.029 A 
ATOM     14  C   UNL     1       2.537  -4.392  -0.007  1.00  0.00     0.052 A 
BRANCH  10  15
ATOM     15  N   UNL     1      -1.579  -3.627  -0.233  1.00  0.00    -0.280 N 
ATOM     16  H   UNL     1      -2.133  -4.351  -0.605  1.00  0.00     0.180 HD
BRANCH  15  17
ATOM     17  S   UNL     1      -2.308  -2.124  -0.109  1.00  0.00     0.262 S 
ATOM     18  O   UNL     1      -2.607  -1.950   1.299  1.00  0.00    -0.201 OA
ATOM     19  O   UNL     1      -3.370  -2.144  -1.095  1.00  0.00    -0.201 OA
BRANCH  17  20
ATOM     20  C   UNL     1      -1.205  -0.767  -0.582  1.00  0.00     0.093 A 
ATOM     21  C   UNL     1       1.958   2.128  -0.030  1.00  0.00     0.044 C 
ATOM     22  C   UNL     1       0.843   1.156  -0.280  1.00  0.00    -0.051 A 
ATOM     23  C   UNL     1      -0.444   1.426   0.176  1.00  0.00     0.008 A 
ATOM     24  C   UNL     1       1.039   0.016  -1.063  1.00  0.00     0.008 A 
ATOM     25  C   UNL     1      -1.479   0.487   0.019  1.00  0.00    -0.030 A 
ATOM     26  C   UNL     1       0.016  -0.939  -1.262  1.00  0.00    -0.030 A 
ATOM     27  C   UNL     1      -2.870   0.952   0.373  1.00  0.00     0.046 C 
ATOM     28  C   UNL     1       0.288  -1.999  -2.293  1.00  0.00     0.046 C 
ENDBRANCH  17  20
ENDBRANCH  15  17
ENDBRANCH  10  15
BRANCH  14  29
ATOM     29  N   UNL     1       3.890  -4.580  -0.159  1.00  0.00    -0.360 N 
ATOM     30  C   UNL     1       4.674  -5.418   0.746  1.00  0.00     0.178 C 
ATOM     31  C   UNL     1       4.544  -4.296  -1.437  1.00  0.00     0.178 C 
ATOM     32  C   UNL     1       6.030  -4.715   1.013  1.00  0.00     0.283 C 
ATOM     33  C   UNL     1       5.938  -3.667  -1.180  1.00  0.00     0.283 C 
ATOM     34  N   UNL     1       6.794  -4.420  -0.222  1.00  0.00    -0.334 N 
ATOM     35  C   UNL     1       7.966  -3.606   0.123  1.00  0.00     0.332 C 
ATOM     36  H   UNL     1       7.092  -5.295  -0.654  1.00  0.00     0.347 HD
ENDBRANCH  14  29
ENDBRANCH   7   9
ENDBRANCH   6   7
ENDBRANCH   5   6
ENDBRANCH   4   5
ENDBRANCH   3   4
ENDBRANCH   2   3
ENDBRANCH   1   2
BRANCH   1  37
ATOM     37  O   UNL     1       1.769  -3.109   4.617  1.00  0.00    -0.377 OA
BRANCH  37  38
ATOM     38  C   UNL     1       2.063  -3.086   6.009  1.00  0.00     0.188 C 
BRANCH  38  39
ATOM     39  C   UNL     1       3.296  -3.814   6.608  1.00  0.00     0.188 C 
BRANCH  39  40
ATOM     40  O   UNL     1       3.651  -5.046   5.993  1.00  0.00    -0.376 OA
BRANCH  40  41
ATOM     41  C   UNL     1       3.279  -6.257   6.634  1.00  0.00     0.202 C 
BRANCH  41  42
ATOM     42  C   UNL     1       1.779  -6.584   6.638  1.00  0.00     0.261 C 
BRANCH  42  43
ATOM     43  O   UNL     1       0.943  -5.621   7.297  1.00  0.00    -0.460 OA
BRANCH  43  44
ATOM     44  C   UNL     1       1.196  -5.375   8.601  1.00  0.00     0.338 C 
ATOM     45  O   UNL     1       2.001  -5.940   9.317  1.00  0.00    -0.246 OA
BRANCH  44  46
ATOM     46  C   UNL     1       0.484  -4.134   8.966  1.00  0.00     0.060 A 
ATOM     47  C   UNL     1       1.232  -3.061   9.468  1.00  0.00     0.016 A 
ATOM     48  C   UNL     1      -0.894  -4.008   8.768  1.00  0.00     0.016 A 
ATOM     49  C   UNL     1       0.598  -1.870   9.806  1.00  0.00     0.010 A 
ATOM     50  C   UNL     1      -1.534  -2.822   9.135  1.00  0.00     0.010 A 
ATOM     51  C   UNL     1      -0.793  -1.764   9.688  1.00  0.00    -0.014 A 
BRANCH  51  52
ATOM     52  C   UNL     1      -1.472  -0.627  10.351  1.00  0.00     0.031 A 
ATOM     53  C   UNL     1      -1.985  -0.826  11.748  1.00  0.00     0.074 A 
ATOM     54  C   UNL     1      -1.564   0.573   9.756  1.00  0.00     0.049 A 
ATOM     55  N   UNL     1      -2.552   0.030  12.559  1.00  0.00    -0.248 NA
ATOM     56  C   UNL     1      -1.835  -2.179  12.308  1.00  0.00     0.031 C 
ATOM     57  C   UNL     1      -1.081   0.891   8.416  1.00  0.00     0.029 A 
ATOM     58  N   UNL     1      -2.099   1.750  10.215  1.00  0.00    -0.354 N 
ATOM     59  C   UNL     1      -2.812  -0.676  13.726  1.00  0.00     0.074 A 
ATOM     60  C   UNL     1      -2.388  -2.041  13.501  1.00  0.00     0.031 C 
ATOM     61  C   UNL     1      -1.350   2.183   8.154  1.00  0.00     0.029 A 
ATOM     62  C   UNL     1      -2.039   2.772   9.302  1.00  0.00     0.049 A 
ATOM     63  H   UNL     1      -2.488   1.852  11.114  1.00  0.00     0.167 HD
ATOM     64  C   UNL     1      -3.342  -0.223  14.887  1.00  0.00     0.037 A 
ATOM     65  C   UNL     1      -2.502   4.034   9.384  1.00  0.00     0.037 A 
ATOM     66  C   UNL     1      -3.789   1.129  15.096  1.00  0.00     0.049 A 
ATOM     67  C   UNL     1      -3.152   4.500  10.661  1.00  0.00     0.074 A 
ATOM     68  C   UNL     1      -4.341   1.691  16.233  1.00  0.00     0.029 A 
ATOM     69  N   UNL     1      -3.752   2.129  14.133  1.00  0.00    -0.354 N 
ATOM     70  N   UNL     1      -3.363   3.840  11.775  1.00  0.00    -0.248 NA
ATOM     71  C   UNL     1      -3.615   5.894  10.695  1.00  0.00     0.031 C 
ATOM     72  C   UNL     1      -4.691   3.014  15.940  1.00  0.00     0.029 A 
ATOM     73  C   UNL     1      -4.298   3.298  14.641  1.00  0.00     0.049 A 
ATOM     74  H   UNL     1      -3.390   2.023  13.224  1.00  0.00     0.167 HD
ATOM     75  C   UNL     1      -3.967   4.739  12.646  1.00  0.00     0.074 A 
ATOM     76  C   UNL     1      -4.061   6.000  11.939  1.00  0.00     0.031 C 
ATOM     77  C   UNL     1      -4.405   4.540  13.916  1.00  0.00     0.037 A 
BRANCH  64  78
ATOM     78  C   UNL     1      -3.495  -1.221  16.000  1.00  0.00     0.064 A 
ATOM     79  C   UNL     1      -2.383  -1.771  16.657  1.00  0.00     0.173 A 
ATOM     80  C   UNL     1      -4.769  -1.643  16.405  1.00  0.00     0.173 A 
ATOM     81  F   UNL     1      -1.140  -1.417  16.296  1.00  0.00    -0.203 F 
ATOM     82  C   UNL     1      -2.541  -2.736  17.649  1.00  0.00     0.198 A 
ATOM     83  C   UNL     1      -4.925  -2.583  17.421  1.00  0.00     0.198 A 
ATOM     84  F   UNL     1      -5.867  -1.151  15.811  1.00  0.00    -0.203 F 
ATOM     85  F   UNL     1      -1.463  -3.297  18.215  1.00  0.00    -0.200 F 
ATOM     86  C   UNL     1      -3.812  -3.137  18.033  1.00  0.00     0.200 A 
ATOM     87  F   UNL     1      -6.154  -2.961  17.799  1.00  0.00    -0.200 F 
ATOM     88  F   UNL     1      -3.963  -4.068  18.986  1.00  0.00    -0.200 F 
ENDBRANCH  64  78
BRANCH  65  89
ATOM     89  C   UNL     1      -2.369   4.941   8.215  1.00  0.00     0.064 A 
ATOM     90  C   UNL     1      -1.506   6.045   8.242  1.00  0.00     0.173 A 
ATOM     91  C   UNL     1      -3.102   4.715   7.040  1.00  0.00     0.173 A 
ATOM     92  F   UNL     1      -0.803   6.319   9.351  1.00  0.00    -0.203 F 
ATOM     93  C   UNL     1      -1.389   6.893   7.142  1.00  0.00     0.198 A 
ATOM     94  C   UNL     1      -2.962   5.546   5.931  1.00  0.00     0.198 A 
ATOM     95  F   UNL     1      -3.946   3.675   6.965  1.00  0.00    -0.203 F 
ATOM     96  F   UNL     1      -0.586   7.964   7.207  1.00  0.00    -0.200 F 
ATOM     97  C   UNL     1      -2.110   6.638   5.985  1.00  0.00     0.200 A 
ATOM     98  F   UNL     1      -3.651   5.287   4.811  1.00  0.00    -0.200 F 
ATOM     99  F   UNL     1      -1.986   7.446   4.923  1.00  0.00    -0.200 F 
ENDBRANCH  65  89
BRANCH  77 100
ATOM    100  C   UNL     1      -5.014   5.721  14.622  1.00  0.00     0.064 A 
ATOM    101  C   UNL     1      -6.248   6.261  14.227  1.00  0.00     0.173 A 
ATOM    102  C   UNL     1      -4.359   6.317  15.711  1.00  0.00     0.173 A 
ATOM    103  F   UNL     1      -6.912   5.738  13.185  1.00  0.00    -0.203 F 
ATOM    104  C   UNL     1      -6.779   7.380  14.864  1.00  0.00     0.198 A 
ATOM    105  C   UNL     1      -4.911   7.412  16.370  1.00  0.00     0.198 A 
ATOM    106  F   UNL     1      -3.182   5.835  16.139  1.00  0.00    -0.203 F 
ATOM    107  F   UNL     1      -7.923   7.920  14.424  1.00  0.00    -0.200 F 
ATOM    108  C   UNL     1      -6.112   7.952  15.938  1.00  0.00     0.200 A 
ATOM    109  F   UNL     1      -4.273   7.952  17.418  1.00  0.00    -0.200 F 
ATOM    110  F   UNL     1      -6.622   9.030  16.548  1.00  0.00    -0.200 F 
ENDBRANCH  77 100
ENDBRANCH  51  52
ENDBRANCH  44  46
ENDBRANCH  43  44
ENDBRANCH  42  43
ENDBRANCH  41  42
ENDBRANCH  40  41
ENDBRANCH  39  40
ENDBRANCH  38  39
ENDBRANCH  37  38
ENDBRANCH   1  37
TORSDOF 24
