REMARK SMILES O=C(N[C@@H](Cc1ccccc1)C(=O)N[C@@H](CS)C(=O)N[C@@H](CO)C(=O)OCCOCCOCCOCCOC(=O)c1ccc(-c2c3nc(c(-c4c(F)c(F)c(F)c(F)c4F)c4ccc([nH]4)c(-c4c(F)c(F)c(F)c(F)c4F)c4nc(c(-c5c(F)c(F)c(F)c(F)c5F)c5ccc2[nH]5)C=C4)C=C3)cc1)c1ccc(F)cc1
REMARK SMILES IDX 30 1 29 2 28 3 27 4 26 5 24 6 25 7 21 8 20 9 18 10 19 11
REMARK SMILES IDX 15 13 14 14 12 15 13 16 4 18 3 19 1 20 2 21 104 23 105 24
REMARK SMILES IDX 110 25 106 26 109 27 107 28 108 29 5 30 6 31 7 32 11 33 8 34
REMARK SMILES IDX 10 35 9 36 16 37 17 38 22 40 23 41 31 43 32 44 33 45 34 46
REMARK SMILES IDX 35 47 36 48 37 49 38 50 39 51 40 52 41 53 42 54 103 55 43 56
REMARK SMILES IDX 102 57 44 58 45 59 46 60 96 61 47 62 101 63 95 64 97 65
REMARK SMILES IDX 48 66 100 67 94 68 93 69 49 71 81 72 61 73 80 74 62 75 65 76
REMARK SMILES IDX 79 77 98 78 63 79 64 80 78 82 99 83 66 84 50 85 51 86 59 87
REMARK SMILES IDX 52 88 53 89 57 90 60 91 54 92 55 93 58 94 56 95 82 96 83 97
REMARK SMILES IDX 91 98 84 99 85 100 89 101 92 102 86 103 87 104 90 105 88 106
REMARK SMILES IDX 67 107 68 108 76 109 69 110 70 111 74 112 77 113 71 114
REMARK SMILES IDX 72 115 75 116 73 117
REMARK H PARENT 20 12 14 17 3 22 17 39 23 42 97 70 65 81
REMARK Flexibility Score: inf
ROOT
ATOM      1  C   UNL     1       1.967   8.220  -0.611  1.00  0.00     0.188 C 
ENDROOT
BRANCH   1   2
ATOM      2  O   UNL     1       1.639   9.277   0.287  1.00  0.00    -0.376 OA
BRANCH   2   3
ATOM      3  C   UNL     1       2.478  10.416   0.343  1.00  0.00     0.202 C 
BRANCH   3   4
ATOM      4  C   UNL     1       3.952  10.198   0.717  1.00  0.00     0.261 C 
BRANCH   4   5
ATOM      5  O   UNL     1       4.459   8.879   0.442  1.00  0.00    -0.462 OA
BRANCH   5   6
ATOM      6  C   UNL     1       4.693   8.055   1.498  1.00  0.00     0.331 C 
ATOM      7  O   UNL     1       4.572   8.376   2.674  1.00  0.00    -0.250 OA
BRANCH   6   8
ATOM      8  C   UNL     1       5.302   6.699   1.057  1.00  0.00     0.218 C 
BRANCH   8   9
ATOM      9  N   UNL     1       4.967   6.266  -0.314  1.00  0.00    -0.339 N 
ATOM     10  C   UNL     1       4.027   5.411  -0.797  1.00  0.00     0.244 C 
ATOM     11  O   UNL     1       3.507   5.722  -1.874  1.00  0.00    -0.273 OA
ATOM     12  H   UNL     1       5.531   6.674  -1.010  1.00  0.00     0.164 HD
BRANCH  10  13
ATOM     13  C   UNL     1       3.499   4.157  -0.085  1.00  0.00     0.181 C 
BRANCH  13  14
ATOM     14  N   UNL     1       4.491   3.440   0.702  1.00  0.00    -0.342 N 
ATOM     15  C   UNL     1       5.128   2.269   0.408  1.00  0.00     0.243 C 
ATOM     16  O   UNL     1       6.216   2.088   0.967  1.00  0.00    -0.273 OA
ATOM     17  H   UNL     1       4.736   3.854   1.561  1.00  0.00     0.164 HD
BRANCH  15  18
ATOM     18  C   UNL     1       4.597   1.226  -0.612  1.00  0.00     0.176 C 
BRANCH  18  19
ATOM     19  N   UNL     1       3.144   1.018  -0.570  1.00  0.00    -0.340 N 
ATOM     20  O   UNL     1       1.194  -0.009  -0.140  1.00  0.00    -0.269 OA
ATOM     21  C   UNL     1       2.420  -0.040  -0.077  1.00  0.00     0.251 C 
ATOM     22  H   UNL     1       2.607   1.749  -0.953  1.00  0.00     0.164 HD
BRANCH  21  23
ATOM     23  C   UNL     1       3.097  -1.259   0.420  1.00  0.00     0.040 A 
ATOM     24  C   UNL     1       4.088  -1.218   1.409  1.00  0.00     0.017 A 
ATOM     25  C   UNL     1       2.733  -2.482  -0.160  1.00  0.00     0.017 A 
ATOM     26  C   UNL     1       4.789  -2.381   1.732  1.00  0.00     0.040 A 
ATOM     27  C   UNL     1       3.421  -3.647   0.184  1.00  0.00     0.040 A 
ATOM     28  C   UNL     1       4.457  -3.581   1.109  1.00  0.00     0.123 A 
ATOM     29  F   UNL     1       5.149  -4.689   1.402  1.00  0.00    -0.207 F 
ENDBRANCH  21  23
ENDBRANCH  18  19
BRANCH  18  30
ATOM     30  C   UNL     1       5.195   1.310  -2.027  1.00  0.00     0.070 C 
BRANCH  30  31
ATOM     31  C   UNL     1       4.875   2.494  -2.900  1.00  0.00    -0.045 A 
ATOM     32  C   UNL     1       5.837   3.496  -3.101  1.00  0.00     0.004 A 
ATOM     33  C   UNL     1       3.656   2.578  -3.588  1.00  0.00     0.004 A 
ATOM     34  C   UNL     1       5.585   4.558  -3.972  1.00  0.00     0.000 A 
ATOM     35  C   UNL     1       3.402   3.649  -4.448  1.00  0.00     0.000 A 
ATOM     36  C   UNL     1       4.367   4.636  -4.643  1.00  0.00     0.000 A 
ENDBRANCH  30  31
ENDBRANCH  18  30
ENDBRANCH  15  18
ENDBRANCH  13  14
BRANCH  13  37
ATOM     37  C   UNL     1       2.134   4.356   0.585  1.00  0.00     0.101 C 
BRANCH  37  38
ATOM     38  S   UNL     1       2.137   5.334   2.115  1.00  0.00    -0.177 SA
ATOM     39  H   UNL     1       2.869   4.691   3.063  1.00  0.00     0.102 HD
ENDBRANCH  37  38
ENDBRANCH  13  37
ENDBRANCH  10  13
ENDBRANCH   8   9
BRANCH   8  40
ATOM     40  C   UNL     1       6.822   6.861   1.191  1.00  0.00     0.193 C 
BRANCH  40  41
ATOM     41  O   UNL     1       7.349   7.726   0.180  1.00  0.00    -0.394 OA
ATOM     42  H   UNL     1       7.170   7.348  -0.695  1.00  0.00     0.210 HD
ENDBRANCH  40  41
ENDBRANCH   8  40
ENDBRANCH   6   8
ENDBRANCH   5   6
ENDBRANCH   4   5
ENDBRANCH   3   4
ENDBRANCH   2   3
ENDBRANCH   1   2
BRANCH   1  43
ATOM     43  C   UNL     1       2.849   8.468  -1.857  1.00  0.00     0.188 C 
BRANCH  43  44
ATOM     44  O   UNL     1       2.902   9.815  -2.295  1.00  0.00    -0.377 OA
BRANCH  44  45
ATOM     45  C   UNL     1       2.203  10.033  -3.507  1.00  0.00     0.188 C 
BRANCH  45  46
ATOM     46  C   UNL     1       0.693   9.772  -3.395  1.00  0.00     0.188 C 
BRANCH  46  47
ATOM     47  O   UNL     1       0.441   8.425  -3.029  1.00  0.00    -0.376 OA
BRANCH  47  48
ATOM     48  C   UNL     1      -0.062   7.492  -3.960  1.00  0.00     0.202 C 
BRANCH  48  49
ATOM     49  C   UNL     1       0.731   7.125  -5.226  1.00  0.00     0.261 C 
BRANCH  49  50
ATOM     50  O   UNL     1       1.596   8.119  -5.779  1.00  0.00    -0.460 OA
BRANCH  50  51
ATOM     51  C   UNL     1       1.032   9.084  -6.530  1.00  0.00     0.338 C 
ATOM     52  O   UNL     1      -0.158   9.228  -6.779  1.00  0.00    -0.246 OA
BRANCH  51  53
ATOM     53  C   UNL     1       2.083  10.070  -6.849  1.00  0.00     0.060 A 
ATOM     54  C   UNL     1       1.910  11.399  -6.440  1.00  0.00     0.016 A 
ATOM     55  C   UNL     1       3.252   9.678  -7.508  1.00  0.00     0.016 A 
ATOM     56  C   UNL     1       2.899  12.347  -6.701  1.00  0.00     0.010 A 
ATOM     57  C   UNL     1       4.221  10.635  -7.811  1.00  0.00     0.010 A 
ATOM     58  C   UNL     1       4.030  11.978  -7.438  1.00  0.00    -0.014 A 
BRANCH  58  59
ATOM     59  C   UNL     1       4.859  13.027  -8.074  1.00  0.00     0.031 A 
ATOM     60  C   UNL     1       4.488  13.435  -9.473  1.00  0.00     0.074 A 
ATOM     61  C   UNL     1       5.902  13.595  -7.447  1.00  0.00     0.049 A 
ATOM     62  N   UNL     1       5.108  14.231 -10.304  1.00  0.00    -0.248 NA
ATOM     63  C   UNL     1       3.246  12.852 -10.010  1.00  0.00     0.031 C 
ATOM     64  C   UNL     1       6.314  13.324  -6.073  1.00  0.00     0.029 A 
ATOM     65  N   UNL     1       6.817  14.510  -7.903  1.00  0.00    -0.354 N 
ATOM     66  C   UNL     1       4.340  14.231 -11.461  1.00  0.00     0.074 A 
ATOM     67  C   UNL     1       3.224  13.341 -11.239  1.00  0.00     0.031 C 
ATOM     68  C   UNL     1       7.421  14.041  -5.804  1.00  0.00     0.029 A 
ATOM     69  C   UNL     1       7.813  14.787  -7.000  1.00  0.00     0.049 A 
ATOM     70  H   UNL     1       6.764  14.929  -8.793  1.00  0.00     0.167 HD
ATOM     71  C   UNL     1       4.549  14.916 -12.608  1.00  0.00     0.037 A 
ATOM     72  C   UNL     1       8.928  15.531  -7.145  1.00  0.00     0.037 A 
ATOM     73  C   UNL     1       5.666  15.793 -12.822  1.00  0.00     0.049 A 
ATOM     74  C   UNL     1       9.187  16.218  -8.464  1.00  0.00     0.074 A 
ATOM     75  C   UNL     1       5.975  16.538 -13.945  1.00  0.00     0.029 A 
ATOM     76  N   UNL     1       6.664  16.034 -11.889  1.00  0.00    -0.354 N 
ATOM     77  N   UNL     1       8.456  16.225  -9.554  1.00  0.00    -0.248 NA
ATOM     78  C   UNL     1      10.427  17.001  -8.576  1.00  0.00     0.031 C 
ATOM     79  C   UNL     1       7.191  17.187 -13.712  1.00  0.00     0.029 A 
ATOM     80  C   UNL     1       7.604  16.900 -12.420  1.00  0.00     0.049 A 
ATOM     81  H   UNL     1       6.699  15.647 -10.985  1.00  0.00     0.167 HD
ATOM     82  C   UNL     1       9.121  17.043 -10.459  1.00  0.00     0.074 A 
ATOM     83  C   UNL     1      10.317  17.513  -9.794  1.00  0.00     0.031 C 
ATOM     84  C   UNL     1       8.771  17.379 -11.725  1.00  0.00     0.037 A 
BRANCH  71  85
ATOM     85  C   UNL     1       3.571  14.708 -13.726  1.00  0.00     0.064 A 
ATOM     86  C   UNL     1       2.255  15.190 -13.659  1.00  0.00     0.173 A 
ATOM     87  C   UNL     1       3.962  14.028 -14.889  1.00  0.00     0.173 A 
ATOM     88  F   UNL     1       1.825  15.827 -12.559  1.00  0.00    -0.203 F 
ATOM     89  C   UNL     1       1.360  14.977 -14.704  1.00  0.00     0.198 A 
ATOM     90  C   UNL     1       3.075  13.845 -15.945  1.00  0.00     0.198 A 
ATOM     91  F   UNL     1       5.208  13.543 -15.003  1.00  0.00    -0.203 F 
ATOM     92  F   UNL     1       0.093  15.399 -14.595  1.00  0.00    -0.200 F 
ATOM     93  C   UNL     1       1.773  14.312 -15.849  1.00  0.00     0.200 A 
ATOM     94  F   UNL     1       3.478  13.211 -17.055  1.00  0.00    -0.200 F 
ATOM     95  F   UNL     1       0.912  14.114 -16.857  1.00  0.00    -0.200 F 
ENDBRANCH  71  85
BRANCH  72  96
ATOM     96  C   UNL     1       9.899  15.651  -6.024  1.00  0.00     0.064 A 
ATOM     97  C   UNL     1      10.111  16.877  -5.377  1.00  0.00     0.173 A 
ATOM     98  C   UNL     1      10.656  14.550  -5.595  1.00  0.00     0.173 A 
ATOM     99  F   UNL     1       9.432  17.965  -5.768  1.00  0.00    -0.203 F 
ATOM    100  C   UNL     1      11.056  17.002  -4.361  1.00  0.00     0.198 A 
ATOM    101  C   UNL     1      11.580  14.670  -4.558  1.00  0.00     0.198 A 
ATOM    102  F   UNL     1      10.498  13.355  -6.182  1.00  0.00    -0.203 F 
ATOM    103  F   UNL     1      11.276  18.198  -3.797  1.00  0.00    -0.200 F 
ATOM    104  C   UNL     1      11.786  15.898  -3.948  1.00  0.00     0.200 A 
ATOM    105  F   UNL     1      12.276  13.598  -4.157  1.00  0.00    -0.200 F 
ATOM    106  F   UNL     1      12.696  16.019  -2.972  1.00  0.00    -0.200 F 
ENDBRANCH  72  96
BRANCH  84 107
ATOM    107  C   UNL     1       9.645  18.356 -12.459  1.00  0.00     0.064 A 
ATOM    108  C   UNL     1      10.906  17.997 -12.955  1.00  0.00     0.173 A 
ATOM    109  C   UNL     1       9.168  19.645 -12.743  1.00  0.00     0.173 A 
ATOM    110  F   UNL     1      11.410  16.780 -12.701  1.00  0.00    -0.203 F 
ATOM    111  C   UNL     1      11.663  18.898 -13.698  1.00  0.00     0.198 A 
ATOM    112  C   UNL     1       9.914  20.532 -13.512  1.00  0.00     0.198 A 
ATOM    113  F   UNL     1       7.963  20.034 -12.299  1.00  0.00    -0.203 F 
ATOM    114  F   UNL     1      12.880  18.547 -14.135  1.00  0.00    -0.200 F 
ATOM    115  C   UNL     1      11.162  20.160 -13.986  1.00  0.00     0.200 A 
ATOM    116  F   UNL     1       9.419  21.743 -13.805  1.00  0.00    -0.200 F 
ATOM    117  F   UNL     1      11.884  21.018 -14.720  1.00  0.00    -0.200 F 
ENDBRANCH  84 107
ENDBRANCH  58  59
ENDBRANCH  51  53
ENDBRANCH  50  51
ENDBRANCH  49  50
ENDBRANCH  48  49
ENDBRANCH  47  48
ENDBRANCH  46  47
ENDBRANCH  45  46
ENDBRANCH  44  45
ENDBRANCH  43  44
ENDBRANCH   1  43
TORSDOF 32
