REMARK SMILES Cc1cc(C)n2ncc(C(=O)N(C)CCCC(=O)OCCOCCOCCOCCOC(=O)c3ccc(-c4c5nc(c(-c6c(F)c(F)c(F)c(F)c6F)c6ccc([nH]6)c(-c6c(F)c(F)c(F)c(F)c6F)c6nc(c(-c7c(F)c(F)c(F)c(F)c7F)c7ccc4[nH]7)C=C6)C=C5)cc3)c2n1
REMARK SMILES IDX 23 1 22 2 21 3 20 4 19 5 17 6 18 7 16 8 15 9 14 10 12 11
REMARK SMILES IDX 13 12 10 13 11 14 9 15 1 16 2 17 3 18 98 19 4 20 97 21 5 22
REMARK SMILES IDX 6 23 7 24 8 25 24 26 25 27 26 28 27 29 28 30 29 31 30 32
REMARK SMILES IDX 31 33 32 34 33 35 34 36 35 37 96 38 36 39 95 40 37 41 38 42
REMARK SMILES IDX 39 43 89 44 40 45 94 46 88 47 90 48 41 49 93 50 87 51 86 52
REMARK SMILES IDX 42 54 74 55 54 56 73 57 55 58 58 59 72 60 91 61 56 62 57 63
REMARK SMILES IDX 71 65 92 66 59 67 43 68 44 69 52 70 45 71 46 72 50 73 53 74
REMARK SMILES IDX 47 75 48 76 51 77 49 78 75 79 76 80 84 81 77 82 78 83 82 84
REMARK SMILES IDX 85 85 79 86 80 87 83 88 81 89 60 90 61 91 69 92 62 93 63 94
REMARK SMILES IDX 67 95 70 96 64 97 65 98 68 99 66 100
REMARK H PARENT 90 53 58 64
REMARK Flexibility Score: inf
ROOT
ATOM      1  C   UNL     1       1.049   8.183   0.617  1.00  0.00     0.188 C 
ENDROOT
BRANCH   1   2
ATOM      2  O   UNL     1       0.057   8.146  -0.383  1.00  0.00    -0.376 OA
BRANCH   2   3
ATOM      3  C   UNL     1      -0.842   7.061  -0.499  1.00  0.00     0.202 C 
BRANCH   3   4
ATOM      4  C   UNL     1      -0.864   5.832   0.422  1.00  0.00     0.261 C 
BRANCH   4   5
ATOM      5  O   UNL     1      -0.067   5.896   1.605  1.00  0.00    -0.463 OA
BRANCH   5   6
ATOM      6  C   UNL     1       1.010   5.085   1.654  1.00  0.00     0.305 C 
ATOM      7  O   UNL     1       1.449   4.461   0.692  1.00  0.00    -0.252 OA
BRANCH   6   8
ATOM      8  C   UNL     1       1.747   5.116   2.982  1.00  0.00     0.124 C 
BRANCH   8   9
ATOM      9  C   UNL     1       1.228   5.818   4.248  1.00  0.00     0.033 C 
BRANCH   9  10
ATOM     10  C   UNL     1      -0.270   5.825   4.565  1.00  0.00     0.120 C 
BRANCH  10  11
ATOM     11  N   UNL     1      -0.706   4.542   5.105  1.00  0.00    -0.342 N 
ATOM     12  C   UNL     1      -0.944   4.525   6.536  1.00  0.00     0.147 C 
BRANCH  11  13
ATOM     13  C   UNL     1      -0.965   3.531   4.177  1.00  0.00     0.259 C 
ATOM     14  O   UNL     1      -1.260   3.835   3.022  1.00  0.00    -0.269 OA
BRANCH  13  15
ATOM     15  C   UNL     1      -0.789   2.128   4.518  1.00  0.00     0.104 A 
ATOM     16  C   UNL     1       0.884   0.306   0.248  1.00  0.00     0.067 C 
ATOM     17  C   UNL     1       0.359   0.209   1.660  1.00  0.00     0.042 A 
ATOM     18  C   UNL     1       0.135  -1.166   2.204  1.00  0.00     0.047 A 
ATOM     19  N   UNL     1       0.157   1.309   2.325  1.00  0.00    -0.233 NA
ATOM     20  C   UNL     1      -0.257  -1.242   3.488  1.00  0.00     0.043 A 
ATOM     21  C   UNL     1      -0.317   1.188   3.606  1.00  0.00     0.168 A 
ATOM     22  C   UNL     1      -0.546  -2.536   4.181  1.00  0.00     0.067 C 
ATOM     23  N   UNL     1      -0.456  -0.061   4.213  1.00  0.00    -0.219 N 
ATOM     24  N   UNL     1      -0.820   0.061   5.513  1.00  0.00    -0.174 NA
ATOM     25  C   UNL     1      -1.040   1.366   5.670  1.00  0.00     0.151 A 
ENDBRANCH  13  15
ENDBRANCH  11  13
ENDBRANCH  10  11
ENDBRANCH   9  10
ENDBRANCH   8   9
ENDBRANCH   6   8
ENDBRANCH   5   6
ENDBRANCH   4   5
ENDBRANCH   3   4
ENDBRANCH   2   3
ENDBRANCH   1   2
BRANCH   1  26
ATOM     26  C   UNL     1       0.622   8.575   2.044  1.00  0.00     0.188 C 
BRANCH  26  27
ATOM     27  O   UNL     1      -0.733   8.501   2.440  1.00  0.00    -0.377 OA
BRANCH  27  28
ATOM     28  C   UNL     1      -1.705   9.295   1.775  1.00  0.00     0.188 C 
BRANCH  28  29
ATOM     29  C   UNL     1      -1.323  10.428   0.787  1.00  0.00     0.188 C 
BRANCH  29  30
ATOM     30  O   UNL     1       0.060  10.729   0.679  1.00  0.00    -0.376 OA
BRANCH  30  31
ATOM     31  C   UNL     1       0.638  11.897   1.236  1.00  0.00     0.202 C 
BRANCH  31  32
ATOM     32  C   UNL     1       0.639  12.047   2.760  1.00  0.00     0.261 C 
BRANCH  32  33
ATOM     33  O   UNL     1      -0.592  11.678   3.346  1.00  0.00    -0.460 OA
BRANCH  33  34
ATOM     34  C   UNL     1      -1.615  12.468   2.970  1.00  0.00     0.338 C 
ATOM     35  O   UNL     1      -1.579  13.427   2.225  1.00  0.00    -0.246 OA
BRANCH  34  36
ATOM     36  C   UNL     1      -2.823  12.014   3.665  1.00  0.00     0.060 A 
ATOM     37  C   UNL     1      -3.991  12.655   3.253  1.00  0.00     0.016 A 
ATOM     38  C   UNL     1      -2.635  11.502   4.953  1.00  0.00     0.016 A 
ATOM     39  C   UNL     1      -4.770  13.187   4.242  1.00  0.00     0.010 A 
ATOM     40  C   UNL     1      -3.396  12.054   5.939  1.00  0.00     0.010 A 
ATOM     41  C   UNL     1      -4.349  12.995   5.559  1.00  0.00    -0.014 A 
BRANCH  41  42
ATOM     42  C   UNL     1      -4.902  13.853   6.571  1.00  0.00     0.031 A 
ATOM     43  C   UNL     1      -6.191  13.350   7.070  1.00  0.00     0.074 A 
ATOM     44  C   UNL     1      -4.214  14.918   7.019  1.00  0.00     0.049 A 
ATOM     45  N   UNL     1      -7.359  13.865   6.892  1.00  0.00    -0.248 NA
ATOM     46  C   UNL     1      -6.201  11.990   7.636  1.00  0.00     0.031 C 
ATOM     47  C   UNL     1      -2.827  15.308   6.741  1.00  0.00     0.029 A 
ATOM     48  N   UNL     1      -4.614  15.845   7.926  1.00  0.00    -0.354 N 
ATOM     49  C   UNL     1      -8.234  12.975   7.499  1.00  0.00     0.074 A 
ATOM     50  C   UNL     1      -7.508  11.754   7.710  1.00  0.00     0.031 C 
ATOM     51  C   UNL     1      -2.439  16.246   7.638  1.00  0.00     0.029 A 
ATOM     52  C   UNL     1      -3.580  16.607   8.459  1.00  0.00     0.049 A 
ATOM     53  H   UNL     1      -5.556  15.966   8.185  1.00  0.00     0.167 HD
ATOM     54  C   UNL     1      -9.402  13.399   8.044  1.00  0.00     0.037 A 
ATOM     55  C   UNL     1      -3.699  17.360   9.583  1.00  0.00     0.037 A 
ATOM     56  C   UNL     1      -9.780  14.691   7.535  1.00  0.00     0.049 A 
ATOM     57  C   UNL     1      -5.161  17.581   9.794  1.00  0.00     0.074 A 
ATOM     58  C   UNL     1     -10.122  15.162   6.282  1.00  0.00     0.029 A 
ATOM     59  N   UNL     1      -9.444  15.799   8.275  1.00  0.00    -0.354 N 
ATOM     60  N   UNL     1      -5.908  18.291   8.991  1.00  0.00    -0.248 NA
ATOM     61  C   UNL     1      -5.873  16.604  10.608  1.00  0.00     0.031 C 
ATOM     62  C   UNL     1      -9.531  16.456   6.196  1.00  0.00     0.029 A 
ATOM     63  C   UNL     1      -8.917  16.733   7.418  1.00  0.00     0.049 A 
ATOM     64  H   UNL     1      -9.559  15.904   9.247  1.00  0.00     0.167 HD
ATOM     65  C   UNL     1      -7.103  17.588   8.899  1.00  0.00     0.074 A 
ATOM     66  C   UNL     1      -7.039  16.583   9.957  1.00  0.00     0.031 C 
ATOM     67  C   UNL     1      -7.898  17.688   7.794  1.00  0.00     0.037 A 
BRANCH  54  68
ATOM     68  C   UNL     1      -9.994  12.785   9.280  1.00  0.00     0.064 A 
ATOM     69  C   UNL     1     -11.311  13.107   9.645  1.00  0.00     0.173 A 
ATOM     70  C   UNL     1      -9.243  12.086  10.255  1.00  0.00     0.173 A 
ATOM     71  F   UNL     1     -12.098  13.804   8.811  1.00  0.00    -0.203 F 
ATOM     72  C   UNL     1     -11.823  12.784  10.904  1.00  0.00     0.198 A 
ATOM     73  C   UNL     1      -9.778  11.707  11.482  1.00  0.00     0.198 A 
ATOM     74  F   UNL     1      -7.936  11.837  10.112  1.00  0.00    -0.203 F 
ATOM     75  F   UNL     1     -13.046  13.207  11.250  1.00  0.00    -0.200 F 
ATOM     76  C   UNL     1     -11.059  12.081  11.818  1.00  0.00     0.200 A 
ATOM     77  F   UNL     1      -9.010  11.045  12.358  1.00  0.00    -0.200 F 
ATOM     78  F   UNL     1     -11.534  11.809  13.040  1.00  0.00    -0.200 F 
ENDBRANCH  54  68
BRANCH  55  79
ATOM     79  C   UNL     1      -2.716  17.502  10.688  1.00  0.00     0.064 A 
ATOM     80  C   UNL     1      -2.906  18.468  11.691  1.00  0.00     0.173 A 
ATOM     81  C   UNL     1      -1.750  16.511  10.953  1.00  0.00     0.173 A 
ATOM     82  F   UNL     1      -3.834  19.424  11.537  1.00  0.00    -0.203 F 
ATOM     83  C   UNL     1      -2.204  18.420  12.901  1.00  0.00     0.198 A 
ATOM     84  C   UNL     1      -1.045  16.469  12.157  1.00  0.00     0.198 A 
ATOM     85  F   UNL     1      -1.538  15.504  10.094  1.00  0.00    -0.203 F 
ATOM     86  F   UNL     1      -2.466  19.317  13.862  1.00  0.00    -0.200 F 
ATOM     87  C   UNL     1      -1.285  17.412  13.138  1.00  0.00     0.200 A 
ATOM     88  F   UNL     1      -0.185  15.466  12.387  1.00  0.00    -0.200 F 
ATOM     89  F   UNL     1      -0.665  17.322  14.323  1.00  0.00    -0.200 F 
ENDBRANCH  55  79
BRANCH  67  90
ATOM     90  C   UNL     1      -7.544  18.735   6.771  1.00  0.00     0.064 A 
ATOM     91  C   UNL     1      -6.359  18.719   6.013  1.00  0.00     0.173 A 
ATOM     92  C   UNL     1      -8.511  19.689   6.428  1.00  0.00     0.173 A 
ATOM     93  F   UNL     1      -5.429  17.778   6.212  1.00  0.00    -0.203 F 
ATOM     94  C   UNL     1      -6.142  19.637   4.985  1.00  0.00     0.198 A 
ATOM     95  C   UNL     1      -8.309  20.579   5.377  1.00  0.00     0.198 A 
ATOM     96  F   UNL     1      -9.684  19.716   7.079  1.00  0.00    -0.203 F 
ATOM     97  F   UNL     1      -5.001  19.601   4.280  1.00  0.00    -0.200 F 
ATOM     98  C   UNL     1      -7.122  20.559   4.661  1.00  0.00     0.200 A 
ATOM     99  F   UNL     1      -9.281  21.436   5.035  1.00  0.00    -0.200 F 
ATOM    100  F   UNL     1      -6.937  21.409   3.641  1.00  0.00    -0.200 F 
ENDBRANCH  67  90
ENDBRANCH  41  42
ENDBRANCH  34  36
ENDBRANCH  33  34
ENDBRANCH  32  33
ENDBRANCH  31  32
ENDBRANCH  30  31
ENDBRANCH  29  30
ENDBRANCH  28  29
ENDBRANCH  27  28
ENDBRANCH  26  27
ENDBRANCH   1  26
TORSDOF 25
