REMARK SMILES C/C=C/C[C@@H](C(=O)OCCOCCOCCOCCOC(=O)c1ccc(-c2c3nc(c(-c4c(F)c(F)c(F)c(F)c4F)c4ccc([nH]4)c(-c4c(F)c(F)c(F)c(F)c4F)c4nc(c(-c5c(F)c(F)c(F)c(F)c5F)c5ccc2[nH]5)C=C4)C=C3)cc1)c1cccc(Cl)c1
REMARK SMILES IDX 14 1 13 2 12 3 11 4 10 5 9 6 8 7 6 8 7 9 5 10 4 11 3 12 1 13
REMARK SMILES IDX 2 14 86 15 87 16 92 17 88 18 90 19 89 20 91 21 15 22 16 23
REMARK SMILES IDX 17 24 18 25 19 26 20 27 21 28 22 29 23 30 24 31 85 32 25 33
REMARK SMILES IDX 84 34 26 35 27 36 28 37 78 38 29 39 83 40 77 41 79 42 30 43
REMARK SMILES IDX 82 44 76 45 75 46 31 48 63 49 43 50 62 51 44 52 47 53 61 54
REMARK SMILES IDX 80 55 45 56 46 57 60 59 81 60 48 61 32 62 33 63 41 64 34 65
REMARK SMILES IDX 35 66 39 67 42 68 36 69 37 70 40 71 38 72 64 73 65 74 73 75
REMARK SMILES IDX 66 76 67 77 71 78 74 79 68 80 69 81 72 82 70 83 49 84 50 85
REMARK SMILES IDX 58 86 51 87 52 88 56 89 59 90 53 91 54 92 57 93 55 94
REMARK H PARENT 79 47 47 58
REMARK Flexibility Score: inf
ROOT
ATOM      1  O   UNL     1      -2.442  -2.018   2.431  1.00  0.00    -0.377 OA
ENDROOT
BRANCH   1   2
ATOM      2  C   UNL     1      -2.788  -3.354   2.123  1.00  0.00     0.188 C 
BRANCH   2   3
ATOM      3  C   UNL     1      -2.760  -4.390   3.256  1.00  0.00     0.188 C 
BRANCH   3   4
ATOM      4  O   UNL     1      -2.766  -3.810   4.542  1.00  0.00    -0.376 OA
BRANCH   4   5
ATOM      5  C   UNL     1      -1.539  -3.499   5.176  1.00  0.00     0.202 C 
BRANCH   5   6
ATOM      6  C   UNL     1      -0.224  -3.172   4.435  1.00  0.00     0.261 C 
BRANCH   6   7
ATOM      7  O   UNL     1      -0.165  -3.431   3.025  1.00  0.00    -0.463 OA
BRANCH   7   8
ATOM      8  C   UNL     1       0.578  -4.473   2.595  1.00  0.00     0.313 C 
ATOM      9  O   UNL     1       1.163  -5.236   3.360  1.00  0.00    -0.252 OA
BRANCH   8  10
ATOM     10  C   UNL     1       0.571  -4.684   1.062  1.00  0.00     0.133 C 
BRANCH  10  11
ATOM     11  C   UNL     1       0.205  -3.530   0.083  1.00  0.00     0.047 C 
BRANCH  11  12
ATOM     12  C   UNL     1       0.515  -2.102   0.448  1.00  0.00    -0.030 C 
ATOM     13  C   UNL     1       1.286   0.224  -0.057  1.00  0.00     0.035 C 
ATOM     14  C   UNL     1       1.116  -1.228  -0.375  1.00  0.00    -0.035 C 
ENDBRANCH  11  12
ENDBRANCH  10  11
BRANCH  10  15
ATOM     15  C   UNL     1      -0.144  -6.014   0.736  1.00  0.00    -0.032 A 
ATOM     16  C   UNL     1      -1.461  -6.107   0.247  1.00  0.00     0.005 A 
ATOM     17  C   UNL     1       0.525  -7.218   1.024  1.00  0.00     0.025 A 
ATOM     18  C   UNL     1      -2.093  -7.345   0.085  1.00  0.00     0.002 A 
ATOM     19  C   UNL     1      -0.104  -8.453   0.846  1.00  0.00     0.041 A 
ATOM     20  C   UNL     1      -1.414  -8.521   0.386  1.00  0.00     0.020 A 
ATOM     21  Cl  UNL     1       0.746  -9.902   1.214  1.00  0.00    -0.084 Cl
ENDBRANCH  10  15
ENDBRANCH   8  10
ENDBRANCH   7   8
ENDBRANCH   6   7
ENDBRANCH   5   6
ENDBRANCH   4   5
ENDBRANCH   3   4
ENDBRANCH   2   3
ENDBRANCH   1   2
BRANCH   1  22
ATOM     22  C   UNL     1      -3.278  -1.257   3.289  1.00  0.00     0.188 C 
BRANCH  22  23
ATOM     23  C   UNL     1      -4.653  -1.776   3.761  1.00  0.00     0.188 C 
BRANCH  23  24
ATOM     24  O   UNL     1      -5.226  -2.797   2.961  1.00  0.00    -0.376 OA
BRANCH  24  25
ATOM     25  C   UNL     1      -6.243  -2.437   2.040  1.00  0.00     0.202 C 
BRANCH  25  26
ATOM     26  C   UNL     1      -5.832  -1.540   0.863  1.00  0.00     0.261 C 
BRANCH  26  27
ATOM     27  O   UNL     1      -5.241  -0.279   1.210  1.00  0.00    -0.460 OA
BRANCH  27  28
ATOM     28  C   UNL     1      -6.002   0.584   1.912  1.00  0.00     0.338 C 
ATOM     29  O   UNL     1      -7.159   0.430   2.272  1.00  0.00    -0.246 OA
BRANCH  28  30
ATOM     30  C   UNL     1      -5.143   1.703   2.339  1.00  0.00     0.060 A 
ATOM     31  C   UNL     1      -4.959   1.931   3.709  1.00  0.00     0.016 A 
ATOM     32  C   UNL     1      -4.529   2.525   1.392  1.00  0.00     0.016 A 
ATOM     33  C   UNL     1      -4.200   3.017   4.138  1.00  0.00     0.010 A 
ATOM     34  C   UNL     1      -3.788   3.628   1.822  1.00  0.00     0.010 A 
ATOM     35  C   UNL     1      -3.661   3.904   3.196  1.00  0.00    -0.014 A 
BRANCH  35  36
ATOM     36  C   UNL     1      -3.196   5.238   3.644  1.00  0.00     0.031 A 
ATOM     37  C   UNL     1      -4.159   6.389   3.533  1.00  0.00     0.074 A 
ATOM     38  C   UNL     1      -1.975   5.422   4.173  1.00  0.00     0.049 A 
ATOM     39  N   UNL     1      -3.986   7.654   3.817  1.00  0.00    -0.248 NA
ATOM     40  C   UNL     1      -5.504   6.066   3.028  1.00  0.00     0.031 C 
ATOM     41  C   UNL     1      -0.977   4.377   4.382  1.00  0.00     0.029 A 
ATOM     42  N   UNL     1      -1.369   6.567   4.628  1.00  0.00    -0.354 N 
ATOM     43  C   UNL     1      -5.193   8.274   3.519  1.00  0.00     0.074 A 
ATOM     44  C   UNL     1      -6.078   7.257   2.997  1.00  0.00     0.031 C 
ATOM     45  C   UNL     1       0.127   4.932   4.915  1.00  0.00     0.029 A 
ATOM     46  C   UNL     1      -0.078   6.374   5.052  1.00  0.00     0.049 A 
ATOM     47  H   UNL     1      -1.818   7.443   4.648  1.00  0.00     0.167 HD
ATOM     48  C   UNL     1      -5.537   9.574   3.676  1.00  0.00     0.037 A 
ATOM     49  C   UNL     1       0.835   7.268   5.480  1.00  0.00     0.037 A 
ATOM     50  C   UNL     1      -4.651  10.584   4.192  1.00  0.00     0.049 A 
ATOM     51  C   UNL     1       0.455   8.726   5.567  1.00  0.00     0.074 A 
ATOM     52  C   UNL     1      -4.901  11.929   4.394  1.00  0.00     0.029 A 
ATOM     53  N   UNL     1      -3.338  10.357   4.579  1.00  0.00    -0.354 N 
ATOM     54  N   UNL     1      -0.692   9.305   5.299  1.00  0.00    -0.248 NA
ATOM     55  C   UNL     1       1.498   9.655   6.026  1.00  0.00     0.031 C 
ATOM     56  C   UNL     1      -3.720  12.528   4.844  1.00  0.00     0.029 A 
ATOM     57  C   UNL     1      -2.757  11.543   4.995  1.00  0.00     0.049 A 
ATOM     58  H   UNL     1      -2.887   9.482   4.560  1.00  0.00     0.167 HD
ATOM     59  C   UNL     1      -0.521  10.653   5.595  1.00  0.00     0.074 A 
ATOM     60  C   UNL     1       0.837  10.803   6.073  1.00  0.00     0.031 C 
ATOM     61  C   UNL     1      -1.407  11.674   5.484  1.00  0.00     0.037 A 
BRANCH  48  62
ATOM     62  C   UNL     1      -6.918   9.981   3.250  1.00  0.00     0.064 A 
ATOM     63  C   UNL     1      -8.063   9.561   3.946  1.00  0.00     0.173 A 
ATOM     64  C   UNL     1      -7.098  10.820   2.140  1.00  0.00     0.173 A 
ATOM     65  F   UNL     1      -7.949   8.743   5.003  1.00  0.00    -0.203 F 
ATOM     66  C   UNL     1      -9.336   9.942   3.527  1.00  0.00     0.198 A 
ATOM     67  C   UNL     1      -8.370  11.228   1.746  1.00  0.00     0.198 A 
ATOM     68  F   UNL     1      -6.039  11.252   1.439  1.00  0.00    -0.203 F 
ATOM     69  F   UNL     1     -10.417   9.482   4.173  1.00  0.00    -0.200 F 
ATOM     70  C   UNL     1      -9.488  10.781   2.434  1.00  0.00     0.200 A 
ATOM     71  F   UNL     1      -8.513  12.050   0.698  1.00  0.00    -0.200 F 
ATOM     72  F   UNL     1     -10.712  11.153   2.037  1.00  0.00    -0.200 F 
ENDBRANCH  48  62
BRANCH  49  73
ATOM     73  C   UNL     1       2.206   6.821   5.848  1.00  0.00     0.064 A 
ATOM     74  C   UNL     1       2.670   6.917   7.168  1.00  0.00     0.173 A 
ATOM     75  C   UNL     1       3.093   6.324   4.882  1.00  0.00     0.173 A 
ATOM     76  F   UNL     1       1.870   7.411   8.125  1.00  0.00    -0.203 F 
ATOM     77  C   UNL     1       3.975   6.559   7.501  1.00  0.00     0.198 A 
ATOM     78  C   UNL     1       4.387   5.934   5.223  1.00  0.00     0.198 A 
ATOM     79  F   UNL     1       2.703   6.214   3.604  1.00  0.00    -0.203 F 
ATOM     80  F   UNL     1       4.411   6.718   8.759  1.00  0.00    -0.200 F 
ATOM     81  C   UNL     1       4.831   6.063   6.530  1.00  0.00     0.200 A 
ATOM     82  F   UNL     1       5.206   5.444   4.282  1.00  0.00    -0.200 F 
ATOM     83  F   UNL     1       6.086   5.720   6.850  1.00  0.00    -0.200 F 
ENDBRANCH  49  73
BRANCH  61  84
ATOM     84  C   UNL     1      -0.962  13.034   5.947  1.00  0.00     0.064 A 
ATOM     85  C   UNL     1       0.011  13.774   5.260  1.00  0.00     0.173 A 
ATOM     86  C   UNL     1      -1.548  13.619   7.081  1.00  0.00     0.173 A 
ATOM     87  F   UNL     1       0.611  13.259   4.176  1.00  0.00    -0.203 F 
ATOM     88  C   UNL     1       0.409  15.030   5.712  1.00  0.00     0.198 A 
ATOM     89  C   UNL     1      -1.177  14.891   7.508  1.00  0.00     0.198 A 
ATOM     90  F   UNL     1      -2.493  12.962   7.770  1.00  0.00    -0.203 F 
ATOM     91  F   UNL     1       1.385  15.691   5.075  1.00  0.00    -0.200 F 
ATOM     92  C   UNL     1      -0.190  15.590   6.831  1.00  0.00     0.200 A 
ATOM     93  F   UNL     1      -1.772  15.438   8.577  1.00  0.00    -0.200 F 
ATOM     94  F   UNL     1       0.189  16.801   7.261  1.00  0.00    -0.200 F 
ENDBRANCH  61  84
ENDBRANCH  35  36
ENDBRANCH  28  30
ENDBRANCH  27  28
ENDBRANCH  26  27
ENDBRANCH  25  26
ENDBRANCH  24  25
ENDBRANCH  23  24
ENDBRANCH  22  23
ENDBRANCH   1  22
TORSDOF 23
