REMARK SMILES O=C(OCCOCCOCCOCCOC(=O)[C@@H]1CC2(CC[NH2+]CC2)C[N@H+]1Cc1cccc2nonc12)c1ccc(-c2c3nc(c(-c4c(F)c(F)c(F)c(F)c4F)c4ccc([nH]4)c(-c4c(F)c(F)c(F)c(F)c4F)c4nc(c(-c5c(F)c(F)c(F)c(F)c5F)c5ccc2[nH]5)C=C4)C=C3)cc1
REMARK SMILES IDX 9 1 8 2 7 3 6 4 5 5 4 6 3 7 2 8 1 9 38 10 39 11 100 12 40 13
REMARK SMILES IDX 99 14 41 15 42 16 43 17 93 18 44 19 98 20 92 21 94 22 45 23
REMARK SMILES IDX 97 24 91 25 90 26 46 28 78 29 58 30 77 31 59 32 62 33 76 34
REMARK SMILES IDX 95 35 60 36 61 37 75 39 96 40 63 41 47 42 48 43 56 44 49 45
REMARK SMILES IDX 50 46 54 47 57 48 51 49 52 50 55 51 53 52 79 53 80 54 88 55
REMARK SMILES IDX 81 56 82 57 86 58 89 59 83 60 84 61 87 62 85 63 64 64 65 65
REMARK SMILES IDX 73 66 66 67 67 68 71 69 74 70 68 71 69 72 72 73 70 74 10 75
REMARK SMILES IDX 11 76 12 77 13 78 14 79 15 80 16 81 17 82 18 83 19 84 27 85
REMARK SMILES IDX 20 86 26 87 21 89 25 90 22 91 24 92 23 93 28 96 29 97 30 98
REMARK SMILES IDX 37 99 31 100 33 101 36 102 32 103 34 104 35 105
REMARK H PARENT 94 27 62 38 27 88 23 94 23 95
REMARK Flexibility Score: inf
ROOT
ATOM      1  O   UNL     1       3.739  -2.799   1.056  1.00  0.00    -0.377 OA
ENDROOT
BRANCH   1   2
ATOM      2  C   UNL     1       3.151  -1.560   1.448  1.00  0.00     0.188 C 
BRANCH   2   3
ATOM      3  C   UNL     1       3.169  -0.485   0.366  1.00  0.00     0.188 C 
BRANCH   3   4
ATOM      4  O   UNL     1       4.481  -0.179  -0.097  1.00  0.00    -0.376 OA
BRANCH   4   5
ATOM      5  C   UNL     1       5.262   0.721   0.677  1.00  0.00     0.202 C 
BRANCH   5   6
ATOM      6  C   UNL     1       4.782   2.169   0.581  1.00  0.00     0.261 C 
BRANCH   6   7
ATOM      7  O   UNL     1       4.504   2.461  -0.796  1.00  0.00    -0.460 OA
BRANCH   7   8
ATOM      8  C   UNL     1       3.182   2.487  -1.104  1.00  0.00     0.338 C 
ATOM      9  O   UNL     1       2.289   2.926  -0.400  1.00  0.00    -0.246 OA
BRANCH   8  10
ATOM     10  C   UNL     1       2.949   1.789  -2.392  1.00  0.00     0.060 A 
ATOM     11  C   UNL     1       1.735   1.958  -3.066  1.00  0.00     0.016 A 
ATOM     12  C   UNL     1       3.887   0.882  -2.886  1.00  0.00     0.016 A 
ATOM     13  C   UNL     1       1.508   1.295  -4.279  1.00  0.00     0.010 A 
ATOM     14  C   UNL     1       3.635   0.181  -4.054  1.00  0.00     0.010 A 
ATOM     15  C   UNL     1       2.478   0.429  -4.804  1.00  0.00    -0.014 A 
BRANCH  15  16
ATOM     16  C   UNL     1       2.409  -0.035  -6.208  1.00  0.00     0.031 A 
ATOM     17  C   UNL     1       3.719  -0.372  -6.840  1.00  0.00     0.074 A 
ATOM     18  C   UNL     1       1.370  -0.655  -6.799  1.00  0.00     0.049 A 
ATOM     19  N   UNL     1       4.196  -1.584  -6.810  1.00  0.00    -0.248 NA
ATOM     20  C   UNL     1       4.682   0.640  -7.267  1.00  0.00     0.031 C 
ATOM     21  C   UNL     1       0.398  -1.500  -6.107  1.00  0.00     0.029 A 
ATOM     22  N   UNL     1       1.146  -0.888  -8.137  1.00  0.00    -0.354 N 
ATOM     23  C   UNL     1       5.536  -1.497  -7.122  1.00  0.00     0.074 A 
ATOM     24  C   UNL     1       5.786  -0.104  -7.435  1.00  0.00     0.031 C 
ATOM     25  C   UNL     1      -0.192  -2.303  -7.020  1.00  0.00     0.029 A 
ATOM     26  C   UNL     1       0.225  -1.894  -8.355  1.00  0.00     0.049 A 
ATOM     27  H   UNL     1       1.594  -0.392  -8.860  1.00  0.00     0.167 HD
ATOM     28  C   UNL     1       6.378  -2.562  -7.069  1.00  0.00     0.037 A 
ATOM     29  C   UNL     1       0.052  -2.596  -9.502  1.00  0.00     0.037 A 
ATOM     30  C   UNL     1       5.876  -3.874  -6.723  1.00  0.00     0.049 A 
ATOM     31  C   UNL     1       1.200  -3.569  -9.462  1.00  0.00     0.074 A 
ATOM     32  C   UNL     1       6.422  -5.093  -6.351  1.00  0.00     0.029 A 
ATOM     33  N   UNL     1       4.529  -4.118  -6.812  1.00  0.00    -0.354 N 
ATOM     34  N   UNL     1       1.208  -4.728  -8.855  1.00  0.00    -0.248 NA
ATOM     35  C   UNL     1       2.520  -3.110  -9.936  1.00  0.00     0.031 C 
ATOM     36  C   UNL     1       5.421  -6.094  -6.576  1.00  0.00     0.029 A 
ATOM     37  C   UNL     1       4.315  -5.449  -7.093  1.00  0.00     0.049 A 
ATOM     38  H   UNL     1       3.822  -3.444  -6.693  1.00  0.00     0.167 HD
ATOM     39  C   UNL     1       2.554  -5.000  -8.658  1.00  0.00     0.074 A 
ATOM     40  C   UNL     1       3.312  -4.050  -9.440  1.00  0.00     0.031 C 
ATOM     41  C   UNL     1       3.043  -5.785  -7.663  1.00  0.00     0.037 A 
BRANCH  28  42
ATOM     42  C   UNL     1       7.762  -2.464  -7.582  1.00  0.00     0.064 A 
ATOM     43  C   UNL     1       8.010  -2.921  -8.886  1.00  0.00     0.173 A 
ATOM     44  C   UNL     1       8.850  -2.098  -6.787  1.00  0.00     0.173 A 
ATOM     45  F   UNL     1       6.986  -3.279  -9.678  1.00  0.00    -0.203 F 
ATOM     46  C   UNL     1       9.306  -3.042  -9.369  1.00  0.00     0.198 A 
ATOM     47  C   UNL     1      10.150  -2.212  -7.278  1.00  0.00     0.198 A 
ATOM     48  F   UNL     1       8.657  -1.663  -5.534  1.00  0.00    -0.203 F 
ATOM     49  F   UNL     1       9.516  -3.513 -10.606  1.00  0.00    -0.200 F 
ATOM     50  C   UNL     1      10.377  -2.695  -8.562  1.00  0.00     0.200 A 
ATOM     51  F   UNL     1      11.190  -1.876  -6.502  1.00  0.00    -0.200 F 
ATOM     52  F   UNL     1      11.630  -2.830  -9.019  1.00  0.00    -0.200 F 
ENDBRANCH  28  42
BRANCH  29  53
ATOM     53  C   UNL     1      -0.295  -1.786 -10.713  1.00  0.00     0.064 A 
ATOM     54  C   UNL     1      -1.347  -0.846 -10.614  1.00  0.00     0.173 A 
ATOM     55  C   UNL     1       0.309  -1.898 -11.973  1.00  0.00     0.173 A 
ATOM     56  F   UNL     1      -2.061  -0.747  -9.482  1.00  0.00    -0.203 F 
ATOM     57  C   UNL     1      -1.687   0.002 -11.668  1.00  0.00     0.198 A 
ATOM     58  C   UNL     1      -0.016  -1.034 -13.022  1.00  0.00     0.198 A 
ATOM     59  F   UNL     1       1.228  -2.840 -12.218  1.00  0.00    -0.203 F 
ATOM     60  F   UNL     1      -2.672   0.897 -11.515  1.00  0.00    -0.200 F 
ATOM     61  C   UNL     1      -1.002  -0.075 -12.865  1.00  0.00     0.200 A 
ATOM     62  F   UNL     1       0.643  -1.127 -14.185  1.00  0.00    -0.200 F 
ATOM     63  F   UNL     1      -1.295   0.763 -13.868  1.00  0.00    -0.200 F 
ENDBRANCH  29  53
BRANCH  41  64
ATOM     64  C   UNL     1       2.172  -6.834  -7.104  1.00  0.00     0.064 A 
ATOM     65  C   UNL     1       1.750  -7.902  -7.909  1.00  0.00     0.173 A 
ATOM     66  C   UNL     1       1.816  -6.842  -5.754  1.00  0.00     0.173 A 
ATOM     67  F   UNL     1       2.103  -7.958  -9.203  1.00  0.00    -0.203 F 
ATOM     68  C   UNL     1       0.999  -8.943  -7.375  1.00  0.00     0.198 A 
ATOM     69  C   UNL     1       1.087  -7.897  -5.219  1.00  0.00     0.198 A 
ATOM     70  F   UNL     1       2.179  -5.832  -4.953  1.00  0.00    -0.203 F 
ATOM     71  F   UNL     1       0.614  -9.962  -8.157  1.00  0.00    -0.200 F 
ATOM     72  C   UNL     1       0.674  -8.943  -6.029  1.00  0.00     0.200 A 
ATOM     73  F   UNL     1       0.800  -7.920  -3.912  1.00  0.00    -0.200 F 
ATOM     74  F   UNL     1      -0.024  -9.960  -5.504  1.00  0.00    -0.200 F 
ENDBRANCH  41  64
ENDBRANCH  15  16
ENDBRANCH   8  10
ENDBRANCH   7   8
ENDBRANCH   6   7
ENDBRANCH   5   6
ENDBRANCH   4   5
ENDBRANCH   3   4
ENDBRANCH   2   3
ENDBRANCH   1   2
BRANCH   1  75
ATOM     75  C   UNL     1       5.150  -2.776   0.909  1.00  0.00     0.188 C 
BRANCH  75  76
ATOM     76  C   UNL     1       5.673  -2.936  -0.531  1.00  0.00     0.188 C 
BRANCH  76  77
ATOM     77  O   UNL     1       4.664  -2.944  -1.536  1.00  0.00    -0.376 OA
BRANCH  77  78
ATOM     78  C   UNL     1       5.031  -3.705  -2.690  1.00  0.00     0.202 C 
BRANCH  78  79
ATOM     79  C   UNL     1       4.168  -4.964  -2.812  1.00  0.00     0.261 C 
BRANCH  79  80
ATOM     80  O   UNL     1       3.834  -5.551  -1.548  1.00  0.00    -0.459 OA
BRANCH  80  81
ATOM     81  C   UNL     1       4.829  -6.128  -0.842  1.00  0.00     0.365 C 
ATOM     82  O   UNL     1       5.976  -6.263  -1.258  1.00  0.00    -0.245 OA
BRANCH  81  83
ATOM     83  C   UNL     1       4.383  -6.533   0.573  1.00  0.00     0.296 C 
ATOM     84  C   UNL     1       5.053  -7.870   0.940  1.00  0.00     0.091 C 
ATOM     85  N   UNL     1       2.937  -6.842   0.685  1.00  0.00    -0.319 N 
ATOM     86  C   UNL     1       3.905  -8.895   0.885  1.00  0.00     0.036 C 
ATOM     87  C   UNL     1       2.785  -8.044   1.490  1.00  0.00     0.270 C 
ATOM     88  H   UNL     1       2.593  -7.037  -0.255  1.00  0.00     0.349 HD
ATOM     89  C   UNL     1       4.218 -10.166   1.682  1.00  0.00     0.074 C 
ATOM     90  C   UNL     1       3.543  -9.306  -0.572  1.00  0.00     0.074 C 
ATOM     91  C   UNL     1       5.252 -11.039   0.961  1.00  0.00     0.261 C 
ATOM     92  C   UNL     1       4.608 -10.191  -1.206  1.00  0.00     0.261 C 
ATOM     93  N   UNL     1       4.839 -11.388  -0.400  1.00  0.00    -0.346 N 
ATOM     94  H   UNL     1       3.977 -11.932  -0.357  1.00  0.00     0.346 HD
ATOM     95  H   UNL     1       5.586 -11.931  -0.835  1.00  0.00     0.346 HD
BRANCH  85  96
ATOM     96  C   UNL     1       2.018  -5.742   0.945  1.00  0.00     0.302 C 
BRANCH  96  97
ATOM     97  C   UNL     1       1.051  -5.583  -0.202  1.00  0.00     0.038 A 
ATOM     98  C   UNL     1       0.170  -6.630  -0.582  1.00  0.00     0.012 A 
ATOM     99  C   UNL     1       0.964  -4.460  -1.060  1.00  0.00     0.144 A 
ATOM    100  C   UNL     1      -0.678  -6.590  -1.720  1.00  0.00     0.003 A 
ATOM    101  C   UNL     1       0.112  -4.433  -2.245  1.00  0.00     0.135 A 
ATOM    102  N   UNL     1       1.581  -3.277  -0.993  1.00  0.00    -0.049 NA
ATOM    103  C   UNL     1      -0.725  -5.500  -2.602  1.00  0.00     0.034 A 
ATOM    104  N   UNL     1       0.291  -3.267  -2.877  1.00  0.00    -0.050 NA
ATOM    105  O   UNL     1       1.225  -2.578  -2.126  1.00  0.00    -0.243 OA
ENDBRANCH  96  97
ENDBRANCH  85  96
ENDBRANCH  81  83
ENDBRANCH  80  81
ENDBRANCH  79  80
ENDBRANCH  78  79
ENDBRANCH  77  78
ENDBRANCH  76  77
ENDBRANCH  75  76
ENDBRANCH   1  75
TORSDOF 22
