REMARK SMILES Cc1ccc(S(=O)(=O)n2cc(C(=O)C(=O)N[C@@H](Cc3c[nH]c4ccccc34)C(=O)OCCOCCOCCOCCOC(=O)c3ccc(-c4c5nc(c(-c6c(F)c(F)c(F)c(F)c6F)c6ccc([nH]6)c(-c6c(F)c(F)c(F)c(F)c6F)c6nc(c(-c7c(F)c(F)c(F)c(F)c7F)c7ccc4[nH]7)C=C6)C=C5)cc3)c3ccccc32)cc1
REMARK SMILES IDX 34 1 33 2 32 3 31 4 30 5 28 6 29 7 17 8 16 9 14 10 15 11
REMARK SMILES IDX 12 13 13 14 11 15 9 16 10 17 113 18 108 19 112 20 109 21
REMARK SMILES IDX 111 22 110 23 6 24 7 25 8 26 5 27 1 28 2 29 3 30 115 31 4 32
REMARK SMILES IDX 114 33 18 34 19 35 20 36 27 37 21 38 22 39 26 40 23 42 25 43
REMARK SMILES IDX 24 44 35 45 36 46 37 47 38 48 39 49 40 50 41 51 42 52 43 53
REMARK SMILES IDX 44 54 45 55 46 56 107 57 47 58 106 59 48 60 49 61 50 62
REMARK SMILES IDX 100 63 51 64 105 65 99 66 101 67 52 68 104 69 98 70 97 71
REMARK SMILES IDX 53 73 85 74 65 75 84 76 66 77 69 78 83 79 102 80 67 81 68 82
REMARK SMILES IDX 82 84 103 85 70 86 54 87 55 88 63 89 56 90 57 91 61 92 64 93
REMARK SMILES IDX 58 94 59 95 62 96 60 97 86 98 87 99 95 100 88 101 89 102
REMARK SMILES IDX 93 103 96 104 90 105 91 106 94 107 92 108 71 109 72 110
REMARK SMILES IDX 80 111 73 112 74 113 78 114 81 115 75 116 76 117 79 118
REMARK SMILES IDX 77 119
REMARK H PARENT 16 12 21 41 101 72 69 83
REMARK Flexibility Score: inf
ROOT
ATOM      1  C   UNL     1     -10.097   0.678  -3.260  1.00  0.00     0.188 C 
ENDROOT
BRANCH   1   2
ATOM      2  O   UNL     1     -10.810   0.573  -2.031  1.00  0.00    -0.376 OA
BRANCH   2   3
ATOM      3  C   UNL     1     -12.226   0.655  -2.041  1.00  0.00     0.202 C 
BRANCH   3   4
ATOM      4  C   UNL     1     -12.762   0.794  -0.647  1.00  0.00     0.261 C 
BRANCH   4   5
ATOM      5  O   UNL     1     -11.811   1.428   0.164  1.00  0.00    -0.462 OA
BRANCH   5   6
ATOM      6  C   UNL     1     -11.219   0.540   1.000  1.00  0.00     0.329 C 
ATOM      7  O   UNL     1     -11.477  -0.653   1.134  1.00  0.00    -0.250 OA
BRANCH   6   8
ATOM      8  C   UNL     1     -10.412   1.329   1.988  1.00  0.00     0.197 C 
BRANCH   8   9
ATOM      9  N   UNL     1      -9.627   2.433   1.379  1.00  0.00    -0.335 N 
ATOM     10  C   UNL     1      -8.387   2.349   0.743  1.00  0.00     0.293 C 
ATOM     11  O   UNL     1      -7.712   3.340   0.491  1.00  0.00    -0.265 OA
ATOM     12  H   UNL     1     -10.028   3.330   1.431  1.00  0.00     0.164 HD
BRANCH  10  13
ATOM     13  C   UNL     1      -7.928   0.977   0.276  1.00  0.00     0.252 C 
ATOM     14  O   UNL     1      -8.855   0.223  -0.022  1.00  0.00    -0.283 OA
BRANCH  13  15
ATOM     15  C   UNL     1      -6.574   0.415   0.261  1.00  0.00     0.054 A 
ATOM     16  N   UNL     1      -4.498  -0.263   0.774  1.00  0.00    -0.240 N 
ATOM     17  C   UNL     1      -5.268   0.874   0.482  1.00  0.00     0.117 A 
ATOM     18  C   UNL     1      -5.389  -1.354   0.817  1.00  0.00     0.065 A 
ATOM     19  C   UNL     1      -6.420  -0.974  -0.018  1.00  0.00     0.012 A 
ATOM     20  C   UNL     1      -5.215  -2.696   1.196  1.00  0.00     0.028 A 
ATOM     21  C   UNL     1      -7.153  -1.967  -0.700  1.00  0.00     0.011 A 
ATOM     22  C   UNL     1      -5.903  -3.666   0.466  1.00  0.00     0.002 A 
ATOM     23  C   UNL     1      -6.821  -3.308  -0.513  1.00  0.00     0.001 A 
BRANCH  16  24
ATOM     24  S   UNL     1      -2.989  -0.792   0.100  1.00  0.00     0.268 S 
ATOM     25  O   UNL     1      -3.332  -1.105  -1.279  1.00  0.00    -0.201 OA
ATOM     26  O   UNL     1      -2.650  -1.846   1.053  1.00  0.00    -0.201 OA
BRANCH  24  27
ATOM     27  C   UNL     1      -1.425  -0.019  -0.007  1.00  0.00     0.088 A 
ATOM     28  C   UNL     1       2.827   0.716  -0.039  1.00  0.00     0.044 C 
ATOM     29  C   UNL     1       1.340   0.521  -0.097  1.00  0.00    -0.051 A 
ATOM     30  C   UNL     1       0.899  -0.771  -0.320  1.00  0.00     0.005 A 
ATOM     31  C   UNL     1       0.388   1.546   0.117  1.00  0.00     0.005 A 
ATOM     32  C   UNL     1      -0.455  -1.019  -0.300  1.00  0.00     0.022 A 
ATOM     33  C   UNL     1      -1.009   1.285   0.171  1.00  0.00     0.022 A 
ENDBRANCH  24  27
ENDBRANCH  16  24
ENDBRANCH  13  15
ENDBRANCH  10  13
ENDBRANCH   8   9
BRANCH   8  34
ATOM     34  C   UNL     1     -11.491   1.739   3.036  1.00  0.00     0.074 C 
BRANCH  34  35
ATOM     35  C   UNL     1     -12.386   2.921   2.722  1.00  0.00    -0.020 A 
ATOM     36  C   UNL     1     -13.751   2.909   2.479  1.00  0.00     0.087 A 
ATOM     37  C   UNL     1     -11.986   4.294   2.680  1.00  0.00     0.003 A 
ATOM     38  N   UNL     1     -14.179   4.204   2.328  1.00  0.00    -0.361 N 
ATOM     39  C   UNL     1     -13.117   5.069   2.430  1.00  0.00     0.046 A 
ATOM     40  C   UNL     1     -10.747   4.945   2.832  1.00  0.00     0.010 A 
ATOM     41  H   UNL     1     -15.113   4.473   2.169  1.00  0.00     0.166 HD
ATOM     42  C   UNL     1     -13.065   6.464   2.331  1.00  0.00     0.026 A 
ATOM     43  C   UNL     1     -10.661   6.324   2.657  1.00  0.00     0.001 A 
ATOM     44  C   UNL     1     -11.808   7.074   2.427  1.00  0.00     0.002 A 
ENDBRANCH  34  35
ENDBRANCH   8  34
ENDBRANCH   6   8
ENDBRANCH   5   6
ENDBRANCH   4   5
ENDBRANCH   3   4
ENDBRANCH   2   3
ENDBRANCH   1   2
BRANCH   1  45
ATOM     45  C   UNL     1      -8.768   1.432  -2.975  1.00  0.00     0.188 C 
BRANCH  45  46
ATOM     46  O   UNL     1      -8.943   2.736  -2.397  1.00  0.00    -0.377 OA
BRANCH  46  47
ATOM     47  C   UNL     1      -8.449   3.901  -3.066  1.00  0.00     0.188 C 
BRANCH  47  48
ATOM     48  C   UNL     1      -8.821   4.074  -4.539  1.00  0.00     0.188 C 
BRANCH  48  49
ATOM     49  O   UNL     1      -8.284   3.050  -5.364  1.00  0.00    -0.376 OA
BRANCH  49  50
ATOM     50  C   UNL     1      -6.906   3.184  -5.701  1.00  0.00     0.202 C 
BRANCH  50  51
ATOM     51  C   UNL     1      -6.658   4.312  -6.711  1.00  0.00     0.261 C 
BRANCH  51  52
ATOM     52  O   UNL     1      -7.516   4.113  -7.851  1.00  0.00    -0.460 OA
BRANCH  52  53
ATOM     53  C   UNL     1      -8.554   5.000  -7.950  1.00  0.00     0.338 C 
ATOM     54  O   UNL     1      -8.471   6.191  -7.817  1.00  0.00    -0.246 OA
BRANCH  53  55
ATOM     55  C   UNL     1      -9.851   4.246  -7.928  1.00  0.00     0.060 A 
ATOM     56  C   UNL     1     -11.027   4.959  -7.665  1.00  0.00     0.016 A 
ATOM     57  C   UNL     1      -9.840   2.861  -7.778  1.00  0.00     0.016 A 
ATOM     58  C   UNL     1     -12.113   4.307  -7.074  1.00  0.00     0.010 A 
ATOM     59  C   UNL     1     -10.846   2.263  -7.030  1.00  0.00     0.010 A 
ATOM     60  C   UNL     1     -11.970   2.988  -6.609  1.00  0.00    -0.014 A 
BRANCH  60  61
ATOM     61  C   UNL     1     -12.764   2.501  -5.436  1.00  0.00     0.031 A 
ATOM     62  C   UNL     1     -13.184   1.028  -5.284  1.00  0.00     0.074 A 
ATOM     63  C   UNL     1     -12.585   3.362  -4.401  1.00  0.00     0.049 A 
ATOM     64  N   UNL     1     -13.964   0.494  -4.373  1.00  0.00    -0.248 NA
ATOM     65  C   UNL     1     -12.862   0.041  -6.325  1.00  0.00     0.031 C 
ATOM     66  C   UNL     1     -11.800   3.310  -3.185  1.00  0.00     0.029 A 
ATOM     67  N   UNL     1     -13.245   4.570  -4.231  1.00  0.00    -0.354 N 
ATOM     68  C   UNL     1     -13.994  -0.905  -4.568  1.00  0.00     0.074 A 
ATOM     69  C   UNL     1     -13.424  -1.082  -5.873  1.00  0.00     0.031 C 
ATOM     70  C   UNL     1     -12.273   4.111  -2.237  1.00  0.00     0.029 A 
ATOM     71  C   UNL     1     -13.384   4.746  -2.863  1.00  0.00     0.049 A 
ATOM     72  H   UNL     1     -13.553   5.180  -4.940  1.00  0.00     0.167 HD
ATOM     73  C   UNL     1     -14.370  -1.823  -3.606  1.00  0.00     0.037 A 
ATOM     74  C   UNL     1     -14.158   5.563  -2.160  1.00  0.00     0.037 A 
ATOM     75  C   UNL     1     -14.950  -1.207  -2.388  1.00  0.00     0.049 A 
ATOM     76  C   UNL     1     -15.119   4.666  -1.408  1.00  0.00     0.074 A 
ATOM     77  C   UNL     1     -14.841  -1.504  -1.039  1.00  0.00     0.029 A 
ATOM     78  N   UNL     1     -15.703  -0.020  -2.443  1.00  0.00    -0.354 N 
ATOM     79  N   UNL     1     -15.171   3.339  -1.484  1.00  0.00    -0.248 NA
ATOM     80  C   UNL     1     -16.180   5.211  -0.580  1.00  0.00     0.031 C 
ATOM     81  C   UNL     1     -15.461  -0.469  -0.292  1.00  0.00     0.029 A 
ATOM     82  C   UNL     1     -15.972   0.473  -1.176  1.00  0.00     0.049 A 
ATOM     83  H   UNL     1     -16.002   0.408  -3.278  1.00  0.00     0.167 HD
ATOM     84  C   UNL     1     -16.335   2.888  -0.869  1.00  0.00     0.074 A 
ATOM     85  C   UNL     1     -16.868   4.103  -0.262  1.00  0.00     0.031 C 
ATOM     86  C   UNL     1     -16.861   1.606  -0.917  1.00  0.00     0.037 A 
BRANCH  73  87
ATOM     87  C   UNL     1     -14.054  -3.381  -3.640  1.00  0.00     0.064 A 
ATOM     88  C   UNL     1     -14.588  -4.277  -2.667  1.00  0.00     0.173 A 
ATOM     89  C   UNL     1     -13.163  -4.038  -4.528  1.00  0.00     0.173 A 
ATOM     90  F   UNL     1     -15.502  -3.877  -1.775  1.00  0.00    -0.203 F 
ATOM     91  C   UNL     1     -14.236  -5.640  -2.568  1.00  0.00     0.198 A 
ATOM     92  C   UNL     1     -12.900  -5.426  -4.497  1.00  0.00     0.198 A 
ATOM     93  F   UNL     1     -12.446  -3.377  -5.440  1.00  0.00    -0.203 F 
ATOM     94  F   UNL     1     -14.713  -6.385  -1.559  1.00  0.00    -0.200 F 
ATOM     95  C   UNL     1     -13.415  -6.223  -3.503  1.00  0.00     0.200 A 
ATOM     96  F   UNL     1     -12.119  -5.974  -5.441  1.00  0.00    -0.200 F 
ATOM     97  F   UNL     1     -13.123  -7.531  -3.448  1.00  0.00    -0.200 F 
ENDBRANCH  73  87
BRANCH  74  98
ATOM     98  C   UNL     1     -13.666   6.973  -2.322  1.00  0.00     0.064 A 
ATOM     99  C   UNL     1     -12.478   7.311  -1.627  1.00  0.00     0.173 A 
ATOM    100  C   UNL     1     -13.748   7.482  -3.638  1.00  0.00     0.173 A 
ATOM    101  F   UNL     1     -12.311   6.889  -0.372  1.00  0.00    -0.203 F 
ATOM    102  C   UNL     1     -11.359   7.860  -2.276  1.00  0.00     0.198 A 
ATOM    103  C   UNL     1     -12.614   7.983  -4.300  1.00  0.00     0.198 A 
ATOM    104  F   UNL     1     -14.826   7.195  -4.384  1.00  0.00    -0.203 F 
ATOM    105  F   UNL     1     -10.195   7.992  -1.622  1.00  0.00    -0.200 F 
ATOM    106  C   UNL     1     -11.410   8.128  -3.631  1.00  0.00     0.200 A 
ATOM    107  F   UNL     1     -12.646   8.145  -5.631  1.00  0.00    -0.200 F 
ATOM    108  F   UNL     1     -10.291   8.440  -4.304  1.00  0.00    -0.200 F 
ENDBRANCH  74  98
BRANCH  86 109
ATOM    109  C   UNL     1     -18.327   1.206  -0.611  1.00  0.00     0.064 A 
ATOM    110  C   UNL     1     -19.409   2.101  -0.608  1.00  0.00     0.173 A 
ATOM    111  C   UNL     1     -18.720  -0.164  -0.494  1.00  0.00     0.173 A 
ATOM    112  F   UNL     1     -19.248   3.406  -0.850  1.00  0.00    -0.203 F 
ATOM    113  C   UNL     1     -20.737   1.681  -0.436  1.00  0.00     0.198 A 
ATOM    114  C   UNL     1     -20.047  -0.582  -0.380  1.00  0.00     0.198 A 
ATOM    115  F   UNL     1     -17.850  -1.178  -0.532  1.00  0.00    -0.203 F 
ATOM    116  F   UNL     1     -21.715   2.597  -0.406  1.00  0.00    -0.200 F 
ATOM    117  C   UNL     1     -21.058   0.343  -0.340  1.00  0.00     0.200 A 
ATOM    118  F   UNL     1     -20.329  -1.893  -0.342  1.00  0.00    -0.200 F 
ATOM    119  F   UNL     1     -22.333  -0.052  -0.248  1.00  0.00    -0.200 F 
ENDBRANCH  86 109
ENDBRANCH  60  61
ENDBRANCH  53  55
ENDBRANCH  52  53
ENDBRANCH  51  52
ENDBRANCH  50  51
ENDBRANCH  49  50
ENDBRANCH  48  49
ENDBRANCH  47  48
ENDBRANCH  46  47
ENDBRANCH  45  46
ENDBRANCH   1  45
TORSDOF 27
