REMARK SMILES O=C(CSc1nc2cnccc2n1CCC1CC1)OCCOCCOCCOCCOC(=O)c1ccc(-c2c3nc(c(-c4c(F)c(F)c(F)c(F)c4F)c4ccc([nH]4)c(-c4c(F)c(F)c(F)c(F)c4F)c4nc(c(-c5c(F)c(F)c(F)c(F)c5F)c5ccc2[nH]5)C=C4)C=C3)cc1
REMARK SMILES IDX 23 1 22 2 21 3 20 4 19 5 2 6 1 7 3 8 4 9 5 10 6 11 13 12
REMARK SMILES IDX 7 13 12 14 8 15 11 16 9 17 10 18 14 19 15 20 16 21 17 22
REMARK SMILES IDX 18 23 24 24 25 25 26 26 27 27 28 28 29 29 30 30 31 31 32 32
REMARK SMILES IDX 33 33 34 34 35 35 96 36 36 37 95 38 37 39 38 40 39 41 89 42
REMARK SMILES IDX 40 43 94 44 88 45 90 46 41 47 93 48 87 49 86 50 42 52 74 53
REMARK SMILES IDX 54 54 73 55 55 56 58 57 72 58 91 59 56 60 57 61 71 63 92 64
REMARK SMILES IDX 59 65 43 66 44 67 52 68 45 69 46 70 50 71 53 72 47 73 48 74
REMARK SMILES IDX 51 75 49 76 75 77 76 78 84 79 77 80 78 81 82 82 85 83 79 84
REMARK SMILES IDX 80 85 83 86 81 87 60 88 61 89 69 90 62 91 63 92 67 93 70 94
REMARK SMILES IDX 64 95 65 96 68 97 66 98
REMARK H PARENT 90 51 58 62
REMARK Flexibility Score: inf
ROOT
ATOM      1  C   UNL     1       2.828   1.301   1.350  1.00  0.00     0.188 C 
ENDROOT
BRANCH   1   2
ATOM      2  O   UNL     1       4.188   1.300   0.952  1.00  0.00    -0.376 OA
BRANCH   2   3
ATOM      3  C   UNL     1       4.900   0.499   0.036  1.00  0.00     0.202 C 
BRANCH   3   4
ATOM      4  C   UNL     1       4.595   0.385  -1.475  1.00  0.00     0.261 C 
BRANCH   4   5
ATOM      5  O   UNL     1       3.243   0.436  -1.936  1.00  0.00    -0.463 OA
BRANCH   5   6
ATOM      6  C   UNL     1       2.475  -0.674  -1.865  1.00  0.00     0.316 C 
ATOM      7  O   UNL     1       1.619  -0.930  -2.709  1.00  0.00    -0.251 OA
BRANCH   6   8
ATOM      8  C   UNL     1       2.545  -1.388  -0.565  1.00  0.00     0.200 C 
BRANCH   8   9
ATOM      9  S   UNL     1       3.594  -2.792  -0.506  1.00  0.00    -0.076 SA
BRANCH   9  10
ATOM     10  C   UNL     1       2.739  -4.020   0.340  1.00  0.00     0.169 A 
ATOM     11  N   UNL     1       3.250  -5.230   0.429  1.00  0.00    -0.221 NA
ATOM     12  N   UNL     1       1.422  -4.042   0.707  1.00  0.00    -0.319 N 
ATOM     13  C   UNL     1       2.165  -6.053   0.310  1.00  0.00     0.108 A 
ATOM     14  C   UNL     1       0.993  -5.305   0.331  1.00  0.00     0.072 A 
ATOM     15  C   UNL     1       2.081  -7.428   0.097  1.00  0.00     0.141 A 
ATOM     16  C   UNL     1      -0.248  -5.848   0.007  1.00  0.00     0.049 A 
ATOM     17  N   UNL     1       0.882  -7.997  -0.201  1.00  0.00    -0.262 NA
ATOM     18  C   UNL     1      -0.215  -7.205  -0.278  1.00  0.00     0.113 A 
BRANCH  12  19
ATOM     19  C   UNL     1       0.524  -3.050   1.227  1.00  0.00     0.125 C 
BRANCH  19  20
ATOM     20  C   UNL     1       0.797  -2.105   2.415  1.00  0.00     0.025 C 
BRANCH  20  21
ATOM     21  C   UNL     1       1.962  -2.054   3.361  1.00  0.00    -0.009 C 
ATOM     22  C   UNL     1       3.156  -2.961   3.489  1.00  0.00     0.004 C 
ATOM     23  C   UNL     1       3.344  -1.554   3.010  1.00  0.00     0.004 C 
ENDBRANCH  20  21
ENDBRANCH  19  20
ENDBRANCH  12  19
ENDBRANCH   9  10
ENDBRANCH   8   9
ENDBRANCH   6   8
ENDBRANCH   5   6
ENDBRANCH   4   5
ENDBRANCH   3   4
ENDBRANCH   2   3
ENDBRANCH   1   2
BRANCH   1  24
ATOM     24  C   UNL     1       1.874   2.042   0.426  1.00  0.00     0.188 C 
BRANCH  24  25
ATOM     25  O   UNL     1       2.206   3.409   0.298  1.00  0.00    -0.377 OA
BRANCH  25  26
ATOM     26  C   UNL     1       3.525   3.645  -0.177  1.00  0.00     0.188 C 
BRANCH  26  27
ATOM     27  C   UNL     1       4.542   4.011   0.939  1.00  0.00     0.188 C 
BRANCH  27  28
ATOM     28  O   UNL     1       4.081   4.767   2.048  1.00  0.00    -0.376 OA
BRANCH  28  29
ATOM     29  C   UNL     1       3.160   5.805   1.754  1.00  0.00     0.202 C 
BRANCH  29  30
ATOM     30  C   UNL     1       3.629   6.902   0.771  1.00  0.00     0.261 C 
BRANCH  30  31
ATOM     31  O   UNL     1       4.156   6.394  -0.480  1.00  0.00    -0.460 OA
BRANCH  31  32
ATOM     32  C   UNL     1       5.424   6.736  -0.835  1.00  0.00     0.338 C 
ATOM     33  O   UNL     1       6.051   7.697  -0.423  1.00  0.00    -0.246 OA
BRANCH  32  34
ATOM     34  C   UNL     1       6.067   5.578  -1.543  1.00  0.00     0.060 A 
ATOM     35  C   UNL     1       5.421   4.836  -2.532  1.00  0.00     0.016 A 
ATOM     36  C   UNL     1       7.272   5.088  -1.001  1.00  0.00     0.016 A 
ATOM     37  C   UNL     1       5.947   3.590  -2.906  1.00  0.00     0.010 A 
ATOM     38  C   UNL     1       7.782   3.829  -1.361  1.00  0.00     0.010 A 
ATOM     39  C   UNL     1       7.114   3.054  -2.305  1.00  0.00    -0.014 A 
BRANCH  39  40
ATOM     40  C   UNL     1       7.687   1.819  -2.906  1.00  0.00     0.031 A 
ATOM     41  C   UNL     1       7.968   2.006  -4.360  1.00  0.00     0.074 A 
ATOM     42  C   UNL     1       8.097   0.653  -2.345  1.00  0.00     0.049 A 
ATOM     43  N   UNL     1       7.493   1.358  -5.373  1.00  0.00    -0.248 NA
ATOM     44  C   UNL     1       8.810   3.161  -4.710  1.00  0.00     0.031 C 
ATOM     45  C   UNL     1       8.280   0.346  -0.927  1.00  0.00     0.029 A 
ATOM     46  N   UNL     1       8.498  -0.518  -2.960  1.00  0.00    -0.354 N 
ATOM     47  C   UNL     1       8.087   1.940  -6.492  1.00  0.00     0.074 A 
ATOM     48  C   UNL     1       8.768   3.123  -6.038  1.00  0.00     0.031 C 
ATOM     49  C   UNL     1       8.879  -0.860  -0.794  1.00  0.00     0.029 A 
ATOM     50  C   UNL     1       9.092  -1.448  -2.106  1.00  0.00     0.049 A 
ATOM     51  H   UNL     1       8.375  -0.683  -3.923  1.00  0.00     0.167 HD
ATOM     52  C   UNL     1       8.158   1.306  -7.690  1.00  0.00     0.037 A 
ATOM     53  C   UNL     1       9.784  -2.573  -2.437  1.00  0.00     0.037 A 
ATOM     54  C   UNL     1       7.179   0.265  -7.807  1.00  0.00     0.049 A 
ATOM     55  C   UNL     1       9.474  -2.929  -3.842  1.00  0.00     0.074 A 
ATOM     56  C   UNL     1       5.801   0.212  -7.808  1.00  0.00     0.029 A 
ATOM     57  N   UNL     1       7.610  -1.028  -7.684  1.00  0.00    -0.354 N 
ATOM     58  N   UNL     1       8.370  -3.474  -4.263  1.00  0.00    -0.248 NA
ATOM     59  C   UNL     1      10.353  -2.415  -4.881  1.00  0.00     0.031 C 
ATOM     60  C   UNL     1       5.470  -1.061  -7.264  1.00  0.00     0.029 A 
ATOM     61  C   UNL     1       6.663  -1.729  -6.990  1.00  0.00     0.049 A 
ATOM     62  H   UNL     1       8.455  -1.391  -8.036  1.00  0.00     0.167 HD
ATOM     63  C   UNL     1       8.215  -3.000  -5.552  1.00  0.00     0.074 A 
ATOM     64  C   UNL     1       9.522  -2.473  -5.921  1.00  0.00     0.031 C 
ATOM     65  C   UNL     1       6.976  -2.816  -6.089  1.00  0.00     0.037 A 
BRANCH  52  66
ATOM     66  C   UNL     1       9.353   1.403  -8.609  1.00  0.00     0.064 A 
ATOM     67  C   UNL     1       9.286   0.837  -9.897  1.00  0.00     0.173 A 
ATOM     68  C   UNL     1      10.647   1.762  -8.170  1.00  0.00     0.173 A 
ATOM     69  F   UNL     1       8.114   0.422 -10.401  1.00  0.00    -0.203 F 
ATOM     70  C   UNL     1      10.433   0.595 -10.657  1.00  0.00     0.198 A 
ATOM     71  C   UNL     1      11.782   1.575  -8.955  1.00  0.00     0.198 A 
ATOM     72  F   UNL     1      10.883   2.198  -6.926  1.00  0.00    -0.203 F 
ATOM     73  F   UNL     1      10.333  -0.063 -11.820  1.00  0.00    -0.200 F 
ATOM     74  C   UNL     1      11.680   0.963 -10.185  1.00  0.00     0.200 A 
ATOM     75  F   UNL     1      12.983   1.919  -8.469  1.00  0.00    -0.200 F 
ATOM     76  F   UNL     1      12.785   0.681 -10.887  1.00  0.00    -0.200 F 
ENDBRANCH  52  66
BRANCH  53  77
ATOM     77  C   UNL     1      10.906  -3.257  -1.726  1.00  0.00     0.064 A 
ATOM     78  C   UNL     1      11.335  -4.548  -2.103  1.00  0.00     0.173 A 
ATOM     79  C   UNL     1      11.771  -2.554  -0.867  1.00  0.00     0.173 A 
ATOM     80  F   UNL     1      10.604  -5.287  -2.950  1.00  0.00    -0.203 F 
ATOM     81  C   UNL     1      12.565  -5.074  -1.683  1.00  0.00     0.198 A 
ATOM     82  C   UNL     1      12.989  -3.086  -0.435  1.00  0.00     0.198 A 
ATOM     83  F   UNL     1      11.506  -1.291  -0.505  1.00  0.00    -0.203 F 
ATOM     84  F   UNL     1      12.971  -6.270  -2.132  1.00  0.00    -0.200 F 
ATOM     85  C   UNL     1      13.396  -4.336  -0.859  1.00  0.00     0.200 A 
ATOM     86  F   UNL     1      13.797  -2.346   0.337  1.00  0.00    -0.200 F 
ATOM     87  F   UNL     1      14.602  -4.806  -0.512  1.00  0.00    -0.200 F 
ENDBRANCH  53  77
BRANCH  65  88
ATOM     88  C   UNL     1       5.818  -3.614  -5.561  1.00  0.00     0.064 A 
ATOM     89  C   UNL     1       5.412  -3.683  -4.222  1.00  0.00     0.173 A 
ATOM     90  C   UNL     1       5.013  -4.272  -6.511  1.00  0.00     0.173 A 
ATOM     91  F   UNL     1       6.037  -2.986  -3.260  1.00  0.00    -0.203 F 
ATOM     92  C   UNL     1       4.296  -4.439  -3.863  1.00  0.00     0.198 A 
ATOM     93  C   UNL     1       3.845  -4.934  -6.150  1.00  0.00     0.198 A 
ATOM     94  F   UNL     1       5.342  -4.237  -7.813  1.00  0.00    -0.203 F 
ATOM     95  F   UNL     1       3.986  -4.616  -2.578  1.00  0.00    -0.200 F 
ATOM     96  C   UNL     1       3.492  -5.027  -4.821  1.00  0.00     0.200 A 
ATOM     97  F   UNL     1       3.063  -5.477  -7.093  1.00  0.00    -0.200 F 
ATOM     98  F   UNL     1       2.373  -5.669  -4.460  1.00  0.00    -0.200 F 
ENDBRANCH  65  88
ENDBRANCH  39  40
ENDBRANCH  32  34
ENDBRANCH  31  32
ENDBRANCH  30  31
ENDBRANCH  29  30
ENDBRANCH  28  29
ENDBRANCH  27  28
ENDBRANCH  26  27
ENDBRANCH  25  26
ENDBRANCH  24  25
ENDBRANCH   1  24
TORSDOF 25
