REMARK SMILES O=C(Cn1nc(-c2ccc(Br)cc2)ccc1=O)N[C@H](C(=O)OCCOCCOCCOCCOC(=O)c1ccc(-c2c3nc(c(-c4c(F)c(F)c(F)c(F)c4F)c4ccc([nH]4)c(-c4c(F)c(F)c(F)c(F)c4F)c4nc(c(-c5c(F)c(F)c(F)c(F)c5F)c5ccc2[nH]5)C=C4)C=C3)cc1)c1ccccc1
REMARK SMILES IDX 27 1 26 2 25 3 24 4 23 5 22 6 20 7 21 8 19 9 18 10 1 11 2 12
REMARK SMILES IDX 3 14 4 15 5 16 16 17 6 18 15 19 17 20 14 21 7 22 8 23 13 24
REMARK SMILES IDX 9 25 12 26 10 27 11 28 100 29 101 30 105 31 102 32 104 33
REMARK SMILES IDX 103 34 28 35 29 36 30 37 31 38 32 39 33 40 34 41 35 42 36 43
REMARK SMILES IDX 37 44 38 45 99 46 39 47 98 48 40 49 41 50 42 51 92 52 43 53
REMARK SMILES IDX 97 54 91 55 93 56 44 57 96 58 90 59 89 60 45 62 77 63 57 64
REMARK SMILES IDX 76 65 58 66 61 67 75 68 94 69 59 70 60 71 74 73 95 74 62 75
REMARK SMILES IDX 46 76 47 77 55 78 48 79 49 80 53 81 56 82 50 83 51 84 54 85
REMARK SMILES IDX 52 86 78 87 79 88 87 89 80 90 81 91 85 92 88 93 82 94 83 95
REMARK SMILES IDX 86 96 84 97 63 98 64 99 72 100 65 101 66 102 70 103 73 104
REMARK SMILES IDX 67 105 68 106 71 107 69 108
REMARK H PARENT 18 13 93 61 61 72
REMARK Flexibility Score: inf
ROOT
ATOM      1  C   UNL     1       1.420  -0.485  -0.096  1.00  0.00     0.188 C 
ENDROOT
BRANCH   1   2
ATOM      2  C   UNL     1       2.445   0.087  -1.095  1.00  0.00     0.188 C 
BRANCH   2   3
ATOM      3  O   UNL     1       3.426  -0.851  -1.531  1.00  0.00    -0.376 OA
BRANCH   3   4
ATOM      4  C   UNL     1       4.783  -0.566  -1.205  1.00  0.00     0.202 C 
BRANCH   4   5
ATOM      5  C   UNL     1       5.157  -0.859   0.253  1.00  0.00     0.261 C 
BRANCH   5   6
ATOM      6  O   UNL     1       4.364  -0.114   1.178  1.00  0.00    -0.461 OA
BRANCH   6   7
ATOM      7  C   UNL     1       4.606   1.235   1.215  1.00  0.00     0.333 C 
ATOM      8  O   UNL     1       5.492   1.781   0.570  1.00  0.00    -0.249 OA
BRANCH   7   9
ATOM      9  C   UNL     1       3.434   1.914   1.963  1.00  0.00     0.223 C 
BRANCH   9  10
ATOM     10  N   UNL     1       3.160   1.402   3.302  1.00  0.00    -0.337 N 
ATOM     11  O   UNL     1       5.274   0.598   3.751  1.00  0.00    -0.273 OA
ATOM     12  C   UNL     1       4.122   0.827   4.113  1.00  0.00     0.242 C 
ATOM     13  H   UNL     1       2.241   1.470   3.647  1.00  0.00     0.164 HD
BRANCH  12  14
ATOM     14  C   UNL     1       3.670   0.638   5.560  1.00  0.00     0.248 C 
BRANCH  14  15
ATOM     15  N   UNL     1       4.209   1.768   6.306  1.00  0.00    -0.220 N 
ATOM     16  N   UNL     1       4.128   2.990   5.673  1.00  0.00    -0.169 NA
ATOM     17  C   UNL     1       4.912   1.550   7.478  1.00  0.00     0.267 A 
ATOM     18  C   UNL     1       4.891   3.937   6.106  1.00  0.00     0.091 A 
ATOM     19  C   UNL     1       5.669   2.711   7.998  1.00  0.00     0.075 A 
ATOM     20  O   UNL     1       4.956   0.484   8.085  1.00  0.00    -0.268 OA
ATOM     21  C   UNL     1       5.711   3.865   7.327  1.00  0.00     0.036 A 
BRANCH  18  22
ATOM     22  C   UNL     1       4.982   5.175   5.313  1.00  0.00     0.002 A 
ATOM     23  C   UNL     1       3.830   5.933   5.096  1.00  0.00     0.011 A 
ATOM     24  C   UNL     1       6.183   5.500   4.672  1.00  0.00     0.011 A 
ATOM     25  C   UNL     1       3.887   7.045   4.255  1.00  0.00     0.016 A 
ATOM     26  C   UNL     1       6.231   6.604   3.819  1.00  0.00     0.016 A 
ATOM     27  C   UNL     1       5.083   7.370   3.614  1.00  0.00     0.018 A 
ATOM     28  Br  UNL     1       5.135   8.842   2.429  1.00  0.00    -0.051 Br
ENDBRANCH  18  22
ENDBRANCH  14  15
ENDBRANCH  12  14
ENDBRANCH   9  10
BRANCH   9  29
ATOM     29  C   UNL     1       3.147   3.399   1.701  1.00  0.00    -0.014 A 
ATOM     30  C   UNL     1       2.241   4.118   2.501  1.00  0.00     0.006 A 
ATOM     31  C   UNL     1       3.576   4.025   0.512  1.00  0.00     0.006 A 
ATOM     32  C   UNL     1       1.803   5.399   2.137  1.00  0.00     0.000 A 
ATOM     33  C   UNL     1       3.160   5.314   0.162  1.00  0.00     0.000 A 
ATOM     34  C   UNL     1       2.272   6.002   0.975  1.00  0.00     0.000 A 
ENDBRANCH   9  29
ENDBRANCH   7   9
ENDBRANCH   6   7
ENDBRANCH   5   6
ENDBRANCH   4   5
ENDBRANCH   3   4
ENDBRANCH   2   3
ENDBRANCH   1   2
BRANCH   1  35
ATOM     35  O   UNL     1       1.790  -1.659   0.603  1.00  0.00    -0.377 OA
BRANCH  35  36
ATOM     36  C   UNL     1       2.051  -2.848  -0.139  1.00  0.00     0.188 C 
BRANCH  36  37
ATOM     37  C   UNL     1       1.666  -3.009  -1.631  1.00  0.00     0.188 C 
BRANCH  37  38
ATOM     38  O   UNL     1       0.663  -2.118  -2.096  1.00  0.00    -0.376 OA
BRANCH  38  39
ATOM     39  C   UNL     1      -0.603  -2.682  -2.398  1.00  0.00     0.202 C 
BRANCH  39  40
ATOM     40  C   UNL     1      -1.432  -3.079  -1.171  1.00  0.00     0.261 C 
BRANCH  40  41
ATOM     41  O   UNL     1      -0.826  -4.053  -0.308  1.00  0.00    -0.460 OA
BRANCH  41  42
ATOM     42  C   UNL     1      -0.546  -5.270  -0.824  1.00  0.00     0.338 C 
ATOM     43  O   UNL     1      -0.768  -5.666  -1.954  1.00  0.00    -0.246 OA
BRANCH  42  44
ATOM     44  C   UNL     1       0.265  -5.989   0.180  1.00  0.00     0.060 A 
ATOM     45  C   UNL     1      -0.197  -6.103   1.494  1.00  0.00     0.016 A 
ATOM     46  C   UNL     1       1.518  -6.501  -0.180  1.00  0.00     0.016 A 
ATOM     47  C   UNL     1       0.584  -6.762   2.442  1.00  0.00     0.010 A 
ATOM     48  C   UNL     1       2.305  -7.151   0.774  1.00  0.00     0.010 A 
ATOM     49  C   UNL     1       1.828  -7.310   2.084  1.00  0.00    -0.014 A 
BRANCH  49  50
ATOM     50  C   UNL     1       2.507  -8.230   3.026  1.00  0.00     0.031 A 
ATOM     51  C   UNL     1       3.647  -7.800   3.893  1.00  0.00     0.074 A 
ATOM     52  C   UNL     1       2.039  -9.491   3.095  1.00  0.00     0.049 A 
ATOM     53  N   UNL     1       4.250  -8.472   4.842  1.00  0.00    -0.248 NA
ATOM     54  C   UNL     1       4.186  -6.452   3.670  1.00  0.00     0.031 C 
ATOM     55  C   UNL     1       0.950 -10.021   2.272  1.00  0.00     0.029 A 
ATOM     56  N   UNL     1       2.401 -10.545   3.892  1.00  0.00    -0.354 N 
ATOM     57  C   UNL     1       5.223  -7.624   5.350  1.00  0.00     0.074 A 
ATOM     58  C   UNL     1       5.162  -6.403   4.571  1.00  0.00     0.031 C 
ATOM     59  C   UNL     1       0.711 -11.290   2.627  1.00  0.00     0.029 A 
ATOM     60  C   UNL     1       1.641 -11.669   3.686  1.00  0.00     0.049 A 
ATOM     61  H   UNL     1       3.134 -10.500   4.548  1.00  0.00     0.167 HD
ATOM     62  C   UNL     1       6.071  -7.845   6.385  1.00  0.00     0.037 A 
ATOM     63  C   UNL     1       1.679 -12.871   4.290  1.00  0.00     0.037 A 
ATOM     64  C   UNL     1       6.132  -9.073   7.142  1.00  0.00     0.049 A 
ATOM     65  C   UNL     1       2.658 -13.100   5.405  1.00  0.00     0.074 A 
ATOM     66  C   UNL     1       6.928  -9.372   8.235  1.00  0.00     0.029 A 
ATOM     67  N   UNL     1       5.380 -10.209   6.878  1.00  0.00    -0.354 N 
ATOM     68  N   UNL     1       3.515 -12.262   5.935  1.00  0.00    -0.248 NA
ATOM     69  C   UNL     1       2.670 -14.438   6.012  1.00  0.00     0.031 C 
ATOM     70  C   UNL     1       6.699 -10.703   8.597  1.00  0.00     0.029 A 
ATOM     71  C   UNL     1       5.719 -11.220   7.765  1.00  0.00     0.049 A 
ATOM     72  H   UNL     1       4.706 -10.286   6.165  1.00  0.00     0.167 HD
ATOM     73  C   UNL     1       4.156 -12.962   6.947  1.00  0.00     0.074 A 
ATOM     74  C   UNL     1       3.573 -14.288   6.971  1.00  0.00     0.031 C 
ATOM     75  C   UNL     1       5.140 -12.541   7.777  1.00  0.00     0.037 A 
BRANCH  62  76
ATOM     76  C   UNL     1       7.000  -6.736   6.785  1.00  0.00     0.064 A 
ATOM     77  C   UNL     1       6.526  -5.593   7.447  1.00  0.00     0.173 A 
ATOM     78  C   UNL     1       8.387  -6.862   6.606  1.00  0.00     0.173 A 
ATOM     79  F   UNL     1       5.210  -5.428   7.646  1.00  0.00    -0.203 F 
ATOM     80  C   UNL     1       7.404  -4.614   7.906  1.00  0.00     0.198 A 
ATOM     81  C   UNL     1       9.263  -5.893   7.088  1.00  0.00     0.198 A 
ATOM     82  F   UNL     1       8.895  -7.943   5.995  1.00  0.00    -0.203 F 
ATOM     83  F   UNL     1       6.928  -3.527   8.526  1.00  0.00    -0.200 F 
ATOM     84  C   UNL     1       8.772  -4.769   7.735  1.00  0.00     0.200 A 
ATOM     85  F   UNL     1      10.586  -6.055   6.942  1.00  0.00    -0.200 F 
ATOM     86  F   UNL     1       9.618  -3.840   8.201  1.00  0.00    -0.200 F 
ENDBRANCH  62  76
BRANCH  63  87
ATOM     87  C   UNL     1       0.722 -13.925   3.873  1.00  0.00     0.064 A 
ATOM     88  C   UNL     1      -0.331 -14.311   4.713  1.00  0.00     0.173 A 
ATOM     89  C   UNL     1       0.815 -14.537   2.614  1.00  0.00     0.173 A 
ATOM     90  F   UNL     1      -0.451 -13.764   5.931  1.00  0.00    -0.203 F 
ATOM     91  C   UNL     1      -1.251 -15.277   4.312  1.00  0.00     0.198 A 
ATOM     92  C   UNL     1      -0.122 -15.482   2.204  1.00  0.00     0.198 A 
ATOM     93  F   UNL     1       1.800 -14.194   1.772  1.00  0.00    -0.203 F 
ATOM     94  F   UNL     1      -2.232 -15.650   5.145  1.00  0.00    -0.200 F 
ATOM     95  C   UNL     1      -1.151 -15.854   3.055  1.00  0.00     0.200 A 
ATOM     96  F   UNL     1      -0.032 -16.024   0.982  1.00  0.00    -0.200 F 
ATOM     97  F   UNL     1      -2.046 -16.772   2.665  1.00  0.00    -0.200 F 
ENDBRANCH  63  87
BRANCH  75  98
ATOM     98  C   UNL     1       5.656 -13.522   8.790  1.00  0.00     0.064 A 
ATOM     99  C   UNL     1       6.455 -14.612   8.412  1.00  0.00     0.173 A 
ATOM    100  C   UNL     1       5.400 -13.339  10.158  1.00  0.00     0.173 A 
ATOM    101  F   UNL     1       6.715 -14.840   7.116  1.00  0.00    -0.203 F 
ATOM    102  C   UNL     1       6.965 -15.490   9.364  1.00  0.00     0.198 A 
ATOM    103  C   UNL     1       5.936 -14.203  11.109  1.00  0.00     0.198 A 
ATOM    104  F   UNL     1       4.645 -12.311  10.573  1.00  0.00    -0.203 F 
ATOM    105  F   UNL     1       7.693 -16.546   8.976  1.00  0.00    -0.200 F 
ATOM    106  C   UNL     1       6.714 -15.279  10.712  1.00  0.00     0.200 A 
ATOM    107  F   UNL     1       5.704 -13.990  12.412  1.00  0.00    -0.200 F 
ATOM    108  F   UNL     1       7.218 -16.118  11.628  1.00  0.00    -0.200 F 
ENDBRANCH  75  98
ENDBRANCH  49  50
ENDBRANCH  42  44
ENDBRANCH  41  42
ENDBRANCH  40  41
ENDBRANCH  39  40
ENDBRANCH  38  39
ENDBRANCH  37  38
ENDBRANCH  36  37
ENDBRANCH  35  36
ENDBRANCH   1  35
TORSDOF 25
