REMARK SMILES Cc1cc(C(=O)OCCOCCOCCOCCOC(=O)c2ccc(-c3c4nc(c(-c5c(F)c(F)c(F)c(F)c5F)c5ccc([nH]5)c(-c5c(F)c(F)c(F)c(F)c5F)c5nc(c(-c6c(F)c(F)c(F)c(F)c6F)c6ccc3[nH]6)C=C5)C=C4)cc2)ccc1NS(=O)(=O)c1c(F)cccc1F
REMARK SMILES IDX 12 1 11 2 10 3 9 4 8 5 7 6 5 7 6 8 4 9 1 10 2 11 3 12 87 13
REMARK SMILES IDX 86 14 85 15 88 16 89 18 90 19 91 20 92 21 93 22 98 23 94 24
REMARK SMILES IDX 95 25 97 26 99 27 96 28 13 29 14 30 15 31 16 32 17 33 18 34
REMARK SMILES IDX 19 35 20 36 21 37 22 38 23 39 84 40 24 41 83 42 25 43 26 44
REMARK SMILES IDX 27 45 77 46 28 47 82 48 76 49 78 50 29 51 81 52 75 53 74 54
REMARK SMILES IDX 30 56 62 57 42 58 61 59 43 60 46 61 60 62 79 63 44 64 45 65
REMARK SMILES IDX 59 67 80 68 47 69 31 70 32 71 40 72 33 73 34 74 38 75 41 76
REMARK SMILES IDX 35 77 36 78 39 79 37 80 63 81 64 82 72 83 65 84 66 85 70 86
REMARK SMILES IDX 73 87 67 88 68 89 71 90 69 91 48 92 49 93 57 94 50 95 51 96
REMARK SMILES IDX 55 97 58 98 52 99 53 100 56 101 54 102
REMARK H PARENT 88 17 78 55 46 66
REMARK Flexibility Score: inf
ROOT
ATOM      1  C   UNL     1      -0.740  -1.373  -2.770  1.00  0.00     0.188 C 
ENDROOT
BRANCH   1   2
ATOM      2  C   UNL     1       0.213  -2.317  -2.020  1.00  0.00     0.188 C 
BRANCH   2   3
ATOM      3  O   UNL     1      -0.069  -3.705  -1.963  1.00  0.00    -0.376 OA
BRANCH   3   4
ATOM      4  C   UNL     1      -0.996  -4.088  -0.961  1.00  0.00     0.202 C 
BRANCH   4   5
ATOM      5  C   UNL     1      -0.554  -3.982   0.483  1.00  0.00     0.261 C 
BRANCH   5   6
ATOM      6  O   UNL     1      -0.614  -2.635   0.931  1.00  0.00    -0.460 OA
BRANCH   6   7
ATOM      7  C   UNL     1       0.451  -2.257   1.649  1.00  0.00     0.338 C 
ATOM      8  O   UNL     1       1.345  -2.970   2.110  1.00  0.00    -0.246 OA
BRANCH   7   9
ATOM      9  C   UNL     1       0.587  -0.824   1.428  1.00  0.00     0.060 A 
ATOM     10  C   UNL     1       3.280   1.069  -0.356  1.00  0.00     0.046 C 
ATOM     11  C   UNL     1       1.962   0.834   0.322  1.00  0.00    -0.026 A 
ATOM     12  C   UNL     1       1.796  -0.443   0.859  1.00  0.00     0.021 A 
ATOM     13  C   UNL     1       0.893   1.749   0.386  1.00  0.00     0.052 A 
ATOM     14  C   UNL     1      -0.281   1.377   1.065  1.00  0.00     0.028 A 
ATOM     15  C   UNL     1      -0.462   0.079   1.545  1.00  0.00     0.018 A 
BRANCH  13  16
ATOM     16  N   UNL     1       0.934   2.903  -0.455  1.00  0.00    -0.279 N 
ATOM     17  H   UNL     1       1.486   2.843  -1.268  1.00  0.00     0.180 HD
BRANCH  16  18
ATOM     18  S   UNL     1       0.132   4.346  -0.188  1.00  0.00     0.267 S 
ATOM     19  O   UNL     1       0.356   4.688   1.201  1.00  0.00    -0.201 OA
ATOM     20  O   UNL     1       0.569   5.221  -1.256  1.00  0.00    -0.201 OA
BRANCH  18  21
ATOM     21  C   UNL     1      -1.587   4.104  -0.416  1.00  0.00     0.158 A 
ATOM     22  C   UNL     1      -2.440   4.991   0.231  1.00  0.00     0.146 A 
ATOM     23  C   UNL     1      -2.120   2.990  -1.047  1.00  0.00     0.146 A 
ATOM     24  F   UNL     1      -1.976   6.122   0.779  1.00  0.00    -0.205 F 
ATOM     25  C   UNL     1      -3.803   4.724   0.336  1.00  0.00     0.041 A 
ATOM     26  C   UNL     1      -3.480   2.692  -0.918  1.00  0.00     0.041 A 
ATOM     27  F   UNL     1      -1.354   2.136  -1.737  1.00  0.00    -0.205 F 
ATOM     28  C   UNL     1      -4.321   3.551  -0.208  1.00  0.00     0.006 A 
ENDBRANCH  18  21
ENDBRANCH  16  18
ENDBRANCH  13  16
ENDBRANCH   7   9
ENDBRANCH   6   7
ENDBRANCH   5   6
ENDBRANCH   4   5
ENDBRANCH   3   4
ENDBRANCH   2   3
ENDBRANCH   1   2
BRANCH   1  29
ATOM     29  O   UNL     1      -2.095  -1.302  -2.357  1.00  0.00    -0.377 OA
BRANCH  29  30
ATOM     30  C   UNL     1      -3.054  -2.067  -3.077  1.00  0.00     0.188 C 
BRANCH  30  31
ATOM     31  C   UNL     1      -2.788  -2.537  -4.492  1.00  0.00     0.188 C 
BRANCH  31  32
ATOM     32  O   UNL     1      -1.820  -3.578  -4.416  1.00  0.00    -0.376 OA
BRANCH  32  33
ATOM     33  C   UNL     1      -1.092  -3.810  -5.614  1.00  0.00     0.202 C 
BRANCH  33  34
ATOM     34  C   UNL     1      -1.991  -4.168  -6.804  1.00  0.00     0.261 C 
BRANCH  34  35
ATOM     35  O   UNL     1      -2.660  -5.419  -6.534  1.00  0.00    -0.460 OA
BRANCH  35  36
ATOM     36  C   UNL     1      -3.986  -5.334  -6.228  1.00  0.00     0.338 C 
ATOM     37  O   UNL     1      -4.819  -4.721  -6.873  1.00  0.00    -0.246 OA
BRANCH  36  38
ATOM     38  C   UNL     1      -4.219  -5.840  -4.840  1.00  0.00     0.060 A 
ATOM     39  C   UNL     1      -5.444  -5.625  -4.185  1.00  0.00     0.016 A 
ATOM     40  C   UNL     1      -3.122  -6.228  -4.091  1.00  0.00     0.016 A 
ATOM     41  C   UNL     1      -5.505  -5.592  -2.775  1.00  0.00     0.010 A 
ATOM     42  C   UNL     1      -3.179  -6.106  -2.717  1.00  0.00     0.010 A 
ATOM     43  C   UNL     1      -4.339  -5.715  -2.027  1.00  0.00    -0.014 A 
BRANCH  43  44
ATOM     44  C   UNL     1      -4.165  -5.340  -0.594  1.00  0.00     0.031 A 
ATOM     45  C   UNL     1      -3.394  -6.277   0.306  1.00  0.00     0.074 A 
ATOM     46  C   UNL     1      -4.350  -4.036  -0.227  1.00  0.00     0.049 A 
ATOM     47  N   UNL     1      -3.051  -6.032   1.525  1.00  0.00    -0.248 NA
ATOM     48  C   UNL     1      -2.887  -7.585  -0.118  1.00  0.00     0.031 C 
ATOM     49  C   UNL     1      -3.680  -3.303   0.855  1.00  0.00     0.029 A 
ATOM     50  N   UNL     1      -5.125  -3.029  -0.807  1.00  0.00    -0.354 N 
ATOM     51  C   UNL     1      -2.006  -6.877   1.878  1.00  0.00     0.074 A 
ATOM     52  C   UNL     1      -2.025  -7.893   0.860  1.00  0.00     0.031 C 
ATOM     53  C   UNL     1      -4.077  -2.023   0.914  1.00  0.00     0.029 A 
ATOM     54  C   UNL     1      -5.251  -1.946   0.088  1.00  0.00     0.049 A 
ATOM     55  H   UNL     1      -5.525  -3.069  -1.706  1.00  0.00     0.167 HD
ATOM     56  C   UNL     1      -1.170  -6.511   2.906  1.00  0.00     0.037 A 
ATOM     57  C   UNL     1      -6.484  -1.647   0.596  1.00  0.00     0.037 A 
ATOM     58  C   UNL     1      -1.674  -5.296   3.586  1.00  0.00     0.049 A 
ATOM     59  C   UNL     1      -6.521  -2.094   2.056  1.00  0.00     0.074 A 
ATOM     60  C   UNL     1      -1.130  -4.074   3.939  1.00  0.00     0.029 A 
ATOM     61  N   UNL     1      -3.039  -5.183   3.860  1.00  0.00    -0.354 N 
ATOM     62  N   UNL     1      -5.829  -3.116   2.517  1.00  0.00    -0.248 NA
ATOM     63  C   UNL     1      -7.049  -1.256   3.134  1.00  0.00     0.031 C 
ATOM     64  C   UNL     1      -2.203  -3.179   4.233  1.00  0.00     0.029 A 
ATOM     65  C   UNL     1      -3.396  -3.889   4.177  1.00  0.00     0.049 A 
ATOM     66  H   UNL     1      -3.671  -5.937   3.832  1.00  0.00     0.167 HD
ATOM     67  C   UNL     1      -5.658  -2.969   3.869  1.00  0.00     0.074 A 
ATOM     68  C   UNL     1      -6.496  -1.831   4.218  1.00  0.00     0.031 C 
ATOM     69  C   UNL     1      -4.738  -3.605   4.659  1.00  0.00     0.037 A 
BRANCH  56  70
ATOM     70  C   UNL     1       0.220  -7.096   3.228  1.00  0.00     0.064 A 
ATOM     71  C   UNL     1       0.907  -6.705   4.408  1.00  0.00     0.173 A 
ATOM     72  C   UNL     1       0.974  -7.961   2.402  1.00  0.00     0.173 A 
ATOM     73  F   UNL     1       0.318  -5.926   5.325  1.00  0.00    -0.203 F 
ATOM     74  C   UNL     1       2.218  -7.108   4.710  1.00  0.00     0.198 A 
ATOM     75  C   UNL     1       2.265  -8.414   2.736  1.00  0.00     0.198 A 
ATOM     76  F   UNL     1       0.521  -8.381   1.218  1.00  0.00    -0.203 F 
ATOM     77  F   UNL     1       2.819  -6.653   5.821  1.00  0.00    -0.200 F 
ATOM     78  C   UNL     1       2.894  -7.974   3.881  1.00  0.00     0.200 A 
ATOM     79  F   UNL     1       2.898  -9.275   1.925  1.00  0.00    -0.200 F 
ATOM     80  F   UNL     1       4.135  -8.385   4.181  1.00  0.00    -0.200 F 
ENDBRANCH  56  70
BRANCH  57  81
ATOM     81  C   UNL     1      -7.478  -1.646  -0.533  1.00  0.00     0.064 A 
ATOM     82  C   UNL     1      -7.233  -0.621  -1.487  1.00  0.00     0.173 A 
ATOM     83  C   UNL     1      -8.008  -2.849  -1.032  1.00  0.00     0.173 A 
ATOM     84  F   UNL     1      -6.755   0.566  -1.077  1.00  0.00    -0.203 F 
ATOM     85  C   UNL     1      -7.223  -0.889  -2.858  1.00  0.00     0.198 A 
ATOM     86  C   UNL     1      -8.046  -3.091  -2.416  1.00  0.00     0.198 A 
ATOM     87  F   UNL     1      -8.271  -3.866  -0.200  1.00  0.00    -0.203 F 
ATOM     88  F   UNL     1      -6.731   0.021  -3.714  1.00  0.00    -0.200 F 
ATOM     89  C   UNL     1      -7.576  -2.143  -3.317  1.00  0.00     0.200 A 
ATOM     90  F   UNL     1      -8.402  -4.299  -2.876  1.00  0.00    -0.200 F 
ATOM     91  F   UNL     1      -7.388  -2.466  -4.606  1.00  0.00    -0.200 F 
ENDBRANCH  57  81
BRANCH  69  92
ATOM     92  C   UNL     1      -5.087  -4.087   6.048  1.00  0.00     0.064 A 
ATOM     93  C   UNL     1      -6.412  -4.186   6.496  1.00  0.00     0.173 A 
ATOM     94  C   UNL     1      -4.111  -4.695   6.882  1.00  0.00     0.173 A 
ATOM     95  F   UNL     1      -7.440  -3.754   5.752  1.00  0.00    -0.203 F 
ATOM     96  C   UNL     1      -6.734  -4.795   7.706  1.00  0.00     0.198 A 
ATOM     97  C   UNL     1      -4.446  -5.360   8.055  1.00  0.00     0.198 A 
ATOM     98  F   UNL     1      -2.808  -4.710   6.570  1.00  0.00    -0.203 F 
ATOM     99  F   UNL     1      -8.013  -4.826   8.103  1.00  0.00    -0.200 F 
ATOM    100  C   UNL     1      -5.757  -5.393   8.477  1.00  0.00     0.200 A 
ATOM    101  F   UNL     1      -3.494  -5.994   8.755  1.00  0.00    -0.200 F 
ATOM    102  F   UNL     1      -6.081  -6.017   9.616  1.00  0.00    -0.200 F 
ENDBRANCH  69  92
ENDBRANCH  43  44
ENDBRANCH  36  38
ENDBRANCH  35  36
ENDBRANCH  34  35
ENDBRANCH  33  34
ENDBRANCH  32  33
ENDBRANCH  31  32
ENDBRANCH  30  31
ENDBRANCH  29  30
ENDBRANCH   1  29
TORSDOF 23
