REMARK SMILES Cc1ccc2ncc(/C=C/c3cc(C(=O)OCCOCCOCCOCCOC(=O)c4ccc(-c5c6nc(c(-c7c(F)c(F)c(F)c(F)c7F)c7ccc([nH]7)c(-c7c(F)c(F)c(F)c(F)c7F)c7nc(c(-c8c(F)c(F)c(F)c(F)c8F)c8ccc5[nH]8)C=C7)C=C6)cc4)ncn3)n2c1
REMARK SMILES IDX 22 1 21 2 20 3 19 4 18 5 17 6 16 7 14 8 15 9 13 10 11 11
REMARK SMILES IDX 12 12 96 13 95 14 94 15 10 16 9 17 8 18 1 19 2 20 3 21 98 22
REMARK SMILES IDX 4 23 97 24 5 25 6 26 7 27 23 28 24 29 25 30 26 31 27 32
REMARK SMILES IDX 28 33 29 34 30 35 31 36 32 37 93 38 33 39 92 40 34 41 35 42
REMARK SMILES IDX 36 43 86 44 37 45 91 46 85 47 87 48 38 49 90 50 84 51 83 52
REMARK SMILES IDX 39 54 71 55 51 56 70 57 52 58 55 59 69 60 88 61 53 62 54 63
REMARK SMILES IDX 68 65 89 66 56 67 40 68 41 69 49 70 42 71 43 72 47 73 50 74
REMARK SMILES IDX 44 75 45 76 48 77 46 78 72 79 73 80 81 81 74 82 75 83 79 84
REMARK SMILES IDX 82 85 76 86 77 87 80 88 78 89 57 90 58 91 66 92 59 93 60 94
REMARK SMILES IDX 64 95 67 96 61 97 62 98 65 99 63 100
REMARK H PARENT 87 53 55 64
REMARK Flexibility Score: inf
ROOT
ATOM      1  O   UNL     1      -8.841  -0.583  -2.580  1.00  0.00    -0.377 OA
ENDROOT
BRANCH   1   2
ATOM      2  C   UNL     1      -8.611   0.530  -3.421  1.00  0.00     0.188 C 
BRANCH   2   3
ATOM      3  C   UNL     1      -9.307   0.412  -4.786  1.00  0.00     0.188 C 
BRANCH   3   4
ATOM      4  O   UNL     1     -10.442  -0.434  -4.781  1.00  0.00    -0.376 OA
BRANCH   4   5
ATOM      5  C   UNL     1     -10.389  -1.813  -5.105  1.00  0.00     0.202 C 
BRANCH   5   6
ATOM      6  C   UNL     1      -9.275  -2.794  -4.694  1.00  0.00     0.261 C 
BRANCH   6   7
ATOM      7  O   UNL     1      -7.972  -2.267  -4.478  1.00  0.00    -0.459 OA
BRANCH   7   8
ATOM      8  C   UNL     1      -7.274  -1.861  -5.565  1.00  0.00     0.357 C 
ATOM      9  O   UNL     1      -7.604  -1.975  -6.722  1.00  0.00    -0.244 OA
BRANCH   8  10
ATOM     10  C   UNL     1      -6.107  -1.089  -5.039  1.00  0.00     0.152 A 
ATOM     11  C   UNL     1      -4.339  -0.805  -3.556  1.00  0.00     0.067 A 
ATOM     12  C   UNL     1      -5.416  -1.563  -3.950  1.00  0.00     0.064 A 
ATOM     13  N   UNL     1      -4.057   0.400  -4.085  1.00  0.00    -0.237 NA
ATOM     14  C   UNL     1      -4.836   0.792  -5.106  1.00  0.00     0.223 A 
ATOM     15  N   UNL     1      -5.839   0.090  -5.644  1.00  0.00    -0.229 NA
BRANCH  11  16
ATOM     16  C   UNL     1      -3.361  -1.329  -2.593  1.00  0.00     0.030 C 
ATOM     17  C   UNL     1      -2.950  -2.600  -2.719  1.00  0.00     0.030 C 
BRANCH  17  18
ATOM     18  C   UNL     1      -1.995  -3.318  -1.960  1.00  0.00     0.065 A 
ATOM     19  C   UNL     1       1.128   0.046   0.153  1.00  0.00     0.046 C 
ATOM     20  C   UNL     1       0.612  -1.313  -0.201  1.00  0.00    -0.034 A 
ATOM     21  C   UNL     1       1.328  -2.473   0.315  1.00  0.00     0.009 A 
ATOM     22  C   UNL     1      -0.470  -1.519  -0.977  1.00  0.00     0.096 A 
ATOM     23  C   UNL     1       0.924  -3.726   0.043  1.00  0.00     0.048 A 
ATOM     24  N   UNL     1      -0.919  -2.819  -1.236  1.00  0.00    -0.300 N 
ATOM     25  C   UNL     1      -0.239  -3.942  -0.746  1.00  0.00     0.137 A 
ATOM     26  N   UNL     1      -0.798  -5.070  -1.118  1.00  0.00    -0.236 NA
ATOM     27  C   UNL     1      -1.868  -4.696  -1.869  1.00  0.00     0.140 A 
ENDBRANCH  17  18
ENDBRANCH  11  16
ENDBRANCH   8  10
ENDBRANCH   7   8
ENDBRANCH   6   7
ENDBRANCH   5   6
ENDBRANCH   4   5
ENDBRANCH   3   4
ENDBRANCH   2   3
ENDBRANCH   1   2
BRANCH   1  28
ATOM     28  C   UNL     1     -10.092  -0.642  -1.900  1.00  0.00     0.188 C 
BRANCH  28  29
ATOM     29  C   UNL     1     -11.272   0.302  -2.237  1.00  0.00     0.188 C 
BRANCH  29  30
ATOM     30  O   UNL     1     -10.883   1.662  -2.340  1.00  0.00    -0.376 OA
BRANCH  30  31
ATOM     31  C   UNL     1     -11.212   2.517  -1.254  1.00  0.00     0.202 C 
BRANCH  31  32
ATOM     32  C   UNL     1     -10.645   2.163   0.134  1.00  0.00     0.261 C 
BRANCH  32  33
ATOM     33  O   UNL     1     -10.902   0.811   0.557  1.00  0.00    -0.460 OA
BRANCH  33  34
ATOM     34  C   UNL     1     -12.101   0.497   1.104  1.00  0.00     0.338 C 
ATOM     35  O   UNL     1     -12.929   1.272   1.536  1.00  0.00    -0.246 OA
BRANCH  34  36
ATOM     36  C   UNL     1     -12.363  -0.925   0.733  1.00  0.00     0.060 A 
ATOM     37  C   UNL     1     -11.366  -1.905   0.793  1.00  0.00     0.016 A 
ATOM     38  C   UNL     1     -13.552  -1.182   0.032  1.00  0.00     0.016 A 
ATOM     39  C   UNL     1     -11.525  -3.086   0.062  1.00  0.00     0.010 A 
ATOM     40  C   UNL     1     -13.700  -2.357  -0.711  1.00  0.00     0.010 A 
ATOM     41  C   UNL     1     -12.674  -3.303  -0.729  1.00  0.00    -0.014 A 
BRANCH  41  42
ATOM     42  C   UNL     1     -12.863  -4.645  -1.316  1.00  0.00     0.031 A 
ATOM     43  C   UNL     1     -12.871  -5.712  -0.269  1.00  0.00     0.074 A 
ATOM     44  C   UNL     1     -13.188  -4.981  -2.587  1.00  0.00     0.049 A 
ATOM     45  N   UNL     1     -12.100  -6.745  -0.159  1.00  0.00    -0.248 NA
ATOM     46  C   UNL     1     -13.790  -5.519   0.866  1.00  0.00     0.031 C 
ATOM     47  C   UNL     1     -13.544  -4.102  -3.701  1.00  0.00     0.029 A 
ATOM     48  N   UNL     1     -13.357  -6.234  -3.128  1.00  0.00    -0.354 N 
ATOM     49  C   UNL     1     -12.521  -7.409   0.991  1.00  0.00     0.074 A 
ATOM     50  C   UNL     1     -13.470  -6.549   1.646  1.00  0.00     0.031 C 
ATOM     51  C   UNL     1     -14.074  -4.839  -4.708  1.00  0.00     0.029 A 
ATOM     52  C   UNL     1     -13.997  -6.251  -4.365  1.00  0.00     0.049 A 
ATOM     53  H   UNL     1     -13.050  -7.053  -2.677  1.00  0.00     0.167 HD
ATOM     54  C   UNL     1     -12.202  -8.707   1.237  1.00  0.00     0.037 A 
ATOM     55  C   UNL     1     -14.482  -7.337  -5.027  1.00  0.00     0.037 A 
ATOM     56  C   UNL     1     -11.072  -9.138   0.465  1.00  0.00     0.049 A 
ATOM     57  C   UNL     1     -13.820  -8.539  -4.473  1.00  0.00     0.074 A 
ATOM     58  C   UNL     1      -9.739  -8.785   0.400  1.00  0.00     0.029 A 
ATOM     59  N   UNL     1     -11.309  -9.897  -0.650  1.00  0.00    -0.354 N 
ATOM     60  N   UNL     1     -12.568  -8.842  -4.652  1.00  0.00    -0.248 NA
ATOM     61  C   UNL     1     -14.494  -9.250  -3.400  1.00  0.00     0.031 C 
ATOM     62  C   UNL     1      -9.376  -8.947  -0.969  1.00  0.00     0.029 A 
ATOM     63  C   UNL     1     -10.499  -9.420  -1.646  1.00  0.00     0.049 A 
ATOM     64  H   UNL     1     -11.943 -10.647  -0.722  1.00  0.00     0.167 HD
ATOM     65  C   UNL     1     -12.186  -9.437  -3.463  1.00  0.00     0.074 A 
ATOM     66  C   UNL     1     -13.431  -9.761  -2.777  1.00  0.00     0.031 C 
ATOM     67  C   UNL     1     -10.896  -9.354  -3.030  1.00  0.00     0.037 A 
BRANCH  54  68
ATOM     68  C   UNL     1     -13.127  -9.678   1.927  1.00  0.00     0.064 A 
ATOM     69  C   UNL     1     -12.647 -10.948   2.301  1.00  0.00     0.173 A 
ATOM     70  C   UNL     1     -14.530  -9.521   1.961  1.00  0.00     0.173 A 
ATOM     71  F   UNL     1     -11.333 -11.217   2.272  1.00  0.00    -0.203 F 
ATOM     72  C   UNL     1     -13.512 -11.997   2.623  1.00  0.00     0.198 A 
ATOM     73  C   UNL     1     -15.386 -10.553   2.337  1.00  0.00     0.198 A 
ATOM     74  F   UNL     1     -15.132  -8.408   1.524  1.00  0.00    -0.203 F 
ATOM     75  F   UNL     1     -13.017 -13.220   2.852  1.00  0.00    -0.200 F 
ATOM     76  C   UNL     1     -14.881 -11.799   2.638  1.00  0.00     0.200 A 
ATOM     77  F   UNL     1     -16.711 -10.347   2.322  1.00  0.00    -0.200 F 
ATOM     78  F   UNL     1     -15.713 -12.818   2.889  1.00  0.00    -0.200 F 
ENDBRANCH  54  68
BRANCH  55  79
ATOM     79  C   UNL     1     -15.678  -7.479  -5.904  1.00  0.00     0.064 A 
ATOM     80  C   UNL     1     -15.871  -8.632  -6.693  1.00  0.00     0.173 A 
ATOM     81  C   UNL     1     -16.800  -6.649  -5.739  1.00  0.00     0.173 A 
ATOM     82  F   UNL     1     -14.870  -9.506  -6.873  1.00  0.00    -0.203 F 
ATOM     83  C   UNL     1     -17.121  -8.954  -7.238  1.00  0.00     0.198 A 
ATOM     84  C   UNL     1     -18.044  -6.968  -6.290  1.00  0.00     0.198 A 
ATOM     85  F   UNL     1     -16.741  -5.566  -4.951  1.00  0.00    -0.203 F 
ATOM     86  F   UNL     1     -17.283 -10.101  -7.913  1.00  0.00    -0.200 F 
ATOM     87  C   UNL     1     -18.210  -8.128  -7.022  1.00  0.00     0.200 A 
ATOM     88  F   UNL     1     -19.100  -6.179  -6.042  1.00  0.00    -0.200 F 
ATOM     89  F   UNL     1     -19.423  -8.471  -7.478  1.00  0.00    -0.200 F 
ENDBRANCH  55  79
BRANCH  67  90
ATOM     90  C   UNL     1      -9.855  -8.909  -4.015  1.00  0.00     0.064 A 
ATOM     91  C   UNL     1      -9.826  -7.637  -4.614  1.00  0.00     0.173 A 
ATOM     92  C   UNL     1      -8.765  -9.759  -4.247  1.00  0.00     0.173 A 
ATOM     93  F   UNL     1     -10.784  -6.732  -4.368  1.00  0.00    -0.203 F 
ATOM     94  C   UNL     1      -8.766  -7.253  -5.433  1.00  0.00     0.198 A 
ATOM     95  C   UNL     1      -7.691  -9.357  -5.033  1.00  0.00     0.198 A 
ATOM     96  F   UNL     1      -8.719 -10.966  -3.660  1.00  0.00    -0.203 F 
ATOM     97  F   UNL     1      -8.760  -6.036  -5.996  1.00  0.00    -0.200 F 
ATOM     98  C   UNL     1      -7.695  -8.108  -5.632  1.00  0.00     0.200 A 
ATOM     99  F   UNL     1      -6.634 -10.169  -5.181  1.00  0.00    -0.200 F 
ATOM    100  F   UNL     1      -6.649  -7.716  -6.374  1.00  0.00    -0.200 F 
ENDBRANCH  67  90
ENDBRANCH  41  42
ENDBRANCH  34  36
ENDBRANCH  33  34
ENDBRANCH  32  33
ENDBRANCH  31  32
ENDBRANCH  30  31
ENDBRANCH  29  30
ENDBRANCH  28  29
ENDBRANCH   1  28
TORSDOF 22
