REMARK SMILES CC(C)Cc1cc2c(cc1Cl)C=C(C(=O)OCCOCCOCCOCCOC(=O)c1ccc(-c3c4nc(c(-c5c(F)c(F)c(F)c(F)c5F)c5ccc([nH]5)c(-c5c(F)c(F)c(F)c(F)c5F)c5nc(c(-c6c(F)c(F)c(F)c(F)c6F)c6ccc3[nH]6)C=C5)C=C4)cc1)[C@@H](C(F)(F)F)O2
REMARK SMILES IDX 22 1 21 2 20 3 19 4 18 5 17 6 16 7 14 8 15 9 13 10 5 11 6 12
REMARK SMILES IDX 10 13 7 14 9 15 11 16 8 17 99 18 12 19 94 20 4 21 2 22 1 23
REMARK SMILES IDX 3 24 95 25 96 26 97 27 98 28 23 29 24 30 25 31 26 32 27 33
REMARK SMILES IDX 28 34 29 35 30 36 31 37 32 38 93 39 33 40 92 41 34 42 35 43
REMARK SMILES IDX 36 44 86 45 37 46 91 47 85 48 87 49 38 50 90 51 84 52 83 53
REMARK SMILES IDX 39 55 71 56 51 57 70 58 52 59 55 60 69 61 88 62 53 63 54 64
REMARK SMILES IDX 68 66 89 67 56 68 40 69 41 70 49 71 42 72 43 73 47 74 50 75
REMARK SMILES IDX 44 76 45 77 48 78 46 79 72 80 73 81 81 82 74 83 75 84 79 85
REMARK SMILES IDX 82 86 76 87 77 88 80 89 78 90 57 91 58 92 66 93 59 94 60 95
REMARK SMILES IDX 64 96 67 97 61 98 62 99 65 100 63 101
REMARK H PARENT 87 54 55 65
REMARK Flexibility Score: inf
ROOT
ATOM      1  O   UNL     1      -2.108   4.549   6.744  1.00  0.00    -0.377 OA
ENDROOT
BRANCH   1   2
ATOM      2  C   UNL     1      -1.425   4.914   5.552  1.00  0.00     0.188 C 
BRANCH   2   3
ATOM      3  C   UNL     1      -1.770   6.343   5.091  1.00  0.00     0.188 C 
BRANCH   3   4
ATOM      4  O   UNL     1      -2.424   7.100   6.103  1.00  0.00    -0.376 OA
BRANCH   4   5
ATOM      5  C   UNL     1      -3.839   7.216   6.056  1.00  0.00     0.202 C 
BRANCH   5   6
ATOM      6  C   UNL     1      -4.710   5.947   6.075  1.00  0.00     0.261 C 
BRANCH   6   7
ATOM      7  O   UNL     1      -4.357   4.927   5.130  1.00  0.00    -0.460 OA
BRANCH   7   8
ATOM      8  C   UNL     1      -4.567   5.183   3.825  1.00  0.00     0.338 C 
ATOM      9  O   UNL     1      -5.091   6.176   3.354  1.00  0.00    -0.246 OA
BRANCH   8  10
ATOM     10  C   UNL     1      -3.889   4.126   3.041  1.00  0.00     0.087 C 
ATOM     11  C   UNL     1      -1.337   1.533  -0.439  1.00  0.00    -0.025 A 
ATOM     12  C   UNL     1      -2.016   1.192   0.747  1.00  0.00     0.052 A 
ATOM     13  C   UNL     1      -1.206   2.893  -0.759  1.00  0.00     0.045 A 
ATOM     14  C   UNL     1      -2.589   2.175   1.560  1.00  0.00     0.128 A 
ATOM     15  C   UNL     1      -1.759   3.877   0.067  1.00  0.00     0.032 A 
ATOM     16  Cl  UNL     1      -0.423   3.431  -2.203  1.00  0.00    -0.084 Cl
ATOM     17  C   UNL     1      -2.481   3.518   1.208  1.00  0.00     0.019 A 
ATOM     18  O   UNL     1      -3.254   1.732   2.666  1.00  0.00    -0.475 OA
ATOM     19  C   UNL     1      -3.164   4.531   1.991  1.00  0.00     0.027 C 
ATOM     20  C   UNL     1      -3.976   2.689   3.494  1.00  0.00     0.316 C 
BRANCH  11  21
ATOM     21  C   UNL     1      -0.828   0.424  -1.336  1.00  0.00     0.040 C 
BRANCH  21  22
ATOM     22  C   UNL     1       0.702   0.245  -1.355  1.00  0.00    -0.013 C 
ATOM     23  C   UNL     1       1.248  -0.196   0.004  1.00  0.00     0.008 C 
ATOM     24  C   UNL     1       1.086  -0.778  -2.429  1.00  0.00     0.008 C 
ENDBRANCH  21  22
ENDBRANCH  11  21
BRANCH  20  25
ATOM     25  C   UNL     1      -5.430   2.214   3.629  1.00  0.00     0.430 C 
ATOM     26  F   UNL     1      -5.491   0.908   3.982  1.00  0.00    -0.167 F 
ATOM     27  F   UNL     1      -6.101   2.904   4.581  1.00  0.00    -0.167 F 
ATOM     28  F   UNL     1      -6.115   2.355   2.471  1.00  0.00    -0.167 F 
ENDBRANCH  20  25
ENDBRANCH   8  10
ENDBRANCH   7   8
ENDBRANCH   6   7
ENDBRANCH   5   6
ENDBRANCH   4   5
ENDBRANCH   3   4
ENDBRANCH   2   3
ENDBRANCH   1   2
BRANCH   1  29
ATOM     29  C   UNL     1      -1.511   4.936   7.983  1.00  0.00     0.188 C 
BRANCH  29  30
ATOM     30  C   UNL     1      -0.610   6.189   8.092  1.00  0.00     0.188 C 
BRANCH  30  31
ATOM     31  O   UNL     1       0.374   6.279   7.065  1.00  0.00    -0.376 OA
BRANCH  31  32
ATOM     32  C   UNL     1       1.726   6.049   7.433  1.00  0.00     0.202 C 
BRANCH  32  33
ATOM     33  C   UNL     1       2.077   4.572   7.643  1.00  0.00     0.261 C 
BRANCH  33  34
ATOM     34  O   UNL     1       1.351   3.915   8.693  1.00  0.00    -0.460 OA
BRANCH  34  35
ATOM     35  C   UNL     1       1.465   4.412   9.945  1.00  0.00     0.338 C 
ATOM     36  O   UNL     1       2.163   5.339  10.312  1.00  0.00    -0.246 OA
BRANCH  35  37
ATOM     37  C   UNL     1       0.438   3.750  10.776  1.00  0.00     0.060 A 
ATOM     38  C   UNL     1       0.300   2.360  10.748  1.00  0.00     0.016 A 
ATOM     39  C   UNL     1      -0.414   4.532  11.567  1.00  0.00     0.016 A 
ATOM     40  C   UNL     1      -0.671   1.749  11.538  1.00  0.00     0.010 A 
ATOM     41  C   UNL     1      -1.387   3.917  12.361  1.00  0.00     0.010 A 
ATOM     42  C   UNL     1      -1.504   2.519  12.370  1.00  0.00    -0.014 A 
BRANCH  42  43
ATOM     43  C   UNL     1      -2.357   1.829  13.366  1.00  0.00     0.031 A 
ATOM     44  C   UNL     1      -3.832   1.663  13.177  1.00  0.00     0.074 A 
ATOM     45  C   UNL     1      -1.752   1.316  14.455  1.00  0.00     0.049 A 
ATOM     46  N   UNL     1      -4.672   0.949  13.883  1.00  0.00    -0.248 NA
ATOM     47  C   UNL     1      -4.449   2.394  12.062  1.00  0.00     0.031 C 
ATOM     48  C   UNL     1      -0.328   1.459  14.762  1.00  0.00     0.029 A 
ATOM     49  N   UNL     1      -2.244   0.559  15.487  1.00  0.00    -0.354 N 
ATOM     50  C   UNL     1      -5.912   1.119  13.285  1.00  0.00     0.074 A 
ATOM     51  C   UNL     1      -5.725   2.050  12.190  1.00  0.00     0.031 C 
ATOM     52  C   UNL     1      -0.051   0.774  15.881  1.00  0.00     0.029 A 
ATOM     53  C   UNL     1      -1.279   0.162  16.380  1.00  0.00     0.049 A 
ATOM     54  H   UNL     1      -3.195   0.323  15.579  1.00  0.00     0.167 HD
ATOM     55  C   UNL     1      -7.087   0.528  13.610  1.00  0.00     0.037 A 
ATOM     56  C   UNL     1      -1.369  -0.621  17.471  1.00  0.00     0.037 A 
ATOM     57  C   UNL     1      -7.261  -0.389  14.710  1.00  0.00     0.049 A 
ATOM     58  C   UNL     1      -2.695  -1.227  17.833  1.00  0.00     0.074 A 
ATOM     59  C   UNL     1      -8.400  -1.085  15.079  1.00  0.00     0.029 A 
ATOM     60  N   UNL     1      -6.277  -0.722  15.629  1.00  0.00    -0.354 N 
ATOM     61  N   UNL     1      -3.837  -1.150  17.196  1.00  0.00    -0.248 NA
ATOM     62  C   UNL     1      -2.745  -2.030  19.062  1.00  0.00     0.031 C 
ATOM     63  C   UNL     1      -8.121  -1.794  16.251  1.00  0.00     0.029 A 
ATOM     64  C   UNL     1      -6.795  -1.579  16.588  1.00  0.00     0.049 A 
ATOM     65  H   UNL     1      -5.348  -0.397  15.604  1.00  0.00     0.167 HD
ATOM     66  C   UNL     1      -4.739  -1.899  17.938  1.00  0.00     0.074 A 
ATOM     67  C   UNL     1      -4.005  -2.445  19.061  1.00  0.00     0.031 C 
ATOM     68  C   UNL     1      -6.058  -2.107  17.710  1.00  0.00     0.037 A 
BRANCH  55  69
ATOM     69  C   UNL     1      -8.286   0.827  12.758  1.00  0.00     0.064 A 
ATOM     70  C   UNL     1      -8.396   0.317  11.455  1.00  0.00     0.173 A 
ATOM     71  C   UNL     1      -9.376   1.542  13.276  1.00  0.00     0.173 A 
ATOM     72  F   UNL     1      -7.383  -0.374  10.913  1.00  0.00    -0.203 F 
ATOM     73  C   UNL     1      -9.547   0.524  10.699  1.00  0.00     0.198 A 
ATOM     74  C   UNL     1     -10.536   1.726  12.526  1.00  0.00     0.198 A 
ATOM     75  F   UNL     1      -9.329   2.039  14.521  1.00  0.00    -0.203 F 
ATOM     76  F   UNL     1      -9.619   0.048   9.448  1.00  0.00    -0.200 F 
ATOM     77  C   UNL     1     -10.619   1.220  11.238  1.00  0.00     0.200 A 
ATOM     78  F   UNL     1     -11.578   2.382  13.055  1.00  0.00    -0.200 F 
ATOM     79  F   UNL     1     -11.733   1.401  10.516  1.00  0.00    -0.200 F 
ENDBRANCH  55  69
BRANCH  56  80
ATOM     80  C   UNL     1      -0.148  -0.906  18.266  1.00  0.00     0.064 A 
ATOM     81  C   UNL     1       0.429  -2.183  18.262  1.00  0.00     0.173 A 
ATOM     82  C   UNL     1       0.487   0.097  19.013  1.00  0.00     0.173 A 
ATOM     83  F   UNL     1      -0.151  -3.178  17.575  1.00  0.00    -0.203 F 
ATOM     84  C   UNL     1       1.592  -2.448  18.981  1.00  0.00     0.198 A 
ATOM     85  C   UNL     1       1.665  -0.162  19.710  1.00  0.00     0.198 A 
ATOM     86  F   UNL     1      -0.023   1.337  19.043  1.00  0.00    -0.203 F 
ATOM     87  F   UNL     1       2.108  -3.684  18.984  1.00  0.00    -0.200 F 
ATOM     88  C   UNL     1       2.214  -1.435  19.697  1.00  0.00     0.200 A 
ATOM     89  F   UNL     1       2.272   0.823  20.386  1.00  0.00    -0.200 F 
ATOM     90  F   UNL     1       3.341  -1.687  20.377  1.00  0.00    -0.200 F 
ENDBRANCH  56  80
BRANCH  68  91
ATOM     91  C   UNL     1      -6.812  -2.943  18.703  1.00  0.00     0.064 A 
ATOM     92  C   UNL     1      -7.140  -2.443  19.971  1.00  0.00     0.173 A 
ATOM     93  C   UNL     1      -7.288  -4.217  18.355  1.00  0.00     0.173 A 
ATOM     94  F   UNL     1      -6.695  -1.238  20.357  1.00  0.00    -0.203 F 
ATOM     95  C   UNL     1      -7.914  -3.189  20.857  1.00  0.00     0.198 A 
ATOM     96  C   UNL     1      -8.085  -4.948  19.232  1.00  0.00     0.198 A 
ATOM     97  F   UNL     1      -7.006  -4.739  17.151  1.00  0.00    -0.203 F 
ATOM     98  F   UNL     1      -8.194  -2.701  22.073  1.00  0.00    -0.200 F 
ATOM     99  C   UNL     1      -8.396  -4.434  20.482  1.00  0.00     0.200 A 
ATOM    100  F   UNL     1      -8.562  -6.144  18.862  1.00  0.00    -0.200 F 
ATOM    101  F   UNL     1      -9.161  -5.139  21.326  1.00  0.00    -0.200 F 
ENDBRANCH  68  91
ENDBRANCH  42  43
ENDBRANCH  35  37
ENDBRANCH  34  35
ENDBRANCH  33  34
ENDBRANCH  32  33
ENDBRANCH  31  32
ENDBRANCH  30  31
ENDBRANCH  29  30
ENDBRANCH   1  29
TORSDOF 23
