REMARK SMILES N#C/C(=C\c1ccc(-c2ccc(C(=O)OCCOCCOCCOCCOC(=O)c3ccc(-c4c5nc(c(-c6c(F)c(F)c(F)c(F)c6F)c6ccc([nH]6)c(-c6c(F)c(F)c(F)c(F)c6F)c6nc(c(-c7c(F)c(F)c(F)c(F)c7F)c7ccc4[nH]7)C=C6)C=C5)cc3)cc2)o1)[C@@H]1N=c2cc(Br)cnc2=N1
REMARK SMILES IDX 20 1 19 2 18 3 17 4 16 5 15 6 13 7 14 8 12 9 9 10 10 11
REMARK SMILES IDX 94 12 11 13 93 14 8 15 5 16 6 17 95 18 7 19 4 20 3 21 2 22
REMARK SMILES IDX 1 23 96 24 97 25 105 26 98 27 104 28 99 29 103 30 100 31
REMARK SMILES IDX 102 32 101 33 21 34 22 35 23 36 24 37 25 38 26 39 27 40
REMARK SMILES IDX 28 41 29 42 30 43 31 44 92 45 32 46 91 47 33 48 34 49 35 50
REMARK SMILES IDX 85 51 36 52 90 53 84 54 86 55 37 56 89 57 83 58 82 59 38 61
REMARK SMILES IDX 70 62 50 63 69 64 51 65 54 66 68 67 87 68 52 69 53 70 67 72
REMARK SMILES IDX 88 73 55 74 39 75 40 76 48 77 41 78 42 79 46 80 49 81 43 82
REMARK SMILES IDX 44 83 47 84 45 85 71 86 72 87 80 88 73 89 74 90 78 91 81 92
REMARK SMILES IDX 75 93 76 94 79 95 77 96 56 97 57 98 65 99 58 100 59 101
REMARK SMILES IDX 63 102 66 103 60 104 61 105 64 106 62 107
REMARK H PARENT 86 60 54 71
REMARK Flexibility Score: inf
ROOT
ATOM      1  C   UNL     1       1.187   6.868  -8.492  1.00  0.00     0.188 C 
ENDROOT
BRANCH   1   2
ATOM      2  C   UNL     1       2.408   7.414  -9.269  1.00  0.00     0.188 C 
BRANCH   2   3
ATOM      3  O   UNL     1       2.097   8.143 -10.437  1.00  0.00    -0.376 OA
BRANCH   3   4
ATOM      4  C   UNL     1       2.148   7.569 -11.725  1.00  0.00     0.202 C 
BRANCH   4   5
ATOM      5  C   UNL     1       1.705   6.129 -12.030  1.00  0.00     0.261 C 
BRANCH   5   6
ATOM      6  O   UNL     1       1.715   5.202 -10.946  1.00  0.00    -0.460 OA
BRANCH   6   7
ATOM      7  C   UNL     1       2.910   4.641 -10.658  1.00  0.00     0.338 C 
ATOM      8  O   UNL     1       3.964   4.837 -11.238  1.00  0.00    -0.246 OA
BRANCH   7   9
ATOM      9  C   UNL     1       2.787   3.888  -9.387  1.00  0.00     0.060 A 
ATOM     10  C   UNL     1       2.734   2.334  -7.062  1.00  0.00     0.017 A 
ATOM     11  C   UNL     1       3.784   3.234  -7.272  1.00  0.00     0.013 A 
ATOM     12  C   UNL     1       1.650   2.319  -7.957  1.00  0.00     0.013 A 
ATOM     13  C   UNL     1       3.820   3.996  -8.444  1.00  0.00     0.016 A 
ATOM     14  C   UNL     1       1.669   3.099  -9.114  1.00  0.00     0.016 A 
BRANCH  10  15
ATOM     15  C   UNL     1       2.878   1.235  -6.123  1.00  0.00     0.134 A 
ATOM     16  C   UNL     1       3.325   0.271  -4.173  1.00  0.00     0.128 A 
ATOM     17  C   UNL     1       3.114  -0.730  -5.117  1.00  0.00     0.051 A 
ATOM     18  O   UNL     1       3.159   1.491  -4.814  1.00  0.00    -0.457 OA
ATOM     19  C   UNL     1       2.843  -0.119  -6.350  1.00  0.00     0.051 A 
BRANCH  16  20
ATOM     20  C   UNL     1       3.607   0.128  -2.780  1.00  0.00     0.066 C 
ATOM     21  C   UNL     1       4.486  -0.770  -2.283  1.00  0.00     0.080 C 
BRANCH  21  22
ATOM     22  C   UNL     1       5.340  -1.551  -3.130  1.00  0.00     0.099 C 
ATOM     23  N   UNL     1       6.043  -2.191  -3.787  1.00  0.00    -0.193 NA
ENDBRANCH  21  22
BRANCH  21  24
ATOM     24  C   UNL     1       4.625  -1.007  -0.795  1.00  0.00     0.265 C 
ATOM     25  N   UNL     1       6.014  -0.703  -0.345  1.00  0.00    -0.249 NA
ATOM     26  N   UNL     1       4.271  -2.418  -0.476  1.00  0.00    -0.232 NA
ATOM     27  C   UNL     1       6.399  -1.832   0.138  1.00  0.00     0.106 A 
ATOM     28  C   UNL     1       5.349  -2.873   0.064  1.00  0.00     0.175 A 
ATOM     29  C   UNL     1       7.685  -2.209   0.720  1.00  0.00     0.049 A 
ATOM     30  N   UNL     1       5.495  -4.156   0.500  1.00  0.00    -0.234 NA
ATOM     31  C   UNL     1       7.820  -3.477   1.132  1.00  0.00     0.038 A 
ATOM     32  C   UNL     1       6.665  -4.424   0.990  1.00  0.00     0.129 A 
ATOM     33  Br  UNL     1       9.387  -4.130   1.890  1.00  0.00    -0.049 Br
ENDBRANCH  21  24
ENDBRANCH  16  20
ENDBRANCH  10  15
ENDBRANCH   7   9
ENDBRANCH   6   7
ENDBRANCH   5   6
ENDBRANCH   4   5
ENDBRANCH   3   4
ENDBRANCH   2   3
ENDBRANCH   1   2
BRANCH   1  34
ATOM     34  O   UNL     1      -0.092   6.832  -9.107  1.00  0.00    -0.377 OA
BRANCH  34  35
ATOM     35  C   UNL     1      -0.594   7.965  -9.804  1.00  0.00     0.188 C 
BRANCH  35  36
ATOM     36  C   UNL     1      -0.117   9.408  -9.504  1.00  0.00     0.188 C 
BRANCH  36  37
ATOM     37  O   UNL     1       0.817   9.524  -8.454  1.00  0.00    -0.376 OA
BRANCH  37  38
ATOM     38  C   UNL     1       0.414   9.940  -7.168  1.00  0.00     0.202 C 
BRANCH  38  39
ATOM     39  C   UNL     1      -0.840   9.363  -6.494  1.00  0.00     0.261 C 
BRANCH  39  40
ATOM     40  O   UNL     1      -1.953   9.043  -7.334  1.00  0.00    -0.460 OA
BRANCH  40  41
ATOM     41  C   UNL     1      -2.702  10.074  -7.781  1.00  0.00     0.338 C 
ATOM     42  O   UNL     1      -2.525  11.260  -7.580  1.00  0.00    -0.246 OA
BRANCH  41  43
ATOM     43  C   UNL     1      -3.695   9.517  -8.722  1.00  0.00     0.060 A 
ATOM     44  C   UNL     1      -3.647   9.882 -10.076  1.00  0.00     0.016 A 
ATOM     45  C   UNL     1      -4.667   8.629  -8.259  1.00  0.00     0.016 A 
ATOM     46  C   UNL     1      -4.598   9.386 -10.967  1.00  0.00     0.010 A 
ATOM     47  C   UNL     1      -5.633   8.155  -9.145  1.00  0.00     0.010 A 
ATOM     48  C   UNL     1      -5.626   8.563 -10.492  1.00  0.00    -0.014 A 
BRANCH  48  49
ATOM     49  C   UNL     1      -6.826   8.316 -11.324  1.00  0.00     0.031 A 
ATOM     50  C   UNL     1      -8.051   9.142 -11.053  1.00  0.00     0.074 A 
ATOM     51  C   UNL     1      -6.840   7.378 -12.284  1.00  0.00     0.049 A 
ATOM     52  N   UNL     1      -9.255   9.046 -11.555  1.00  0.00    -0.248 NA
ATOM     53  C   UNL     1      -7.894  10.219 -10.062  1.00  0.00     0.031 C 
ATOM     54  C   UNL     1      -5.701   6.557 -12.681  1.00  0.00     0.029 A 
ATOM     55  N   UNL     1      -7.867   6.951 -13.088  1.00  0.00    -0.354 N 
ATOM     56  C   UNL     1     -10.002  10.033 -10.925  1.00  0.00     0.074 A 
ATOM     57  C   UNL     1      -9.127  10.687  -9.976  1.00  0.00     0.031 C 
ATOM     58  C   UNL     1      -6.093   5.714 -13.652  1.00  0.00     0.029 A 
ATOM     59  C   UNL     1      -7.521   5.908 -13.909  1.00  0.00     0.049 A 
ATOM     60  H   UNL     1      -8.764   7.355 -13.078  1.00  0.00     0.167 HD
ATOM     61  C   UNL     1     -11.299  10.368 -11.125  1.00  0.00     0.037 A 
ATOM     62  C   UNL     1      -8.281   5.179 -14.749  1.00  0.00     0.037 A 
ATOM     63  C   UNL     1     -12.163   9.698 -12.060  1.00  0.00     0.049 A 
ATOM     64  C   UNL     1      -9.750   5.495 -14.880  1.00  0.00     0.074 A 
ATOM     65  C   UNL     1     -13.489   9.960 -12.351  1.00  0.00     0.029 A 
ATOM     66  N   UNL     1     -11.789   8.613 -12.842  1.00  0.00    -0.354 N 
ATOM     67  N   UNL     1     -10.453   6.437 -14.298  1.00  0.00    -0.248 NA
ATOM     68  C   UNL     1     -10.531   4.644 -15.789  1.00  0.00     0.031 C 
ATOM     69  C   UNL     1     -13.940   8.985 -13.247  1.00  0.00     0.029 A 
ATOM     70  C   UNL     1     -12.870   8.171 -13.588  1.00  0.00     0.049 A 
ATOM     71  H   UNL     1     -10.888   8.216 -12.864  1.00  0.00     0.167 HD
ATOM     72  C   UNL     1     -11.743   6.323 -14.803  1.00  0.00     0.074 A 
ATOM     73  C   UNL     1     -11.726   5.217 -15.738  1.00  0.00     0.031 C 
ATOM     74  C   UNL     1     -12.838   7.075 -14.526  1.00  0.00     0.037 A 
BRANCH  61  75
ATOM     75  C   UNL     1     -11.863  11.468 -10.268  1.00  0.00     0.064 A 
ATOM     76  C   UNL     1     -11.401  12.792 -10.352  1.00  0.00     0.173 A 
ATOM     77  C   UNL     1     -12.861  11.187  -9.322  1.00  0.00     0.173 A 
ATOM     78  F   UNL     1     -10.441  13.119 -11.231  1.00  0.00    -0.203 F 
ATOM     79  C   UNL     1     -11.871  13.774  -9.482  1.00  0.00     0.198 A 
ATOM     80  C   UNL     1     -13.362  12.181  -8.486  1.00  0.00     0.198 A 
ATOM     81  F   UNL     1     -13.348   9.942  -9.201  1.00  0.00    -0.203 F 
ATOM     82  F   UNL     1     -11.347  15.007  -9.522  1.00  0.00    -0.200 F 
ATOM     83  C   UNL     1     -12.853  13.468  -8.553  1.00  0.00     0.200 A 
ATOM     84  F   UNL     1     -14.326  11.887  -7.603  1.00  0.00    -0.200 F 
ATOM     85  F   UNL     1     -13.298  14.411  -7.711  1.00  0.00    -0.200 F 
ENDBRANCH  61  75
BRANCH  62  86
ATOM     86  C   UNL     1      -7.661   4.089 -15.546  1.00  0.00     0.064 A 
ATOM     87  C   UNL     1      -7.538   4.203 -16.938  1.00  0.00     0.173 A 
ATOM     88  C   UNL     1      -7.169   2.923 -14.942  1.00  0.00     0.173 A 
ATOM     89  F   UNL     1      -8.016   5.288 -17.565  1.00  0.00    -0.203 F 
ATOM     90  C   UNL     1      -6.956   3.189 -17.696  1.00  0.00     0.198 A 
ATOM     91  C   UNL     1      -6.559   1.923 -15.697  1.00  0.00     0.198 A 
ATOM     92  F   UNL     1      -7.264   2.763 -13.614  1.00  0.00    -0.203 F 
ATOM     93  F   UNL     1      -6.887   3.308 -19.028  1.00  0.00    -0.200 F 
ATOM     94  C   UNL     1      -6.458   2.054 -17.073  1.00  0.00     0.200 A 
ATOM     95  F   UNL     1      -6.066   0.835 -15.090  1.00  0.00    -0.200 F 
ATOM     96  F   UNL     1      -5.886   1.086 -17.801  1.00  0.00    -0.200 F 
ENDBRANCH  62  86
BRANCH  74  97
ATOM     97  C   UNL     1     -14.102   6.781 -15.289  1.00  0.00     0.064 A 
ATOM     98  C   UNL     1     -14.845   5.609 -15.087  1.00  0.00     0.173 A 
ATOM     99  C   UNL     1     -14.609   7.727 -16.196  1.00  0.00     0.173 A 
ATOM    100  F   UNL     1     -14.403   4.666 -14.241  1.00  0.00    -0.203 F 
ATOM    101  C   UNL     1     -16.031   5.383 -15.783  1.00  0.00     0.198 A 
ATOM    102  C   UNL     1     -15.814   7.516 -16.859  1.00  0.00     0.198 A 
ATOM    103  F   UNL     1     -13.945   8.871 -16.423  1.00  0.00    -0.203 F 
ATOM    104  F   UNL     1     -16.697   4.232 -15.612  1.00  0.00    -0.200 F 
ATOM    105  C   UNL     1     -16.520   6.341 -16.659  1.00  0.00     0.200 A 
ATOM    106  F   UNL     1     -16.295   8.454 -17.687  1.00  0.00    -0.200 F 
ATOM    107  F   UNL     1     -17.670   6.129 -17.314  1.00  0.00    -0.200 F 
ENDBRANCH  74  97
ENDBRANCH  48  49
ENDBRANCH  41  43
ENDBRANCH  40  41
ENDBRANCH  39  40
ENDBRANCH  38  39
ENDBRANCH  37  38
ENDBRANCH  36  37
ENDBRANCH  35  36
ENDBRANCH  34  35
ENDBRANCH   1  34
TORSDOF 24
