REMARK SMILES O=C(OCCOCCOCCOCCOC(=O)c1ccc(-c2c3nc(c(-c4c(F)c(F)c(F)c(F)c4F)c4ccc([nH]4)c(-c4c(F)c(F)c(F)c(F)c4F)c4nc(c(-c5c(F)c(F)c(F)c(F)c5F)c5ccc2[nH]5)C=C4)C=C3)cc1)c1ccc(/C=C/c2ccnc(-c3cccc([N+](=O)[O-])c3)[n+]2[O-])cc1
REMARK SMILES IDX 8 1 7 2 6 3 5 4 4 5 3 6 2 7 1 8 81 9 82 10 104 11 83 12
REMARK SMILES IDX 103 13 84 14 85 15 86 16 87 17 88 18 101 19 89 20 91 21
REMARK SMILES IDX 102 22 90 23 92 24 93 25 100 26 94 27 96 28 95 29 97 30
REMARK SMILES IDX 98 31 99 32 9 33 10 34 11 35 12 36 13 37 14 38 15 39 16 40
REMARK SMILES IDX 17 41 18 42 19 43 80 44 20 45 79 46 21 47 22 48 23 49 73 50
REMARK SMILES IDX 24 51 78 52 72 53 74 54 25 55 77 56 71 57 70 58 26 60 58 61
REMARK SMILES IDX 38 62 57 63 39 64 42 65 56 66 75 67 40 68 41 69 55 71 76 72
REMARK SMILES IDX 43 73 27 74 28 75 36 76 29 77 30 78 34 79 37 80 31 81 32 82
REMARK SMILES IDX 35 83 33 84 59 85 60 86 68 87 61 88 62 89 66 90 69 91 63 92
REMARK SMILES IDX 64 93 67 94 65 95 44 96 45 97 53 98 46 99 47 100 51 101
REMARK SMILES IDX 54 102 48 103 49 104 52 105 50 106
REMARK H PARENT 74 59 42 70
REMARK Flexibility Score: inf
ROOT
ATOM      1  C   UNL     1       1.768   2.256   1.565  1.00  0.00     0.188 C 
ENDROOT
BRANCH   1   2
ATOM      2  C   UNL     1       2.209   1.535   0.289  1.00  0.00     0.188 C 
BRANCH   2   3
ATOM      3  O   UNL     1       3.517   0.992   0.470  1.00  0.00    -0.376 OA
BRANCH   3   4
ATOM      4  C   UNL     1       4.338   0.889  -0.683  1.00  0.00     0.202 C 
BRANCH   4   5
ATOM      5  C   UNL     1       3.957  -0.209  -1.675  1.00  0.00     0.261 C 
BRANCH   5   6
ATOM      6  O   UNL     1       2.578  -0.602  -1.590  1.00  0.00    -0.460 OA
BRANCH   6   7
ATOM      7  C   UNL     1       2.103  -1.672  -0.905  1.00  0.00     0.338 C 
ATOM      8  O   UNL     1       0.928  -2.010  -1.020  1.00  0.00    -0.246 OA
BRANCH   7   9
ATOM      9  C   UNL     1       2.991  -2.489  -0.043  1.00  0.00     0.060 A 
ATOM     10  C   UNL     1       3.743  -1.952   1.001  1.00  0.00     0.016 A 
ATOM     11  C   UNL     1       2.966  -3.874  -0.203  1.00  0.00     0.016 A 
ATOM     12  C   UNL     1       4.561  -2.754   1.792  1.00  0.00     0.009 A 
ATOM     13  C   UNL     1       3.757  -4.688   0.616  1.00  0.00     0.009 A 
ATOM     14  C   UNL     1       4.593  -4.130   1.596  1.00  0.00    -0.025 A 
BRANCH  14  15
ATOM     15  C   UNL     1       5.470  -5.009   2.372  1.00  0.00     0.012 C 
ATOM     16  C   UNL     1       6.534  -4.609   3.091  1.00  0.00     0.053 C 
BRANCH  16  17
ATOM     17  C   UNL     1       7.464  -5.593   3.656  1.00  0.00     0.134 A 
ATOM     18  C   UNL     1       7.790  -5.562   5.010  1.00  0.00     0.100 A 
ATOM     19  N   UNL     1       8.014  -6.572   2.815  1.00  0.00    -0.228 N 
ATOM     20  C   UNL     1       8.611  -6.556   5.492  1.00  0.00     0.259 A 
ATOM     21  C   UNL     1       8.823  -7.547   3.392  1.00  0.00     0.333 A 
ATOM     22  O   UNL     1       7.770  -6.576   1.553  1.00  0.00    -0.710 OA
ATOM     23  N   UNL     1       9.109  -7.551   4.729  1.00  0.00    -0.049 NA
BRANCH  21  24
ATOM     24  C   UNL     1       9.312  -8.639   2.555  1.00  0.00     0.076 A 
ATOM     25  C   UNL     1       8.837  -9.948   2.745  1.00  0.00     0.017 A 
ATOM     26  C   UNL     1      10.163  -8.382   1.467  1.00  0.00     0.102 A 
ATOM     27  C   UNL     1       9.166 -10.968   1.849  1.00  0.00     0.008 A 
ATOM     28  C   UNL     1      10.490  -9.406   0.571  1.00  0.00     0.270 A 
ATOM     29  C   UNL     1       9.989 -10.700   0.755  1.00  0.00     0.085 A 
BRANCH  28  30
ATOM     30  N   UNL     1      11.342  -9.109  -0.587  1.00  0.00     0.062 N 
ATOM     31  O   UNL     1      11.563 -10.027  -1.390  1.00  0.00    -0.258 OA
ATOM     32  O   UNL     1      11.803  -7.963  -0.688  1.00  0.00    -0.258 OA
ENDBRANCH  28  30
ENDBRANCH  21  24
ENDBRANCH  16  17
ENDBRANCH  14  15
ENDBRANCH   7   9
ENDBRANCH   6   7
ENDBRANCH   5   6
ENDBRANCH   4   5
ENDBRANCH   3   4
ENDBRANCH   2   3
ENDBRANCH   1   2
BRANCH   1  33
ATOM     33  O   UNL     1       2.495   3.446   1.866  1.00  0.00    -0.377 OA
BRANCH  33  34
ATOM     34  C   UNL     1       3.913   3.350   1.802  1.00  0.00     0.188 C 
BRANCH  34  35
ATOM     35  C   UNL     1       4.639   2.382   2.763  1.00  0.00     0.188 C 
BRANCH  35  36
ATOM     36  O   UNL     1       3.793   1.557   3.555  1.00  0.00    -0.376 OA
BRANCH  36  37
ATOM     37  C   UNL     1       3.768   1.872   4.947  1.00  0.00     0.202 C 
BRANCH  37  38
ATOM     38  C   UNL     1       2.917   3.098   5.303  1.00  0.00     0.261 C 
BRANCH  38  39
ATOM     39  O   UNL     1       3.343   4.327   4.695  1.00  0.00    -0.460 OA
BRANCH  39  40
ATOM     40  C   UNL     1       4.575   4.800   4.983  1.00  0.00     0.338 C 
ATOM     41  O   UNL     1       5.370   4.352   5.789  1.00  0.00    -0.246 OA
BRANCH  40  42
ATOM     42  C   UNL     1       4.890   5.820   3.954  1.00  0.00     0.060 A 
ATOM     43  C   UNL     1       6.123   5.750   3.285  1.00  0.00     0.016 A 
ATOM     44  C   UNL     1       3.917   6.739   3.543  1.00  0.00     0.016 A 
ATOM     45  C   UNL     1       6.383   6.601   2.205  1.00  0.00     0.010 A 
ATOM     46  C   UNL     1       4.187   7.604   2.483  1.00  0.00     0.010 A 
ATOM     47  C   UNL     1       5.429   7.558   1.827  1.00  0.00    -0.014 A 
BRANCH  47  48
ATOM     48  C   UNL     1       5.814   8.715   0.984  1.00  0.00     0.031 A 
ATOM     49  C   UNL     1       6.330   9.927   1.707  1.00  0.00     0.074 A 
ATOM     50  C   UNL     1       5.644   8.739  -0.348  1.00  0.00     0.049 A 
ATOM     51  N   UNL     1       6.587  11.126   1.255  1.00  0.00    -0.248 NA
ATOM     52  C   UNL     1       6.568   9.761   3.151  1.00  0.00     0.031 C 
ATOM     53  C   UNL     1       5.176   7.626  -1.168  1.00  0.00     0.029 A 
ATOM     54  N   UNL     1       5.824   9.768  -1.242  1.00  0.00    -0.354 N 
ATOM     55  C   UNL     1       6.997  11.857   2.362  1.00  0.00     0.074 A 
ATOM     56  C   UNL     1       6.934  10.979   3.507  1.00  0.00     0.031 C 
ATOM     57  C   UNL     1       5.079   8.040  -2.446  1.00  0.00     0.029 A 
ATOM     58  C   UNL     1       5.439   9.457  -2.524  1.00  0.00     0.049 A 
ATOM     59  H   UNL     1       6.192  10.645  -0.988  1.00  0.00     0.167 HD
ATOM     60  C   UNL     1       7.388  13.150   2.422  1.00  0.00     0.037 A 
ATOM     61  C   UNL     1       5.357  10.240  -3.619  1.00  0.00     0.037 A 
ATOM     62  C   UNL     1       7.426  14.030   1.290  1.00  0.00     0.049 A 
ATOM     63  C   UNL     1       5.739  11.699  -3.522  1.00  0.00     0.074 A 
ATOM     64  C   UNL     1       7.819  15.354   1.239  1.00  0.00     0.029 A 
ATOM     65  N   UNL     1       7.037  13.674   0.007  1.00  0.00    -0.354 N 
ATOM     66  N   UNL     1       6.159  12.379  -2.482  1.00  0.00    -0.248 NA
ATOM     67  C   UNL     1       5.630  12.500  -4.751  1.00  0.00     0.031 C 
ATOM     68  C   UNL     1       7.618  15.816  -0.065  1.00  0.00     0.029 A 
ATOM     69  C   UNL     1       7.158  14.762  -0.840  1.00  0.00     0.049 A 
ATOM     70  H   UNL     1       6.721  12.781  -0.261  1.00  0.00     0.167 HD
ATOM     71  C   UNL     1       6.396  13.671  -2.936  1.00  0.00     0.074 A 
ATOM     72  C   UNL     1       6.072  13.683  -4.347  1.00  0.00     0.031 C 
ATOM     73  C   UNL     1       6.848  14.749  -2.247  1.00  0.00     0.037 A 
BRANCH  60  74
ATOM     74  C   UNL     1       7.753  13.683   3.775  1.00  0.00     0.064 A 
ATOM     75  C   UNL     1       8.909  13.259   4.449  1.00  0.00     0.173 A 
ATOM     76  C   UNL     1       6.915  14.604   4.420  1.00  0.00     0.173 A 
ATOM     77  F   UNL     1       9.727  12.358   3.885  1.00  0.00    -0.203 F 
ATOM     78  C   UNL     1       9.190  13.707   5.736  1.00  0.00     0.198 A 
ATOM     79  C   UNL     1       7.218  15.075   5.694  1.00  0.00     0.198 A 
ATOM     80  F   UNL     1       5.796  15.036   3.821  1.00  0.00    -0.203 F 
ATOM     81  F   UNL     1      10.260  13.233   6.389  1.00  0.00    -0.200 F 
ATOM     82  C   UNL     1       8.348  14.617   6.356  1.00  0.00     0.200 A 
ATOM     83  F   UNL     1       6.406  15.960   6.289  1.00  0.00    -0.200 F 
ATOM     84  F   UNL     1       8.616  15.042   7.598  1.00  0.00    -0.200 F 
ENDBRANCH  60  74
BRANCH  61  85
ATOM     85  C   UNL     1       4.877   9.668  -4.905  1.00  0.00     0.064 A 
ATOM     86  C   UNL     1       5.749   9.490  -5.988  1.00  0.00     0.173 A 
ATOM     87  C   UNL     1       3.537   9.293  -5.081  1.00  0.00     0.173 A 
ATOM     88  F   UNL     1       7.033   9.862  -5.881  1.00  0.00    -0.203 F 
ATOM     89  C   UNL     1       5.299   8.965  -7.199  1.00  0.00     0.198 A 
ATOM     90  C   UNL     1       3.092   8.745  -6.283  1.00  0.00     0.198 A 
ATOM     91  F   UNL     1       2.659   9.451  -4.080  1.00  0.00    -0.203 F 
ATOM     92  F   UNL     1       6.146   8.839  -8.229  1.00  0.00    -0.200 F 
ATOM     93  C   UNL     1       3.973   8.585  -7.342  1.00  0.00     0.200 A 
ATOM     94  F   UNL     1       1.812   8.372  -6.415  1.00  0.00    -0.200 F 
ATOM     95  F   UNL     1       3.542   8.072  -8.503  1.00  0.00    -0.200 F 
ENDBRANCH  61  85
BRANCH  73  96
ATOM     96  C   UNL     1       7.079  16.023  -3.007  1.00  0.00     0.064 A 
ATOM     97  C   UNL     1       6.019  16.830  -3.441  1.00  0.00     0.173 A 
ATOM     98  C   UNL     1       8.388  16.486  -3.219  1.00  0.00     0.173 A 
ATOM     99  F   UNL     1       4.750  16.428  -3.271  1.00  0.00    -0.203 F 
ATOM    100  C   UNL     1       6.260  18.050  -4.069  1.00  0.00     0.198 A 
ATOM    101  C   UNL     1       8.624  17.718  -3.821  1.00  0.00     0.198 A 
ATOM    102  F   UNL     1       9.437  15.756  -2.812  1.00  0.00    -0.203 F 
ATOM    103  F   UNL     1       5.232  18.794  -4.502  1.00  0.00    -0.200 F 
ATOM    104  C   UNL     1       7.561  18.497  -4.249  1.00  0.00     0.200 A 
ATOM    105  F   UNL     1       9.881  18.156  -3.977  1.00  0.00    -0.200 F 
ATOM    106  F   UNL     1       7.789  19.681  -4.835  1.00  0.00    -0.200 F 
ENDBRANCH  73  96
ENDBRANCH  47  48
ENDBRANCH  40  42
ENDBRANCH  39  40
ENDBRANCH  38  39
ENDBRANCH  37  38
ENDBRANCH  36  37
ENDBRANCH  35  36
ENDBRANCH  34  35
ENDBRANCH  33  34
ENDBRANCH   1  33
TORSDOF 24
