REMARK SMILES Cc1nc(-c2ccccc2Cl)nc2sc(C(=O)OCCOCCOCCOCCOC(=O)c3ccc(-c4c5nc(c(-c6c(F)c(F)c(F)c(F)c6F)c6ccc([nH]6)c(-c6c(F)c(F)c(F)c(F)c6F)c6nc(c(-c7c(F)c(F)c(F)c(F)c7F)c7ccc4[nH]7)C=C6)C=C5)cc3)c(N)c12
REMARK SMILES IDX 25 1 24 2 23 3 22 4 21 5 20 6 19 7 18 8 16 9 17 10 15 11
REMARK SMILES IDX 1 12 2 13 3 14 98 15 4 16 13 17 96 18 12 19 14 20 5 21 6 22
REMARK SMILES IDX 10 23 7 24 9 25 11 26 8 27 97 28 26 31 27 32 28 33 29 34
REMARK SMILES IDX 30 35 31 36 32 37 33 38 34 39 95 40 35 41 94 42 36 43 37 44
REMARK SMILES IDX 38 45 88 46 39 47 93 48 87 49 89 50 40 51 92 52 86 53 85 54
REMARK SMILES IDX 41 56 73 57 53 58 72 59 54 60 57 61 71 62 90 63 55 64 56 65
REMARK SMILES IDX 70 67 91 68 58 69 42 70 43 71 51 72 44 73 45 74 49 75 52 76
REMARK SMILES IDX 46 77 47 78 50 79 48 80 74 81 75 82 83 83 76 84 77 85 81 86
REMARK SMILES IDX 84 87 78 88 79 89 82 90 80 91 59 92 60 93 68 94 61 95 62 96
REMARK SMILES IDX 66 97 69 98 63 99 64 100 67 101 65 102
REMARK H PARENT 97 29 97 30 89 55 57 66
REMARK Flexibility Score: inf
ROOT
ATOM      1  C   UNL     1       0.102   3.304   8.428  1.00  0.00     0.188 C 
ENDROOT
BRANCH   1   2
ATOM      2  O   UNL     1       0.204   2.366   7.364  1.00  0.00    -0.377 OA
BRANCH   2   3
ATOM      3  C   UNL     1       0.298   2.792   6.013  1.00  0.00     0.188 C 
BRANCH   3   4
ATOM      4  C   UNL     1      -0.638   3.896   5.475  1.00  0.00     0.188 C 
BRANCH   4   5
ATOM      5  O   UNL     1      -1.407   4.542   6.464  1.00  0.00    -0.376 OA
BRANCH   5   6
ATOM      6  C   UNL     1      -2.769   4.271   6.681  1.00  0.00     0.202 C 
BRANCH   6   7
ATOM      7  C   UNL     1      -3.358   2.861   6.608  1.00  0.00     0.261 C 
BRANCH   7   8
ATOM      8  O   UNL     1      -2.682   1.907   5.798  1.00  0.00    -0.459 OA
BRANCH   8   9
ATOM      9  C   UNL     1      -2.861   1.958   4.454  1.00  0.00     0.350 C 
ATOM     10  O   UNL     1      -3.522   2.824   3.873  1.00  0.00    -0.245 OA
BRANCH   9  11
ATOM     11  C   UNL     1      -2.022   0.965   3.826  1.00  0.00     0.138 A 
ATOM     12  C   UNL     1       0.805   0.094   0.174  1.00  0.00     0.067 C 
ATOM     13  C   UNL     1       0.335  -0.656   1.384  1.00  0.00     0.052 A 
ATOM     14  N   UNL     1       0.750  -1.960   1.431  1.00  0.00    -0.233 NA
ATOM     15  C   UNL     1      -0.522  -0.180   2.406  1.00  0.00     0.057 A 
ATOM     16  C   UNL     1       0.368  -2.751   2.446  1.00  0.00     0.162 A 
ATOM     17  C   UNL     1      -0.844  -1.123   3.372  1.00  0.00     0.130 A 
ATOM     18  C   UNL     1      -1.189   1.067   2.721  1.00  0.00     0.069 A 
ATOM     19  N   UNL     1      -0.424  -2.385   3.450  1.00  0.00    -0.217 NA
ATOM     20  S   UNL     1      -1.937  -0.581   4.540  1.00  0.00    -0.106 S 
BRANCH  16  21
ATOM     21  C   UNL     1       0.678  -4.183   2.408  1.00  0.00     0.038 A 
ATOM     22  C   UNL     1      -0.378  -5.096   2.648  1.00  0.00     0.013 A 
ATOM     23  C   UNL     1       1.961  -4.713   2.212  1.00  0.00     0.052 A 
ATOM     24  C   UNL     1      -0.167  -6.473   2.703  1.00  0.00     0.001 A 
ATOM     25  C   UNL     1       2.172  -6.100   2.266  1.00  0.00     0.021 A 
ATOM     26  Cl  UNL     1       3.356  -3.718   1.972  1.00  0.00    -0.084 Cl
ATOM     27  C   UNL     1       1.113  -6.975   2.514  1.00  0.00     0.002 A 
ENDBRANCH  16  21
BRANCH  18  28
ATOM     28  N   UNL     1      -1.019   2.235   2.058  1.00  0.00    -0.397 N 
ATOM     29  H   UNL     1      -1.514   3.038   2.341  1.00  0.00     0.156 HD
ATOM     30  H   UNL     1      -0.401   2.281   1.294  1.00  0.00     0.156 HD
ENDBRANCH  18  28
ENDBRANCH   9  11
ENDBRANCH   8   9
ENDBRANCH   7   8
ENDBRANCH   6   7
ENDBRANCH   5   6
ENDBRANCH   4   5
ENDBRANCH   3   4
ENDBRANCH   2   3
ENDBRANCH   1   2
BRANCH   1  31
ATOM     31  C   UNL     1       0.580   4.778   8.320  1.00  0.00     0.188 C 
BRANCH  31  32
ATOM     32  O   UNL     1       1.051   5.181   7.047  1.00  0.00    -0.376 OA
BRANCH  32  33
ATOM     33  C   UNL     1       2.397   5.505   6.780  1.00  0.00     0.202 C 
BRANCH  33  34
ATOM     34  C   UNL     1       3.435   4.403   6.942  1.00  0.00     0.261 C 
BRANCH  34  35
ATOM     35  O   UNL     1       3.206   3.597   8.077  1.00  0.00    -0.460 OA
BRANCH  35  36
ATOM     36  C   UNL     1       3.388   4.224   9.245  1.00  0.00     0.338 C 
ATOM     37  O   UNL     1       3.632   5.415   9.433  1.00  0.00    -0.246 OA
BRANCH  36  38
ATOM     38  C   UNL     1       3.328   3.225  10.299  1.00  0.00     0.060 A 
ATOM     39  C   UNL     1       3.229   3.702  11.607  1.00  0.00     0.016 A 
ATOM     40  C   UNL     1       3.810   1.950   9.976  1.00  0.00     0.016 A 
ATOM     41  C   UNL     1       3.918   3.020  12.574  1.00  0.00     0.010 A 
ATOM     42  C   UNL     1       4.536   1.300  10.926  1.00  0.00     0.010 A 
ATOM     43  C   UNL     1       4.663   1.911  12.171  1.00  0.00    -0.014 A 
BRANCH  43  44
ATOM     44  C   UNL     1       5.658   1.398  13.070  1.00  0.00     0.031 A 
ATOM     45  C   UNL     1       5.115   0.417  14.022  1.00  0.00     0.074 A 
ATOM     46  C   UNL     1       6.952   1.720  12.902  1.00  0.00     0.049 A 
ATOM     47  N   UNL     1       5.001   0.542  15.301  1.00  0.00    -0.248 NA
ATOM     48  C   UNL     1       4.439  -0.764  13.461  1.00  0.00     0.031 C 
ATOM     49  C   UNL     1       7.577   2.459  11.799  1.00  0.00     0.029 A 
ATOM     50  N   UNL     1       8.012   1.343  13.657  1.00  0.00    -0.354 N 
ATOM     51  C   UNL     1       4.416  -0.644  15.721  1.00  0.00     0.074 A 
ATOM     52  C   UNL     1       3.885  -1.288  14.551  1.00  0.00     0.031 C 
ATOM     53  C   UNL     1       8.917   2.280  11.848  1.00  0.00     0.029 A 
ATOM     54  C   UNL     1       9.242   1.517  13.039  1.00  0.00     0.049 A 
ATOM     55  H   UNL     1       7.918   0.977  14.566  1.00  0.00     0.167 HD
ATOM     56  C   UNL     1       4.677  -1.154  16.952  1.00  0.00     0.037 A 
ATOM     57  C   UNL     1      10.395   0.934  13.450  1.00  0.00     0.037 A 
ATOM     58  C   UNL     1       5.191  -0.150  17.844  1.00  0.00     0.049 A 
ATOM     59  C   UNL     1      10.193   0.539  14.876  1.00  0.00     0.074 A 
ATOM     60  C   UNL     1       4.693   1.053  18.310  1.00  0.00     0.029 A 
ATOM     61  N   UNL     1       6.547  -0.102  18.062  1.00  0.00    -0.354 N 
ATOM     62  N   UNL     1      10.027   1.399  15.848  1.00  0.00    -0.248 NA
ATOM     63  C   UNL     1       9.670  -0.797  15.136  1.00  0.00     0.031 C 
ATOM     64  C   UNL     1       5.811   1.935  18.329  1.00  0.00     0.029 A 
ATOM     65  C   UNL     1       6.937   1.209  17.937  1.00  0.00     0.049 A 
ATOM     66  H   UNL     1       7.131  -0.867  18.269  1.00  0.00     0.167 HD
ATOM     67  C   UNL     1       9.044   0.844  16.659  1.00  0.00     0.074 A 
ATOM     68  C   UNL     1       8.905  -0.536  16.200  1.00  0.00     0.031 C 
ATOM     69  C   UNL     1       8.223   1.625  17.421  1.00  0.00     0.037 A 
BRANCH  56  70
ATOM     70  C   UNL     1       4.784  -2.630  17.206  1.00  0.00     0.064 A 
ATOM     71  C   UNL     1       4.781  -3.105  18.526  1.00  0.00     0.173 A 
ATOM     72  C   UNL     1       5.132  -3.577  16.214  1.00  0.00     0.173 A 
ATOM     73  F   UNL     1       4.516  -2.276  19.547  1.00  0.00    -0.203 F 
ATOM     74  C   UNL     1       5.128  -4.423  18.831  1.00  0.00     0.198 A 
ATOM     75  C   UNL     1       5.409  -4.906  16.513  1.00  0.00     0.198 A 
ATOM     76  F   UNL     1       5.329  -3.234  14.935  1.00  0.00    -0.203 F 
ATOM     77  F   UNL     1       5.220  -4.805  20.111  1.00  0.00    -0.200 F 
ATOM     78  C   UNL     1       5.433  -5.324  17.825  1.00  0.00     0.200 A 
ATOM     79  F   UNL     1       5.725  -5.752  15.523  1.00  0.00    -0.200 F 
ATOM     80  F   UNL     1       5.802  -6.577  18.119  1.00  0.00    -0.200 F 
ENDBRANCH  56  70
BRANCH  57  81
ATOM     81  C   UNL     1      11.447   0.353  12.578  1.00  0.00     0.064 A 
ATOM     82  C   UNL     1      12.710   0.014  13.086  1.00  0.00     0.173 A 
ATOM     83  C   UNL     1      11.158  -0.108  11.275  1.00  0.00     0.173 A 
ATOM     84  F   UNL     1      13.047   0.359  14.337  1.00  0.00    -0.203 F 
ATOM     85  C   UNL     1      13.625  -0.740  12.338  1.00  0.00     0.198 A 
ATOM     86  C   UNL     1      12.074  -0.847  10.527  1.00  0.00     0.198 A 
ATOM     87  F   UNL     1       9.947   0.070  10.730  1.00  0.00    -0.203 F 
ATOM     88  F   UNL     1      14.803  -1.088  12.876  1.00  0.00    -0.200 F 
ATOM     89  C   UNL     1      13.305  -1.172  11.061  1.00  0.00     0.200 A 
ATOM     90  F   UNL     1      11.732  -1.290   9.308  1.00  0.00    -0.200 F 
ATOM     91  F   UNL     1      14.161  -1.931  10.364  1.00  0.00    -0.200 F 
ENDBRANCH  57  81
BRANCH  69  92
ATOM     92  C   UNL     1       8.529   3.097  17.522  1.00  0.00     0.064 A 
ATOM     93  C   UNL     1       8.456   3.980  16.430  1.00  0.00     0.173 A 
ATOM     94  C   UNL     1       8.683   3.664  18.794  1.00  0.00     0.173 A 
ATOM     95  F   UNL     1       8.209   3.527  15.196  1.00  0.00    -0.203 F 
ATOM     96  C   UNL     1       8.552   5.360  16.602  1.00  0.00     0.198 A 
ATOM     97  C   UNL     1       8.743   5.045  18.968  1.00  0.00     0.198 A 
ATOM     98  F   UNL     1       8.701   2.876  19.881  1.00  0.00    -0.203 F 
ATOM     99  F   UNL     1       8.466   6.178  15.543  1.00  0.00    -0.200 F 
ATOM    100  C   UNL     1       8.682   5.892  17.874  1.00  0.00     0.200 A 
ATOM    101  F   UNL     1       8.815   5.556  20.205  1.00  0.00    -0.200 F 
ATOM    102  F   UNL     1       8.711   7.221  18.048  1.00  0.00    -0.200 F 
ENDBRANCH  69  92
ENDBRANCH  43  44
ENDBRANCH  36  38
ENDBRANCH  35  36
ENDBRANCH  34  35
ENDBRANCH  33  34
ENDBRANCH  32  33
ENDBRANCH  31  32
ENDBRANCH   1  31
TORSDOF 22
