REMARK SMILES Cc1ccc(NC(=O)C[C@@H](C(=O)OCCOCCOCCOCCOC(=O)c2ccc(-c3c4nc(c(-c5c(F)c(F)c(F)c(F)c5F)c5ccc([nH]5)c(-c5c(F)c(F)c(F)c(F)c5F)c5nc(c(-c6c(F)c(F)c(F)c(F)c6F)c6ccc3[nH]6)C=C5)C=C4)cc2)[NH+]2CCOCC2)cc1
REMARK SMILES IDX 18 1 17 2 16 3 15 4 14 5 13 6 11 7 12 8 10 9 9 10 7 11 6 12
REMARK SMILES IDX 8 14 5 15 1 16 2 17 3 18 98 19 4 20 97 21 91 22 92 23 96 24
REMARK SMILES IDX 93 26 95 27 94 28 19 29 20 30 21 31 22 32 23 33 24 34 25 35
REMARK SMILES IDX 26 36 27 37 28 38 29 39 90 40 30 41 89 42 31 43 32 44 33 45
REMARK SMILES IDX 83 46 34 47 88 48 82 49 84 50 35 51 87 52 81 53 80 54 36 56
REMARK SMILES IDX 68 57 48 58 67 59 49 60 52 61 66 62 85 63 50 64 51 65 65 67
REMARK SMILES IDX 86 68 53 69 37 70 38 71 46 72 39 73 40 74 44 75 47 76 41 77
REMARK SMILES IDX 42 78 45 79 43 80 69 81 70 82 78 83 71 84 72 85 76 86 79 87
REMARK SMILES IDX 73 88 74 89 77 90 75 91 54 92 55 93 63 94 56 95 57 96 61 97
REMARK SMILES IDX 64 98 58 99 59 100 62 101 60 102
REMARK H PARENT 6 13 91 25 84 55 52 66
REMARK Flexibility Score: inf
ROOT
ATOM      1  C   UNL     1      -1.181  -2.709   2.612  1.00  0.00     0.188 C 
ENDROOT
BRANCH   1   2
ATOM      2  C   UNL     1       0.227  -2.037   2.113  1.00  0.00     0.188 C 
BRANCH   2   3
ATOM      3  O   UNL     1       0.348  -0.851   0.660  1.00  0.00    -0.376 OA
BRANCH   3   4
ATOM      4  C   UNL     1       0.424  -1.330  -1.314  1.00  0.00     0.202 C 
BRANCH   4   5
ATOM      5  C   UNL     1      -0.083  -1.546  -2.787  1.00  0.00     0.261 C 
BRANCH   5   6
ATOM      6  O   UNL     1      -1.166  -2.362  -3.083  1.00  0.00    -0.459 OA
BRANCH   6   7
ATOM      7  C   UNL     1      -1.181  -3.311  -2.163  1.00  0.00     0.365 C 
ATOM      8  O   UNL     1      -0.158  -3.869  -1.784  1.00  0.00    -0.245 OA
BRANCH   7   9
ATOM      9  C   UNL     1      -2.620  -3.687  -1.933  1.00  0.00     0.304 C 
BRANCH   9  10
ATOM     10  C   UNL     1      -3.206  -3.412  -0.506  1.00  0.00     0.177 C 
BRANCH  10  11
ATOM     11  C   UNL     1      -3.610  -2.035   0.151  1.00  0.00     0.231 C 
ATOM     12  N   UNL     1      -2.841  -0.976   0.572  1.00  0.00    -0.326 N 
ATOM     13  H   UNL     1      -3.377  -0.263   0.989  1.00  0.00     0.169 HD
ATOM     14  O   UNL     1      -4.821  -1.866   0.394  1.00  0.00    -0.274 OA
BRANCH  12  15
ATOM     15  C   UNL     1      -1.437  -0.666   0.545  1.00  0.00     0.041 A 
ATOM     16  C   UNL     1       3.629   0.083   0.128  1.00  0.00     0.044 C 
ATOM     17  C   UNL     1       2.080   0.058   0.081  1.00  0.00    -0.051 A 
ATOM     18  C   UNL     1       1.593  -1.849   0.097  1.00  0.00     0.005 A 
ATOM     19  C   UNL     1       1.056   1.761   0.288  1.00  0.00     0.005 A 
ATOM     20  C   UNL     1      -0.357  -2.265   0.172  1.00  0.00     0.026 A 
ATOM     21  C   UNL     1      -0.866   1.218   0.762  1.00  0.00     0.026 A 
ENDBRANCH  12  15
ENDBRANCH  10  11
ENDBRANCH   9  10
BRANCH   9  22
ATOM     22  N   UNL     1      -2.627  -5.082  -2.466  1.00  0.00    -0.319 N 
ATOM     23  C   UNL     1      -1.812  -5.155  -3.750  1.00  0.00     0.291 C 
ATOM     24  C   UNL     1      -1.985  -6.060  -1.559  1.00  0.00     0.291 C 
ATOM     25  H   UNL     1      -3.612  -5.310  -2.594  1.00  0.00     0.348 HD
ATOM     26  C   UNL     1      -2.015  -6.498  -4.397  1.00  0.00     0.221 C 
ATOM     27  C   UNL     1      -2.135  -7.437  -2.208  1.00  0.00     0.221 C 
ATOM     28  O   UNL     1      -1.541  -7.526  -3.517  1.00  0.00    -0.370 OA
ENDBRANCH   9  22
ENDBRANCH   7   9
ENDBRANCH   6   7
ENDBRANCH   5   6
ENDBRANCH   4   5
ENDBRANCH   3   4
ENDBRANCH   2   3
ENDBRANCH   1   2
BRANCH   1  29
ATOM     29  O   UNL     1      -2.140  -2.127   3.500  1.00  0.00    -0.377 OA
BRANCH  29  30
ATOM     30  C   UNL     1      -2.334  -0.735   3.408  1.00  0.00     0.188 C 
BRANCH  30  31
ATOM     31  C   UNL     1      -1.592  -0.034   4.483  1.00  0.00     0.188 C 
BRANCH  31  32
ATOM     32  O   UNL     1      -0.297  -0.592   4.431  1.00  0.00    -0.376 OA
BRANCH  32  33
ATOM     33  C   UNL     1       0.077  -1.582   5.366  1.00  0.00     0.202 C 
BRANCH  33  34
ATOM     34  C   UNL     1       0.183  -0.884   6.694  1.00  0.00     0.261 C 
BRANCH  34  35
ATOM     35  O   UNL     1       1.233   0.124   6.557  1.00  0.00    -0.460 OA
BRANCH  35  36
ATOM     36  C   UNL     1       0.868   1.316   5.994  1.00  0.00     0.338 C 
ATOM     37  O   UNL     1       0.063   2.086   6.504  1.00  0.00    -0.246 OA
BRANCH  36  38
ATOM     38  C   UNL     1       1.349   1.482   4.566  1.00  0.00     0.060 A 
ATOM     39  C   UNL     1       0.684   2.408   3.813  1.00  0.00     0.016 A 
ATOM     40  C   UNL     1       2.053   0.500   3.862  1.00  0.00     0.016 A 
ATOM     41  C   UNL     1       0.378   2.040   2.490  1.00  0.00     0.010 A 
ATOM     42  C   UNL     1       1.759   0.155   2.472  1.00  0.00     0.010 A 
ATOM     43  C   UNL     1       0.672   0.664   1.582  1.00  0.00    -0.014 A 
BRANCH  43  44
ATOM     44  C   UNL     1       0.115   0.596  -0.582  1.00  0.00     0.031 A 
ATOM     45  C   UNL     1       1.247   1.183  -1.982  1.00  0.00     0.074 A 
ATOM     46  C   UNL     1      -1.274   0.989  -1.404  1.00  0.00     0.049 A 
ATOM     47  N   UNL     1       1.099   0.797  -3.227  1.00  0.00    -0.248 NA
ATOM     48  C   UNL     1       2.662   1.695  -1.943  1.00  0.00     0.031 C 
ATOM     49  C   UNL     1      -2.314  -0.072  -1.989  1.00  0.00     0.029 A 
ATOM     50  N   UNL     1      -2.392   1.832  -0.991  1.00  0.00    -0.354 N 
ATOM     51  C   UNL     1       2.342   0.327  -3.744  1.00  0.00     0.074 A 
ATOM     52  C   UNL     1       3.293   1.011  -2.920  1.00  0.00     0.031 C 
ATOM     53  C   UNL     1      -3.621   0.183  -1.941  1.00  0.00     0.029 A 
ATOM     54  C   UNL     1      -3.682   1.456  -1.390  1.00  0.00     0.049 A 
ATOM     55  H   UNL     1      -2.245   2.640  -0.448  1.00  0.00     0.167 HD
ATOM     56  C   UNL     1       2.354  -0.682  -4.708  1.00  0.00     0.037 A 
ATOM     57  C   UNL     1      -4.620   2.340  -1.720  1.00  0.00     0.037 A 
ATOM     58  C   UNL     1       0.984  -0.782  -5.338  1.00  0.00     0.049 A 
ATOM     59  C   UNL     1      -3.956   2.589  -3.177  1.00  0.00     0.074 A 
ATOM     60  C   UNL     1       0.060  -1.755  -5.708  1.00  0.00     0.029 A 
ATOM     61  N   UNL     1       0.232   0.394  -5.396  1.00  0.00    -0.354 N 
ATOM     62  N   UNL     1      -3.127   1.737  -3.811  1.00  0.00    -0.248 NA
ATOM     63  C   UNL     1      -4.284   3.673  -4.077  1.00  0.00     0.031 C 
ATOM     64  C   UNL     1      -1.241  -1.125  -5.871  1.00  0.00     0.029 A 
ATOM     65  C   UNL     1      -1.117   0.241  -5.649  1.00  0.00     0.049 A 
ATOM     66  H   UNL     1       0.640   1.280  -5.263  1.00  0.00     0.167 HD
ATOM     67  C   UNL     1      -2.733   2.143  -5.055  1.00  0.00     0.074 A 
ATOM     68  C   UNL     1      -3.498   3.400  -5.145  1.00  0.00     0.031 C 
ATOM     69  C   UNL     1      -1.861   1.484  -5.934  1.00  0.00     0.037 A 
BRANCH  56  70
ATOM     70  C   UNL     1       3.519  -1.721  -5.043  1.00  0.00     0.064 A 
ATOM     71  C   UNL     1       3.312  -2.806  -5.949  1.00  0.00     0.173 A 
ATOM     72  C   UNL     1       4.822  -1.758  -4.481  1.00  0.00     0.173 A 
ATOM     73  F   UNL     1       2.147  -2.983  -6.576  1.00  0.00    -0.203 F 
ATOM     74  C   UNL     1       4.280  -3.781  -6.280  1.00  0.00     0.198 A 
ATOM     75  C   UNL     1       5.813  -2.719  -4.843  1.00  0.00     0.198 A 
ATOM     76  F   UNL     1       5.200  -0.885  -3.541  1.00  0.00    -0.203 F 
ATOM     77  F   UNL     1       3.966  -4.772  -7.130  1.00  0.00    -0.200 F 
ATOM     78  C   UNL     1       5.543  -3.724  -5.749  1.00  0.00     0.200 A 
ATOM     79  F   UNL     1       7.040  -2.661  -4.299  1.00  0.00    -0.200 F 
ATOM     80  F   UNL     1       6.479  -4.619  -6.104  1.00  0.00    -0.200 F 
ENDBRANCH  56  70
BRANCH  57  81
ATOM     81  C   UNL     1      -4.892   2.849  -0.243  1.00  0.00     0.064 A 
ATOM     82  C   UNL     1      -5.578   1.893   0.618  1.00  0.00     0.173 A 
ATOM     83  C   UNL     1      -4.059   3.726   0.489  1.00  0.00     0.173 A 
ATOM     84  F   UNL     1      -6.388   0.975   0.067  1.00  0.00    -0.203 F 
ATOM     85  C   UNL     1      -5.295   1.715   1.998  1.00  0.00     0.198 A 
ATOM     86  C   UNL     1      -3.773   3.532   1.877  1.00  0.00     0.198 A 
ATOM     87  F   UNL     1      -3.317   4.628  -0.164  1.00  0.00    -0.203 F 
ATOM     88  F   UNL     1      -5.813   0.680   2.682  1.00  0.00    -0.200 F 
ATOM     89  C   UNL     1      -4.354   2.509   2.614  1.00  0.00     0.200 A 
ATOM     90  F   UNL     1      -2.784   4.234   2.454  1.00  0.00    -0.200 F 
ATOM     91  F   UNL     1      -3.934   2.230   3.861  1.00  0.00    -0.200 F 
ENDBRANCH  57  81
BRANCH  69  92
ATOM     92  C   UNL     1      -1.451   2.093  -7.275  1.00  0.00     0.064 A 
ATOM     93  C   UNL     1      -2.335   2.876  -8.000  1.00  0.00     0.173 A 
ATOM     94  C   UNL     1      -0.181   1.907  -7.901  1.00  0.00     0.173 A 
ATOM     95  F   UNL     1      -3.650   2.836  -7.742  1.00  0.00    -0.203 F 
ATOM     96  C   UNL     1      -1.899   3.683  -9.044  1.00  0.00     0.198 A 
ATOM     97  C   UNL     1       0.235   2.649  -8.992  1.00  0.00     0.198 A 
ATOM     98  F   UNL     1       0.720   0.990  -7.532  1.00  0.00    -0.203 F 
ATOM     99  F   UNL     1      -2.750   4.562  -9.584  1.00  0.00    -0.200 F 
ATOM    100  C   UNL     1      -0.604   3.593  -9.520  1.00  0.00     0.200 A 
ATOM    101  F   UNL     1       1.456   2.442  -9.506  1.00  0.00    -0.200 F 
ATOM    102  F   UNL     1      -0.184   4.376 -10.519  1.00  0.00    -0.200 F 
ENDBRANCH  69  92
ENDBRANCH  43  44
ENDBRANCH  36  38
ENDBRANCH  35  36
ENDBRANCH  34  35
ENDBRANCH  33  34
ENDBRANCH  32  33
ENDBRANCH  31  32
ENDBRANCH  30  31
ENDBRANCH  29  30
ENDBRANCH   1  29
TORSDOF 24
