REMARK SMILES COc1cccc([C@H]2CC(c3ccc(S(C)(=O)=O)cc3)=NN2c2ccc(C(=O)OCCOCCOCCOCCOC(=O)c3ccc(-c4c5nc(c(-c6c(F)c(F)c(F)c(F)c6F)c6ccc([nH]6)c(-c6c(F)c(F)c(F)c(F)c6F)c6nc(c(-c7c(F)c(F)c(F)c(F)c7F)c7ccc4[nH]7)C=C6)C=C5)cc3)cc2)c1
REMARK SMILES IDX 34 1 33 2 32 3 31 4 30 5 29 6 27 7 28 8 26 9 23 10 24 11
REMARK SMILES IDX 108 12 25 13 107 14 22 15 8 16 9 17 10 18 21 19 7 20 3 21
REMARK SMILES IDX 4 22 109 23 5 24 6 25 2 26 1 27 11 28 12 29 20 30 13 31
REMARK SMILES IDX 19 32 14 33 15 34 16 35 17 36 18 37 35 38 36 39 37 40 38 41
REMARK SMILES IDX 39 42 40 43 41 44 42 45 43 46 44 47 45 48 106 49 46 50
REMARK SMILES IDX 105 51 47 52 48 53 49 54 99 55 50 56 104 57 98 58 100 59
REMARK SMILES IDX 51 60 103 61 97 62 96 63 52 65 84 66 64 67 83 68 65 69 68 70
REMARK SMILES IDX 82 71 101 72 66 73 67 74 81 76 102 77 69 78 53 79 54 80
REMARK SMILES IDX 62 81 55 82 56 83 60 84 63 85 57 86 58 87 61 88 59 89 85 90
REMARK SMILES IDX 86 91 94 92 87 93 88 94 92 95 95 96 89 97 90 98 93 99 91 100
REMARK SMILES IDX 70 101 71 102 79 103 72 104 73 105 77 106 80 107 74 108
REMARK SMILES IDX 75 109 78 110 76 111
REMARK H PARENT 100 64 68 75
REMARK Flexibility Score: inf
ROOT
ATOM      1  C   UNL     1       6.840   6.534   5.059  1.00  0.00     0.188 C 
ENDROOT
BRANCH   1   2
ATOM      2  C   UNL     1       5.922   7.510   4.290  1.00  0.00     0.188 C 
BRANCH   2   3
ATOM      3  O   UNL     1       5.608   8.692   5.007  1.00  0.00    -0.376 OA
BRANCH   3   4
ATOM      4  C   UNL     1       4.291   8.869   5.489  1.00  0.00     0.202 C 
BRANCH   4   5
ATOM      5  C   UNL     1       3.739   7.853   6.501  1.00  0.00     0.261 C 
BRANCH   5   6
ATOM      6  O   UNL     1       3.981   6.473   6.204  1.00  0.00    -0.460 OA
BRANCH   6   7
ATOM      7  C   UNL     1       3.270   5.938   5.186  1.00  0.00     0.338 C 
ATOM      8  O   UNL     1       2.431   6.506   4.511  1.00  0.00    -0.246 OA
BRANCH   7   9
ATOM      9  C   UNL     1       3.822   4.594   4.894  1.00  0.00     0.060 A 
ATOM     10  C   UNL     1       4.792   2.032   4.264  1.00  0.00     0.060 A 
ATOM     11  C   UNL     1       4.579   2.979   3.255  1.00  0.00     0.029 A 
ATOM     12  C   UNL     1       4.605   2.424   5.599  1.00  0.00     0.029 A 
ATOM     13  C   UNL     1       4.062   4.241   3.561  1.00  0.00     0.018 A 
ATOM     14  C   UNL     1       4.141   3.702   5.920  1.00  0.00     0.018 A 
BRANCH  10  15
ATOM     15  N   UNL     1       5.057   0.702   3.950  1.00  0.00    -0.257 N 
ATOM     16  C   UNL     1       4.148  -0.377   4.351  1.00  0.00     0.144 C 
ATOM     17  C   UNL     1       4.703  -1.584   3.594  1.00  0.00     0.091 C 
ATOM     18  C   UNL     1       5.862  -0.943   2.882  1.00  0.00     0.071 C 
ATOM     19  N   UNL     1       6.014   0.333   3.059  1.00  0.00    -0.176 NA
BRANCH  16  20
ATOM     20  C   UNL     1       2.693  -0.068   4.017  1.00  0.00    -0.019 A 
ATOM     21  C   UNL     1       0.934   0.478   2.416  1.00  0.00     0.119 A 
ATOM     22  C   UNL     1       0.034   0.641   3.469  1.00  0.00     0.046 A 
ATOM     23  C   UNL     1       2.261   0.139   2.691  1.00  0.00     0.052 A 
ATOM     24  C   UNL     1       0.444   0.444   4.786  1.00  0.00     0.004 A 
ATOM     25  C   UNL     1       1.764   0.090   5.059  1.00  0.00     0.006 A 
BRANCH  21  26
ATOM     26  O   UNL     1       0.422   0.735   1.174  1.00  0.00    -0.497 OA
ATOM     27  C   UNL     1       1.040   0.046   0.093  1.00  0.00     0.278 C 
ENDBRANCH  21  26
ENDBRANCH  16  20
BRANCH  18  28
ATOM     28  C   UNL     1       6.785  -1.773   2.097  1.00  0.00    -0.002 A 
ATOM     29  C   UNL     1       8.129  -1.825   2.484  1.00  0.00     0.011 A 
ATOM     30  C   UNL     1       6.314  -2.554   1.039  1.00  0.00     0.011 A 
ATOM     31  C   UNL     1       9.007  -2.683   1.821  1.00  0.00     0.021 A 
ATOM     32  C   UNL     1       7.197  -3.395   0.357  1.00  0.00     0.021 A 
ATOM     33  C   UNL     1       8.538  -3.458   0.754  1.00  0.00     0.067 A 
BRANCH  33  34
ATOM     34  S   UNL     1       9.652  -4.583  -0.058  1.00  0.00     0.175 S 
ATOM     35  C   UNL     1      10.918  -3.543  -0.737  1.00  0.00     0.163 C 
ATOM     36  O   UNL     1      10.241  -5.405   0.980  1.00  0.00    -0.224 OA
ATOM     37  O   UNL     1       8.936  -5.181  -1.169  1.00  0.00    -0.224 OA
ENDBRANCH  33  34
ENDBRANCH  18  28
ENDBRANCH  10  15
ENDBRANCH   7   9
ENDBRANCH   6   7
ENDBRANCH   5   6
ENDBRANCH   4   5
ENDBRANCH   3   4
ENDBRANCH   2   3
ENDBRANCH   1   2
BRANCH   1  38
ATOM     38  O   UNL     1       7.144   6.783   6.426  1.00  0.00    -0.377 OA
BRANCH  38  39
ATOM     39  C   UNL     1       7.474   8.099   6.859  1.00  0.00     0.188 C 
BRANCH  39  40
ATOM     40  C   UNL     1       8.155   9.115   5.911  1.00  0.00     0.188 C 
BRANCH  40  41
ATOM     41  O   UNL     1       8.505   8.593   4.643  1.00  0.00    -0.376 OA
BRANCH  41  42
ATOM     42  C   UNL     1       9.874   8.357   4.376  1.00  0.00     0.202 C 
BRANCH  42  43
ATOM     43  C   UNL     1      10.605   7.341   5.266  1.00  0.00     0.261 C 
BRANCH  43  44
ATOM     44  O   UNL     1      10.479   7.528   6.684  1.00  0.00    -0.460 OA
BRANCH  44  45
ATOM     45  C   UNL     1      11.066   8.615   7.224  1.00  0.00     0.338 C 
ATOM     46  O   UNL     1      11.704   9.480   6.644  1.00  0.00    -0.246 OA
BRANCH  45  47
ATOM     47  C   UNL     1      10.653   8.684   8.641  1.00  0.00     0.060 A 
ATOM     48  C   UNL     1       9.915   9.787   9.090  1.00  0.00     0.016 A 
ATOM     49  C   UNL     1      10.984   7.649   9.518  1.00  0.00     0.016 A 
ATOM     50  C   UNL     1       9.534   9.873  10.430  1.00  0.00     0.010 A 
ATOM     51  C   UNL     1      10.622   7.746  10.863  1.00  0.00     0.010 A 
ATOM     52  C   UNL     1       9.925   8.874  11.331  1.00  0.00    -0.014 A 
BRANCH  52  53
ATOM     53  C   UNL     1       9.785   9.099  12.791  1.00  0.00     0.031 A 
ATOM     54  C   UNL     1      10.990   9.572  13.555  1.00  0.00     0.074 A 
ATOM     55  C   UNL     1       8.616   8.900  13.425  1.00  0.00     0.049 A 
ATOM     56  N   UNL     1      11.139   9.773  14.839  1.00  0.00    -0.248 NA
ATOM     57  C   UNL     1      12.196   9.850  12.758  1.00  0.00     0.031 C 
ATOM     58  C   UNL     1       7.369   8.486  12.788  1.00  0.00     0.029 A 
ATOM     59  N   UNL     1       8.297   9.011  14.756  1.00  0.00    -0.354 N 
ATOM     60  C   UNL     1      12.453  10.192  15.003  1.00  0.00     0.074 A 
ATOM     61  C   UNL     1      13.070  10.183  13.695  1.00  0.00     0.031 C 
ATOM     62  C   UNL     1       6.419   8.364  13.732  1.00  0.00     0.029 A 
ATOM     63  C   UNL     1       7.003   8.654  15.042  1.00  0.00     0.049 A 
ATOM     64  H   UNL     1       8.936   9.318  15.439  1.00  0.00     0.167 HD
ATOM     65  C   UNL     1      13.085  10.559  16.143  1.00  0.00     0.037 A 
ATOM     66  C   UNL     1       6.374   8.549  16.230  1.00  0.00     0.037 A 
ATOM     67  C   UNL     1      12.469  10.562  17.443  1.00  0.00     0.049 A 
ATOM     68  C   UNL     1       7.126   8.882  17.495  1.00  0.00     0.074 A 
ATOM     69  C   UNL     1      13.018  10.931  18.657  1.00  0.00     0.029 A 
ATOM     70  N   UNL     1      11.164  10.163  17.698  1.00  0.00    -0.354 N 
ATOM     71  N   UNL     1       8.359   9.303  17.644  1.00  0.00    -0.248 NA
ATOM     72  C   UNL     1       6.393   8.729  18.761  1.00  0.00     0.031 C 
ATOM     73  C   UNL     1      12.068  10.694  19.656  1.00  0.00     0.029 A 
ATOM     74  C   UNL     1      10.902  10.248  19.056  1.00  0.00     0.049 A 
ATOM     75  H   UNL     1      10.521   9.864  17.015  1.00  0.00     0.167 HD
ATOM     76  C   UNL     1       8.538   9.498  19.008  1.00  0.00     0.074 A 
ATOM     77  C   UNL     1       7.282   9.162  19.644  1.00  0.00     0.031 C 
ATOM     78  C   UNL     1       9.642   9.920  19.675  1.00  0.00     0.037 A 
BRANCH  65  79
ATOM     79  C   UNL     1      14.530  10.956  16.037  1.00  0.00     0.064 A 
ATOM     80  C   UNL     1      14.929  12.141  15.400  1.00  0.00     0.173 A 
ATOM     81  C   UNL     1      15.528  10.152  16.608  1.00  0.00     0.173 A 
ATOM     82  F   UNL     1      14.017  12.939  14.824  1.00  0.00    -0.203 F 
ATOM     83  C   UNL     1      16.275  12.490  15.312  1.00  0.00     0.198 A 
ATOM     84  C   UNL     1      16.869  10.521  16.549  1.00  0.00     0.198 A 
ATOM     85  F   UNL     1      15.203   9.009  17.231  1.00  0.00    -0.203 F 
ATOM     86  F   UNL     1      16.636  13.598  14.652  1.00  0.00    -0.200 F 
ATOM     87  C   UNL     1      17.242  11.684  15.894  1.00  0.00     0.200 A 
ATOM     88  F   UNL     1      17.801   9.749  17.125  1.00  0.00    -0.200 F 
ATOM     89  F   UNL     1      18.536  12.026  15.816  1.00  0.00    -0.200 F 
ENDBRANCH  65  79
BRANCH  66  90
ATOM     90  C   UNL     1       4.959   8.092  16.288  1.00  0.00     0.064 A 
ATOM     91  C   UNL     1       3.938   8.949  16.721  1.00  0.00     0.173 A 
ATOM     92  C   UNL     1       4.603   6.779  15.943  1.00  0.00     0.173 A 
ATOM     93  F   UNL     1       4.230  10.206  17.089  1.00  0.00    -0.203 F 
ATOM     94  C   UNL     1       2.621   8.506  16.828  1.00  0.00     0.198 A 
ATOM     95  C   UNL     1       3.280   6.347  16.018  1.00  0.00     0.198 A 
ATOM     96  F   UNL     1       5.541   5.915  15.527  1.00  0.00    -0.203 F 
ATOM     97  F   UNL     1       1.675   9.330  17.298  1.00  0.00    -0.200 F 
ATOM     98  C   UNL     1       2.292   7.207  16.470  1.00  0.00     0.200 A 
ATOM     99  F   UNL     1       2.966   5.095  15.660  1.00  0.00    -0.200 F 
ATOM    100  F   UNL     1       1.025   6.782  16.572  1.00  0.00    -0.200 F 
ENDBRANCH  66  90
BRANCH  78 101
ATOM    101  C   UNL     1       9.531  10.094  21.164  1.00  0.00     0.064 A 
ATOM    102  C   UNL     1       9.409   9.000  22.033  1.00  0.00     0.173 A 
ATOM    103  C   UNL     1       9.595  11.377  21.733  1.00  0.00     0.173 A 
ATOM    104  F   UNL     1       9.332   7.753  21.543  1.00  0.00    -0.203 F 
ATOM    105  C   UNL     1       9.324   9.185  23.411  1.00  0.00     0.198 A 
ATOM    106  C   UNL     1       9.547  11.556  23.112  1.00  0.00     0.198 A 
ATOM    107  F   UNL     1       9.721  12.459  20.949  1.00  0.00    -0.203 F 
ATOM    108  F   UNL     1       9.153   8.128  24.218  1.00  0.00    -0.200 F 
ATOM    109  C   UNL     1       9.402  10.461  23.950  1.00  0.00     0.200 A 
ATOM    110  F   UNL     1       9.642  12.788  23.631  1.00  0.00    -0.200 F 
ATOM    111  F   UNL     1       9.330  10.636  25.277  1.00  0.00    -0.200 F 
ENDBRANCH  78 101
ENDBRANCH  52  53
ENDBRANCH  45  47
ENDBRANCH  44  45
ENDBRANCH  43  44
ENDBRANCH  42  43
ENDBRANCH  41  42
ENDBRANCH  40  41
ENDBRANCH  39  40
ENDBRANCH  38  39
ENDBRANCH   1  38
TORSDOF 25
