REMARK SMILES CCCNC(=O)[C@H](C)[NH2+][C@H](C)[C@@H](C)C(=O)OCCOCCOCCOCCOC(=O)c1ccc(-c2c3nc(c(-c4c(F)c(F)c(F)c(F)c4F)c4ccc([nH]4)c(-c4c(F)c(F)c(F)c(F)c4F)c4nc(c(-c5c(F)c(F)c(F)c(F)c5F)c5ccc2[nH]5)C=C4)C=C3)cc1
REMARK SMILES IDX 20 1 19 2 18 3 17 4 16 5 14 6 15 7 12 8 13 9 10 10 11 11
REMARK SMILES IDX 9 12 7 15 8 16 5 17 4 18 6 20 3 21 2 22 1 23 21 24 22 25
REMARK SMILES IDX 23 26 24 27 25 28 26 29 27 30 28 31 29 32 30 33 31 34 32 35
REMARK SMILES IDX 93 36 33 37 92 38 34 39 35 40 36 41 86 42 37 43 91 44 85 45
REMARK SMILES IDX 87 46 38 47 90 48 84 49 83 50 39 52 71 53 51 54 70 55 52 56
REMARK SMILES IDX 55 57 69 58 88 59 53 60 54 61 68 63 89 64 56 65 40 66 41 67
REMARK SMILES IDX 49 68 42 69 43 70 47 71 50 72 44 73 45 74 48 75 46 76 72 77
REMARK SMILES IDX 73 78 81 79 74 80 75 81 79 82 82 83 76 84 77 85 80 86 78 87
REMARK SMILES IDX 57 88 58 89 66 90 59 91 60 92 64 93 67 94 61 95 62 96 65 97
REMARK SMILES IDX 63 98
REMARK H PARENT 9 13 9 14 4 19 87 51 55 62
REMARK Flexibility Score: inf
ROOT
ATOM      1  C   UNL     1       0.565  -0.869   9.333  1.00  0.00     0.188 C 
ENDROOT
BRANCH   1   2
ATOM      2  O   UNL     1      -0.000  -0.448  10.552  1.00  0.00    -0.376 OA
BRANCH   2   3
ATOM      3  C   UNL     1       0.561   0.656  11.222  1.00  0.00     0.202 C 
BRANCH   3   4
ATOM      4  C   UNL     1       0.753   2.038  10.554  1.00  0.00     0.261 C 
BRANCH   4   5
ATOM      5  O   UNL     1       0.638   2.203   9.127  1.00  0.00    -0.463 OA
BRANCH   5   6
ATOM      6  C   UNL     1       1.772   1.957   8.437  1.00  0.00     0.314 C 
ATOM      7  O   UNL     1       2.762   1.437   8.957  1.00  0.00    -0.252 OA
BRANCH   6   8
ATOM      8  C   UNL     1       1.850   2.490   7.006  1.00  0.00     0.154 C 
ATOM      9  C   UNL     1       2.828   3.681   7.146  1.00  0.00     0.026 C 
BRANCH   8  10
ATOM     10  C   UNL     1       0.607   2.907   6.143  1.00  0.00     0.193 C 
ATOM     11  C   UNL     1       1.107   3.526   4.823  1.00  0.00     0.076 C 
BRANCH  10  12
ATOM     12  N   UNL     1      -0.414   1.869   5.933  1.00  0.00    -0.333 N 
ATOM     13  H   UNL     1      -0.231   1.156   6.639  1.00  0.00     0.347 HD
ATOM     14  H   UNL     1      -1.266   2.429   5.961  1.00  0.00     0.347 HD
BRANCH  12  15
ATOM     15  C   UNL     1      -0.602   1.137   4.664  1.00  0.00     0.269 C 
ATOM     16  C   UNL     1      -1.804   0.184   4.764  1.00  0.00     0.086 C 
BRANCH  15  17
ATOM     17  C   UNL     1      -0.935   2.009   3.442  1.00  0.00     0.277 C 
ATOM     18  N   UNL     1      -0.251   1.801   2.272  1.00  0.00    -0.351 N 
ATOM     19  H   UNL     1      -0.528   2.365   1.514  1.00  0.00     0.163 HD
ATOM     20  O   UNL     1      -1.820   2.868   3.459  1.00  0.00    -0.268 OA
BRANCH  18  21
ATOM     21  C   UNL     1       0.826   0.865   1.992  1.00  0.00     0.116 C 
BRANCH  21  22
ATOM     22  C   UNL     1       0.753   0.300   0.577  1.00  0.00     0.018 C 
ATOM     23  C   UNL     1       1.040   1.339  -0.495  1.00  0.00     0.006 C 
ENDBRANCH  21  22
ENDBRANCH  18  21
ENDBRANCH  15  17
ENDBRANCH  12  15
ENDBRANCH  10  12
ENDBRANCH   8  10
ENDBRANCH   6   8
ENDBRANCH   5   6
ENDBRANCH   4   5
ENDBRANCH   3   4
ENDBRANCH   2   3
ENDBRANCH   1   2
BRANCH   1  24
ATOM     24  C   UNL     1      -0.275  -0.483   8.107  1.00  0.00     0.188 C 
BRANCH  24  25
ATOM     25  O   UNL     1      -1.371   0.419   8.236  1.00  0.00    -0.377 OA
BRANCH  25  26
ATOM     26  C   UNL     1      -2.269   0.329   9.335  1.00  0.00     0.188 C 
BRANCH  26  27
ATOM     27  C   UNL     1      -2.637  -1.062   9.881  1.00  0.00     0.188 C 
BRANCH  27  28
ATOM     28  O   UNL     1      -2.212  -2.129   9.060  1.00  0.00    -0.376 OA
BRANCH  28  29
ATOM     29  C   UNL     1      -3.079  -2.625   8.056  1.00  0.00     0.202 C 
BRANCH  29  30
ATOM     30  C   UNL     1      -3.967  -1.705   7.203  1.00  0.00     0.261 C 
BRANCH  30  31
ATOM     31  O   UNL     1      -4.653  -0.633   7.855  1.00  0.00    -0.460 OA
BRANCH  31  32
ATOM     32  C   UNL     1      -5.678  -0.964   8.668  1.00  0.00     0.338 C 
ATOM     33  O   UNL     1      -6.092  -2.075   8.919  1.00  0.00    -0.246 OA
BRANCH  32  34
ATOM     34  C   UNL     1      -6.099   0.273   9.361  1.00  0.00     0.060 A 
ATOM     35  C   UNL     1      -5.977   0.328  10.753  1.00  0.00     0.016 A 
ATOM     36  C   UNL     1      -6.620   1.357   8.648  1.00  0.00     0.016 A 
ATOM     37  C   UNL     1      -6.426   1.449  11.444  1.00  0.00     0.010 A 
ATOM     38  C   UNL     1      -7.088   2.476   9.344  1.00  0.00     0.010 A 
ATOM     39  C   UNL     1      -7.029   2.506  10.748  1.00  0.00    -0.014 A 
BRANCH  39  40
ATOM     40  C   UNL     1      -7.752   3.539  11.525  1.00  0.00     0.031 A 
ATOM     41  C   UNL     1      -9.240   3.404  11.692  1.00  0.00     0.074 A 
ATOM     42  C   UNL     1      -7.081   4.524  12.146  1.00  0.00     0.049 A 
ATOM     43  N   UNL     1     -10.072   4.142  12.382  1.00  0.00    -0.248 NA
ATOM     44  C   UNL     1      -9.876   2.278  10.990  1.00  0.00     0.031 C 
ATOM     45  C   UNL     1      -5.635   4.726  12.086  1.00  0.00     0.029 A 
ATOM     46  N   UNL     1      -7.530   5.532  12.961  1.00  0.00    -0.354 N 
ATOM     47  C   UNL     1     -11.324   3.569  12.200  1.00  0.00     0.074 A 
ATOM     48  C   UNL     1     -11.151   2.446  11.305  1.00  0.00     0.031 C 
ATOM     49  C   UNL     1      -5.313   5.792  12.838  1.00  0.00     0.029 A 
ATOM     50  C   UNL     1      -6.533   6.363  13.406  1.00  0.00     0.049 A 
ATOM     51  H   UNL     1      -8.477   5.648  13.203  1.00  0.00     0.167 HD
ATOM     52  C   UNL     1     -12.508   3.941  12.741  1.00  0.00     0.037 A 
ATOM     53  C   UNL     1      -6.604   7.466  14.175  1.00  0.00     0.037 A 
ATOM     54  C   UNL     1     -12.671   5.066  13.625  1.00  0.00     0.049 A 
ATOM     55  C   UNL     1      -7.947   7.899  14.708  1.00  0.00     0.074 A 
ATOM     56  C   UNL     1     -13.823   5.524  14.238  1.00  0.00     0.029 A 
ATOM     57  N   UNL     1     -11.646   5.919  14.011  1.00  0.00    -0.354 N 
ATOM     58  N   UNL     1      -9.122   7.335  14.557  1.00  0.00    -0.248 NA
ATOM     59  C   UNL     1      -7.968   9.117  15.528  1.00  0.00     0.031 C 
ATOM     60  C   UNL     1     -13.508   6.691  14.943  1.00  0.00     0.029 A 
ATOM     61  C   UNL     1     -12.146   6.921  14.828  1.00  0.00     0.049 A 
ATOM     62  H   UNL     1     -10.703   5.826  13.745  1.00  0.00     0.167 HD
ATOM     63  C   UNL     1     -10.017   8.115  15.279  1.00  0.00     0.074 A 
ATOM     64  C   UNL     1      -9.241   9.173  15.893  1.00  0.00     0.031 C 
ATOM     65  C   UNL     1     -11.359   7.973  15.421  1.00  0.00     0.037 A 
BRANCH  52  66
ATOM     66  C   UNL     1     -13.726   3.146  12.361  1.00  0.00     0.064 A 
ATOM     67  C   UNL     1     -13.917   1.825  12.796  1.00  0.00     0.173 A 
ATOM     68  C   UNL     1     -14.729   3.725  11.569  1.00  0.00     0.173 A 
ATOM     69  F   UNL     1     -12.982   1.218  13.541  1.00  0.00    -0.203 F 
ATOM     70  C   UNL     1     -15.053   1.107  12.430  1.00  0.00     0.198 A 
ATOM     71  C   UNL     1     -15.879   3.015  11.232  1.00  0.00     0.198 A 
ATOM     72  F   UNL     1     -14.599   4.984  11.125  1.00  0.00    -0.203 F 
ATOM     73  F   UNL     1     -15.190  -0.170  12.815  1.00  0.00    -0.200 F 
ATOM     74  C   UNL     1     -16.036   1.704  11.656  1.00  0.00     0.200 A 
ATOM     75  F   UNL     1     -16.833   3.599  10.495  1.00  0.00    -0.200 F 
ATOM     76  F   UNL     1     -17.133   1.015  11.312  1.00  0.00    -0.200 F 
ENDBRANCH  52  66
BRANCH  53  77
ATOM     77  C   UNL     1      -5.374   8.246  14.477  1.00  0.00     0.064 A 
ATOM     78  C   UNL     1      -4.873   8.343  15.783  1.00  0.00     0.173 A 
ATOM     79  C   UNL     1      -4.686   8.933  13.465  1.00  0.00     0.173 A 
ATOM     80  F   UNL     1      -5.507   7.726  16.791  1.00  0.00    -0.203 F 
ATOM     81  C   UNL     1      -3.747   9.113  16.067  1.00  0.00     0.198 A 
ATOM     82  C   UNL     1      -3.541   9.675  13.745  1.00  0.00     0.198 A 
ATOM     83  F   UNL     1      -5.124   8.877  12.198  1.00  0.00    -0.203 F 
ATOM     84  F   UNL     1      -3.321   9.232  17.333  1.00  0.00    -0.200 F 
ATOM     85  C   UNL     1      -3.078   9.773  15.047  1.00  0.00     0.200 A 
ATOM     86  F   UNL     1      -2.890  10.298  12.753  1.00  0.00    -0.200 F 
ATOM     87  F   UNL     1      -1.993  10.510  15.321  1.00  0.00    -0.200 F 
ENDBRANCH  53  77
BRANCH  65  88
ATOM     88  C   UNL     1     -12.062   8.976  16.294  1.00  0.00     0.064 A 
ATOM     89  C   UNL     1     -12.185  10.324  15.920  1.00  0.00     0.173 A 
ATOM     90  C   UNL     1     -12.623   8.584  17.519  1.00  0.00     0.173 A 
ATOM     91  F   UNL     1     -11.657  10.755  14.764  1.00  0.00    -0.203 F 
ATOM     92  C   UNL     1     -12.797  11.248  16.762  1.00  0.00     0.198 A 
ATOM     93  C   UNL     1     -13.271   9.503  18.340  1.00  0.00     0.198 A 
ATOM     94  F   UNL     1     -12.547   7.306  17.921  1.00  0.00    -0.203 F 
ATOM     95  F   UNL     1     -12.834  12.543  16.418  1.00  0.00    -0.200 F 
ATOM     96  C   UNL     1     -13.343  10.837  17.968  1.00  0.00     0.200 A 
ATOM     97  F   UNL     1     -13.815   9.100  19.496  1.00  0.00    -0.200 F 
ATOM     98  F   UNL     1     -13.929  11.729  18.779  1.00  0.00    -0.200 F 
ENDBRANCH  65  88
ENDBRANCH  39  40
ENDBRANCH  32  34
ENDBRANCH  31  32
ENDBRANCH  30  31
ENDBRANCH  29  30
ENDBRANCH  28  29
ENDBRANCH  27  28
ENDBRANCH  26  27
ENDBRANCH  25  26
ENDBRANCH  24  25
ENDBRANCH   1  24
TORSDOF 26
