REMARK SMILES C[C@@]1(C(=O)OCCOCCOCCOCCOC(=O)c2ccc(-c3c4nc(c(-c5c(F)c(F)c(F)c(F)c5F)c5ccc([nH]5)c(-c5c(F)c(F)c(F)c(F)c5F)c5nc(c(-c6c(F)c(F)c(F)c(F)c6F)c6ccc3[nH]6)C=C5)C=C4)cc2)CCCN1c1ncnc2c1CCCCC2
REMARK SMILES IDX 10 1 9 2 8 3 7 4 6 5 5 6 3 7 4 8 2 9 1 10 83 11 86 12 84 13
REMARK SMILES IDX 85 14 87 15 88 16 92 17 89 18 91 19 90 20 93 21 94 22 95 23
REMARK SMILES IDX 97 25 96 26 11 28 12 29 13 30 14 31 15 32 16 33 17 34 18 35
REMARK SMILES IDX 19 36 20 37 21 38 82 39 22 40 81 41 23 42 24 43 25 44 75 45
REMARK SMILES IDX 26 46 80 47 74 48 76 49 27 50 79 51 73 52 72 53 28 55 60 56
REMARK SMILES IDX 40 57 59 58 41 59 44 60 58 61 77 62 42 63 43 64 57 66 78 67
REMARK SMILES IDX 45 68 29 69 30 70 38 71 31 72 32 73 36 74 39 75 33 76 34 77
REMARK SMILES IDX 37 78 35 79 61 80 62 81 70 82 63 83 64 84 68 85 71 86 65 87
REMARK SMILES IDX 66 88 69 89 67 90 46 91 47 92 55 93 48 94 49 95 53 96 56 97
REMARK SMILES IDX 50 98 51 99 54 100 52 101
REMARK H PARENT 76 54 44 65
REMARK Flexibility Score: 90.00
ROOT
ATOM      1  C   UNL     1      -0.789  -1.405  -4.657  1.00  0.00     0.188 C 
ENDROOT
BRANCH   1   2
ATOM      2  C   UNL     1       0.235  -0.366  -4.184  1.00  0.00     0.188 C 
BRANCH   2   3
ATOM      3  O   UNL     1       1.599  -0.648  -4.501  1.00  0.00    -0.376 OA
BRANCH   3   4
ATOM      4  C   UNL     1       1.933  -2.022  -4.612  1.00  0.00     0.202 C 
BRANCH   4   5
ATOM      5  C   UNL     1       1.916  -2.839  -3.305  1.00  0.00     0.261 C 
BRANCH   5   6
ATOM      6  O   UNL     1       0.932  -2.476  -2.301  1.00  0.00    -0.461 OA
BRANCH   6   7
ATOM      7  C   UNL     1       1.391  -1.581  -1.371  1.00  0.00     0.331 C 
ATOM      8  O   UNL     1       2.475  -1.012  -1.502  1.00  0.00    -0.249 OA
BRANCH   7   9
ATOM      9  C   UNL     1       0.553  -1.480  -0.044  1.00  0.00     0.136 C 
ATOM     10  C   UNL     1       0.943  -0.137   0.591  1.00  0.00     0.047 C 
ATOM     11  C   UNL     1       1.056  -2.665   0.815  1.00  0.00     0.042 C 
ATOM     12  N   UNL     1      -0.951  -1.727  -0.160  1.00  0.00    -0.340 N 
ATOM     13  C   UNL     1       0.099  -3.788   0.452  1.00  0.00     0.025 C 
ATOM     14  C   UNL     1      -1.240  -3.072   0.398  1.00  0.00     0.119 C 
BRANCH  12  15
ATOM     15  C   UNL     1      -1.929  -0.849   0.379  1.00  0.00     0.136 A 
ATOM     16  N   UNL     1      -1.776  -0.447   1.652  1.00  0.00    -0.219 NA
ATOM     17  C   UNL     1      -3.090  -0.487  -0.356  1.00  0.00     0.016 A 
ATOM     18  C   UNL     1      -2.725   0.345   2.190  1.00  0.00     0.224 A 
ATOM     19  C   UNL     1      -4.069   0.459   0.333  1.00  0.00     0.049 A 
ATOM     20  N   UNL     1      -3.835   0.831   1.609  1.00  0.00    -0.241 NA
BRANCH  17  21
ATOM     21  C   UNL     1      -3.003  -0.993  -1.968  1.00  0.00     0.041 C 
BRANCH  21  22
ATOM     22  C   UNL     1      -4.154  -0.717  -3.382  1.00  0.00     0.005 C 
BRANCH  22  23
ATOM     23  C   UNL     1      -5.642   0.508  -3.441  1.00  0.00     0.001 CG0
ATOM     24  G   UNL     1      -6.245   1.435  -1.931  1.00  0.00     0.000 G0
ENDBRANCH  22  23
ENDBRANCH  21  22
ENDBRANCH  17  21
BRANCH  19  25
ATOM     25  C   UNL     1      -5.455   1.330  -0.249  1.00  0.00     0.057 C 
BRANCH  25  26
ATOM     26  C   UNL     1      -6.245   1.435  -1.931  1.00  0.00     0.006 CG0
ATOM     27  G   UNL     1      -5.642   0.508  -3.441  1.00  0.00     0.000 G0
ENDBRANCH  25  26
ENDBRANCH  19  25
ENDBRANCH  12  15
ENDBRANCH   7   9
ENDBRANCH   6   7
ENDBRANCH   5   6
ENDBRANCH   4   5
ENDBRANCH   3   4
ENDBRANCH   2   3
ENDBRANCH   1   2
BRANCH   1  28
ATOM     28  O   UNL     1      -1.042  -1.231  -6.053  1.00  0.00    -0.377 OA
BRANCH  28  29
ATOM     29  C   UNL     1      -2.374  -0.788  -6.313  1.00  0.00     0.188 C 
BRANCH  29  30
ATOM     30  C   UNL     1      -2.700   0.659  -5.809  1.00  0.00     0.188 C 
BRANCH  30  31
ATOM     31  O   UNL     1      -2.379   0.844  -4.407  1.00  0.00    -0.376 OA
BRANCH  31  32
ATOM     32  C   UNL     1      -3.179   1.762  -3.665  1.00  0.00     0.202 C 
BRANCH  32  33
ATOM     33  C   UNL     1      -3.760   1.296  -2.211  1.00  0.00     0.261 C 
BRANCH  33  34
ATOM     34  O   UNL     1      -4.923  -0.114  -1.671  1.00  0.00    -0.460 OA
BRANCH  34  35
ATOM     35  C   UNL     1      -5.867  -1.275  -1.608  1.00  0.00     0.338 C 
ATOM     36  O   UNL     1      -6.423  -1.429  -0.511  1.00  0.00    -0.246 OA
BRANCH  35  37
ATOM     37  C   UNL     1      -6.375  -2.410  -2.714  1.00  0.00     0.060 A 
ATOM     38  C   UNL     1      -6.268  -2.466  -4.141  1.00  0.00     0.016 A 
ATOM     39  C   UNL     1      -6.939  -3.583  -2.182  1.00  0.00     0.016 A 
ATOM     40  C   UNL     1      -6.441  -3.643  -4.922  1.00  0.00     0.010 A 
ATOM     41  C   UNL     1      -7.208  -4.744  -2.972  1.00  0.00     0.010 A 
ATOM     42  C   UNL     1      -6.905  -4.816  -4.342  1.00  0.00    -0.014 A 
BRANCH  42  43
ATOM     43  C   UNL     1      -7.216  -6.048  -5.145  1.00  0.00     0.031 A 
ATOM     44  C   UNL     1      -8.583  -6.193  -5.763  1.00  0.00     0.074 A 
ATOM     45  C   UNL     1      -6.349  -7.070  -5.322  1.00  0.00     0.049 A 
ATOM     46  N   UNL     1      -9.187  -7.262  -6.223  1.00  0.00    -0.248 NA
ATOM     47  C   UNL     1      -9.375  -4.962  -5.887  1.00  0.00     0.031 C 
ATOM     48  C   UNL     1      -4.938  -7.072  -4.952  1.00  0.00     0.029 A 
ATOM     49  N   UNL     1      -6.554  -8.336  -5.845  1.00  0.00    -0.354 N 
ATOM     50  C   UNL     1     -10.444  -6.841  -6.641  1.00  0.00     0.074 A 
ATOM     51  C   UNL     1     -10.493  -5.408  -6.403  1.00  0.00     0.031 C 
ATOM     52  C   UNL     1      -4.419  -8.290  -5.206  1.00  0.00     0.029 A 
ATOM     53  C   UNL     1      -5.474  -9.180  -5.700  1.00  0.00     0.049 A 
ATOM     54  H   UNL     1      -7.394  -8.608  -6.281  1.00  0.00     0.167 HD
ATOM     55  C   UNL     1     -11.465  -7.569  -7.147  1.00  0.00     0.037 A 
ATOM     56  C   UNL     1      -5.358 -10.517  -5.880  1.00  0.00     0.037 A 
ATOM     57  C   UNL     1     -11.436  -8.989  -7.389  1.00  0.00     0.049 A 
ATOM     58  C   UNL     1      -6.551 -11.344  -6.314  1.00  0.00     0.074 A 
ATOM     59  C   UNL     1     -12.450  -9.804  -7.866  1.00  0.00     0.029 A 
ATOM     60  N   UNL     1     -10.339  -9.808  -7.174  1.00  0.00    -0.354 N 
ATOM     61  N   UNL     1      -7.761 -10.955  -6.631  1.00  0.00    -0.248 NA
ATOM     62  C   UNL     1      -6.363 -12.805  -6.397  1.00  0.00     0.031 C 
ATOM     63  C   UNL     1     -11.984 -11.122  -7.892  1.00  0.00     0.029 A 
ATOM     64  C   UNL     1     -10.661 -11.120  -7.489  1.00  0.00     0.049 A 
ATOM     65  H   UNL     1      -9.463  -9.503  -6.847  1.00  0.00     0.167 HD
ATOM     66  C   UNL     1      -8.459 -12.108  -6.983  1.00  0.00     0.074 A 
ATOM     67  C   UNL     1      -7.542 -13.216  -6.846  1.00  0.00     0.031 C 
ATOM     68  C   UNL     1      -9.748 -12.229  -7.386  1.00  0.00     0.037 A 
BRANCH  55  69
ATOM     69  C   UNL     1     -12.755  -6.849  -7.413  1.00  0.00     0.064 A 
ATOM     70  C   UNL     1     -12.905  -5.971  -8.494  1.00  0.00     0.173 A 
ATOM     71  C   UNL     1     -13.865  -7.071  -6.583  1.00  0.00     0.173 A 
ATOM     72  F   UNL     1     -11.868  -5.714  -9.306  1.00  0.00    -0.203 F 
ATOM     73  C   UNL     1     -14.115  -5.319  -8.720  1.00  0.00     0.198 A 
ATOM     74  C   UNL     1     -15.081  -6.442  -6.831  1.00  0.00     0.198 A 
ATOM     75  F   UNL     1     -13.773  -7.909  -5.540  1.00  0.00    -0.203 F 
ATOM     76  F   UNL     1     -14.224  -4.446  -9.731  1.00  0.00    -0.200 F 
ATOM     77  C   UNL     1     -15.203  -5.561  -7.894  1.00  0.00     0.200 A 
ATOM     78  F   UNL     1     -16.134  -6.688  -6.039  1.00  0.00    -0.200 F 
ATOM     79  F   UNL     1     -16.367  -4.936  -8.117  1.00  0.00    -0.200 F 
ENDBRANCH  55  69
BRANCH  56  80
ATOM     80  C   UNL     1      -4.071 -11.212  -5.577  1.00  0.00     0.064 A 
ATOM     81  C   UNL     1      -3.333 -11.852  -6.585  1.00  0.00     0.173 A 
ATOM     82  C   UNL     1      -3.595 -11.322  -4.261  1.00  0.00     0.173 A 
ATOM     83  F   UNL     1      -3.771 -11.826  -7.853  1.00  0.00    -0.203 F 
ATOM     84  C   UNL     1      -2.180 -12.580  -6.289  1.00  0.00     0.198 A 
ATOM     85  C   UNL     1      -2.425 -12.023  -3.970  1.00  0.00     0.198 A 
ATOM     86  F   UNL     1      -4.274 -10.758  -3.252  1.00  0.00    -0.203 F 
ATOM     87  F   UNL     1      -1.531 -13.230  -7.264  1.00  0.00    -0.200 F 
ATOM     88  C   UNL     1      -1.723 -12.658  -4.983  1.00  0.00     0.200 A 
ATOM     89  F   UNL     1      -1.987 -12.095  -2.706  1.00  0.00    -0.200 F 
ATOM     90  F   UNL     1      -0.616 -13.357  -4.697  1.00  0.00    -0.200 F 
ENDBRANCH  56  80
BRANCH  68  91
ATOM     91  C   UNL     1     -10.248 -13.591  -7.784  1.00  0.00     0.064 A 
ATOM     92  C   UNL     1     -10.505 -14.596  -6.840  1.00  0.00     0.173 A 
ATOM     93  C   UNL     1     -10.536 -13.873  -9.130  1.00  0.00     0.173 A 
ATOM     94  F   UNL     1     -10.238 -14.387  -5.542  1.00  0.00    -0.203 F 
ATOM     95  C   UNL     1     -11.014 -15.835  -7.229  1.00  0.00     0.198 A 
ATOM     96  C   UNL     1     -11.070 -15.102  -9.512  1.00  0.00     0.198 A 
ATOM     97  F   UNL     1     -10.319 -12.947 -10.075  1.00  0.00    -0.203 F 
ATOM     98  F   UNL     1     -11.218 -16.792  -6.313  1.00  0.00    -0.200 F 
ATOM     99  C   UNL     1     -11.303 -16.084  -8.562  1.00  0.00     0.200 A 
ATOM    100  F   UNL     1     -11.361 -15.334 -10.799  1.00  0.00    -0.200 F 
ATOM    101  F   UNL     1     -11.804 -17.271  -8.932  1.00  0.00    -0.200 F 
ENDBRANCH  68  91
ENDBRANCH  42  43
ENDBRANCH  35  37
ENDBRANCH  34  35
ENDBRANCH  33  34
ENDBRANCH  32  33
ENDBRANCH  31  32
ENDBRANCH  30  31
ENDBRANCH  29  30
ENDBRANCH  28  29
ENDBRANCH   1  28
TORSDOF 21
