REMARK SMILES O=C(OCCOCCOCCOCCOC(=O)[C@H]1C=NC2=C(CCCC2)C1=O)c1ccc(-c2c3nc(c(-c4c(F)c(F)c(F)c(F)c4F)c4ccc([nH]4)c(-c4c(F)c(F)c(F)c(F)c4F)c4nc(c(-c5c(F)c(F)c(F)c(F)c5F)c5ccc2[nH]5)C=C4)C=C3)cc1
REMARK SMILES IDX 8 1 7 2 6 3 5 4 4 5 3 6 2 7 1 8 29 9 30 10 91 11 31 12 90 13
REMARK SMILES IDX 32 14 33 15 34 16 84 17 35 18 89 19 83 20 85 21 36 22 88 23
REMARK SMILES IDX 82 24 81 25 37 27 69 28 49 29 68 30 50 31 53 32 67 33 86 34
REMARK SMILES IDX 51 35 52 36 66 38 87 39 54 40 38 41 39 42 47 43 40 44 41 45
REMARK SMILES IDX 45 46 48 47 42 48 43 49 46 50 44 51 70 52 71 53 79 54 72 55
REMARK SMILES IDX 73 56 77 57 80 58 74 59 75 60 78 61 76 62 55 63 56 64 64 65
REMARK SMILES IDX 57 66 58 67 62 68 65 69 59 70 60 71 63 72 61 73 9 74 10 75
REMARK SMILES IDX 11 76 12 77 13 78 14 79 15 80 16 81 17 82 18 83 19 84 27 85
REMARK SMILES IDX 20 86 22 87 28 88 21 89 23 90 26 91 24 92 25 93
REMARK H PARENT 85 26 53 37
REMARK Flexibility Score: inf
ROOT
ATOM      1  C   UNL     1       1.938  -0.276   2.380  1.00  0.00     0.188 C 
ENDROOT
BRANCH   1   2
ATOM      2  C   UNL     1       2.347   0.650   1.244  1.00  0.00     0.188 C 
BRANCH   2   3
ATOM      3  O   UNL     1       3.644   0.241   0.801  1.00  0.00    -0.376 OA
BRANCH   3   4
ATOM      4  C   UNL     1       4.455   1.286   0.274  1.00  0.00     0.202 C 
BRANCH   4   5
ATOM      5  C   UNL     1       4.281   1.473  -1.232  1.00  0.00     0.261 C 
BRANCH   5   6
ATOM      6  O   UNL     1       2.929   1.237  -1.654  1.00  0.00    -0.460 OA
BRANCH   6   7
ATOM      7  C   UNL     1       2.380   0.073  -2.084  1.00  0.00     0.338 C 
ATOM      8  O   UNL     1       1.205   0.088  -2.452  1.00  0.00    -0.246 OA
BRANCH   7   9
ATOM      9  C   UNL     1       3.109  -1.235  -2.162  1.00  0.00     0.060 A 
ATOM     10  C   UNL     1       4.220  -1.597  -1.398  1.00  0.00     0.016 A 
ATOM     11  C   UNL     1       2.578  -2.206  -3.032  1.00  0.00     0.016 A 
ATOM     12  C   UNL     1       4.812  -2.846  -1.507  1.00  0.00     0.010 A 
ATOM     13  C   UNL     1       3.162  -3.473  -3.148  1.00  0.00     0.010 A 
ATOM     14  C   UNL     1       4.296  -3.783  -2.393  1.00  0.00    -0.014 A 
BRANCH  14  15
ATOM     15  C   UNL     1       5.087  -5.004  -2.620  1.00  0.00     0.031 A 
ATOM     16  C   UNL     1       5.969  -5.044  -3.829  1.00  0.00     0.074 A 
ATOM     17  C   UNL     1       5.130  -5.961  -1.677  1.00  0.00     0.049 A 
ATOM     18  N   UNL     1       6.718  -6.012  -4.279  1.00  0.00    -0.248 NA
ATOM     19  C   UNL     1       6.035  -3.808  -4.631  1.00  0.00     0.031 C 
ATOM     20  C   UNL     1       4.426  -5.914  -0.394  1.00  0.00     0.029 A 
ATOM     21  N   UNL     1       5.820  -7.143  -1.637  1.00  0.00    -0.354 N 
ATOM     22  C   UNL     1       7.311  -5.518  -5.432  1.00  0.00     0.074 A 
ATOM     23  C   UNL     1       6.855  -4.159  -5.608  1.00  0.00     0.031 C 
ATOM     24  C   UNL     1       4.726  -7.018   0.310  1.00  0.00     0.029 A 
ATOM     25  C   UNL     1       5.582  -7.877  -0.500  1.00  0.00     0.049 A 
ATOM     26  H   UNL     1       6.428  -7.438  -2.353  1.00  0.00     0.167 HD
ATOM     27  C   UNL     1       8.149  -6.163  -6.273  1.00  0.00     0.037 A 
ATOM     28  C   UNL     1       5.980  -9.124  -0.189  1.00  0.00     0.037 A 
ATOM     29  C   UNL     1       8.587  -7.514  -6.059  1.00  0.00     0.049 A 
ATOM     30  C   UNL     1       6.828  -9.859  -1.196  1.00  0.00     0.074 A 
ATOM     31  C   UNL     1       9.377  -8.309  -6.865  1.00  0.00     0.029 A 
ATOM     32  N   UNL     1       8.261  -8.267  -4.938  1.00  0.00    -0.354 N 
ATOM     33  N   UNL     1       7.323  -9.426  -2.333  1.00  0.00    -0.248 NA
ATOM     34  C   UNL     1       7.151 -11.259  -0.896  1.00  0.00     0.031 C 
ATOM     35  C   UNL     1       9.494  -9.560  -6.250  1.00  0.00     0.029 A 
ATOM     36  C   UNL     1       8.815  -9.529  -5.040  1.00  0.00     0.049 A 
ATOM     37  H   UNL     1       7.716  -7.949  -4.182  1.00  0.00     0.167 HD
ATOM     38  C   UNL     1       8.020 -10.493  -2.880  1.00  0.00     0.074 A 
ATOM     39  C   UNL     1       7.908 -11.586  -1.933  1.00  0.00     0.031 C 
ATOM     40  C   UNL     1       8.680 -10.577  -4.061  1.00  0.00     0.037 A 
BRANCH  27  41
ATOM     41  C   UNL     1       8.556  -5.444  -7.522  1.00  0.00     0.064 A 
ATOM     42  C   UNL     1       9.486  -4.395  -7.511  1.00  0.00     0.173 A 
ATOM     43  C   UNL     1       7.981  -5.801  -8.751  1.00  0.00     0.173 A 
ATOM     44  F   UNL     1      10.037  -3.992  -6.356  1.00  0.00    -0.203 F 
ATOM     45  C   UNL     1       9.813  -3.718  -8.685  1.00  0.00     0.198 A 
ATOM     46  C   UNL     1       8.326  -5.138  -9.925  1.00  0.00     0.198 A 
ATOM     47  F   UNL     1       7.075  -6.789  -8.811  1.00  0.00    -0.203 F 
ATOM     48  F   UNL     1      10.667  -2.686  -8.646  1.00  0.00    -0.200 F 
ATOM     49  C   UNL     1       9.237  -4.093  -9.890  1.00  0.00     0.200 A 
ATOM     50  F   UNL     1       7.766  -5.500 -11.087  1.00  0.00    -0.200 F 
ATOM     51  F   UNL     1       9.548  -3.438 -11.017  1.00  0.00    -0.200 F 
ENDBRANCH  27  41
BRANCH  28  52
ATOM     52  C   UNL     1       5.518  -9.782   1.065  1.00  0.00     0.064 A 
ATOM     53  C   UNL     1       6.422 -10.197   2.053  1.00  0.00     0.173 A 
ATOM     54  C   UNL     1       4.156 -10.052   1.282  1.00  0.00     0.173 A 
ATOM     55  F   UNL     1       7.737  -9.991   1.887  1.00  0.00    -0.203 F 
ATOM     56  C   UNL     1       5.987 -10.876   3.192  1.00  0.00     0.198 A 
ATOM     57  C   UNL     1       3.719 -10.698   2.436  1.00  0.00     0.198 A 
ATOM     58  F   UNL     1       3.244  -9.688   0.368  1.00  0.00    -0.203 F 
ATOM     59  F   UNL     1       6.879 -11.314   4.090  1.00  0.00    -0.200 F 
ATOM     60  C   UNL     1       4.635 -11.121   3.385  1.00  0.00     0.200 A 
ATOM     61  F   UNL     1       2.411 -10.921   2.622  1.00  0.00    -0.200 F 
ATOM     62  F   UNL     1       4.219 -11.777   4.477  1.00  0.00    -0.200 F 
ENDBRANCH  28  52
BRANCH  40  63
ATOM     63  C   UNL     1       9.340 -11.884  -4.373  1.00  0.00     0.064 A 
ATOM     64  C   UNL     1       8.591 -13.004  -4.761  1.00  0.00     0.173 A 
ATOM     65  C   UNL     1      10.737 -11.998  -4.338  1.00  0.00     0.173 A 
ATOM     66  F   UNL     1       7.251 -12.942  -4.793  1.00  0.00    -0.203 F 
ATOM     67  C   UNL     1       9.219 -14.201  -5.087  1.00  0.00     0.198 A 
ATOM     68  C   UNL     1      11.362 -13.188  -4.692  1.00  0.00     0.198 A 
ATOM     69  F   UNL     1      11.492 -10.949  -3.980  1.00  0.00    -0.203 F 
ATOM     70  F   UNL     1       8.484 -15.272  -5.417  1.00  0.00    -0.200 F 
ATOM     71  C   UNL     1      10.603 -14.289  -5.061  1.00  0.00     0.200 A 
ATOM     72  F   UNL     1      12.700 -13.269  -4.681  1.00  0.00    -0.200 F 
ATOM     73  F   UNL     1      11.207 -15.440  -5.387  1.00  0.00    -0.200 F 
ENDBRANCH  40  63
ENDBRANCH  14  15
ENDBRANCH   7   9
ENDBRANCH   6   7
ENDBRANCH   5   6
ENDBRANCH   4   5
ENDBRANCH   3   4
ENDBRANCH   2   3
ENDBRANCH   1   2
BRANCH   1  74
ATOM     74  O   UNL     1       2.652  -0.028   3.587  1.00  0.00    -0.377 OA
BRANCH  74  75
ATOM     75  C   UNL     1       4.066  -0.087   3.512  1.00  0.00     0.188 C 
BRANCH  75  76
ATOM     76  C   UNL     1       4.785  -1.436   3.391  1.00  0.00     0.188 C 
BRANCH  76  77
ATOM     77  O   UNL     1       4.049  -2.646   3.386  1.00  0.00    -0.376 OA
BRANCH  77  78
ATOM     78  C   UNL     1       3.038  -2.854   4.368  1.00  0.00     0.202 C 
BRANCH  78  79
ATOM     79  C   UNL     1       3.345  -2.539   5.840  1.00  0.00     0.261 C 
BRANCH  79  80
ATOM     80  O   UNL     1       3.660  -1.150   6.073  1.00  0.00    -0.462 OA
BRANCH  80  81
ATOM     81  C   UNL     1       4.568  -0.891   7.052  1.00  0.00     0.322 C 
ATOM     82  O   UNL     1       5.042  -1.748   7.775  1.00  0.00    -0.251 OA
BRANCH  81  83
ATOM     83  C   UNL     1       5.111   0.525   7.050  1.00  0.00     0.212 C 
ATOM     84  C   UNL     1       6.457   0.526   6.397  1.00  0.00     0.107 C 
ATOM     85  C   UNL     1       4.221   1.626   6.550  1.00  0.00     0.180 C 
ATOM     86  N   UNL     1       6.872   1.373   5.508  1.00  0.00    -0.264 NA
ATOM     87  C   UNL     1       4.790   2.596   5.560  1.00  0.00     0.018 C 
ATOM     88  O   UNL     1       3.072   1.775   6.966  1.00  0.00    -0.293 OA
ATOM     89  C   UNL     1       6.042   2.390   5.110  1.00  0.00     0.047 C 
ATOM     90  C   UNL     1       3.911   3.721   5.084  1.00  0.00     0.041 C 
ATOM     91  C   UNL     1       6.651   3.285   4.044  1.00  0.00     0.056 C 
ATOM     92  C   UNL     1       4.691   4.828   4.367  1.00  0.00     0.005 C 
ATOM     93  C   UNL     1       5.668   4.237   3.361  1.00  0.00     0.007 C 
ENDBRANCH  81  83
ENDBRANCH  80  81
ENDBRANCH  79  80
ENDBRANCH  78  79
ENDBRANCH  77  78
ENDBRANCH  76  77
ENDBRANCH  75  76
ENDBRANCH  74  75
ENDBRANCH   1  74
TORSDOF 20
