REMARK SMILES CC1=Nc2nc(NC(=O)CCC(=O)OCCOCCOCCOCCOC(=O)c3ccc(-c4c5nc(c(-c6c(F)c(F)c(F)c(F)c6F)c6ccc([nH]6)c(-c6c(F)c(F)c(F)c(F)c6F)c6nc(c(-c7c(F)c(F)c(F)c(F)c7F)c7ccc4[nH]7)C=C6)C=C5)cc3)nn2[C@@H](c2ccc(Cl)cc2)C1
REMARK SMILES IDX 19 1 18 2 17 3 16 4 15 5 14 6 12 7 13 8 11 9 10 10 8 11 7 12
REMARK SMILES IDX 9 14 6 15 1 16 2 17 3 18 102 19 4 20 94 21 5 22 93 23 92 24
REMARK SMILES IDX 95 25 96 26 101 27 97 28 100 29 98 30 99 31 20 32 21 33
REMARK SMILES IDX 22 34 23 35 24 36 25 37 26 38 27 39 28 40 29 41 30 42 91 43
REMARK SMILES IDX 31 44 90 45 32 46 33 47 34 48 84 49 35 50 89 51 83 52 85 53
REMARK SMILES IDX 36 54 88 55 82 56 81 57 37 59 69 60 49 61 68 62 50 63 53 64
REMARK SMILES IDX 67 65 86 66 51 67 52 68 66 70 87 71 54 72 38 73 39 74 47 75
REMARK SMILES IDX 40 76 41 77 45 78 48 79 42 80 43 81 46 82 44 83 70 84 71 85
REMARK SMILES IDX 79 86 72 87 73 88 77 89 80 90 74 91 75 92 78 93 76 94 55 95
REMARK SMILES IDX 56 96 64 97 57 98 58 99 62 100 65 101 59 102 60 103 63 104
REMARK SMILES IDX 61 105
REMARK H PARENT 7 13 85 58 53 69
REMARK Flexibility Score: inf
ROOT
ATOM      1  C   UNL     1      -1.611  -6.272  -0.879  1.00  0.00     0.188 C 
ENDROOT
BRANCH   1   2
ATOM      2  C   UNL     1      -0.407  -6.040  -1.944  1.00  0.00     0.188 C 
BRANCH   2   3
ATOM      3  O   UNL     1      -0.515  -6.015  -3.400  1.00  0.00    -0.376 OA
BRANCH   3   4
ATOM      4  C   UNL     1      -0.321  -4.854  -4.252  1.00  0.00     0.202 C 
BRANCH   4   5
ATOM      5  C   UNL     1      -0.097  -5.093  -5.744  1.00  0.00     0.261 C 
BRANCH   5   6
ATOM      6  O   UNL     1      -1.303  -5.661  -6.242  1.00  0.00    -0.463 OA
BRANCH   6   7
ATOM      7  C   UNL     1      -1.441  -6.880  -5.679  1.00  0.00     0.306 C 
ATOM      8  O   UNL     1      -0.611  -7.772  -5.823  1.00  0.00    -0.252 OA
BRANCH   7   9
ATOM      9  C   UNL     1      -2.703  -7.006  -4.851  1.00  0.00     0.132 C 
BRANCH   9  10
ATOM     10  C   UNL     1      -3.254  -5.939  -3.842  1.00  0.00     0.112 C 
BRANCH  10  11
ATOM     11  C   UNL     1      -3.536  -4.425  -4.044  1.00  0.00     0.227 C 
ATOM     12  N   UNL     1      -3.028  -3.311  -3.395  1.00  0.00    -0.293 N 
ATOM     13  H   UNL     1      -3.675  -2.575  -3.489  1.00  0.00     0.173 HD
ATOM     14  O   UNL     1      -4.460  -4.166  -4.840  1.00  0.00    -0.275 OA
BRANCH  12  15
ATOM     15  C   UNL     1      -1.930  -2.844  -2.653  1.00  0.00     0.250 A 
ATOM     16  C   UNL     1       1.292   1.060   0.189  1.00  0.00     0.062 C 
ATOM     17  C   UNL     1       0.763  -0.221  -0.403  1.00  0.00     0.021 C 
ATOM     18  N   UNL     1      -0.223  -0.150  -1.240  1.00  0.00    -0.221 NA
ATOM     19  C   UNL     1       1.387  -1.495   0.106  1.00  0.00     0.083 C 
ATOM     20  C   UNL     1      -0.711  -1.296  -1.757  1.00  0.00     0.250 A 
ATOM     21  C   UNL     1       1.109  -2.744  -0.737  1.00  0.00     0.147 C 
ATOM     22  N   UNL     1      -1.862  -1.500  -2.385  1.00  0.00    -0.174 NA
ATOM     23  N   UNL     1      -0.036  -2.496  -1.673  1.00  0.00    -0.220 N 
ATOM     24  N   UNL     1      -0.849  -3.467  -2.165  1.00  0.00    -0.130 NA
BRANCH  21  25
ATOM     25  C   UNL     1       2.411  -3.471  -1.187  1.00  0.00    -0.023 A 
ATOM     26  C   UNL     1       2.522  -4.229  -2.348  1.00  0.00     0.007 A 
ATOM     27  C   UNL     1       3.529  -3.582  -0.334  1.00  0.00     0.007 A 
ATOM     28  C   UNL     1       3.642  -4.979  -2.725  1.00  0.00     0.021 A 
ATOM     29  C   UNL     1       4.684  -4.313  -0.693  1.00  0.00     0.021 A 
ATOM     30  C   UNL     1       4.742  -4.997  -1.900  1.00  0.00     0.041 A 
ATOM     31  Cl  UNL     1       6.134  -5.892  -2.352  1.00  0.00    -0.084 Cl
ENDBRANCH  21  25
ENDBRANCH  12  15
ENDBRANCH  10  11
ENDBRANCH   9  10
ENDBRANCH   7   9
ENDBRANCH   6   7
ENDBRANCH   5   6
ENDBRANCH   4   5
ENDBRANCH   3   4
ENDBRANCH   2   3
ENDBRANCH   1   2
BRANCH   1  32
ATOM     32  O   UNL     1      -2.555  -5.291  -0.348  1.00  0.00    -0.377 OA
BRANCH  32  33
ATOM     33  C   UNL     1      -2.006  -4.106   0.220  1.00  0.00     0.188 C 
BRANCH  33  34
ATOM     34  C   UNL     1      -2.330  -3.526   1.597  1.00  0.00     0.188 C 
BRANCH  34  35
ATOM     35  O   UNL     1      -1.776  -4.177   2.729  1.00  0.00    -0.376 OA
BRANCH  35  36
ATOM     36  C   UNL     1      -2.047  -5.564   2.862  1.00  0.00     0.202 C 
BRANCH  36  37
ATOM     37  C   UNL     1      -3.455  -5.947   3.302  1.00  0.00     0.261 C 
BRANCH  37  38
ATOM     38  O   UNL     1      -4.459  -5.370   2.474  1.00  0.00    -0.460 OA
BRANCH  38  39
ATOM     39  C   UNL     1      -4.966  -4.226   2.960  1.00  0.00     0.338 C 
ATOM     40  O   UNL     1      -4.629  -3.644   4.003  1.00  0.00    -0.246 OA
BRANCH  39  41
ATOM     41  C   UNL     1      -6.026  -3.716   2.090  1.00  0.00     0.060 A 
ATOM     42  C   UNL     1      -6.484  -2.426   2.377  1.00  0.00     0.016 A 
ATOM     43  C   UNL     1      -6.774  -4.627   1.335  1.00  0.00     0.016 A 
ATOM     44  C   UNL     1      -7.823  -2.175   2.221  1.00  0.00     0.010 A 
ATOM     45  C   UNL     1      -8.118  -4.379   1.189  1.00  0.00     0.010 A 
ATOM     46  C   UNL     1      -8.633  -3.217   1.766  1.00  0.00    -0.014 A 
BRANCH  46  47
ATOM     47  C   UNL     1     -10.039  -3.132   2.098  1.00  0.00     0.031 A 
ATOM     48  C   UNL     1     -10.857  -2.298   1.205  1.00  0.00     0.074 A 
ATOM     49  C   UNL     1     -10.542  -3.825   3.140  1.00  0.00     0.049 A 
ATOM     50  N   UNL     1     -11.592  -1.285   1.521  1.00  0.00    -0.248 NA
ATOM     51  C   UNL     1     -10.790  -2.587  -0.233  1.00  0.00     0.031 C 
ATOM     52  C   UNL     1      -9.878  -4.874   3.923  1.00  0.00     0.029 A 
ATOM     53  N   UNL     1     -11.808  -3.817   3.642  1.00  0.00    -0.354 N 
ATOM     54  C   UNL     1     -12.218  -0.904   0.343  1.00  0.00     0.074 A 
ATOM     55  C   UNL     1     -11.598  -1.649  -0.723  1.00  0.00     0.031 C 
ATOM     56  C   UNL     1     -10.809  -5.550   4.631  1.00  0.00     0.029 A 
ATOM     57  C   UNL     1     -12.102  -4.916   4.434  1.00  0.00     0.049 A 
ATOM     58  H   UNL     1     -12.454  -3.098   3.459  1.00  0.00     0.167 HD
ATOM     59  C   UNL     1     -13.364  -0.176   0.358  1.00  0.00     0.037 A 
ATOM     60  C   UNL     1     -13.338  -5.328   4.807  1.00  0.00     0.037 A 
ATOM     61  C   UNL     1     -13.531   0.547   1.590  1.00  0.00     0.049 A 
ATOM     62  C   UNL     1     -14.268  -4.182   4.644  1.00  0.00     0.074 A 
ATOM     63  C   UNL     1     -12.781   1.494   2.262  1.00  0.00     0.029 A 
ATOM     64  N   UNL     1     -14.460   0.105   2.497  1.00  0.00    -0.354 N 
ATOM     65  N   UNL     1     -14.279  -3.123   5.404  1.00  0.00    -0.248 NA
ATOM     66  C   UNL     1     -14.957  -4.038   3.369  1.00  0.00     0.031 C 
ATOM     67  C   UNL     1     -12.994   1.233   3.647  1.00  0.00     0.029 A 
ATOM     68  C   UNL     1     -13.876   0.157   3.737  1.00  0.00     0.049 A 
ATOM     69  H   UNL     1     -15.377  -0.195   2.296  1.00  0.00     0.167 HD
ATOM     70  C   UNL     1     -14.581  -2.078   4.544  1.00  0.00     0.074 A 
ATOM     71  C   UNL     1     -15.107  -2.713   3.342  1.00  0.00     0.031 C 
ATOM     72  C   UNL     1     -14.108  -0.819   4.775  1.00  0.00     0.037 A 
BRANCH  59  73
ATOM     73  C   UNL     1     -14.481  -0.410  -0.619  1.00  0.00     0.064 A 
ATOM     74  C   UNL     1     -15.531   0.520  -0.706  1.00  0.00     0.173 A 
ATOM     75  C   UNL     1     -14.700  -1.649  -1.263  1.00  0.00     0.173 A 
ATOM     76  F   UNL     1     -15.441   1.710  -0.094  1.00  0.00    -0.203 F 
ATOM     77  C   UNL     1     -16.733   0.210  -1.346  1.00  0.00     0.198 A 
ATOM     78  C   UNL     1     -15.876  -1.932  -1.952  1.00  0.00     0.198 A 
ATOM     79  F   UNL     1     -13.839  -2.669  -1.155  1.00  0.00    -0.203 F 
ATOM     80  F   UNL     1     -17.753   1.078  -1.301  1.00  0.00    -0.200 F 
ATOM     81  C   UNL     1     -16.904  -1.015  -1.968  1.00  0.00     0.200 A 
ATOM     82  F   UNL     1     -16.030  -3.133  -2.527  1.00  0.00    -0.200 F 
ATOM     83  F   UNL     1     -18.075  -1.333  -2.534  1.00  0.00    -0.200 F 
ENDBRANCH  59  73
BRANCH  60  84
ATOM     84  C   UNL     1     -13.816  -6.717   5.002  1.00  0.00     0.064 A 
ATOM     85  C   UNL     1     -15.038  -6.974   5.644  1.00  0.00     0.173 A 
ATOM     86  C   UNL     1     -13.221  -7.808   4.336  1.00  0.00     0.173 A 
ATOM     87  F   UNL     1     -15.697  -5.982   6.262  1.00  0.00    -0.203 F 
ATOM     88  C   UNL     1     -15.639  -8.236   5.602  1.00  0.00     0.198 A 
ATOM     89  C   UNL     1     -13.812  -9.071   4.310  1.00  0.00     0.198 A 
ATOM     90  F   UNL     1     -12.103  -7.654   3.614  1.00  0.00    -0.203 F 
ATOM     91  F   UNL     1     -16.839  -8.423   6.168  1.00  0.00    -0.200 F 
ATOM     92  C   UNL     1     -15.029  -9.281   4.929  1.00  0.00     0.200 A 
ATOM     93  F   UNL     1     -13.225 -10.065   3.628  1.00  0.00    -0.200 F 
ATOM     94  F   UNL     1     -15.630 -10.476   4.841  1.00  0.00    -0.200 F 
ENDBRANCH  60  84
BRANCH  72  95
ATOM     95  C   UNL     1     -13.543  -0.526   6.135  1.00  0.00     0.064 A 
ATOM     96  C   UNL     1     -12.429  -1.188   6.681  1.00  0.00     0.173 A 
ATOM     97  C   UNL     1     -14.084   0.538   6.870  1.00  0.00     0.173 A 
ATOM     98  F   UNL     1     -11.784  -2.138   5.990  1.00  0.00    -0.203 F 
ATOM     99  C   UNL     1     -11.928  -0.844   7.935  1.00  0.00     0.198 A 
ATOM    100  C   UNL     1     -13.556   0.906   8.104  1.00  0.00     0.198 A 
ATOM    101  F   UNL     1     -15.109   1.248   6.371  1.00  0.00    -0.203 F 
ATOM    102  F   UNL     1     -10.884  -1.511   8.448  1.00  0.00    -0.200 F 
ATOM    103  C   UNL     1     -12.490   0.205   8.644  1.00  0.00     0.200 A 
ATOM    104  F   UNL     1     -14.069   1.955   8.763  1.00  0.00    -0.200 F 
ATOM    105  F   UNL     1     -11.989   0.556   9.836  1.00  0.00    -0.200 F 
ENDBRANCH  72  95
ENDBRANCH  46  47
ENDBRANCH  39  41
ENDBRANCH  38  39
ENDBRANCH  37  38
ENDBRANCH  36  37
ENDBRANCH  35  36
ENDBRANCH  34  35
ENDBRANCH  33  34
ENDBRANCH  32  33
ENDBRANCH   1  32
TORSDOF 24
