REMARK SMILES O=C(OCCOCCOCCOCCOC(=O)[C@@H]1CSCN1C(=O)c1cccc(Cl)c1)c1ccc(-c2c3nc(c(-c4c(F)c(F)c(F)c(F)c4F)c4ccc([nH]4)c(-c4c(F)c(F)c(F)c(F)c4F)c4nc(c(-c5c(F)c(F)c(F)c(F)c5F)c5ccc2[nH]5)C=C4)C=C3)cc1
REMARK SMILES IDX 9 1 8 2 7 3 6 4 5 5 4 6 3 7 2 8 1 9 32 10 33 11 94 12 34 13
REMARK SMILES IDX 93 14 35 15 36 16 37 17 87 18 38 19 92 20 86 21 88 22 39 23
REMARK SMILES IDX 91 24 85 25 84 26 40 28 72 29 52 30 71 31 53 32 56 33 70 34
REMARK SMILES IDX 89 35 54 36 55 37 69 39 90 40 57 41 41 42 42 43 50 44 43 45
REMARK SMILES IDX 44 46 48 47 51 48 45 49 46 50 49 51 47 52 73 53 74 54 82 55
REMARK SMILES IDX 75 56 76 57 80 58 83 59 77 60 78 61 81 62 79 63 58 64 59 65
REMARK SMILES IDX 67 66 60 67 61 68 65 69 68 70 62 71 63 72 66 73 64 74 10 75
REMARK SMILES IDX 11 76 12 77 13 78 14 79 15 80 16 81 17 82 18 83 19 84 22 85
REMARK SMILES IDX 20 86 21 87 23 88 24 89 25 90 26 91 31 92 27 93 29 94 28 95
REMARK SMILES IDX 30 96
REMARK H PARENT 88 27 56 38
REMARK Flexibility Score: inf
ROOT
ATOM      1  O   UNL     1       5.408  -3.696   1.482  1.00  0.00    -0.377 OA
ENDROOT
BRANCH   1   2
ATOM      2  C   UNL     1       6.059  -2.800   2.375  1.00  0.00     0.188 C 
BRANCH   2   3
ATOM      3  C   UNL     1       5.828  -3.115   3.849  1.00  0.00     0.188 C 
BRANCH   3   4
ATOM      4  O   UNL     1       6.391  -4.380   4.156  1.00  0.00    -0.376 OA
BRANCH   4   5
ATOM      5  C   UNL     1       5.809  -5.221   5.142  1.00  0.00     0.202 C 
BRANCH   5   6
ATOM      6  C   UNL     1       5.439  -4.550   6.456  1.00  0.00     0.261 C 
BRANCH   6   7
ATOM      7  O   UNL     1       6.614  -4.113   7.156  1.00  0.00    -0.460 OA
BRANCH   7   8
ATOM      8  C   UNL     1       7.266  -3.017   6.690  1.00  0.00     0.338 C 
ATOM      9  O   UNL     1       6.848  -1.886   6.598  1.00  0.00    -0.246 OA
BRANCH   8  10
ATOM     10  C   UNL     1       8.657  -3.458   6.488  1.00  0.00     0.060 A 
ATOM     11  C   UNL     1       8.958  -4.391   5.492  1.00  0.00     0.016 A 
ATOM     12  C   UNL     1       9.615  -3.091   7.422  1.00  0.00     0.016 A 
ATOM     13  C   UNL     1      10.116  -5.119   5.539  1.00  0.00     0.010 A 
ATOM     14  C   UNL     1      10.845  -3.739   7.398  1.00  0.00     0.010 A 
ATOM     15  C   UNL     1      11.065  -4.794   6.492  1.00  0.00    -0.014 A 
BRANCH  15  16
ATOM     16  C   UNL     1      12.216  -5.688   6.622  1.00  0.00     0.031 A 
ATOM     17  C   UNL     1      12.318  -6.492   7.872  1.00  0.00     0.074 A 
ATOM     18  C   UNL     1      13.066  -5.832   5.594  1.00  0.00     0.049 A 
ATOM     19  N   UNL     1      13.342  -7.126   8.365  1.00  0.00    -0.248 NA
ATOM     20  C   UNL     1      11.097  -6.577   8.693  1.00  0.00     0.031 C 
ATOM     21  C   UNL     1      12.910  -5.221   4.270  1.00  0.00     0.029 A 
ATOM     22  N   UNL     1      14.228  -6.542   5.499  1.00  0.00    -0.354 N 
ATOM     23  C   UNL     1      12.918  -7.604   9.595  1.00  0.00     0.074 A 
ATOM     24  C   UNL     1      11.538  -7.212   9.765  1.00  0.00     0.031 C 
ATOM     25  C   UNL     1      13.943  -5.580   3.496  1.00  0.00     0.029 A 
ATOM     26  C   UNL     1      14.883  -6.333   4.312  1.00  0.00     0.049 A 
ATOM     27  H   UNL     1      14.560  -7.140   6.207  1.00  0.00     0.167 HD
ATOM     28  C   UNL     1      13.658  -8.280  10.502  1.00  0.00     0.037 A 
ATOM     29  C   UNL     1      16.148  -6.637   3.974  1.00  0.00     0.037 A 
ATOM     30  C   UNL     1      15.023  -8.649  10.244  1.00  0.00     0.049 A 
ATOM     31  C   UNL     1      16.986  -7.317   5.019  1.00  0.00     0.074 A 
ATOM     32  C   UNL     1      15.926  -9.289  11.067  1.00  0.00     0.029 A 
ATOM     33  N   UNL     1      15.677  -8.400   9.038  1.00  0.00    -0.354 N 
ATOM     34  N   UNL     1      16.649  -7.674   6.238  1.00  0.00    -0.248 NA
ATOM     35  C   UNL     1      18.374  -7.616   4.663  1.00  0.00     0.031 C 
ATOM     36  C   UNL     1      17.141  -9.378  10.377  1.00  0.00     0.029 A 
ATOM     37  C   UNL     1      16.978  -8.856   9.100  1.00  0.00     0.049 A 
ATOM     38  H   UNL     1      15.269  -7.963   8.256  1.00  0.00     0.167 HD
ATOM     39  C   UNL     1      17.774  -8.259   6.794  1.00  0.00     0.074 A 
ATOM     40  C   UNL     1      18.805  -8.209   5.770  1.00  0.00     0.031 C 
ATOM     41  C   UNL     1      17.948  -8.790   8.030  1.00  0.00     0.037 A 
BRANCH  28  42
ATOM     42  C   UNL     1      13.034  -8.522  11.845  1.00  0.00     0.064 A 
ATOM     43  C   UNL     1      11.930  -9.370  12.025  1.00  0.00     0.173 A 
ATOM     44  C   UNL     1      13.493  -7.806  12.963  1.00  0.00     0.173 A 
ATOM     45  F   UNL     1      11.428 -10.055  10.986  1.00  0.00    -0.203 F 
ATOM     46  C   UNL     1      11.277  -9.448  13.255  1.00  0.00     0.198 A 
ATOM     47  C   UNL     1      12.860  -7.914  14.198  1.00  0.00     0.198 A 
ATOM     48  F   UNL     1      14.538  -6.973  12.850  1.00  0.00    -0.203 F 
ATOM     49  F   UNL     1      10.168 -10.191  13.376  1.00  0.00    -0.200 F 
ATOM     50  C   UNL     1      11.742  -8.720  14.339  1.00  0.00     0.200 A 
ATOM     51  F   UNL     1      13.314  -7.211  15.245  1.00  0.00    -0.200 F 
ATOM     52  F   UNL     1      11.098  -8.777  15.514  1.00  0.00    -0.200 F 
ENDBRANCH  28  42
BRANCH  29  53
ATOM     53  C   UNL     1      16.675  -6.213   2.652  1.00  0.00     0.064 A 
ATOM     54  C   UNL     1      16.992  -7.150   1.662  1.00  0.00     0.173 A 
ATOM     55  C   UNL     1      16.802  -4.851   2.323  1.00  0.00     0.173 A 
ATOM     56  F   UNL     1      16.898  -8.460   1.927  1.00  0.00    -0.203 F 
ATOM     57  C   UNL     1      17.413  -6.744   0.395  1.00  0.00     0.198 A 
ATOM     58  C   UNL     1      17.193  -4.447   1.048  1.00  0.00     0.198 A 
ATOM     59  F   UNL     1      16.503  -3.909   3.230  1.00  0.00    -0.203 F 
ATOM     60  F   UNL     1      17.730  -7.662  -0.528  1.00  0.00    -0.200 F 
ATOM     61  C   UNL     1      17.502  -5.395   0.086  1.00  0.00     0.200 A 
ATOM     62  F   UNL     1      17.253  -3.142   0.749  1.00  0.00    -0.200 F 
ATOM     63  F   UNL     1      17.885  -5.008  -1.139  1.00  0.00    -0.200 F 
ENDBRANCH  29  53
BRANCH  41  64
ATOM     64  C   UNL     1      19.279  -9.410   8.315  1.00  0.00     0.064 A 
ATOM     65  C   UNL     1      20.411  -8.630   8.583  1.00  0.00     0.173 A 
ATOM     66  C   UNL     1      19.386 -10.804   8.427  1.00  0.00     0.173 A 
ATOM     67  F   UNL     1      20.354  -7.294   8.471  1.00  0.00    -0.203 F 
ATOM     68  C   UNL     1      21.610  -9.228   8.954  1.00  0.00     0.198 A 
ATOM     69  C   UNL     1      20.576 -11.396   8.828  1.00  0.00     0.198 A 
ATOM     70  F   UNL     1      18.322 -11.585   8.185  1.00  0.00    -0.203 F 
ATOM     71  F   UNL     1      22.690  -8.470   9.186  1.00  0.00    -0.200 F 
ATOM     72  C   UNL     1      21.687 -10.607   9.091  1.00  0.00     0.200 A 
ATOM     73  F   UNL     1      20.644 -12.725   8.979  1.00  0.00    -0.200 F 
ATOM     74  F   UNL     1      22.835 -11.179   9.479  1.00  0.00    -0.200 F 
ENDBRANCH  41  64
ENDBRANCH  15  16
ENDBRANCH   8  10
ENDBRANCH   7   8
ENDBRANCH   6   7
ENDBRANCH   5   6
ENDBRANCH   4   5
ENDBRANCH   3   4
ENDBRANCH   2   3
ENDBRANCH   1   2
BRANCH   1  75
ATOM     75  C   UNL     1       5.611  -5.084   1.718  1.00  0.00     0.188 C 
BRANCH  75  76
ATOM     76  C   UNL     1       7.019  -5.687   1.631  1.00  0.00     0.188 C 
BRANCH  76  77
ATOM     77  O   UNL     1       8.065  -4.735   1.554  1.00  0.00    -0.376 OA
BRANCH  77  78
ATOM     78  C   UNL     1       8.599  -4.555   0.246  1.00  0.00     0.202 C 
BRANCH  78  79
ATOM     79  C   UNL     1       7.741  -3.739  -0.746  1.00  0.00     0.261 C 
BRANCH  79  80
ATOM     80  O   UNL     1       6.382  -4.165  -1.012  1.00  0.00    -0.462 OA
BRANCH  80  81
ATOM     81  C   UNL     1       6.200  -5.397  -1.540  1.00  0.00     0.329 C 
ATOM     82  O   UNL     1       7.133  -6.170  -1.746  1.00  0.00    -0.250 OA
BRANCH  81  83
ATOM     83  C   UNL     1       4.719  -5.704  -1.914  1.00  0.00     0.206 C 
ATOM     84  C   UNL     1       3.588  -5.105  -1.072  1.00  0.00     0.108 C 
ATOM     85  N   UNL     1       4.555  -7.166  -1.883  1.00  0.00    -0.315 N 
ATOM     86  S   UNL     1       2.845  -6.470  -0.092  1.00  0.00    -0.138 SA
ATOM     87  C   UNL     1       4.082  -7.676  -0.617  1.00  0.00     0.191 C 
BRANCH  85  88
ATOM     88  C   UNL     1       5.008  -7.888  -2.965  1.00  0.00     0.255 C 
ATOM     89  O   UNL     1       5.387  -7.363  -4.008  1.00  0.00    -0.269 OA
BRANCH  88  90
ATOM     90  C   UNL     1       5.102  -9.350  -2.867  1.00  0.00     0.041 A 
ATOM     91  C   UNL     1       3.954 -10.139  -2.770  1.00  0.00     0.014 A 
ATOM     92  C   UNL     1       6.369  -9.926  -2.988  1.00  0.00     0.034 A 
ATOM     93  C   UNL     1       4.077 -11.527  -2.775  1.00  0.00     0.002 A 
ATOM     94  C   UNL     1       6.479 -11.311  -3.010  1.00  0.00     0.041 A 
ATOM     95  C   UNL     1       5.340 -12.112  -2.903  1.00  0.00     0.020 A 
ATOM     96  Cl  UNL     1       8.025 -12.041  -3.193  1.00  0.00    -0.084 Cl
ENDBRANCH  88  90
ENDBRANCH  85  88
ENDBRANCH  81  83
ENDBRANCH  80  81
ENDBRANCH  79  80
ENDBRANCH  78  79
ENDBRANCH  77  78
ENDBRANCH  76  77
ENDBRANCH  75  76
ENDBRANCH   1  75
TORSDOF 22
