REMARK SMILES Cc1ccc2c(=O)c3cccc(CC(=O)OCCOCCOCCOCCOC(=O)c4ccc(-c5c6nc(c(-c7c(F)c(F)c(F)c(F)c7F)c7ccc([nH]7)c(-c7c(F)c(F)c(F)c(F)c7F)c7nc(c(-c8c(F)c(F)c(F)c(F)c8F)c8ccc5[nH]8)C=C7)C=C6)cc4)c3oc2c1C
REMARK SMILES IDX 23 1 22 2 21 3 20 4 19 5 18 6 17 7 16 8 14 9 15 10 13 11
REMARK SMILES IDX 12 12 1 13 2 14 3 15 97 16 4 17 96 18 98 19 5 20 95 21 6 22
REMARK SMILES IDX 94 23 7 24 8 25 9 26 11 27 10 28 24 29 25 30 26 31 27 32
REMARK SMILES IDX 28 33 29 34 30 35 31 36 32 37 93 38 33 39 92 40 34 41 35 42
REMARK SMILES IDX 36 43 86 44 37 45 91 46 85 47 87 48 38 49 90 50 84 51 83 52
REMARK SMILES IDX 39 54 71 55 51 56 70 57 52 58 55 59 69 60 88 61 53 62 54 63
REMARK SMILES IDX 68 65 89 66 56 67 40 68 41 69 49 70 42 71 43 72 47 73 50 74
REMARK SMILES IDX 44 75 45 76 48 77 46 78 72 79 73 80 81 81 74 82 75 83 79 84
REMARK SMILES IDX 82 85 76 86 77 87 80 88 78 89 57 90 58 91 66 92 59 93 60 94
REMARK SMILES IDX 64 95 67 96 61 97 62 98 65 99 63 100
REMARK H PARENT 87 53 55 64
REMARK Flexibility Score: inf
ROOT
ATOM      1  C   UNL     1       4.964   3.534   3.690  1.00  0.00     0.188 C 
ENDROOT
BRANCH   1   2
ATOM      2  O   UNL     1       3.591   3.779   3.882  1.00  0.00    -0.377 OA
BRANCH   2   3
ATOM      3  C   UNL     1       2.949   4.580   2.903  1.00  0.00     0.188 C 
BRANCH   3   4
ATOM      4  C   UNL     1       3.292   4.505   1.396  1.00  0.00     0.188 C 
BRANCH   4   5
ATOM      5  O   UNL     1       4.664   4.632   1.084  1.00  0.00    -0.376 OA
BRANCH   5   6
ATOM      6  C   UNL     1       5.298   5.894   1.002  1.00  0.00     0.202 C 
BRANCH   6   7
ATOM      7  C   UNL     1       4.739   7.175   1.651  1.00  0.00     0.261 C 
BRANCH   7   8
ATOM      8  O   UNL     1       3.322   7.204   1.897  1.00  0.00    -0.463 OA
BRANCH   8   9
ATOM      9  C   UNL     1       2.506   7.732   0.961  1.00  0.00     0.310 C 
ATOM     10  O   UNL     1       2.919   8.318  -0.035  1.00  0.00    -0.252 OA
BRANCH   9  11
ATOM     11  C   UNL     1       1.020   7.475   1.195  1.00  0.00     0.162 C 
BRANCH  11  12
ATOM     12  C   UNL     1       0.512   6.824   2.479  1.00  0.00     0.007 A 
ATOM     13  C   UNL     1       0.412   0.089  -0.277  1.00  0.00     0.045 C 
ATOM     14  C   UNL     1      -0.165   1.097   0.690  1.00  0.00    -0.044 A 
ATOM     15  C   UNL     1      -0.790   0.613   1.847  1.00  0.00     0.005 A 
ATOM     16  C   UNL     1      -0.012   2.502   0.500  1.00  0.00    -0.005 A 
ATOM     17  C   UNL     1      -1.214   1.493   2.835  1.00  0.00     0.016 A 
ATOM     18  C   UNL     1      -0.397   3.391   1.532  1.00  0.00     0.141 A 
ATOM     19  C   UNL     1       0.629   3.004  -0.767  1.00  0.00     0.049 C 
ATOM     20  C   UNL     1      -0.987   2.865   2.683  1.00  0.00     0.066 A 
ATOM     21  O   UNL     1      -0.134   4.751   1.389  1.00  0.00    -0.455 OA
ATOM     22  C   UNL     1      -1.251   3.755   3.814  1.00  0.00     0.200 A 
ATOM     23  C   UNL     1      -0.126   5.554   2.524  1.00  0.00     0.142 A 
ATOM     24  O   UNL     1      -1.860   3.369   4.804  1.00  0.00    -0.288 OA
ATOM     25  C   UNL     1      -0.665   5.098   3.739  1.00  0.00     0.066 A 
ATOM     26  C   UNL     1      -0.578   5.857   4.909  1.00  0.00     0.016 A 
ATOM     27  C   UNL     1       0.603   7.565   3.679  1.00  0.00     0.008 A 
ATOM     28  C   UNL     1       0.067   7.086   4.878  1.00  0.00     0.001 A 
ENDBRANCH  11  12
ENDBRANCH   9  11
ENDBRANCH   8   9
ENDBRANCH   7   8
ENDBRANCH   6   7
ENDBRANCH   5   6
ENDBRANCH   4   5
ENDBRANCH   3   4
ENDBRANCH   2   3
ENDBRANCH   1   2
BRANCH   1  29
ATOM     29  C   UNL     1       5.196   2.233   2.913  1.00  0.00     0.188 C 
BRANCH  29  30
ATOM     30  O   UNL     1       4.150   1.931   2.005  1.00  0.00    -0.376 OA
BRANCH  30  31
ATOM     31  C   UNL     1       3.180   0.955   2.370  1.00  0.00     0.202 C 
BRANCH  31  32
ATOM     32  C   UNL     1       2.281   1.145   3.602  1.00  0.00     0.261 C 
BRANCH  32  33
ATOM     33  O   UNL     1       2.925   1.351   4.856  1.00  0.00    -0.460 OA
BRANCH  33  34
ATOM     34  C   UNL     1       3.788   0.429   5.310  1.00  0.00     0.338 C 
ATOM     35  O   UNL     1       4.057  -0.655   4.826  1.00  0.00    -0.246 OA
BRANCH  34  36
ATOM     36  C   UNL     1       4.536   1.128   6.369  1.00  0.00     0.060 A 
ATOM     37  C   UNL     1       3.846   1.828   7.365  1.00  0.00     0.016 A 
ATOM     38  C   UNL     1       5.929   1.212   6.261  1.00  0.00     0.016 A 
ATOM     39  C   UNL     1       4.555   2.620   8.258  1.00  0.00     0.010 A 
ATOM     40  C   UNL     1       6.638   2.020   7.143  1.00  0.00     0.010 A 
ATOM     41  C   UNL     1       5.954   2.707   8.155  1.00  0.00    -0.014 A 
BRANCH  41  42
ATOM     42  C   UNL     1       6.719   3.315   9.257  1.00  0.00     0.031 A 
ATOM     43  C   UNL     1       7.297   4.684   9.164  1.00  0.00     0.074 A 
ATOM     44  C   UNL     1       6.888   2.549  10.349  1.00  0.00     0.049 A 
ATOM     45  N   UNL     1       7.932   5.365  10.082  1.00  0.00    -0.248 NA
ATOM     46  C   UNL     1       7.160   5.380   7.877  1.00  0.00     0.031 C 
ATOM     47  C   UNL     1       6.376   1.183  10.489  1.00  0.00     0.029 A 
ATOM     48  N   UNL     1       7.512   2.799  11.537  1.00  0.00    -0.354 N 
ATOM     49  C   UNL     1       8.251   6.581   9.498  1.00  0.00     0.074 A 
ATOM     50  C   UNL     1       7.792   6.521   8.125  1.00  0.00     0.031 C 
ATOM     51  C   UNL     1       6.672   0.729  11.712  1.00  0.00     0.029 A 
ATOM     52  C   UNL     1       7.417   1.758  12.426  1.00  0.00     0.049 A 
ATOM     53  H   UNL     1       7.982   3.640  11.737  1.00  0.00     0.167 HD
ATOM     54  C   UNL     1       8.854   7.647  10.078  1.00  0.00     0.037 A 
ATOM     55  C   UNL     1       7.873   1.653  13.685  1.00  0.00     0.037 A 
ATOM     56  C   UNL     1       9.324   7.654  11.442  1.00  0.00     0.049 A 
ATOM     57  C   UNL     1       8.586   2.828  14.282  1.00  0.00     0.074 A 
ATOM     58  C   UNL     1       9.923   8.684  12.145  1.00  0.00     0.029 A 
ATOM     59  N   UNL     1       9.262   6.566  12.306  1.00  0.00    -0.354 N 
ATOM     60  N   UNL     1       8.812   4.007  13.755  1.00  0.00    -0.248 NA
ATOM     61  C   UNL     1       9.107   2.663  15.643  1.00  0.00     0.031 C 
ATOM     62  C   UNL     1      10.277   8.201  13.409  1.00  0.00     0.029 A 
ATOM     63  C   UNL     1       9.848   6.887  13.520  1.00  0.00     0.049 A 
ATOM     64  H   UNL     1       8.860   5.694  12.087  1.00  0.00     0.167 HD
ATOM     65  C   UNL     1       9.495   4.731  14.719  1.00  0.00     0.074 A 
ATOM     66  C   UNL     1       9.624   3.863  15.874  1.00  0.00     0.031 C 
ATOM     67  C   UNL     1       9.976   5.997  14.650  1.00  0.00     0.037 A 
BRANCH  54  68
ATOM     68  C   UNL     1       9.035   8.886   9.246  1.00  0.00     0.064 A 
ATOM     69  C   UNL     1       7.936   9.655   8.832  1.00  0.00     0.173 A 
ATOM     70  C   UNL     1      10.316   9.339   8.896  1.00  0.00     0.173 A 
ATOM     71  F   UNL     1       6.687   9.268   9.136  1.00  0.00    -0.203 F 
ATOM     72  C   UNL     1       8.110  10.809   8.073  1.00  0.00     0.198 A 
ATOM     73  C   UNL     1      10.488  10.512   8.163  1.00  0.00     0.198 A 
ATOM     74  F   UNL     1      11.404   8.651   9.272  1.00  0.00    -0.203 F 
ATOM     75  F   UNL     1       7.041  11.497   7.646  1.00  0.00    -0.200 F 
ATOM     76  C   UNL     1       9.386  11.241   7.744  1.00  0.00     0.200 A 
ATOM     77  F   UNL     1      11.723  10.935   7.859  1.00  0.00    -0.200 F 
ATOM     78  F   UNL     1       9.552  12.354   7.018  1.00  0.00    -0.200 F 
ENDBRANCH  54  68
BRANCH  55  79
ATOM     79  C   UNL     1       7.592   0.414  14.449  1.00  0.00     0.064 A 
ATOM     80  C   UNL     1       6.651   0.416  15.486  1.00  0.00     0.173 A 
ATOM     81  C   UNL     1       8.172  -0.814  14.092  1.00  0.00     0.173 A 
ATOM     82  F   UNL     1       6.074   1.567  15.862  1.00  0.00    -0.203 F 
ATOM     83  C   UNL     1       6.297  -0.763  16.136  1.00  0.00     0.198 A 
ATOM     84  C   UNL     1       7.797  -1.996  14.725  1.00  0.00     0.198 A 
ATOM     85  F   UNL     1       9.063  -0.870  13.091  1.00  0.00    -0.203 F 
ATOM     86  F   UNL     1       5.402  -0.733  17.132  1.00  0.00    -0.200 F 
ATOM     87  C   UNL     1       6.861  -1.970  15.747  1.00  0.00     0.200 A 
ATOM     88  F   UNL     1       8.324  -3.162  14.328  1.00  0.00    -0.200 F 
ATOM     89  F   UNL     1       6.498  -3.107  16.355  1.00  0.00    -0.200 F 
ENDBRANCH  55  79
BRANCH  67  90
ATOM     90  C   UNL     1      10.707   6.518  15.852  1.00  0.00     0.064 A 
ATOM     91  C   UNL     1      11.995   6.064  16.171  1.00  0.00     0.173 A 
ATOM     92  C   UNL     1      10.157   7.544  16.635  1.00  0.00     0.173 A 
ATOM     93  F   UNL     1      12.556   5.072  15.464  1.00  0.00    -0.203 F 
ATOM     94  C   UNL     1      12.705   6.618  17.232  1.00  0.00     0.198 A 
ATOM     95  C   UNL     1      10.883   8.117  17.674  1.00  0.00     0.198 A 
ATOM     96  F   UNL     1       8.930   8.015  16.367  1.00  0.00    -0.203 F 
ATOM     97  F   UNL     1      13.924   6.151  17.535  1.00  0.00    -0.200 F 
ATOM     98  C   UNL     1      12.155   7.653  17.973  1.00  0.00     0.200 A 
ATOM     99  F   UNL     1      10.357   9.129  18.378  1.00  0.00    -0.200 F 
ATOM    100  F   UNL     1      12.852   8.205  18.975  1.00  0.00    -0.200 F 
ENDBRANCH  67  90
ENDBRANCH  41  42
ENDBRANCH  34  36
ENDBRANCH  33  34
ENDBRANCH  32  33
ENDBRANCH  31  32
ENDBRANCH  30  31
ENDBRANCH  29  30
ENDBRANCH   1  29
TORSDOF 21
