REMARK SMILES COc1cccc([C@@H]2CN(C(=O)c3cnn(C)c3)C[C@H]2C(=O)OCCOCCOCCOCCOC(=O)c2ccc(-c3c4nc(c(-c5c(F)c(F)c(F)c(F)c5F)c5ccc([nH]5)c(-c5c(F)c(F)c(F)c(F)c5F)c5nc(c(-c6c(F)c(F)c(F)c(F)c6F)c6ccc3[nH]6)C=C5)C=C4)cc2)c1OC
REMARK SMILES IDX 29 1 28 2 27 3 26 4 25 5 24 6 23 7 21 8 22 9 20 10 8 11 9 12
REMARK SMILES IDX 10 13 19 14 7 15 3 16 4 17 101 18 5 19 6 20 2 21 1 22 102 23
REMARK SMILES IDX 103 24 11 25 12 26 13 27 14 28 18 29 15 30 16 31 17 32 30 33
REMARK SMILES IDX 31 34 32 35 33 36 34 37 35 38 36 39 37 40 38 41 39 42 100 43
REMARK SMILES IDX 40 44 99 45 41 46 42 47 43 48 93 49 44 50 98 51 92 52 94 53
REMARK SMILES IDX 45 54 97 55 91 56 90 57 46 59 78 60 58 61 77 62 59 63 62 64
REMARK SMILES IDX 76 65 95 66 60 67 61 68 75 70 96 71 63 72 47 73 48 74 56 75
REMARK SMILES IDX 49 76 50 77 54 78 57 79 51 80 52 81 55 82 53 83 79 84 80 85
REMARK SMILES IDX 88 86 81 87 82 88 86 89 89 90 83 91 84 92 87 93 85 94 64 95
REMARK SMILES IDX 65 96 73 97 66 98 67 99 71 100 74 101 68 102 69 103 72 104
REMARK SMILES IDX 70 105
REMARK H PARENT 94 58 62 69
REMARK Flexibility Score: inf
ROOT
ATOM      1  O   UNL     1       2.284  -4.014  -5.493  1.00  0.00    -0.377 OA
ENDROOT
BRANCH   1   2
ATOM      2  C   UNL     1       1.855  -2.882  -4.763  1.00  0.00     0.188 C 
BRANCH   2   3
ATOM      3  C   UNL     1       2.070  -1.515  -5.420  1.00  0.00     0.188 C 
BRANCH   3   4
ATOM      4  O   UNL     1       2.464  -1.432  -6.776  1.00  0.00    -0.376 OA
BRANCH   4   5
ATOM      5  C   UNL     1       3.490  -2.263  -7.294  1.00  0.00     0.202 C 
BRANCH   5   6
ATOM      6  C   UNL     1       4.785  -2.601  -6.523  1.00  0.00     0.261 C 
BRANCH   6   7
ATOM      7  O   UNL     1       4.672  -3.039  -5.151  1.00  0.00    -0.463 OA
BRANCH   7   8
ATOM      8  C   UNL     1       5.011  -2.124  -4.216  1.00  0.00     0.311 C 
ATOM      9  O   UNL     1       5.396  -0.989  -4.489  1.00  0.00    -0.252 OA
BRANCH   8  10
ATOM     10  C   UNL     1       4.983  -2.598  -2.774  1.00  0.00     0.128 C 
ATOM     11  C   UNL     1       4.087  -3.757  -2.233  1.00  0.00     0.059 C 
ATOM     12  C   UNL     1       4.977  -4.403  -1.170  1.00  0.00     0.129 C 
ATOM     13  N   UNL     1       6.321  -4.237  -1.674  1.00  0.00    -0.337 N 
ATOM     14  C   UNL     1       6.415  -3.045  -2.483  1.00  0.00     0.135 C 
BRANCH  11  15
ATOM     15  C   UNL     1       2.719  -3.495  -1.572  1.00  0.00     0.004 A 
ATOM     16  C   UNL     1       1.154  -2.211  -0.207  1.00  0.00     0.161 A 
ATOM     17  C   UNL     1       0.153  -3.158  -0.446  1.00  0.00     0.050 A 
ATOM     18  C   UNL     1       2.454  -2.396  -0.719  1.00  0.00     0.164 A 
ATOM     19  C   UNL     1       0.433  -4.291  -1.200  1.00  0.00     0.004 A 
ATOM     20  C   UNL     1       1.699  -4.454  -1.766  1.00  0.00     0.008 A 
BRANCH  16  21
ATOM     21  O   UNL     1       0.835  -1.194   0.653  1.00  0.00    -0.493 OA
ATOM     22  C   UNL     1       0.230  -0.091  -0.025  1.00  0.00     0.278 C 
ENDBRANCH  16  21
BRANCH  18  23
ATOM     23  O   UNL     1       3.561  -1.659  -0.412  1.00  0.00    -0.493 OA
ATOM     24  C   UNL     1       3.450  -0.439   0.295  1.00  0.00     0.278 C 
ENDBRANCH  18  23
ENDBRANCH  11  15
BRANCH  13  25
ATOM     25  C   UNL     1       7.466  -4.896  -1.271  1.00  0.00     0.257 C 
ATOM     26  O   UNL     1       8.584  -4.522  -1.616  1.00  0.00    -0.269 OA
BRANCH  25  27
ATOM     27  C   UNL     1       7.300  -6.019  -0.375  1.00  0.00     0.077 A 
ATOM     28  C   UNL     1       7.983  -6.246   0.838  1.00  0.00     0.149 A 
ATOM     29  C   UNL     1       6.485  -7.127  -0.512  1.00  0.00     0.122 A 
ATOM     30  N   UNL     1       7.567  -7.352   1.462  1.00  0.00    -0.181 NA
ATOM     31  N   UNL     1       6.647  -7.860   0.624  1.00  0.00    -0.275 N 
ATOM     32  C   UNL     1       5.925  -9.051   0.996  1.00  0.00     0.173 C 
ENDBRANCH  25  27
ENDBRANCH  13  25
ENDBRANCH   8  10
ENDBRANCH   7   8
ENDBRANCH   6   7
ENDBRANCH   5   6
ENDBRANCH   4   5
ENDBRANCH   3   4
ENDBRANCH   2   3
ENDBRANCH   1   2
BRANCH   1  33
ATOM     33  C   UNL     1       1.351  -4.651  -6.351  1.00  0.00     0.188 C 
BRANCH  33  34
ATOM     34  C   UNL     1       0.172  -3.829  -6.898  1.00  0.00     0.188 C 
BRANCH  34  35
ATOM     35  O   UNL     1      -0.514  -3.086  -5.902  1.00  0.00    -0.376 OA
BRANCH  35  36
ATOM     36  C   UNL     1      -1.681  -3.630  -5.309  1.00  0.00     0.202 C 
BRANCH  36  37
ATOM     37  C   UNL     1      -1.578  -4.952  -4.532  1.00  0.00     0.261 C 
BRANCH  37  38
ATOM     38  O   UNL     1      -1.012  -6.079  -5.216  1.00  0.00    -0.460 OA
BRANCH  38  39
ATOM     39  C   UNL     1      -1.639  -6.546  -6.313  1.00  0.00     0.338 C 
ATOM     40  O   UNL     1      -2.691  -6.148  -6.786  1.00  0.00    -0.246 OA
BRANCH  39  41
ATOM     41  C   UNL     1      -0.720  -7.502  -6.968  1.00  0.00     0.060 A 
ATOM     42  C   UNL     1      -0.228  -7.204  -8.245  1.00  0.00     0.016 A 
ATOM     43  C   UNL     1      -0.313  -8.667  -6.311  1.00  0.00     0.016 A 
ATOM     44  C   UNL     1       0.667  -8.072  -8.872  1.00  0.00     0.010 A 
ATOM     45  C   UNL     1       0.560  -9.550  -6.953  1.00  0.00     0.010 A 
ATOM     46  C   UNL     1       1.042  -9.266  -8.243  1.00  0.00    -0.014 A 
BRANCH  46  47
ATOM     47  C   UNL     1       1.825 -10.284  -8.985  1.00  0.00     0.031 A 
ATOM     48  C   UNL     1       1.094 -11.427  -9.630  1.00  0.00     0.074 A 
ATOM     49  C   UNL     1       3.163 -10.193  -9.084  1.00  0.00     0.049 A 
ATOM     50  N   UNL     1       1.569 -12.476 -10.251  1.00  0.00    -0.248 NA
ATOM     51  C   UNL     1      -0.375 -11.379  -9.563  1.00  0.00     0.031 C 
ATOM     52  C   UNL     1       3.976  -9.106  -8.546  1.00  0.00     0.029 A 
ATOM     53  N   UNL     1       4.073 -11.043  -9.662  1.00  0.00    -0.354 N 
ATOM     54  C   UNL     1       0.460 -13.216 -10.642  1.00  0.00     0.074 A 
ATOM     55  C   UNL     1      -0.710 -12.510 -10.167  1.00  0.00     0.031 C 
ATOM     56  C   UNL     1       5.271  -9.366  -8.799  1.00  0.00     0.029 A 
ATOM     57  C   UNL     1       5.378 -10.656  -9.479  1.00  0.00     0.049 A 
ATOM     58  H   UNL     1       3.816 -11.853 -10.160  1.00  0.00     0.167 HD
ATOM     59  C   UNL     1       0.425 -14.378 -11.336  1.00  0.00     0.037 A 
ATOM     60  C   UNL     1       6.525 -11.291  -9.792  1.00  0.00     0.037 A 
ATOM     61  C   UNL     1       1.596 -15.078 -11.798  1.00  0.00     0.049 A 
ATOM     62  C   UNL     1       6.461 -12.634 -10.477  1.00  0.00     0.074 A 
ATOM     63  C   UNL     1       1.667 -16.249 -12.531  1.00  0.00     0.029 A 
ATOM     64  N   UNL     1       2.902 -14.678 -11.556  1.00  0.00    -0.354 N 
ATOM     65  N   UNL     1       5.411 -13.314 -10.872  1.00  0.00    -0.248 NA
ATOM     66  C   UNL     1       7.742 -13.299 -10.757  1.00  0.00     0.031 C 
ATOM     67  C   UNL     1       3.015 -16.595 -12.671  1.00  0.00     0.029 A 
ATOM     68  C   UNL     1       3.787 -15.604 -12.086  1.00  0.00     0.049 A 
ATOM     69  H   UNL     1       3.163 -13.857 -11.078  1.00  0.00     0.167 HD
ATOM     70  C   UNL     1       5.904 -14.472 -11.462  1.00  0.00     0.074 A 
ATOM     71  C   UNL     1       7.348 -14.391 -11.396  1.00  0.00     0.031 C 
ATOM     72  C   UNL     1       5.223 -15.511 -12.007  1.00  0.00     0.037 A 
BRANCH  59  73
ATOM     73  C   UNL     1      -0.920 -14.989 -11.605  1.00  0.00     0.064 A 
ATOM     74  C   UNL     1      -1.832 -14.411 -12.501  1.00  0.00     0.173 A 
ATOM     75  C   UNL     1      -1.285 -16.193 -10.983  1.00  0.00     0.173 A 
ATOM     76  F   UNL     1      -1.539 -13.253 -13.110  1.00  0.00    -0.203 F 
ATOM     77  C   UNL     1      -3.070 -15.003 -12.744  1.00  0.00     0.198 A 
ATOM     78  C   UNL     1      -2.509 -16.799 -11.254  1.00  0.00     0.198 A 
ATOM     79  F   UNL     1      -0.450 -16.790 -10.120  1.00  0.00    -0.203 F 
ATOM     80  F   UNL     1      -3.945 -14.407 -13.566  1.00  0.00    -0.200 F 
ATOM     81  C   UNL     1      -3.403 -16.200 -12.128  1.00  0.00     0.200 A 
ATOM     82  F   UNL     1      -2.823 -17.962 -10.668  1.00  0.00    -0.200 F 
ATOM     83  F   UNL     1      -4.590 -16.772 -12.370  1.00  0.00    -0.200 F 
ENDBRANCH  59  73
BRANCH  60  84
ATOM     84  C   UNL     1       7.836 -10.688  -9.427  1.00  0.00     0.064 A 
ATOM     85  C   UNL     1       8.742 -10.269 -10.412  1.00  0.00     0.173 A 
ATOM     86  C   UNL     1       8.223 -10.545  -8.086  1.00  0.00     0.173 A 
ATOM     87  F   UNL     1       8.433 -10.412 -11.709  1.00  0.00    -0.203 F 
ATOM     88  C   UNL     1       9.989  -9.750 -10.070  1.00  0.00     0.198 A 
ATOM     89  C   UNL     1       9.456  -9.995  -7.744  1.00  0.00     0.198 A 
ATOM     90  F   UNL     1       7.397 -10.936  -7.103  1.00  0.00    -0.203 F 
ATOM     91  F   UNL     1      10.857  -9.409 -11.033  1.00  0.00    -0.200 F 
ATOM     92  C   UNL     1      10.343  -9.607  -8.736  1.00  0.00     0.200 A 
ATOM     93  F   UNL     1       9.787  -9.849  -6.454  1.00  0.00    -0.200 F 
ATOM     94  F   UNL     1      11.541  -9.105  -8.409  1.00  0.00    -0.200 F 
ENDBRANCH  60  84
BRANCH  72  95
ATOM     95  C   UNL     1       6.029 -16.638 -12.591  1.00  0.00     0.064 A 
ATOM     96  C   UNL     1       6.755 -17.521 -11.779  1.00  0.00     0.173 A 
ATOM     97  C   UNL     1       6.036 -16.866 -13.976  1.00  0.00     0.173 A 
ATOM     98  F   UNL     1       6.793 -17.341 -10.450  1.00  0.00    -0.203 F 
ATOM     99  C   UNL     1       7.480 -18.574 -12.333  1.00  0.00     0.198 A 
ATOM    100  C   UNL     1       6.732 -17.941 -14.524  1.00  0.00     0.198 A 
ATOM    101  F   UNL     1       5.352 -16.057 -14.799  1.00  0.00    -0.203 F 
ATOM    102  F   UNL     1       8.207 -19.374 -11.541  1.00  0.00    -0.200 F 
ATOM    103  C   UNL     1       7.460 -18.788 -13.703  1.00  0.00     0.200 A 
ATOM    104  F   UNL     1       6.696 -18.157 -15.846  1.00  0.00    -0.200 F 
ATOM    105  F   UNL     1       8.148 -19.809 -14.233  1.00  0.00    -0.200 F 
ENDBRANCH  72  95
ENDBRANCH  46  47
ENDBRANCH  39  41
ENDBRANCH  38  39
ENDBRANCH  37  38
ENDBRANCH  36  37
ENDBRANCH  35  36
ENDBRANCH  34  35
ENDBRANCH  33  34
ENDBRANCH   1  33
TORSDOF 25
