REMARK SMILES [NH3+][C@@H](CCC1=c2ccccc2=[NH+]C1)C(=O)OCCOCCOCCOCCOC(=O)c1ccc(-c2c3nc(c(-c4c(F)c(F)c(F)c(F)c4F)c4ccc([nH]4)c(-c4c(F)c(F)c(F)c(F)c4F)c4nc(c(-c5c(F)c(F)c(F)c(F)c5F)c5ccc2[nH]5)C=C4)C=C3)cc1
REMARK SMILES IDX 21 1 20 2 19 3 18 4 17 5 16 6 14 7 15 8 2 9 1 10 3 14 4 15
REMARK SMILES IDX 5 16 6 17 13 18 7 19 11 20 12 21 8 22 10 23 9 25 22 26 23 27
REMARK SMILES IDX 24 28 25 29 26 30 27 31 28 32 29 33 30 34 31 35 32 36 93 37
REMARK SMILES IDX 33 38 92 39 34 40 35 41 36 42 86 43 37 44 91 45 85 46 87 47
REMARK SMILES IDX 38 48 90 49 84 50 83 51 39 53 71 54 51 55 70 56 52 57 55 58
REMARK SMILES IDX 69 59 88 60 53 61 54 62 68 64 89 65 56 66 40 67 41 68 49 69
REMARK SMILES IDX 42 70 43 71 47 72 50 73 44 74 45 75 48 76 46 77 72 78 73 79
REMARK SMILES IDX 81 80 74 81 75 82 79 83 82 84 76 85 77 86 80 87 78 88 57 89
REMARK SMILES IDX 58 90 66 91 59 92 60 93 64 94 67 95 61 96 62 97 65 98 63 99
REMARK H PARENT 1 11 1 12 1 13 12 24 87 52 55 63
REMARK Flexibility Score: inf
ROOT
ATOM      1  C   UNL     1      -1.329  -1.691   0.278  1.00  0.00     0.188 C 
ENDROOT
BRANCH   1   2
ATOM      2  C   UNL     1      -1.864  -1.769   1.718  1.00  0.00     0.188 C 
BRANCH   2   3
ATOM      3  O   UNL     1      -3.231  -1.460   1.971  1.00  0.00    -0.376 OA
BRANCH   3   4
ATOM      4  C   UNL     1      -3.732  -0.178   1.595  1.00  0.00     0.202 C 
BRANCH   4   5
ATOM      5  C   UNL     1      -2.939   1.076   1.974  1.00  0.00     0.261 C 
BRANCH   5   6
ATOM      6  O   UNL     1      -1.611   1.115   1.419  1.00  0.00    -0.459 OA
BRANCH   6   7
ATOM      7  C   UNL     1      -0.604   1.386   2.293  1.00  0.00     0.364 C 
ATOM      8  O   UNL     1      -0.764   1.602   3.490  1.00  0.00    -0.245 OA
BRANCH   7   9
ATOM      9  C   UNL     1       0.786   1.456   1.636  1.00  0.00     0.292 C 
BRANCH   9  10
ATOM     10  N   UNL     1       0.909   0.728   0.362  1.00  0.00    -0.346 N 
ATOM     11  H   UNL     1       1.858   0.830   0.003  1.00  0.00     0.345 HD
ATOM     12  H   UNL     1       0.247   1.110  -0.313  1.00  0.00     0.345 HD
ATOM     13  H   UNL     1       0.707  -0.260   0.514  1.00  0.00     0.345 HD
ENDBRANCH   9  10
BRANCH   9  14
ATOM     14  C   UNL     1       1.291   2.905   1.571  1.00  0.00     0.082 C 
BRANCH  14  15
ATOM     15  C   UNL     1       0.854   3.756   0.370  1.00  0.00     0.045 C 
BRANCH  15  16
ATOM     16  C   UNL     1      -0.618   3.914   0.184  1.00  0.00     0.008 C 
ATOM     17  C   UNL     1      -1.371   3.394  -0.780  1.00  0.00     0.051 A 
ATOM     18  C   UNL     1      -1.466   4.691   1.146  1.00  0.00     0.381 C 
ATOM     19  C   UNL     1      -1.125   2.526  -1.881  1.00  0.00     0.015 A 
ATOM     20  C   UNL     1      -2.729   3.812  -0.404  1.00  0.00     0.206 A 
ATOM     21  N   UNL     1      -2.857   4.573   0.639  1.00  0.00    -0.237 N 
ATOM     22  C   UNL     1      -2.179   2.007  -2.524  1.00  0.00     0.001 A 
ATOM     23  C   UNL     1      -3.834   3.284  -1.231  1.00  0.00     0.079 A 
ATOM     24  H   UNL     1      -3.678   4.975   1.005  1.00  0.00     0.446 HD
ATOM     25  C   UNL     1      -3.542   2.402  -2.200  1.00  0.00     0.007 A 
ENDBRANCH  15  16
ENDBRANCH  14  15
ENDBRANCH   9  14
ENDBRANCH   7   9
ENDBRANCH   6   7
ENDBRANCH   5   6
ENDBRANCH   4   5
ENDBRANCH   3   4
ENDBRANCH   2   3
ENDBRANCH   1   2
BRANCH   1  26
ATOM     26  O   UNL     1      -2.043  -0.792  -0.555  1.00  0.00    -0.377 OA
BRANCH  26  27
ATOM     27  C   UNL     1      -2.905  -1.391  -1.520  1.00  0.00     0.188 C 
BRANCH  27  28
ATOM     28  C   UNL     1      -3.799  -2.564  -1.073  1.00  0.00     0.188 C 
BRANCH  28  29
ATOM     29  O   UNL     1      -3.066  -3.672  -0.565  1.00  0.00    -0.376 OA
BRANCH  29  30
ATOM     30  C   UNL     1      -2.847  -4.767  -1.445  1.00  0.00     0.202 C 
BRANCH  30  31
ATOM     31  C   UNL     1      -1.826  -4.529  -2.569  1.00  0.00     0.261 C 
BRANCH  31  32
ATOM     32  O   UNL     1      -2.160  -3.529  -3.550  1.00  0.00    -0.460 OA
BRANCH  32  33
ATOM     33  C   UNL     1      -3.336  -3.623  -4.206  1.00  0.00     0.338 C 
ATOM     34  O   UNL     1      -4.169  -4.505  -4.109  1.00  0.00    -0.246 OA
BRANCH  33  35
ATOM     35  C   UNL     1      -3.534  -2.361  -4.955  1.00  0.00     0.060 A 
ATOM     36  C   UNL     1      -2.573  -1.922  -5.870  1.00  0.00     0.016 A 
ATOM     37  C   UNL     1      -4.696  -1.610  -4.742  1.00  0.00     0.016 A 
ATOM     38  C   UNL     1      -2.794  -0.749  -6.598  1.00  0.00     0.010 A 
ATOM     39  C   UNL     1      -4.909  -0.429  -5.463  1.00  0.00     0.010 A 
ATOM     40  C   UNL     1      -3.971  -0.002  -6.416  1.00  0.00    -0.014 A 
BRANCH  40  41
ATOM     41  C   UNL     1      -4.275   1.139  -7.323  1.00  0.00     0.031 A 
ATOM     42  C   UNL     1      -4.013   2.565  -6.940  1.00  0.00     0.074 A 
ATOM     43  C   UNL     1      -4.788   0.866  -8.534  1.00  0.00     0.049 A 
ATOM     44  N   UNL     1      -4.213   3.679  -7.596  1.00  0.00    -0.248 NA
ATOM     45  C   UNL     1      -3.440   2.759  -5.614  1.00  0.00     0.031 C 
ATOM     46  C   UNL     1      -5.080  -0.473  -9.040  1.00  0.00     0.029 A 
ATOM     47  N   UNL     1      -5.138   1.703  -9.558  1.00  0.00    -0.354 N 
ATOM     48  C   UNL     1      -3.778   4.701  -6.754  1.00  0.00     0.074 A 
ATOM     49  C   UNL     1      -3.349   4.078  -5.523  1.00  0.00     0.031 C 
ATOM     50  C   UNL     1      -5.546  -0.369 -10.293  1.00  0.00     0.029 A 
ATOM     51  C   UNL     1      -5.609   1.042 -10.662  1.00  0.00     0.049 A 
ATOM     52  H   UNL     1      -5.059   2.683  -9.507  1.00  0.00     0.167 HD
ATOM     53  C   UNL     1      -3.717   6.032  -6.999  1.00  0.00     0.037 A 
ATOM     54  C   UNL     1      -6.040   1.529 -11.839  1.00  0.00     0.037 A 
ATOM     55  C   UNL     1      -4.136   6.639  -8.236  1.00  0.00     0.049 A 
ATOM     56  C   UNL     1      -6.004   3.014 -12.078  1.00  0.00     0.074 A 
ATOM     57  C   UNL     1      -4.128   7.977  -8.593  1.00  0.00     0.029 A 
ATOM     58  N   UNL     1      -4.628   5.937  -9.325  1.00  0.00    -0.354 N 
ATOM     59  N   UNL     1      -5.578   3.972 -11.291  1.00  0.00    -0.248 NA
ATOM     60  C   UNL     1      -6.499   3.481 -13.379  1.00  0.00     0.031 C 
ATOM     61  C   UNL     1      -4.644   8.086  -9.888  1.00  0.00     0.029 A 
ATOM     62  C   UNL     1      -4.928   6.813 -10.354  1.00  0.00     0.049 A 
ATOM     63  H   UNL     1      -4.747   4.961  -9.361  1.00  0.00     0.167 HD
ATOM     64  C   UNL     1      -5.719   5.149 -12.015  1.00  0.00     0.074 A 
ATOM     65  C   UNL     1      -6.254   4.781 -13.309  1.00  0.00     0.031 C 
ATOM     66  C   UNL     1      -5.436   6.422 -11.642  1.00  0.00     0.037 A 
BRANCH  53  67
ATOM     67  C   UNL     1      -3.151   6.934  -5.937  1.00  0.00     0.064 A 
ATOM     68  C   UNL     1      -1.776   6.955  -5.660  1.00  0.00     0.173 A 
ATOM     69  C   UNL     1      -3.964   7.871  -5.280  1.00  0.00     0.173 A 
ATOM     70  F   UNL     1      -0.955   6.077  -6.255  1.00  0.00    -0.203 F 
ATOM     71  C   UNL     1      -1.236   7.878  -4.767  1.00  0.00     0.198 A 
ATOM     72  C   UNL     1      -3.418   8.810  -4.407  1.00  0.00     0.198 A 
ATOM     73  F   UNL     1      -5.285   7.903  -5.515  1.00  0.00    -0.203 F 
ATOM     74  F   UNL     1       0.079   7.871  -4.512  1.00  0.00    -0.200 F 
ATOM     75  C   UNL     1      -2.055   8.814  -4.153  1.00  0.00     0.200 A 
ATOM     76  F   UNL     1      -4.207   9.728  -3.831  1.00  0.00    -0.200 F 
ATOM     77  F   UNL     1      -1.528   9.726  -3.323  1.00  0.00    -0.200 F 
ENDBRANCH  53  67
BRANCH  54  78
ATOM     78  C   UNL     1      -6.498   0.592 -12.894  1.00  0.00     0.064 A 
ATOM     79  C   UNL     1      -5.757   0.424 -14.072  1.00  0.00     0.173 A 
ATOM     80  C   UNL     1      -7.673  -0.158 -12.745  1.00  0.00     0.173 A 
ATOM     81  F   UNL     1      -4.633   1.129 -14.262  1.00  0.00    -0.203 F 
ATOM     82  C   UNL     1      -6.189  -0.442 -15.073  1.00  0.00     0.198 A 
ATOM     83  C   UNL     1      -8.086  -1.048 -13.734  1.00  0.00     0.198 A 
ATOM     84  F   UNL     1      -8.409  -0.041 -11.631  1.00  0.00    -0.203 F 
ATOM     85  F   UNL     1      -5.487  -0.548 -16.209  1.00  0.00    -0.200 F 
ATOM     86  C   UNL     1      -7.349  -1.181 -14.901  1.00  0.00     0.200 A 
ATOM     87  F   UNL     1      -9.197  -1.775 -13.555  1.00  0.00    -0.200 F 
ATOM     88  F   UNL     1      -7.760  -2.018 -15.863  1.00  0.00    -0.200 F 
ENDBRANCH  54  78
BRANCH  66  89
ATOM     89  C   UNL     1      -5.654   7.504 -12.658  1.00  0.00     0.064 A 
ATOM     90  C   UNL     1      -6.942   7.906 -13.038  1.00  0.00     0.173 A 
ATOM     91  C   UNL     1      -4.560   8.178 -13.222  1.00  0.00     0.173 A 
ATOM     92  F   UNL     1      -8.019   7.286 -12.534  1.00  0.00    -0.203 F 
ATOM     93  C   UNL     1      -7.127   8.923 -13.970  1.00  0.00     0.198 A 
ATOM     94  C   UNL     1      -4.749   9.216 -14.130  1.00  0.00     0.198 A 
ATOM     95  F   UNL     1      -3.307   7.839 -12.882  1.00  0.00    -0.203 F 
ATOM     96  F   UNL     1      -8.366   9.257 -14.357  1.00  0.00    -0.200 F 
ATOM     97  C   UNL     1      -6.031   9.582 -14.509  1.00  0.00     0.200 A 
ATOM     98  F   UNL     1      -3.690   9.863 -14.636  1.00  0.00    -0.200 F 
ATOM     99  F   UNL     1      -6.212  10.566 -15.401  1.00  0.00    -0.200 F 
ENDBRANCH  66  89
ENDBRANCH  40  41
ENDBRANCH  33  35
ENDBRANCH  32  33
ENDBRANCH  31  32
ENDBRANCH  30  31
ENDBRANCH  29  30
ENDBRANCH  28  29
ENDBRANCH  27  28
ENDBRANCH  26  27
ENDBRANCH   1  26
TORSDOF 24
