REMARK SMILES Cc1ccccc1[C@@H]1[NH2+][C@H](C(=O)OCCOCCOCCOCCOC(=O)c2ccc(-c3c4nc(c(-c5c(F)c(F)c(F)c(F)c5F)c5ccc([nH]5)c(-c5c(F)c(F)c(F)c(F)c5F)c5nc(c(-c6c(F)c(F)c(F)c(F)c6F)c6ccc3[nH]6)C=C5)C=C4)cc2)CC2=c3ccccc3=N[C@@H]21
REMARK SMILES IDX 20 1 19 2 18 3 17 4 16 5 15 6 14 7 13 8 11 9 12 10 10 11
REMARK SMILES IDX 8 12 9 13 100 14 92 17 99 18 91 19 93 20 98 21 94 22 97 23
REMARK SMILES IDX 95 24 96 25 7 26 1 27 2 28 3 29 4 30 6 31 5 32 21 33 22 34
REMARK SMILES IDX 23 35 24 36 25 37 26 38 27 39 28 40 29 41 90 42 30 43 89 44
REMARK SMILES IDX 31 45 32 46 33 47 83 48 34 49 88 50 82 51 84 52 35 53 87 54
REMARK SMILES IDX 81 55 80 56 36 58 68 59 48 60 67 61 49 62 52 63 66 64 85 65
REMARK SMILES IDX 50 66 51 67 65 69 86 70 53 71 37 72 38 73 46 74 39 75 40 76
REMARK SMILES IDX 44 77 47 78 41 79 42 80 45 81 43 82 69 83 70 84 78 85 71 86
REMARK SMILES IDX 72 87 76 88 79 89 73 90 74 91 77 92 75 93 54 94 55 95 63 96
REMARK SMILES IDX 56 97 57 98 61 99 64 100 58 101 59 102 62 103 60 104
REMARK H PARENT 9 15 9 16 84 57 52 68
REMARK Flexibility Score: inf
ROOT
ATOM      1  C   UNL     1       0.354   0.176   2.092  1.00  0.00     0.188 C 
ENDROOT
BRANCH   1   2
ATOM      2  O   UNL     1      -0.531   1.216   2.646  1.00  0.00    -0.377 OA
BRANCH   2   3
ATOM      3  C   UNL     1      -0.815   2.656   2.183  1.00  0.00     0.188 C 
BRANCH   3   4
ATOM      4  C   UNL     1      -0.872   3.544   0.517  1.00  0.00     0.188 C 
BRANCH   4   5
ATOM      5  O   UNL     1       0.291   3.558  -1.000  1.00  0.00    -0.376 OA
BRANCH   5   6
ATOM      6  C   UNL     1       0.461   4.733  -2.563  1.00  0.00     0.202 C 
BRANCH   6   7
ATOM      7  C   UNL     1       0.149   6.590  -2.152  1.00  0.00     0.261 C 
BRANCH   7   8
ATOM      8  O   UNL     1      -0.216   7.056  -0.362  1.00  0.00    -0.459 OA
BRANCH   8   9
ATOM      9  C   UNL     1      -0.158   6.654   1.169  1.00  0.00     0.365 C 
ATOM     10  O   UNL     1      -0.775   7.401   1.949  1.00  0.00    -0.245 OA
BRANCH   9  11
ATOM     11  C   UNL     1       0.708   5.196   1.992  1.00  0.00     0.298 C 
ATOM     12  C   UNL     1       1.363   2.586   0.836  1.00  0.00     0.243 C 
ATOM     13  N   UNL     1       1.131   4.063   1.124  1.00  0.00    -0.326 N 
ATOM     14  C   UNL     1       2.816   2.735   1.846  1.00  0.00     0.196 C 
ATOM     15  H   UNL     1       0.523   4.264   0.330  1.00  0.00     0.347 HD
ATOM     16  H   UNL     1       2.033   4.078   1.601  1.00  0.00     0.347 HD
ATOM     17  C   UNL     1       3.024   4.202   2.630  1.00  0.00    -0.024 C 
ATOM     18  N   UNL     1       4.123   2.643   1.177  1.00  0.00    -0.270 NA
ATOM     19  C   UNL     1       1.853   5.157   3.035  1.00  0.00     0.111 C 
ATOM     20  C   UNL     1       4.264   4.664   2.450  1.00  0.00     0.002 A 
ATOM     21  C   UNL     1       4.847   3.666   1.544  1.00  0.00     0.066 A 
ATOM     22  C   UNL     1       4.876   5.952   2.660  1.00  0.00     0.010 A 
ATOM     23  C   UNL     1       6.199   4.044   1.012  1.00  0.00     0.028 A 
ATOM     24  C   UNL     1       6.015   6.260   2.016  1.00  0.00     0.001 A 
ATOM     25  C   UNL     1       6.684   5.283   1.189  1.00  0.00     0.002 A 
BRANCH  12  26
ATOM     26  C   UNL     1       0.342   1.661  -0.608  1.00  0.00     0.015 A 
ATOM     27  C   UNL     1      -2.360   1.394   0.511  1.00  0.00     0.045 C 
ATOM     28  C   UNL     1      -1.558   1.445  -0.803  1.00  0.00    -0.042 A 
ATOM     29  C   UNL     1      -2.443   1.614  -2.653  1.00  0.00     0.004 A 
ATOM     30  C   UNL     1      -1.469   2.209  -4.045  1.00  0.00     0.000 A 
ATOM     31  C   UNL     1       1.106   2.135  -2.229  1.00  0.00     0.010 A 
ATOM     32  C   UNL     1       0.248   2.459  -3.807  1.00  0.00     0.001 A 
ENDBRANCH  12  26
ENDBRANCH   9  11
ENDBRANCH   8   9
ENDBRANCH   7   8
ENDBRANCH   6   7
ENDBRANCH   5   6
ENDBRANCH   4   5
ENDBRANCH   3   4
ENDBRANCH   2   3
ENDBRANCH   1   2
BRANCH   1  33
ATOM     33  C   UNL     1      -0.273  -1.003   1.351  1.00  0.00     0.188 C 
BRANCH  33  34
ATOM     34  O   UNL     1      -1.632  -0.858   1.160  1.00  0.00    -0.376 OA
BRANCH  34  35
ATOM     35  C   UNL     1      -2.522  -1.065   2.235  1.00  0.00     0.202 C 
BRANCH  35  36
ATOM     36  C   UNL     1      -3.267  -2.224   1.625  1.00  0.00     0.261 C 
BRANCH  36  37
ATOM     37  O   UNL     1      -3.997  -1.620   0.451  1.00  0.00    -0.460 OA
BRANCH  37  38
ATOM     38  C   UNL     1      -3.409  -1.624  -0.794  1.00  0.00     0.338 C 
ATOM     39  O   UNL     1      -2.916  -2.637  -1.286  1.00  0.00    -0.246 OA
BRANCH  38  40
ATOM     40  C   UNL     1      -3.167  -0.240  -1.473  1.00  0.00     0.060 A 
ATOM     41  C   UNL     1      -1.619  -0.290  -2.165  1.00  0.00     0.016 A 
ATOM     42  C   UNL     1      -3.983   1.305  -1.134  1.00  0.00     0.016 A 
ATOM     43  C   UNL     1      -0.698   1.231  -2.397  1.00  0.00     0.010 A 
ATOM     44  C   UNL     1      -3.185   2.926  -1.300  1.00  0.00     0.010 A 
ATOM     45  C   UNL     1      -1.436   3.079  -1.891  1.00  0.00    -0.014 A 
BRANCH  45  46
ATOM     46  C   UNL     1      -0.930   4.888  -1.190  1.00  0.00     0.031 A 
ATOM     47  C   UNL     1      -2.187   5.819  -1.509  1.00  0.00     0.074 A 
ATOM     48  C   UNL     1       0.757   5.342  -0.660  1.00  0.00     0.049 A 
ATOM     49  N   UNL     1      -2.201   7.023  -1.081  1.00  0.00    -0.248 NA
ATOM     50  C   UNL     1      -3.328   5.635  -2.424  1.00  0.00     0.031 C 
ATOM     51  C   UNL     1       1.897   6.540  -0.136  1.00  0.00     0.029 A 
ATOM     52  N   UNL     1       2.099   4.511  -0.924  1.00  0.00    -0.354 N 
ATOM     53  C   UNL     1      -3.075   7.806  -1.715  1.00  0.00     0.074 A 
ATOM     54  C   UNL     1      -3.905   6.856  -2.411  1.00  0.00     0.031 C 
ATOM     55  C   UNL     1       3.205   6.215  -0.221  1.00  0.00     0.029 A 
ATOM     56  C   UNL     1       3.376   4.969  -0.918  1.00  0.00     0.049 A 
ATOM     57  H   UNL     1       1.985   3.552  -1.114  1.00  0.00     0.167 HD
ATOM     58  C   UNL     1      -2.963   9.096  -1.310  1.00  0.00     0.037 A 
ATOM     59  C   UNL     1       4.220   4.670  -1.950  1.00  0.00     0.037 A 
ATOM     60  C   UNL     1      -1.496   9.496  -1.045  1.00  0.00     0.049 A 
ATOM     61  C   UNL     1       4.014   6.089  -2.709  1.00  0.00     0.074 A 
ATOM     62  C   UNL     1      -0.762   9.858   0.078  1.00  0.00     0.029 A 
ATOM     63  N   UNL     1      -0.479   9.291  -2.035  1.00  0.00    -0.354 N 
ATOM     64  N   UNL     1       2.873   6.787  -2.753  1.00  0.00    -0.248 NA
ATOM     65  C   UNL     1       5.139   6.991  -2.920  1.00  0.00     0.031 C 
ATOM     66  C   UNL     1       0.666   9.772  -0.222  1.00  0.00     0.029 A 
ATOM     67  C   UNL     1       0.878   9.331  -1.545  1.00  0.00     0.049 A 
ATOM     68  H   UNL     1      -0.692   9.134  -2.983  1.00  0.00     0.167 HD
ATOM     69  C   UNL     1       3.077   8.195  -2.706  1.00  0.00     0.074 A 
ATOM     70  C   UNL     1       4.552   8.210  -2.876  1.00  0.00     0.031 C 
ATOM     71  C   UNL     1       2.158   9.281  -2.470  1.00  0.00     0.037 A 
BRANCH  58  72
ATOM     72  C   UNL     1      -4.231   9.768  -0.799  1.00  0.00     0.064 A 
ATOM     73  C   UNL     1      -4.173  11.038  -0.204  1.00  0.00     0.173 A 
ATOM     74  C   UNL     1      -5.521   9.164  -0.757  1.00  0.00     0.173 A 
ATOM     75  F   UNL     1      -3.010  11.694  -0.098  1.00  0.00    -0.203 F 
ATOM     76  C   UNL     1      -5.309  11.673   0.320  1.00  0.00     0.198 A 
ATOM     77  C   UNL     1      -6.660   9.818  -0.280  1.00  0.00     0.198 A 
ATOM     78  F   UNL     1      -5.742   7.896  -1.122  1.00  0.00    -0.203 F 
ATOM     79  F   UNL     1      -5.189  12.879   0.893  1.00  0.00    -0.200 F 
ATOM     80  C   UNL     1      -6.556  11.079   0.254  1.00  0.00     0.200 A 
ATOM     81  F   UNL     1      -7.853   9.204  -0.335  1.00  0.00    -0.200 F 
ATOM     82  F   UNL     1      -7.645  11.710   0.712  1.00  0.00    -0.200 F 
ENDBRANCH  58  72
BRANCH  59  83
ATOM     83  C   UNL     1       4.316   3.097  -2.381  1.00  0.00     0.064 A 
ATOM     84  C   UNL     1       4.500   2.058  -1.397  1.00  0.00     0.173 A 
ATOM     85  C   UNL     1       3.956   2.501  -3.597  1.00  0.00     0.173 A 
ATOM     86  F   UNL     1       5.585   2.105  -0.621  1.00  0.00    -0.203 F 
ATOM     87  C   UNL     1       3.906   0.764  -1.404  1.00  0.00     0.198 A 
ATOM     88  C   UNL     1       3.514   1.118  -3.692  1.00  0.00     0.198 A 
ATOM     89  F   UNL     1       3.885   3.248  -4.701  1.00  0.00    -0.203 F 
ATOM     90  F   UNL     1       3.860   0.004  -0.293  1.00  0.00    -0.200 F 
ATOM     91  C   UNL     1       3.377   0.298  -2.571  1.00  0.00     0.200 A 
ATOM     92  F   UNL     1       3.029   0.659  -4.855  1.00  0.00    -0.200 F 
ATOM     93  F   UNL     1       2.694  -0.859  -2.604  1.00  0.00    -0.200 F 
ENDBRANCH  59  83
BRANCH  71  94
ATOM     94  C   UNL     1       2.271  10.589  -3.293  1.00  0.00     0.064 A 
ATOM     95  C   UNL     1       3.223  10.828  -4.291  1.00  0.00     0.173 A 
ATOM     96  C   UNL     1       1.233  11.573  -3.247  1.00  0.00     0.173 A 
ATOM     97  F   UNL     1       4.233   9.993  -4.539  1.00  0.00    -0.203 F 
ATOM     98  C   UNL     1       3.149  11.929  -5.147  1.00  0.00     0.198 A 
ATOM     99  C   UNL     1       1.099  12.596  -4.176  1.00  0.00     0.198 A 
ATOM    100  F   UNL     1       0.271  11.598  -2.319  1.00  0.00    -0.203 F 
ATOM    101  F   UNL     1       4.126  12.118  -6.043  1.00  0.00    -0.200 F 
ATOM    102  C   UNL     1       2.072  12.787  -5.118  1.00  0.00     0.200 A 
ATOM    103  F   UNL     1       0.005  13.370  -4.153  1.00  0.00    -0.200 F 
ATOM    104  F   UNL     1       1.970  13.789  -5.997  1.00  0.00    -0.200 F 
ENDBRANCH  71  94
ENDBRANCH  45  46
ENDBRANCH  38  40
ENDBRANCH  37  38
ENDBRANCH  36  37
ENDBRANCH  35  36
ENDBRANCH  34  35
ENDBRANCH  33  34
ENDBRANCH   1  33
TORSDOF 21
