REMARK SMILES CC[C@@H]([NH3+])C(=O)N1CC[C@H](C(=O)OCCOCCOCCOCCOC(=O)c2ccc(-c3c4nc(c(-c5c(F)c(F)c(F)c(F)c5F)c5ccc([nH]5)c(-c5c(F)c(F)c(F)c(F)c5F)c5nc(c(-c6c(F)c(F)c(F)c(F)c6F)c6ccc3[nH]6)C=C5)C=C4)cc2)[C@@H]1C
REMARK SMILES IDX 18 1 17 2 16 3 15 4 14 5 13 6 11 7 12 8 10 9 7 10 8 11 91 12
REMARK SMILES IDX 9 13 92 14 5 15 6 16 3 17 2 18 1 19 4 20 19 24 20 25 21 26
REMARK SMILES IDX 22 27 23 28 24 29 25 30 26 31 27 32 28 33 29 34 90 35 30 36
REMARK SMILES IDX 89 37 31 38 32 39 33 40 83 41 34 42 88 43 82 44 84 45 35 46
REMARK SMILES IDX 87 47 81 48 80 49 36 51 68 52 48 53 67 54 49 55 52 56 66 57
REMARK SMILES IDX 85 58 50 59 51 60 65 62 86 63 53 64 37 65 38 66 46 67 39 68
REMARK SMILES IDX 40 69 44 70 47 71 41 72 42 73 45 74 43 75 69 76 70 77 78 78
REMARK SMILES IDX 71 79 72 80 76 81 79 82 73 83 74 84 77 85 75 86 54 87 55 88
REMARK SMILES IDX 63 89 56 90 57 91 61 92 64 93 58 94 59 95 62 96 60 97
REMARK H PARENT 4 21 4 22 4 23 84 50 52 61
REMARK Flexibility Score: inf
ROOT
ATOM      1  C   UNL     1      -5.929  -0.239   3.701  1.00  0.00     0.188 C 
ENDROOT
BRANCH   1   2
ATOM      2  C   UNL     1      -5.704  -1.730   3.363  1.00  0.00     0.188 C 
BRANCH   2   3
ATOM      3  O   UNL     1      -6.349  -2.623   4.266  1.00  0.00    -0.376 OA
BRANCH   3   4
ATOM      4  C   UNL     1      -5.545  -3.345   5.189  1.00  0.00     0.202 C 
BRANCH   4   5
ATOM      5  C   UNL     1      -4.810  -2.538   6.273  1.00  0.00     0.261 C 
BRANCH   5   6
ATOM      6  O   UNL     1      -4.030  -1.450   5.763  1.00  0.00    -0.463 OA
BRANCH   6   7
ATOM      7  C   UNL     1      -2.912  -1.784   5.067  1.00  0.00     0.311 C 
ATOM      8  O   UNL     1      -2.476  -2.922   5.015  1.00  0.00    -0.252 OA
BRANCH   7   9
ATOM      9  C   UNL     1      -2.481  -0.586   4.222  1.00  0.00     0.123 C 
ATOM     10  N   UNL     1      -0.209   0.070   4.090  1.00  0.00    -0.334 N 
ATOM     11  C   UNL     1      -0.759   0.584   5.337  1.00  0.00     0.121 C 
ATOM     12  C   UNL     1      -1.219  -0.684   3.357  1.00  0.00     0.096 C 
ATOM     13  C   UNL     1      -2.251   0.663   5.066  1.00  0.00     0.039 C 
ATOM     14  C   UNL     1      -0.825  -2.114   3.007  1.00  0.00     0.032 C 
BRANCH  10  15
ATOM     15  C   UNL     1       1.017   0.536   3.671  1.00  0.00     0.280 C 
ATOM     16  O   UNL     1       1.844   0.920   4.510  1.00  0.00    -0.268 OA
BRANCH  15  17
ATOM     17  C   UNL     1       1.288   0.866   2.167  1.00  0.00     0.270 C 
BRANCH  17  18
ATOM     18  C   UNL     1       1.024  -0.197   1.102  1.00  0.00     0.072 C 
ATOM     19  C   UNL     1       1.530   0.162  -0.289  1.00  0.00     0.011 C 
ENDBRANCH  17  18
BRANCH  17  20
ATOM     20  N   UNL     1       0.574   2.127   1.856  1.00  0.00    -0.347 N 
ATOM     21  H   UNL     1      -0.432   1.979   1.944  1.00  0.00     0.345 HD
ATOM     22  H   UNL     1       0.792   2.415   0.902  1.00  0.00     0.345 HD
ATOM     23  H   UNL     1       0.869   2.854   2.507  1.00  0.00     0.345 HD
ENDBRANCH  17  20
ENDBRANCH  15  17
ENDBRANCH  10  15
ENDBRANCH   7   9
ENDBRANCH   6   7
ENDBRANCH   5   6
ENDBRANCH   4   5
ENDBRANCH   3   4
ENDBRANCH   2   3
ENDBRANCH   1   2
BRANCH   1  24
ATOM     24  O   UNL     1      -6.338   0.027   5.028  1.00  0.00    -0.377 OA
BRANCH  24  25
ATOM     25  C   UNL     1      -7.630  -0.409   5.440  1.00  0.00     0.188 C 
BRANCH  25  26
ATOM     26  C   UNL     1      -8.636  -1.101   4.482  1.00  0.00     0.188 C 
BRANCH  26  27
ATOM     27  O   UNL     1      -8.421  -0.875   3.099  1.00  0.00    -0.376 OA
BRANCH  27  28
ATOM     28  C   UNL     1      -9.291   0.009   2.414  1.00  0.00     0.202 C 
BRANCH  28  29
ATOM     29  C   UNL     1      -9.237   1.488   2.819  1.00  0.00     0.261 C 
BRANCH  29  30
ATOM     30  O   UNL     1      -9.396   1.764   4.218  1.00  0.00    -0.460 OA
BRANCH  30  31
ATOM     31  C   UNL     1     -10.578   1.442   4.785  1.00  0.00     0.338 C 
ATOM     32  O   UNL     1     -11.551   0.948   4.242  1.00  0.00    -0.246 OA
BRANCH  31  33
ATOM     33  C   UNL     1     -10.426   1.615   6.244  1.00  0.00     0.060 A 
ATOM     34  C   UNL     1     -10.605   0.512   7.092  1.00  0.00     0.016 A 
ATOM     35  C   UNL     1     -10.068   2.860   6.764  1.00  0.00     0.016 A 
ATOM     36  C   UNL     1     -10.462   0.662   8.472  1.00  0.00     0.010 A 
ATOM     37  C   UNL     1      -9.958   3.017   8.145  1.00  0.00     0.010 A 
ATOM     38  C   UNL     1     -10.194   1.929   9.005  1.00  0.00    -0.014 A 
BRANCH  38  39
ATOM     39  C   UNL     1     -10.433   2.195  10.442  1.00  0.00     0.031 A 
ATOM     40  C   UNL     1     -11.773   2.763  10.821  1.00  0.00     0.074 A 
ATOM     41  C   UNL     1      -9.500   1.960  11.380  1.00  0.00     0.049 A 
ATOM     42  N   UNL     1     -12.189   3.230  11.969  1.00  0.00    -0.248 NA
ATOM     43  C   UNL     1     -12.782   2.821   9.748  1.00  0.00     0.031 C 
ATOM     44  C   UNL     1      -8.189   1.361  11.144  1.00  0.00     0.029 A 
ATOM     45  N   UNL     1      -9.512   2.227  12.727  1.00  0.00    -0.354 N 
ATOM     46  C   UNL     1     -13.497   3.641  11.753  1.00  0.00     0.074 A 
ATOM     47  C   UNL     1     -13.800   3.402  10.361  1.00  0.00     0.031 C 
ATOM     48  C   UNL     1      -7.508   1.335  12.304  1.00  0.00     0.029 A 
ATOM     49  C   UNL     1      -8.320   1.954  13.352  1.00  0.00     0.049 A 
ATOM     50  H   UNL     1     -10.301   2.581  13.200  1.00  0.00     0.167 HD
ATOM     51  C   UNL     1     -14.373   4.164  12.641  1.00  0.00     0.037 A 
ATOM     52  C   UNL     1      -7.925   2.216  14.614  1.00  0.00     0.037 A 
ATOM     53  C   UNL     1     -14.063   4.409  14.023  1.00  0.00     0.049 A 
ATOM     54  C   UNL     1      -8.890   2.889  15.564  1.00  0.00     0.074 A 
ATOM     55  C   UNL     1     -14.871   4.954  15.004  1.00  0.00     0.029 A 
ATOM     56  N   UNL     1     -12.844   4.122  14.617  1.00  0.00    -0.354 N 
ATOM     57  N   UNL     1     -10.127   3.276  15.357  1.00  0.00    -0.248 NA
ATOM     58  C   UNL     1      -8.405   3.162  16.925  1.00  0.00     0.031 C 
ATOM     59  C   UNL     1     -14.124   5.042  16.181  1.00  0.00     0.029 A 
ATOM     60  C   UNL     1     -12.874   4.490  15.950  1.00  0.00     0.049 A 
ATOM     61  H   UNL     1     -12.072   3.718  14.159  1.00  0.00     0.167 HD
ATOM     62  C   UNL     1     -10.578   3.788  16.569  1.00  0.00     0.074 A 
ATOM     63  C   UNL     1      -9.485   3.661  17.508  1.00  0.00     0.031 C 
ATOM     64  C   UNL     1     -11.788   4.314  16.879  1.00  0.00     0.037 A 
BRANCH  51  65
ATOM     65  C   UNL     1     -15.741   4.521  12.143  1.00  0.00     0.064 A 
ATOM     66  C   UNL     1     -16.676   3.534  11.797  1.00  0.00     0.173 A 
ATOM     67  C   UNL     1     -16.139   5.863  12.057  1.00  0.00     0.173 A 
ATOM     68  F   UNL     1     -16.337   2.236  11.843  1.00  0.00    -0.203 F 
ATOM     69  C   UNL     1     -17.956   3.879  11.370  1.00  0.00     0.198 A 
ATOM     70  C   UNL     1     -17.429   6.203  11.660  1.00  0.00     0.198 A 
ATOM     71  F   UNL     1     -15.282   6.845  12.374  1.00  0.00    -0.203 F 
ATOM     72  F   UNL     1     -18.820   2.921  11.007  1.00  0.00    -0.200 F 
ATOM     73  C   UNL     1     -18.334   5.212  11.312  1.00  0.00     0.200 A 
ATOM     74  F   UNL     1     -17.797   7.491  11.617  1.00  0.00    -0.200 F 
ATOM     75  F   UNL     1     -19.572   5.541  10.918  1.00  0.00    -0.200 F 
ENDBRANCH  51  65
BRANCH  52  76
ATOM     76  C   UNL     1      -6.543   1.886  15.060  1.00  0.00     0.064 A 
ATOM     77  C   UNL     1      -6.313   0.944  16.073  1.00  0.00     0.173 A 
ATOM     78  C   UNL     1      -5.429   2.556  14.533  1.00  0.00     0.173 A 
ATOM     79  F   UNL     1      -7.345   0.294  16.630  1.00  0.00    -0.203 F 
ATOM     80  C   UNL     1      -5.030   0.716  16.569  1.00  0.00     0.198 A 
ATOM     81  C   UNL     1      -4.142   2.300  15.004  1.00  0.00     0.198 A 
ATOM     82  F   UNL     1      -5.589   3.470  13.564  1.00  0.00    -0.203 F 
ATOM     83  F   UNL     1      -4.850  -0.134  17.590  1.00  0.00    -0.200 F 
ATOM     84  C   UNL     1      -3.945   1.392  16.032  1.00  0.00     0.200 A 
ATOM     85  F   UNL     1      -3.096   2.948  14.474  1.00  0.00    -0.200 F 
ATOM     86  F   UNL     1      -2.714   1.181  16.517  1.00  0.00    -0.200 F 
ENDBRANCH  52  76
BRANCH  64  87
ATOM     87  C   UNL     1     -12.035   4.715  18.305  1.00  0.00     0.064 A 
ATOM     88  C   UNL     1     -11.430   5.842  18.878  1.00  0.00     0.173 A 
ATOM     89  C   UNL     1     -12.954   3.994  19.086  1.00  0.00     0.173 A 
ATOM     90  F   UNL     1     -10.538   6.559  18.178  1.00  0.00    -0.203 F 
ATOM     91  C   UNL     1     -11.720   6.221  20.186  1.00  0.00     0.198 A 
ATOM     92  C   UNL     1     -13.266   4.396  20.381  1.00  0.00     0.198 A 
ATOM     93  F   UNL     1     -13.569   2.914  18.581  1.00  0.00    -0.203 F 
ATOM     94  F   UNL     1     -11.099   7.278  20.729  1.00  0.00    -0.200 F 
ATOM     95  C   UNL     1     -12.645   5.505  20.932  1.00  0.00     0.200 A 
ATOM     96  F   UNL     1     -14.175   3.713  21.091  1.00  0.00    -0.200 F 
ATOM     97  F   UNL     1     -12.935   5.882  22.185  1.00  0.00    -0.200 F 
ENDBRANCH  64  87
ENDBRANCH  38  39
ENDBRANCH  31  33
ENDBRANCH  30  31
ENDBRANCH  29  30
ENDBRANCH  28  29
ENDBRANCH  27  28
ENDBRANCH  26  27
ENDBRANCH  25  26
ENDBRANCH  24  25
ENDBRANCH   1  24
TORSDOF 24
