REMARK SMILES COc1cccc(/C=C(/CC(=O)OCCOCCOCCOCCOC(=O)c2ccc(-c3c4nc(c(-c5c(F)c(F)c(F)c(F)c5F)c5ccc([nH]5)c(-c5c(F)c(F)c(F)c(F)c5F)c5nc(c(-c6c(F)c(F)c(F)c(F)c6F)c6ccc3[nH]6)C=C5)C=C4)cc2)c2nc3ccccc3o2)c1
REMARK SMILES IDX 18 1 17 2 16 3 15 4 14 5 13 6 11 7 12 8 10 9 9 10 8 11 7 12
REMARK SMILES IDX 3 13 4 14 100 15 5 16 6 17 2 18 1 19 91 20 92 21 99 22 93 23
REMARK SMILES IDX 98 24 94 25 97 26 95 27 96 28 19 29 20 30 21 31 22 32 23 33
REMARK SMILES IDX 24 34 25 35 26 36 27 37 28 38 29 39 90 40 30 41 89 42 31 43
REMARK SMILES IDX 32 44 33 45 83 46 34 47 88 48 82 49 84 50 35 51 87 52 81 53
REMARK SMILES IDX 80 54 36 56 68 57 48 58 67 59 49 60 52 61 66 62 85 63 50 64
REMARK SMILES IDX 51 65 65 67 86 68 53 69 37 70 38 71 46 72 39 73 40 74 44 75
REMARK SMILES IDX 47 76 41 77 42 78 45 79 43 80 69 81 70 82 78 83 71 84 72 85
REMARK SMILES IDX 76 86 79 87 73 88 74 89 77 90 75 91 54 92 55 93 63 94 56 95
REMARK SMILES IDX 57 96 61 97 64 98 58 99 59 100 62 101 60 102
REMARK H PARENT 84 55 52 66
REMARK Flexibility Score: inf
ROOT
ATOM      1  C   UNL     1       5.186   6.439  -4.683  1.00  0.00     0.188 C 
ENDROOT
BRANCH   1   2
ATOM      2  C   UNL     1       6.346   7.444  -4.667  1.00  0.00     0.188 C 
BRANCH   2   3
ATOM      3  O   UNL     1       7.572   7.148  -5.318  1.00  0.00    -0.376 OA
BRANCH   3   4
ATOM      4  C   UNL     1       7.900   5.798  -5.586  1.00  0.00     0.202 C 
BRANCH   4   5
ATOM      5  C   UNL     1       8.085   4.836  -4.393  1.00  0.00     0.261 C 
BRANCH   5   6
ATOM      6  O   UNL     1       7.031   4.793  -3.392  1.00  0.00    -0.463 OA
BRANCH   6   7
ATOM      7  C   UNL     1       7.276   5.419  -2.208  1.00  0.00     0.310 C 
ATOM      8  O   UNL     1       8.359   5.926  -1.929  1.00  0.00    -0.252 OA
BRANCH   7   9
ATOM      9  C   UNL     1       6.147   5.329  -1.152  1.00  0.00     0.163 C 
BRANCH   9  10
ATOM     10  C   UNL     1       4.628   5.421  -1.448  1.00  0.00     0.026 C 
ATOM     11  C   UNL     1       3.941   4.248  -1.499  1.00  0.00     0.018 C 
BRANCH  11  12
ATOM     12  C   UNL     1       2.534   3.789  -1.695  1.00  0.00    -0.021 A 
ATOM     13  C   UNL     1       0.930   1.942  -1.410  1.00  0.00     0.119 A 
ATOM     14  C   UNL     1      -0.037   2.671  -2.094  1.00  0.00     0.046 A 
ATOM     15  C   UNL     1       2.197   2.503  -1.203  1.00  0.00     0.054 A 
ATOM     16  C   UNL     1       0.267   3.936  -2.588  1.00  0.00     0.004 A 
ATOM     17  C   UNL     1       1.552   4.469  -2.423  1.00  0.00     0.008 A 
BRANCH  13  18
ATOM     18  O   UNL     1       0.546   0.675  -1.067  1.00  0.00    -0.497 OA
ATOM     19  C   UNL     1       1.172   0.103   0.073  1.00  0.00     0.278 C 
ENDBRANCH  13  18
ENDBRANCH  11  12
BRANCH  10  20
ATOM     20  C   UNL     1       4.000   6.722  -1.607  1.00  0.00     0.223 A 
ATOM     21  N   UNL     1       4.675   7.819  -1.949  1.00  0.00    -0.210 NA
ATOM     22  O   UNL     1       2.636   6.988  -1.531  1.00  0.00    -0.436 OA
ATOM     23  C   UNL     1       3.728   8.742  -2.320  1.00  0.00     0.110 A 
ATOM     24  C   UNL     1       2.471   8.235  -2.065  1.00  0.00     0.155 A 
ATOM     25  C   UNL     1       3.847   9.979  -2.974  1.00  0.00     0.032 A 
ATOM     26  C   UNL     1       1.279   8.869  -2.411  1.00  0.00     0.049 A 
ATOM     27  C   UNL     1       2.671  10.624  -3.393  1.00  0.00     0.003 A 
ATOM     28  C   UNL     1       1.411  10.078  -3.114  1.00  0.00     0.004 A 
ENDBRANCH  10  20
ENDBRANCH   9  10
ENDBRANCH   7   9
ENDBRANCH   6   7
ENDBRANCH   5   6
ENDBRANCH   4   5
ENDBRANCH   3   4
ENDBRANCH   2   3
ENDBRANCH   1   2
BRANCH   1  29
ATOM     29  O   UNL     1       5.171   5.463  -5.699  1.00  0.00    -0.377 OA
BRANCH  29  30
ATOM     30  C   UNL     1       4.351   5.680  -6.829  1.00  0.00     0.188 C 
BRANCH  30  31
ATOM     31  C   UNL     1       4.267   7.120  -7.333  1.00  0.00     0.188 C 
BRANCH  31  32
ATOM     32  O   UNL     1       3.469   8.071  -6.623  1.00  0.00    -0.376 OA
BRANCH  32  33
ATOM     33  C   UNL     1       2.413   7.648  -5.769  1.00  0.00     0.202 C 
BRANCH  33  34
ATOM     34  C   UNL     1       1.014   7.981  -6.259  1.00  0.00     0.261 C 
BRANCH  34  35
ATOM     35  O   UNL     1       0.552   6.879  -7.040  1.00  0.00    -0.460 OA
BRANCH  35  36
ATOM     36  C   UNL     1       1.045   6.869  -8.300  1.00  0.00     0.338 C 
ATOM     37  O   UNL     1       1.434   7.815  -8.946  1.00  0.00    -0.246 OA
BRANCH  36  38
ATOM     38  C   UNL     1       1.247   5.457  -8.691  1.00  0.00     0.060 A 
ATOM     39  C   UNL     1       2.262   5.185  -9.620  1.00  0.00     0.016 A 
ATOM     40  C   UNL     1       0.483   4.421  -8.143  1.00  0.00     0.016 A 
ATOM     41  C   UNL     1       2.470   3.887 -10.060  1.00  0.00     0.010 A 
ATOM     42  C   UNL     1       0.673   3.124  -8.598  1.00  0.00     0.010 A 
ATOM     43  C   UNL     1       1.623   2.874  -9.601  1.00  0.00    -0.014 A 
BRANCH  43  44
ATOM     44  C   UNL     1       1.492   1.640 -10.390  1.00  0.00     0.031 A 
ATOM     45  C   UNL     1       0.404   1.614 -11.425  1.00  0.00     0.074 A 
ATOM     46  C   UNL     1       2.300   0.593 -10.173  1.00  0.00     0.049 A 
ATOM     47  N   UNL     1      -0.031   0.621 -12.151  1.00  0.00    -0.248 NA
ATOM     48  C   UNL     1      -0.303   2.888 -11.662  1.00  0.00     0.031 C 
ATOM     49  C   UNL     1       3.414   0.567  -9.228  1.00  0.00     0.029 A 
ATOM     50  N   UNL     1       2.285  -0.659 -10.722  1.00  0.00    -0.354 N 
ATOM     51  C   UNL     1      -1.064   1.147 -12.916  1.00  0.00     0.074 A 
ATOM     52  C   UNL     1      -1.218   2.534 -12.549  1.00  0.00     0.031 C 
ATOM     53  C   UNL     1       3.964  -0.660  -9.244  1.00  0.00     0.029 A 
ATOM     54  C   UNL     1       3.208  -1.507 -10.164  1.00  0.00     0.049 A 
ATOM     55  H   UNL     1       1.673  -0.926 -11.446  1.00  0.00     0.167 HD
ATOM     56  C   UNL     1      -1.813   0.517 -13.848  1.00  0.00     0.037 A 
ATOM     57  C   UNL     1       3.379  -2.827 -10.361  1.00  0.00     0.037 A 
ATOM     58  C   UNL     1      -1.645  -0.870 -14.178  1.00  0.00     0.049 A 
ATOM     59  C   UNL     1       2.470  -3.529 -11.339  1.00  0.00     0.074 A 
ATOM     60  C   UNL     1      -2.346  -1.633 -15.092  1.00  0.00     0.029 A 
ATOM     61  N   UNL     1      -0.704  -1.704 -13.589  1.00  0.00    -0.354 N 
ATOM     62  N   UNL     1       1.495  -3.035 -12.066  1.00  0.00    -0.248 NA
ATOM     63  C   UNL     1       2.683  -4.970 -11.526  1.00  0.00     0.031 C 
ATOM     64  C   UNL     1      -1.865  -2.942 -15.016  1.00  0.00     0.029 A 
ATOM     65  C   UNL     1      -0.815  -2.979 -14.109  1.00  0.00     0.049 A 
ATOM     66  H   UNL     1      -0.053  -1.427 -12.903  1.00  0.00     0.167 HD
ATOM     67  C   UNL     1       1.014  -4.089 -12.832  1.00  0.00     0.074 A 
ATOM     68  C   UNL     1       1.802  -5.252 -12.475  1.00  0.00     0.031 C 
ATOM     69  C   UNL     1       0.018  -4.099 -13.752  1.00  0.00     0.037 A 
BRANCH  56  70
ATOM     70  C   UNL     1      -2.885   1.310 -14.536  1.00  0.00     0.064 A 
ATOM     71  C   UNL     1      -2.579   2.345 -15.433  1.00  0.00     0.173 A 
ATOM     72  C   UNL     1      -4.238   1.019 -14.310  1.00  0.00     0.173 A 
ATOM     73  F   UNL     1      -1.301   2.681 -15.667  1.00  0.00    -0.203 F 
ATOM     74  C   UNL     1      -3.588   3.073 -16.059  1.00  0.00     0.198 A 
ATOM     75  C   UNL     1      -5.244   1.726 -14.963  1.00  0.00     0.198 A 
ATOM     76  F   UNL     1      -4.588   0.044 -13.457  1.00  0.00    -0.203 F 
ATOM     77  F   UNL     1      -3.272   4.091 -16.871  1.00  0.00    -0.200 F 
ATOM     78  C   UNL     1      -4.918   2.757 -15.832  1.00  0.00     0.200 A 
ATOM     79  F   UNL     1      -6.529   1.413 -14.749  1.00  0.00    -0.200 F 
ATOM     80  F   UNL     1      -5.888   3.451 -16.443  1.00  0.00    -0.200 F 
ENDBRANCH  56  70
BRANCH  57  81
ATOM     81  C   UNL     1       4.433  -3.565  -9.616  1.00  0.00     0.064 A 
ATOM     82  C   UNL     1       5.528  -4.128 -10.286  1.00  0.00     0.173 A 
ATOM     83  C   UNL     1       4.362  -3.739  -8.226  1.00  0.00     0.173 A 
ATOM     84  F   UNL     1       5.634  -4.004 -11.617  1.00  0.00    -0.203 F 
ATOM     85  C   UNL     1       6.496  -4.859  -9.599  1.00  0.00     0.198 A 
ATOM     86  C   UNL     1       5.347  -4.443  -7.535  1.00  0.00     0.198 A 
ATOM     87  F   UNL     1       3.338  -3.218  -7.533  1.00  0.00    -0.203 F 
ATOM     88  F   UNL     1       7.502  -5.432 -10.273  1.00  0.00    -0.200 F 
ATOM     89  C   UNL     1       6.407  -5.012  -8.224  1.00  0.00     0.200 A 
ATOM     90  F   UNL     1       5.266  -4.574  -6.204  1.00  0.00    -0.200 F 
ATOM     91  F   UNL     1       7.337  -5.715  -7.564  1.00  0.00    -0.200 F 
ENDBRANCH  57  81
BRANCH  69  92
ATOM     92  C   UNL     1      -0.221  -5.376 -14.502  1.00  0.00     0.064 A 
ATOM     93  C   UNL     1      -0.829  -6.487 -13.902  1.00  0.00     0.173 A 
ATOM     94  C   UNL     1       0.084  -5.447 -15.871  1.00  0.00     0.173 A 
ATOM     95  F   UNL     1      -1.128  -6.470 -12.595  1.00  0.00    -0.203 F 
ATOM     96  C   UNL     1      -1.112  -7.630 -14.645  1.00  0.00     0.198 A 
ATOM     97  C   UNL     1      -0.232  -6.576 -16.616  1.00  0.00     0.198 A 
ATOM     98  F   UNL     1       0.656  -4.403 -16.491  1.00  0.00    -0.203 F 
ATOM     99  F   UNL     1      -1.661  -8.695 -14.046  1.00  0.00    -0.200 F 
ATOM    100  C   UNL     1      -0.825  -7.669 -16.002  1.00  0.00     0.200 A 
ATOM    101  F   UNL     1       0.026  -6.603 -17.931  1.00  0.00    -0.200 F 
ATOM    102  F   UNL     1      -1.120  -8.761 -16.719  1.00  0.00    -0.200 F 
ENDBRANCH  69  92
ENDBRANCH  43  44
ENDBRANCH  36  38
ENDBRANCH  35  36
ENDBRANCH  34  35
ENDBRANCH  33  34
ENDBRANCH  32  33
ENDBRANCH  31  32
ENDBRANCH  30  31
ENDBRANCH  29  30
ENDBRANCH   1  29
TORSDOF 24
