REMARK SMILES Cc1nc(-c2ccccc2)sc1C(=O)N[C@@H](CC1=c2ccccc2=NC1)C(=O)OCCOCCOCCOCCOC(=O)c1ccc(-c2c3nc(c(-c4c(F)c(F)c(F)c(F)c4F)c4ccc([nH]4)c(-c4c(F)c(F)c(F)c(F)c4F)c4nc(c(-c5c(F)c(F)c(F)c(F)c5F)c5ccc2[nH]5)C=C4)C=C3)cc1
REMARK SMILES IDX 34 1 33 2 32 3 31 4 30 5 29 6 27 7 28 8 16 9 15 10 13 11
REMARK SMILES IDX 14 12 12 14 1 15 2 16 3 17 4 18 11 19 5 20 6 21 10 22 7 23
REMARK SMILES IDX 9 24 8 25 17 26 18 27 19 28 26 29 20 30 24 31 25 32 21 33
REMARK SMILES IDX 23 34 22 35 35 36 36 37 37 38 38 39 39 40 40 41 41 42 42 43
REMARK SMILES IDX 43 44 44 45 45 46 106 47 46 48 105 49 47 50 48 51 49 52
REMARK SMILES IDX 99 53 50 54 104 55 98 56 100 57 51 58 103 59 97 60 96 61
REMARK SMILES IDX 52 63 84 64 64 65 83 66 65 67 68 68 82 69 101 70 66 71 67 72
REMARK SMILES IDX 81 74 102 75 69 76 53 77 54 78 62 79 55 80 56 81 60 82 63 83
REMARK SMILES IDX 57 84 58 85 61 86 59 87 85 88 86 89 94 90 87 91 88 92 92 93
REMARK SMILES IDX 95 94 89 95 90 96 93 97 91 98 70 99 71 100 79 101 72 102
REMARK SMILES IDX 73 103 77 104 80 105 74 106 75 107 78 108 76 109
REMARK H PARENT 15 13 100 62 68 73
REMARK Flexibility Score: inf
ROOT
ATOM      1  C   UNL     1      -2.123  -2.677   3.001  1.00  0.00     0.188 C 
ENDROOT
BRANCH   1   2
ATOM      2  C   UNL     1      -3.137  -1.573   3.327  1.00  0.00     0.188 C 
BRANCH   2   3
ATOM      3  O   UNL     1      -4.239  -1.835   4.182  1.00  0.00    -0.376 OA
BRANCH   3   4
ATOM      4  C   UNL     1      -5.154  -2.887   3.908  1.00  0.00     0.202 C 
BRANCH   4   5
ATOM      5  C   UNL     1      -5.604  -3.247   2.484  1.00  0.00     0.261 C 
BRANCH   5   6
ATOM      6  O   UNL     1      -4.563  -3.231   1.495  1.00  0.00    -0.462 OA
BRANCH   6   7
ATOM      7  C   UNL     1      -4.741  -2.371   0.471  1.00  0.00     0.329 C 
ATOM      8  O   UNL     1      -5.768  -1.724   0.279  1.00  0.00    -0.250 OA
BRANCH   7   9
ATOM      9  C   UNL     1      -3.555  -2.278  -0.500  1.00  0.00     0.196 C 
BRANCH   9  10
ATOM     10  N   UNL     1      -2.210  -2.748  -0.196  1.00  0.00    -0.338 N 
ATOM     11  C   UNL     1      -0.965  -2.156  -0.297  1.00  0.00     0.264 C 
ATOM     12  O   UNL     1      -0.041  -2.981  -0.285  1.00  0.00    -0.268 OA
ATOM     13  H   UNL     1      -2.182  -3.669   0.149  1.00  0.00     0.164 HD
BRANCH  11  14
ATOM     14  C   UNL     1      -0.707  -0.707  -0.307  1.00  0.00     0.115 A 
ATOM     15  C   UNL     1      -2.839   0.853  -0.623  1.00  0.00     0.068 C 
ATOM     16  C   UNL     1      -1.420   0.493  -0.379  1.00  0.00     0.062 A 
ATOM     17  N   UNL     1      -0.671   1.633  -0.174  1.00  0.00    -0.241 NA
ATOM     18  C   UNL     1       0.606   1.382  -0.102  1.00  0.00     0.124 A 
ATOM     19  S   UNL     1       1.008  -0.264  -0.164  1.00  0.00    -0.108 S 
BRANCH  18  20
ATOM     20  C   UNL     1       1.564   2.479  -0.005  1.00  0.00     0.010 A 
ATOM     21  C   UNL     1       1.367   3.445   0.996  1.00  0.00     0.011 A 
ATOM     22  C   UNL     1       2.491   2.732  -1.023  1.00  0.00     0.011 A 
ATOM     23  C   UNL     1       2.053   4.657   0.963  1.00  0.00     0.001 A 
ATOM     24  C   UNL     1       3.172   3.952  -1.059  1.00  0.00     0.001 A 
ATOM     25  C   UNL     1       2.944   4.916  -0.076  1.00  0.00     0.000 A 
ENDBRANCH  18  20
ENDBRANCH  11  14
ENDBRANCH   9  10
BRANCH   9  26
ATOM     26  C   UNL     1      -3.996  -2.783  -1.883  1.00  0.00     0.070 C 
BRANCH  26  27
ATOM     27  C   UNL     1      -4.179  -4.268  -1.880  1.00  0.00    -0.037 C 
ATOM     28  C   UNL     1      -3.235  -5.197  -2.002  1.00  0.00     0.001 A 
ATOM     29  C   UNL     1      -5.503  -4.893  -1.563  1.00  0.00     0.174 C 
ATOM     30  C   UNL     1      -1.827  -5.179  -2.237  1.00  0.00     0.010 A 
ATOM     31  C   UNL     1      -3.946  -6.423  -1.612  1.00  0.00     0.065 A 
ATOM     32  N   UNL     1      -5.220  -6.335  -1.376  1.00  0.00    -0.280 NA
ATOM     33  C   UNL     1      -1.131  -6.310  -2.050  1.00  0.00     0.001 A 
ATOM     34  C   UNL     1      -3.115  -7.635  -1.455  1.00  0.00     0.028 A 
ATOM     35  C   UNL     1      -1.787  -7.543  -1.647  1.00  0.00     0.002 A 
ENDBRANCH  26  27
ENDBRANCH   9  26
ENDBRANCH   7   9
ENDBRANCH   6   7
ENDBRANCH   5   6
ENDBRANCH   4   5
ENDBRANCH   3   4
ENDBRANCH   2   3
ENDBRANCH   1   2
BRANCH   1  36
ATOM     36  O   UNL     1      -2.636  -3.991   3.003  1.00  0.00    -0.377 OA
BRANCH  36  37
ATOM     37  C   UNL     1      -2.446  -4.767   4.178  1.00  0.00     0.188 C 
BRANCH  37  38
ATOM     38  C   UNL     1      -2.245  -4.053   5.533  1.00  0.00     0.188 C 
BRANCH  38  39
ATOM     39  O   UNL     1      -1.336  -2.965   5.516  1.00  0.00    -0.376 OA
BRANCH  39  40
ATOM     40  C   UNL     1       0.034  -3.192   5.815  1.00  0.00     0.202 C 
BRANCH  40  41
ATOM     41  C   UNL     1       0.837  -4.179   4.949  1.00  0.00     0.261 C 
BRANCH  41  42
ATOM     42  O   UNL     1       0.349  -5.528   4.878  1.00  0.00    -0.460 OA
BRANCH  42  43
ATOM     43  C   UNL     1       0.162  -6.207   6.027  1.00  0.00     0.338 C 
ATOM     44  O   UNL     1       0.438  -5.840   7.157  1.00  0.00    -0.246 OA
BRANCH  43  45
ATOM     45  C   UNL     1      -0.642  -7.407   5.711  1.00  0.00     0.060 A 
ATOM     46  C   UNL     1      -1.892  -7.567   6.327  1.00  0.00     0.016 A 
ATOM     47  C   UNL     1      -0.173  -8.364   4.809  1.00  0.00     0.016 A 
ATOM     48  C   UNL     1      -2.659  -8.702   6.072  1.00  0.00     0.010 A 
ATOM     49  C   UNL     1      -0.929  -9.518   4.577  1.00  0.00     0.010 A 
ATOM     50  C   UNL     1      -2.157  -9.707   5.237  1.00  0.00    -0.014 A 
BRANCH  50  51
ATOM     51  C   UNL     1      -2.803 -11.042   5.236  1.00  0.00     0.031 A 
ATOM     52  C   UNL     1      -2.224 -12.108   6.125  1.00  0.00     0.074 A 
ATOM     53  C   UNL     1      -3.895 -11.298   4.496  1.00  0.00     0.049 A 
ATOM     54  N   UNL     1      -2.575 -13.361   6.265  1.00  0.00    -0.248 NA
ATOM     55  C   UNL     1      -1.090 -11.703   6.970  1.00  0.00     0.031 C 
ATOM     56  C   UNL     1      -4.581 -10.334   3.640  1.00  0.00     0.029 A 
ATOM     57  N   UNL     1      -4.612 -12.459   4.344  1.00  0.00    -0.354 N 
ATOM     58  C   UNL     1      -1.701 -13.892   7.205  1.00  0.00     0.074 A 
ATOM     59  C   UNL     1      -0.782 -12.838   7.576  1.00  0.00     0.031 C 
ATOM     60  C   UNL     1      -5.617 -10.948   3.040  1.00  0.00     0.029 A 
ATOM     61  C   UNL     1      -5.642 -12.354   3.442  1.00  0.00     0.049 A 
ATOM     62  H   UNL     1      -4.407 -13.287   4.835  1.00  0.00     0.167 HD
ATOM     63  C   UNL     1      -1.672 -15.145   7.719  1.00  0.00     0.037 A 
ATOM     64  C   UNL     1      -6.487 -13.296   2.979  1.00  0.00     0.037 A 
ATOM     65  C   UNL     1      -2.583 -16.192   7.341  1.00  0.00     0.049 A 
ATOM     66  C   UNL     1      -6.376 -14.709   3.497  1.00  0.00     0.074 A 
ATOM     67  C   UNL     1      -2.646 -17.492   7.811  1.00  0.00     0.029 A 
ATOM     68  N   UNL     1      -3.585 -16.061   6.390  1.00  0.00    -0.354 N 
ATOM     69  N   UNL     1      -5.563 -15.203   4.399  1.00  0.00    -0.248 NA
ATOM     70  C   UNL     1      -7.304 -15.697   2.928  1.00  0.00     0.031 C 
ATOM     71  C   UNL     1      -3.642 -18.166   7.097  1.00  0.00     0.029 A 
ATOM     72  C   UNL     1      -4.249 -17.268   6.233  1.00  0.00     0.049 A 
ATOM     73  H   UNL     1      -3.793 -15.234   5.899  1.00  0.00     0.167 HD
ATOM     74  C   UNL     1      -5.901 -16.544   4.530  1.00  0.00     0.074 A 
ATOM     75  C   UNL     1      -7.004 -16.785   3.624  1.00  0.00     0.031 C 
ATOM     76  C   UNL     1      -5.350 -17.492   5.330  1.00  0.00     0.037 A 
BRANCH  63  77
ATOM     77  C   UNL     1      -0.592 -15.457   8.716  1.00  0.00     0.064 A 
ATOM     78  C   UNL     1      -0.580 -14.890   9.999  1.00  0.00     0.173 A 
ATOM     79  C   UNL     1       0.439 -16.349   8.384  1.00  0.00     0.173 A 
ATOM     80  F   UNL     1      -1.533 -14.018  10.362  1.00  0.00    -0.203 F 
ATOM     81  C   UNL     1       0.443 -15.178  10.900  1.00  0.00     0.198 A 
ATOM     82  C   UNL     1       1.440 -16.662   9.300  1.00  0.00     0.198 A 
ATOM     83  F   UNL     1       0.475 -16.922   7.172  1.00  0.00    -0.203 F 
ATOM     84  F   UNL     1       0.466 -14.578  12.098  1.00  0.00    -0.200 F 
ATOM     85  C   UNL     1       1.447 -16.069  10.553  1.00  0.00     0.200 A 
ATOM     86  F   UNL     1       2.401 -17.534   8.967  1.00  0.00    -0.200 F 
ATOM     87  F   UNL     1       2.428 -16.348  11.422  1.00  0.00    -0.200 F 
ENDBRANCH  63  77
BRANCH  64  88
ATOM     88  C   UNL     1      -7.508 -12.941   1.956  1.00  0.00     0.064 A 
ATOM     89  C   UNL     1      -8.877 -12.978   2.256  1.00  0.00     0.173 A 
ATOM     90  C   UNL     1      -7.137 -12.583   0.651  1.00  0.00     0.173 A 
ATOM     91  F   UNL     1      -9.284 -13.344   3.481  1.00  0.00    -0.203 F 
ATOM     92  C   UNL     1      -9.835 -12.689   1.286  1.00  0.00     0.198 A 
ATOM     93  C   UNL     1      -8.095 -12.264  -0.309  1.00  0.00     0.198 A 
ATOM     94  F   UNL     1      -5.841 -12.540   0.309  1.00  0.00    -0.203 F 
ATOM     95  F   UNL     1     -11.138 -12.784   1.586  1.00  0.00    -0.200 F 
ATOM     96  C   UNL     1      -9.443 -12.325   0.007  1.00  0.00     0.200 A 
ATOM     97  F   UNL     1      -7.711 -11.907  -1.542  1.00  0.00    -0.200 F 
ATOM     98  F   UNL     1     -10.366 -12.047  -0.925  1.00  0.00    -0.200 F 
ENDBRANCH  64  88
BRANCH  76  99
ATOM     99  C   UNL     1      -5.954 -18.869   5.296  1.00  0.00     0.064 A 
ATOM    100  C   UNL     1      -5.820 -19.710   4.181  1.00  0.00     0.173 A 
ATOM    101  C   UNL     1      -6.640 -19.370   6.414  1.00  0.00     0.173 A 
ATOM    102  F   UNL     1      -5.185 -19.278   3.082  1.00  0.00    -0.203 F 
ATOM    103  C   UNL     1      -6.374 -20.988   4.177  1.00  0.00     0.198 A 
ATOM    104  C   UNL     1      -7.160 -20.661   6.420  1.00  0.00     0.198 A 
ATOM    105  F   UNL     1      -6.789 -18.613   7.512  1.00  0.00    -0.203 F 
ATOM    106  F   UNL     1      -6.279 -21.754   3.081  1.00  0.00    -0.200 F 
ATOM    107  C   UNL     1      -7.036 -21.465   5.298  1.00  0.00     0.200 A 
ATOM    108  F   UNL     1      -7.782 -21.126   7.512  1.00  0.00    -0.200 F 
ATOM    109  F   UNL     1      -7.559 -22.699   5.296  1.00  0.00    -0.200 F 
ENDBRANCH  76  99
ENDBRANCH  50  51
ENDBRANCH  43  45
ENDBRANCH  42  43
ENDBRANCH  41  42
ENDBRANCH  40  41
ENDBRANCH  39  40
ENDBRANCH  38  39
ENDBRANCH  37  38
ENDBRANCH  36  37
ENDBRANCH   1  36
TORSDOF 25
