REMARK SMILES COc1cc(NS(=O)(=O)c2cc(C(=O)OCCOCCOCCOCCOC(=O)c3ccc(-c4c5nc(c(-c6c(F)c(F)c(F)c(F)c6F)c6ccc([nH]6)c(-c6c(F)c(F)c(F)c(F)c6F)c6nc(c(-c7c(F)c(F)c(F)c(F)c7F)c7ccc4[nH]7)C=C6)C=C5)cc3)cc(C)c2C)ccc1N1CCCC1=O
REMARK SMILES IDX 20 1 19 2 18 3 17 4 16 5 15 6 13 7 14 8 12 9 10 10 11 11
REMARK SMILES IDX 96 12 94 13 97 14 93 15 95 16 7 17 8 18 9 19 6 20 5 22 3 23
REMARK SMILES IDX 4 24 100 25 99 26 98 27 2 28 1 29 101 30 102 31 105 32
REMARK SMILES IDX 103 33 104 34 106 35 21 36 22 37 23 38 24 39 25 40 26 41
REMARK SMILES IDX 27 42 28 43 29 44 30 45 31 46 92 47 32 48 91 49 33 50 34 51
REMARK SMILES IDX 35 52 85 53 36 54 90 55 84 56 86 57 37 58 89 59 83 60 82 61
REMARK SMILES IDX 38 63 70 64 50 65 69 66 51 67 54 68 68 69 87 70 52 71 53 72
REMARK SMILES IDX 67 74 88 75 55 76 39 77 40 78 48 79 41 80 42 81 46 82 49 83
REMARK SMILES IDX 43 84 44 85 47 86 45 87 71 88 72 89 80 90 73 91 74 92 78 93
REMARK SMILES IDX 81 94 75 95 76 96 79 97 77 98 56 99 57 100 65 101 58 102
REMARK SMILES IDX 59 103 63 104 66 105 60 106 61 107 64 108 62 109
REMARK H PARENT 6 21 86 62 54 73
REMARK Flexibility Score: inf
ROOT
ATOM      1  C   UNL     1      -4.340   3.077   3.119  1.00  0.00     0.188 C 
ENDROOT
BRANCH   1   2
ATOM      2  C   UNL     1      -3.168   3.991   3.543  1.00  0.00     0.188 C 
BRANCH   2   3
ATOM      3  O   UNL     1      -3.088   5.186   2.781  1.00  0.00    -0.376 OA
BRANCH   3   4
ATOM      4  C   UNL     1      -1.990   5.366   1.907  1.00  0.00     0.202 C 
BRANCH   4   5
ATOM      5  C   UNL     1      -1.837   4.419   0.704  1.00  0.00     0.261 C 
BRANCH   5   6
ATOM      6  O   UNL     1      -2.135   3.039   0.939  1.00  0.00    -0.460 OA
BRANCH   6   7
ATOM      7  C   UNL     1      -1.240   2.363   1.688  1.00  0.00     0.338 C 
ATOM      8  O   UNL     1      -0.190   2.800   2.127  1.00  0.00    -0.246 OA
BRANCH   7   9
ATOM      9  C   UNL     1      -1.875   1.095   2.123  1.00  0.00     0.061 A 
ATOM     10  C   UNL     1      -2.234  -0.528   3.899  1.00  0.00     0.091 A 
ATOM     11  C   UNL     1      -1.722   0.707   3.455  1.00  0.00     0.038 A 
ATOM     12  C   UNL     1      -2.970  -1.368   3.021  1.00  0.00    -0.028 A 
ATOM     13  C   UNL     1      -3.193  -0.913   1.690  1.00  0.00    -0.046 A 
ATOM     14  C   UNL     1      -3.384  -2.773   3.383  1.00  0.00     0.046 C 
ATOM     15  C   UNL     1      -2.640   0.310   1.257  1.00  0.00     0.019 A 
ATOM     16  C   UNL     1      -3.944  -1.712   0.652  1.00  0.00     0.044 C 
BRANCH  10  17
ATOM     17  S   UNL     1      -1.584  -1.086   5.473  1.00  0.00     0.262 S 
ATOM     18  O   UNL     1      -2.656  -1.726   6.205  1.00  0.00    -0.201 OA
ATOM     19  O   UNL     1      -0.854   0.002   6.088  1.00  0.00    -0.201 OA
BRANCH  17  20
ATOM     20  N   UNL     1      -0.431  -2.298   5.061  1.00  0.00    -0.279 N 
ATOM     21  H   UNL     1      -0.515  -3.211   5.418  1.00  0.00     0.180 HD
BRANCH  20  22
ATOM     22  C   UNL     1       0.664  -1.951   4.183  1.00  0.00     0.053 A 
ATOM     23  C   UNL     1       1.457  -0.941   2.111  1.00  0.00     0.144 A 
ATOM     24  C   UNL     1       0.438  -1.423   2.918  1.00  0.00     0.075 A 
ATOM     25  C   UNL     1       2.769  -1.246   2.439  1.00  0.00     0.086 A 
ATOM     26  C   UNL     1       3.020  -1.965   3.617  1.00  0.00     0.032 A 
ATOM     27  C   UNL     1       1.977  -2.264   4.516  1.00  0.00     0.029 A 
BRANCH  23  28
ATOM     28  O   UNL     1       1.104  -0.061   1.128  1.00  0.00    -0.494 OA
ATOM     29  C   UNL     1       0.867  -0.637  -0.143  1.00  0.00     0.278 C 
ENDBRANCH  23  28
BRANCH  25  30
ATOM     30  N   UNL     1       3.811  -0.994   1.531  1.00  0.00    -0.309 N 
ATOM     31  C   UNL     1       4.277  -2.071   0.694  1.00  0.00     0.126 C 
ATOM     32  C   UNL     1       4.040   0.254   0.941  1.00  0.00     0.227 C 
ATOM     33  C   UNL     1       5.308  -1.409  -0.193  1.00  0.00     0.032 C 
ATOM     34  C   UNL     1       4.791   0.013  -0.346  1.00  0.00     0.102 C 
ATOM     35  O   UNL     1       3.689   1.355   1.331  1.00  0.00    -0.275 OA
ENDBRANCH  25  30
ENDBRANCH  20  22
ENDBRANCH  17  20
ENDBRANCH  10  17
ENDBRANCH   7   9
ENDBRANCH   6   7
ENDBRANCH   5   6
ENDBRANCH   4   5
ENDBRANCH   3   4
ENDBRANCH   2   3
ENDBRANCH   1   2
BRANCH   1  36
ATOM     36  O   UNL     1      -5.028   3.373   1.913  1.00  0.00    -0.377 OA
BRANCH  36  37
ATOM     37  C   UNL     1      -5.503   4.699   1.701  1.00  0.00     0.188 C 
BRANCH  37  38
ATOM     38  C   UNL     1      -5.788   5.659   2.885  1.00  0.00     0.188 C 
BRANCH  38  39
ATOM     39  O   UNL     1      -5.691   5.083   4.176  1.00  0.00    -0.376 OA
BRANCH  39  40
ATOM     40  C   UNL     1      -6.885   4.779   4.874  1.00  0.00     0.202 C 
BRANCH  40  41
ATOM     41  C   UNL     1      -7.851   3.772   4.234  1.00  0.00     0.261 C 
BRANCH  41  42
ATOM     42  O   UNL     1      -8.239   4.041   2.879  1.00  0.00    -0.460 OA
BRANCH  42  43
ATOM     43  C   UNL     1      -8.961   5.155   2.648  1.00  0.00     0.338 C 
ATOM     44  O   UNL     1      -9.344   5.977   3.467  1.00  0.00    -0.246 OA
BRANCH  43  45
ATOM     45  C   UNL     1      -9.057   5.319   1.185  1.00  0.00     0.060 A 
ATOM     46  C   UNL     1      -8.483   6.445   0.577  1.00  0.00     0.016 A 
ATOM     47  C   UNL     1      -9.686   4.340   0.413  1.00  0.00     0.016 A 
ATOM     48  C   UNL     1      -8.554   6.603  -0.807  1.00  0.00     0.010 A 
ATOM     49  C   UNL     1      -9.782   4.514  -0.968  1.00  0.00     0.010 A 
ATOM     50  C   UNL     1      -9.242   5.659  -1.580  1.00  0.00    -0.014 A 
BRANCH  50  51
ATOM     51  C   UNL     1      -9.576   5.958  -2.992  1.00  0.00     0.031 A 
ATOM     52  C   UNL     1     -10.943   6.504  -3.294  1.00  0.00     0.074 A 
ATOM     53  C   UNL     1      -8.692   5.751  -3.982  1.00  0.00     0.049 A 
ATOM     54  N   UNL     1     -11.504   6.757  -4.448  1.00  0.00    -0.248 NA
ATOM     55  C   UNL     1     -11.795   6.799  -2.131  1.00  0.00     0.031 C 
ATOM     56  C   UNL     1      -7.323   5.274  -3.809  1.00  0.00     0.029 A 
ATOM     57  N   UNL     1      -8.829   5.905  -5.340  1.00  0.00    -0.354 N 
ATOM     58  C   UNL     1     -12.775   7.231  -4.150  1.00  0.00     0.074 A 
ATOM     59  C   UNL     1     -12.915   7.199  -2.711  1.00  0.00     0.031 C 
ATOM     60  C   UNL     1      -6.748   5.157  -5.019  1.00  0.00     0.029 A 
ATOM     61  C   UNL     1      -7.722   5.512  -6.051  1.00  0.00     0.049 A 
ATOM     62  H   UNL     1      -9.643   6.262  -5.763  1.00  0.00     0.167 HD
ATOM     63  C   UNL     1     -13.736   7.659  -5.002  1.00  0.00     0.037 A 
ATOM     64  C   UNL     1      -7.535   5.421  -7.383  1.00  0.00     0.037 A 
ATOM     65  C   UNL     1     -13.592   7.680  -6.433  1.00  0.00     0.049 A 
ATOM     66  C   UNL     1      -8.655   5.816  -8.315  1.00  0.00     0.074 A 
ATOM     67  C   UNL     1     -14.500   8.107  -7.385  1.00  0.00     0.029 A 
ATOM     68  N   UNL     1     -12.469   7.241  -7.120  1.00  0.00    -0.354 N 
ATOM     69  N   UNL     1      -9.846   6.284  -8.030  1.00  0.00    -0.248 NA
ATOM     70  C   UNL     1      -8.401   5.668  -9.755  1.00  0.00     0.031 C 
ATOM     71  C   UNL     1     -13.953   7.866  -8.649  1.00  0.00     0.029 A 
ATOM     72  C   UNL     1     -12.675   7.356  -8.485  1.00  0.00     0.049 A 
ATOM     73  H   UNL     1     -11.647   6.898  -6.699  1.00  0.00     0.167 HD
ATOM     74  C   UNL     1     -10.469   6.519  -9.251  1.00  0.00     0.074 A 
ATOM     75  C   UNL     1      -9.518   6.152 -10.279  1.00  0.00     0.031 C 
ATOM     76  C   UNL     1     -11.714   6.997  -9.498  1.00  0.00     0.037 A 
BRANCH  63  77
ATOM     77  C   UNL     1     -15.040   8.105  -4.406  1.00  0.00     0.064 A 
ATOM     78  C   UNL     1     -15.145   9.280  -3.647  1.00  0.00     0.173 A 
ATOM     79  C   UNL     1     -16.207   7.355  -4.618  1.00  0.00     0.173 A 
ATOM     80  F   UNL     1     -14.057  10.026  -3.402  1.00  0.00    -0.203 F 
ATOM     81  C   UNL     1     -16.363   9.672  -3.098  1.00  0.00     0.198 A 
ATOM     82  C   UNL     1     -17.430   7.768  -4.096  1.00  0.00     0.198 A 
ATOM     83  F   UNL     1     -16.164   6.224  -5.338  1.00  0.00    -0.203 F 
ATOM     84  F   UNL     1     -16.429  10.769  -2.330  1.00  0.00    -0.200 F 
ATOM     85  C   UNL     1     -17.506   8.920  -3.329  1.00  0.00     0.200 A 
ATOM     86  F   UNL     1     -18.535   7.048  -4.334  1.00  0.00    -0.200 F 
ATOM     87  F   UNL     1     -18.679   9.302  -2.806  1.00  0.00    -0.200 F 
ENDBRANCH  63  77
BRANCH  64  88
ATOM     88  C   UNL     1      -6.242   4.920  -7.922  1.00  0.00     0.064 A 
ATOM     89  C   UNL     1      -5.390   5.757  -8.656  1.00  0.00     0.173 A 
ATOM     90  C   UNL     1      -5.844   3.586  -7.740  1.00  0.00     0.173 A 
ATOM     91  F   UNL     1      -5.738   7.032  -8.883  1.00  0.00    -0.203 F 
ATOM     92  C   UNL     1      -4.203   5.276  -9.204  1.00  0.00     0.198 A 
ATOM     93  C   UNL     1      -4.641   3.115  -8.260  1.00  0.00     0.198 A 
ATOM     94  F   UNL     1      -6.623   2.740  -7.050  1.00  0.00    -0.203 F 
ATOM     95  F   UNL     1      -3.435   6.084  -9.948  1.00  0.00    -0.200 F 
ATOM     96  C   UNL     1      -3.825   3.957  -9.000  1.00  0.00     0.200 A 
ATOM     97  F   UNL     1      -4.274   1.843  -8.050  1.00  0.00    -0.200 F 
ATOM     98  F   UNL     1      -2.683   3.495  -9.525  1.00  0.00    -0.200 F 
ENDBRANCH  64  88
BRANCH  76  99
ATOM     99  C   UNL     1     -12.110   7.200 -10.934  1.00  0.00     0.064 A 
ATOM    100  C   UNL     1     -12.350   6.120 -11.797  1.00  0.00     0.173 A 
ATOM    101  C   UNL     1     -12.305   8.496 -11.437  1.00  0.00     0.173 A 
ATOM    102  F   UNL     1     -12.166   4.861 -11.371  1.00  0.00    -0.203 F 
ATOM    103  C   UNL     1     -12.743   6.332 -13.116  1.00  0.00     0.198 A 
ATOM    104  C   UNL     1     -12.734   8.702 -12.746  1.00  0.00     0.198 A 
ATOM    105  F   UNL     1     -12.100   9.565 -10.653  1.00  0.00    -0.203 F 
ATOM    106  F   UNL     1     -12.917   5.286 -13.937  1.00  0.00    -0.200 F 
ATOM    107  C   UNL     1     -12.944   7.621 -13.586  1.00  0.00     0.200 A 
ATOM    108  F   UNL     1     -12.945   9.948 -13.191  1.00  0.00    -0.200 F 
ATOM    109  F   UNL     1     -13.335   7.821 -14.852  1.00  0.00    -0.200 F 
ENDBRANCH  76  99
ENDBRANCH  50  51
ENDBRANCH  43  45
ENDBRANCH  42  43
ENDBRANCH  41  42
ENDBRANCH  40  41
ENDBRANCH  39  40
ENDBRANCH  38  39
ENDBRANCH  37  38
ENDBRANCH  36  37
ENDBRANCH   1  36
TORSDOF 25
