REMARK SMILES CCc1cc(OC[C@@H]2C[N@@H+](CC)CCO2)c(C(=O)OCCOCCOCCOCCOC(=O)c2ccc(-c3c4nc(c(-c5c(F)c(F)c(F)c(F)c5F)c5ccc([nH]5)c(-c5c(F)c(F)c(F)c(F)c5F)c5nc(c(-c6c(F)c(F)c(F)c(F)c6F)c6ccc3[nH]6)C=C5)C=C4)cc2)s1
REMARK SMILES IDX 24 1 23 2 22 3 21 4 20 5 19 6 17 7 18 8 16 9 3 10 4 11 97 12
REMARK SMILES IDX 5 13 2 14 1 15 6 16 7 17 8 18 9 19 15 20 10 21 14 22 13 23
REMARK SMILES IDX 11 25 12 26 25 27 26 28 27 29 28 30 29 31 30 32 31 33 32 34
REMARK SMILES IDX 33 35 34 36 35 37 96 38 36 39 95 40 37 41 38 42 39 43 89 44
REMARK SMILES IDX 40 45 94 46 88 47 90 48 41 49 93 50 87 51 86 52 42 54 74 55
REMARK SMILES IDX 54 56 73 57 55 58 58 59 72 60 91 61 56 62 57 63 71 65 92 66
REMARK SMILES IDX 59 67 43 68 44 69 52 70 45 71 46 72 50 73 53 74 47 75 48 76
REMARK SMILES IDX 51 77 49 78 75 79 76 80 84 81 77 82 78 83 82 84 85 85 79 86
REMARK SMILES IDX 80 87 83 88 81 89 60 90 61 91 69 92 62 93 63 94 67 95 70 96
REMARK SMILES IDX 64 97 65 98 68 99 66 100
REMARK H PARENT 10 24 90 53 58 64
REMARK Flexibility Score: inf
ROOT
ATOM      1  C   UNL     1       0.427  -1.894   6.757  1.00  0.00     0.188 C 
ENDROOT
BRANCH   1   2
ATOM      2  C   UNL     1       1.565  -2.900   7.006  1.00  0.00     0.188 C 
BRANCH   2   3
ATOM      3  O   UNL     1       2.343  -2.634   8.171  1.00  0.00    -0.376 OA
BRANCH   3   4
ATOM      4  C   UNL     1       3.726  -2.391   7.944  1.00  0.00     0.202 C 
BRANCH   4   5
ATOM      5  C   UNL     1       4.021  -0.940   7.557  1.00  0.00     0.261 C 
BRANCH   5   6
ATOM      6  O   UNL     1       3.306  -0.505   6.396  1.00  0.00    -0.459 OA
BRANCH   6   7
ATOM      7  C   UNL     1       3.639  -1.047   5.196  1.00  0.00     0.352 C 
ATOM      8  O   UNL     1       4.583  -1.814   5.032  1.00  0.00    -0.245 OA
BRANCH   7   9
ATOM      9  C   UNL     1       2.637  -0.680   4.213  1.00  0.00     0.155 A 
ATOM     10  C   UNL     1       1.086  -0.714   2.285  1.00  0.00     0.009 A 
ATOM     11  C   UNL     1       0.867   0.374   3.108  1.00  0.00     0.062 A 
ATOM     12  S   UNL     1       2.373  -1.689   2.857  1.00  0.00    -0.130 S 
ATOM     13  C   UNL     1       1.800   0.422   4.183  1.00  0.00     0.145 A 
BRANCH  10  14
ATOM     14  C   UNL     1       0.364  -1.089   1.024  1.00  0.00     0.043 C 
ATOM     15  C   UNL     1       0.740  -0.169  -0.128  1.00  0.00     0.010 C 
ENDBRANCH  10  14
BRANCH  13  16
ATOM     16  O   UNL     1       1.966   1.397   5.108  1.00  0.00    -0.489 OA
BRANCH  16  17
ATOM     17  C   UNL     1       1.707   2.733   4.695  1.00  0.00     0.267 C 
BRANCH  17  18
ATOM     18  C   UNL     1       2.499   3.267   3.480  1.00  0.00     0.210 C 
ATOM     19  C   UNL     1       3.787   2.499   3.118  1.00  0.00     0.298 C 
ATOM     20  O   UNL     1       2.825   4.653   3.730  1.00  0.00    -0.363 OA
ATOM     21  N   UNL     1       4.503   3.037   1.952  1.00  0.00    -0.331 N 
ATOM     22  C   UNL     1       3.444   5.254   2.584  1.00  0.00     0.222 C 
ATOM     23  C   UNL     1       4.680   4.483   2.087  1.00  0.00     0.291 C 
ATOM     24  H   UNL     1       5.443   2.641   1.955  1.00  0.00     0.348 HD
BRANCH  21  25
ATOM     25  C   UNL     1       4.042   2.545   0.652  1.00  0.00     0.258 C 
ATOM     26  C   UNL     1       2.738   3.076   0.068  1.00  0.00     0.071 C 
ENDBRANCH  21  25
ENDBRANCH  17  18
ENDBRANCH  16  17
ENDBRANCH  13  16
ENDBRANCH   7   9
ENDBRANCH   6   7
ENDBRANCH   5   6
ENDBRANCH   4   5
ENDBRANCH   3   4
ENDBRANCH   2   3
ENDBRANCH   1   2
BRANCH   1  27
ATOM     27  O   UNL     1       0.298  -0.778   7.621  1.00  0.00    -0.377 OA
BRANCH  27  28
ATOM     28  C   UNL     1       0.275  -0.983   9.028  1.00  0.00     0.188 C 
BRANCH  28  29
ATOM     29  C   UNL     1      -0.172  -2.332   9.631  1.00  0.00     0.188 C 
BRANCH  29  30
ATOM     30  O   UNL     1      -0.916  -3.174   8.759  1.00  0.00    -0.376 OA
BRANCH  30  31
ATOM     31  C   UNL     1      -2.314  -3.258   9.002  1.00  0.00     0.202 C 
BRANCH  31  32
ATOM     32  C   UNL     1      -3.098  -2.014   8.569  1.00  0.00     0.261 C 
BRANCH  32  33
ATOM     33  O   UNL     1      -2.800  -0.833   9.330  1.00  0.00    -0.460 OA
BRANCH  33  34
ATOM     34  C   UNL     1      -3.066  -0.886  10.652  1.00  0.00     0.338 C 
ATOM     35  O   UNL     1      -3.590  -1.795  11.270  1.00  0.00    -0.246 OA
BRANCH  34  36
ATOM     36  C   UNL     1      -2.453   0.292  11.287  1.00  0.00     0.060 A 
ATOM     37  C   UNL     1      -1.534   0.089  12.323  1.00  0.00     0.016 A 
ATOM     38  C   UNL     1      -2.803   1.582  10.880  1.00  0.00     0.016 A 
ATOM     39  C   UNL     1      -1.002   1.186  12.997  1.00  0.00     0.010 A 
ATOM     40  C   UNL     1      -2.282   2.679  11.567  1.00  0.00     0.010 A 
ATOM     41  C   UNL     1      -1.415   2.481  12.655  1.00  0.00    -0.014 A 
BRANCH  41  42
ATOM     42  C   UNL     1      -1.112   3.597  13.579  1.00  0.00     0.031 A 
ATOM     43  C   UNL     1      -2.130   3.942  14.631  1.00  0.00     0.074 A 
ATOM     44  C   UNL     1       0.053   4.261  13.516  1.00  0.00     0.049 A 
ATOM     45  N   UNL     1      -2.076   4.842  15.579  1.00  0.00    -0.248 NA
ATOM     46  C   UNL     1      -3.379   3.162  14.610  1.00  0.00     0.031 C 
ATOM     47  C   UNL     1       1.122   4.006  12.553  1.00  0.00     0.029 A 
ATOM     48  N   UNL     1       0.528   5.291  14.287  1.00  0.00    -0.354 N 
ATOM     49  C   UNL     1      -3.275   4.728  16.270  1.00  0.00     0.074 A 
ATOM     50  C   UNL     1      -4.054   3.704  15.611  1.00  0.00     0.031 C 
ATOM     51  C   UNL     1       2.131   4.863  12.790  1.00  0.00     0.029 A 
ATOM     52  C   UNL     1       1.771   5.732  13.909  1.00  0.00     0.049 A 
ATOM     53  H   UNL     1       0.025   5.677  15.041  1.00  0.00     0.167 HD
ATOM     54  C   UNL     1      -3.684   5.408  17.367  1.00  0.00     0.037 A 
ATOM     55  C   UNL     1       2.524   6.729  14.413  1.00  0.00     0.037 A 
ATOM     56  C   UNL     1      -2.917   6.436  18.015  1.00  0.00     0.049 A 
ATOM     57  C   UNL     1       2.021   7.510  15.600  1.00  0.00     0.074 A 
ATOM     58  C   UNL     1      -3.239   7.177  19.138  1.00  0.00     0.029 A 
ATOM     59  N   UNL     1      -1.674   6.876  17.587  1.00  0.00    -0.354 N 
ATOM     60  N   UNL     1       0.907   7.367  16.278  1.00  0.00    -0.248 NA
ATOM     61  C   UNL     1       2.889   8.586  16.099  1.00  0.00     0.031 C 
ATOM     62  C   UNL     1      -2.209   8.097  19.363  1.00  0.00     0.029 A 
ATOM     63  C   UNL     1      -1.224   7.896  18.410  1.00  0.00     0.049 A 
ATOM     64  H   UNL     1      -1.183   6.518  16.812  1.00  0.00     0.167 HD
ATOM     65  C   UNL     1       0.952   8.313  17.294  1.00  0.00     0.074 A 
ATOM     66  C   UNL     1       2.212   9.013  17.156  1.00  0.00     0.031 C 
ATOM     67  C   UNL     1       0.035   8.580  18.257  1.00  0.00     0.037 A 
BRANCH  54  68
ATOM     68  C   UNL     1      -5.037   5.067  17.917  1.00  0.00     0.064 A 
ATOM     69  C   UNL     1      -5.273   3.856  18.586  1.00  0.00     0.173 A 
ATOM     70  C   UNL     1      -6.106   5.965  17.784  1.00  0.00     0.173 A 
ATOM     71  F   UNL     1      -4.288   2.956  18.722  1.00  0.00    -0.203 F 
ATOM     72  C   UNL     1      -6.538   3.546  19.079  1.00  0.00     0.198 A 
ATOM     73  C   UNL     1      -7.362   5.663  18.301  1.00  0.00     0.198 A 
ATOM     74  F   UNL     1      -5.931   7.134  17.151  1.00  0.00    -0.203 F 
ATOM     75  F   UNL     1      -6.753   2.364  19.672  1.00  0.00    -0.200 F 
ATOM     76  C   UNL     1      -7.579   4.452  18.942  1.00  0.00     0.200 A 
ATOM     77  F   UNL     1      -8.366   6.542  18.174  1.00  0.00    -0.200 F 
ATOM     78  F   UNL     1      -8.796   4.154  19.418  1.00  0.00    -0.200 F 
ENDBRANCH  54  68
BRANCH  55  79
ATOM     79  C   UNL     1       3.842   7.046  13.804  1.00  0.00     0.064 A 
ATOM     80  C   UNL     1       5.037   6.793  14.491  1.00  0.00     0.173 A 
ATOM     81  C   UNL     1       3.930   7.638  12.536  1.00  0.00     0.173 A 
ATOM     82  F   UNL     1       5.001   6.255  15.719  1.00  0.00    -0.203 F 
ATOM     83  C   UNL     1       6.269   7.140  13.942  1.00  0.00     0.198 A 
ATOM     84  C   UNL     1       5.165   7.960  11.976  1.00  0.00     0.198 A 
ATOM     85  F   UNL     1       2.815   7.905  11.840  1.00  0.00    -0.203 F 
ATOM     86  F   UNL     1       7.394   6.934  14.642  1.00  0.00    -0.200 F 
ATOM     87  C   UNL     1       6.333   7.718  12.683  1.00  0.00     0.200 A 
ATOM     88  F   UNL     1       5.222   8.513  10.757  1.00  0.00    -0.200 F 
ATOM     89  F   UNL     1       7.519   8.054  12.157  1.00  0.00    -0.200 F 
ENDBRANCH  55  79
BRANCH  67  90
ATOM     90  C   UNL     1       0.373   9.654  19.250  1.00  0.00     0.064 A 
ATOM     91  C   UNL     1       0.387  11.010  18.892  1.00  0.00     0.173 A 
ATOM     92  C   UNL     1       0.662   9.323  20.583  1.00  0.00     0.173 A 
ATOM     93  F   UNL     1       0.131  11.377  17.627  1.00  0.00    -0.203 F 
ATOM     94  C   UNL     1       0.709  11.993  19.824  1.00  0.00     0.198 A 
ATOM     95  C   UNL     1       0.954  10.311  21.520  1.00  0.00     0.198 A 
ATOM     96  F   UNL     1       0.653   8.042  20.980  1.00  0.00    -0.203 F 
ATOM     97  F   UNL     1       0.769  13.277  19.447  1.00  0.00    -0.200 F 
ATOM     98  C   UNL     1       0.987  11.643  21.137  1.00  0.00     0.200 A 
ATOM     99  F   UNL     1       1.208   9.973  22.791  1.00  0.00    -0.200 F 
ATOM    100  F   UNL     1       1.295  12.591  22.034  1.00  0.00    -0.200 F 
ENDBRANCH  67  90
ENDBRANCH  41  42
ENDBRANCH  34  36
ENDBRANCH  33  34
ENDBRANCH  32  33
ENDBRANCH  31  32
ENDBRANCH  30  31
ENDBRANCH  29  30
ENDBRANCH  28  29
ENDBRANCH  27  28
ENDBRANCH   1  27
TORSDOF 25
