REMARK SMILES CN1C(=O)C[C@@H](C(=O)OCCOCCOCCOCCOC(=O)c2ccc(-c3c4nc(c(-c5c(F)c(F)c(F)c(F)c5F)c5ccc([nH]5)c(-c5c(F)c(F)c(F)c(F)c5F)c5nc(c(-c6c(F)c(F)c(F)c(F)c6F)c6ccc3[nH]6)C=C5)C=C4)cc2)C12CC[NH+](CCSc1ccccc1)CC2
REMARK SMILES IDX 14 1 13 2 12 3 11 4 10 5 9 6 7 7 8 8 6 9 1 10 2 11 3 12
REMARK SMILES IDX 87 13 4 14 5 15 88 16 101 17 89 18 100 19 90 20 91 22 92 23
REMARK SMILES IDX 93 24 94 25 95 26 99 27 96 28 98 29 97 30 15 31 16 32 17 33
REMARK SMILES IDX 18 34 19 35 20 36 21 37 22 38 23 39 24 40 25 41 86 42 26 43
REMARK SMILES IDX 85 44 27 45 28 46 29 47 79 48 30 49 84 50 78 51 80 52 31 53
REMARK SMILES IDX 83 54 77 55 76 56 32 58 64 59 44 60 63 61 45 62 48 63 62 64
REMARK SMILES IDX 81 65 46 66 47 67 61 69 82 70 49 71 33 72 34 73 42 74 35 75
REMARK SMILES IDX 36 76 40 77 43 78 37 79 38 80 41 81 39 82 65 83 66 84 74 85
REMARK SMILES IDX 67 86 68 87 72 88 75 89 69 90 70 91 73 92 71 93 50 94 51 95
REMARK SMILES IDX 59 96 52 97 53 98 57 99 60 100 54 101 55 102 58 103 56 104
REMARK H PARENT 90 21 80 57 48 68
REMARK Flexibility Score: inf
ROOT
ATOM      1  C   UNL     1      -4.942  -0.663  -0.812  1.00  0.00     0.188 C 
ENDROOT
BRANCH   1   2
ATOM      2  C   UNL     1      -5.348  -1.791   0.141  1.00  0.00     0.188 C 
BRANCH   2   3
ATOM      3  O   UNL     1      -6.116  -1.431   1.283  1.00  0.00    -0.376 OA
BRANCH   3   4
ATOM      4  C   UNL     1      -5.601  -0.456   2.186  1.00  0.00     0.202 C 
BRANCH   4   5
ATOM      5  C   UNL     1      -4.256  -0.719   2.888  1.00  0.00     0.261 C 
BRANCH   5   6
ATOM      6  O   UNL     1      -3.085  -0.674   2.029  1.00  0.00    -0.463 OA
BRANCH   6   7
ATOM      7  C   UNL     1      -2.509  -1.875   1.843  1.00  0.00     0.311 C 
ATOM      8  O   UNL     1      -2.940  -2.904   2.374  1.00  0.00    -0.252 OA
BRANCH   7   9
ATOM      9  C   UNL     1      -1.387  -2.008   0.834  1.00  0.00     0.134 C 
ATOM     10  C   UNL     1       1.698   0.157   0.955  1.00  0.00     0.147 C 
ATOM     11  N   UNL     1       0.668  -0.866   1.028  1.00  0.00    -0.339 N 
ATOM     12  C   UNL     1       0.782  -1.952   1.876  1.00  0.00     0.223 C 
ATOM     13  C   UNL     1      -0.457  -0.993   0.083  1.00  0.00     0.067 C 
ATOM     14  O   UNL     1       1.665  -2.148   2.693  1.00  0.00    -0.275 OA
ATOM     15  C   UNL     1      -0.342  -2.899   1.577  1.00  0.00     0.118 C 
ATOM     16  C   UNL     1      -0.870   0.397  -0.503  1.00  0.00     0.091 C 
ATOM     17  C   UNL     1       0.031  -1.800  -1.138  1.00  0.00     0.091 C 
ATOM     18  C   UNL     1      -1.256   0.505  -2.018  1.00  0.00     0.264 C 
ATOM     19  C   UNL     1      -1.059  -1.801  -2.200  1.00  0.00     0.264 C 
ATOM     20  N   UNL     1      -0.975  -0.589  -2.938  1.00  0.00    -0.334 N 
ATOM     21  H   UNL     1      -1.691  -0.432  -3.647  1.00  0.00     0.348 HD
BRANCH  20  22
ATOM     22  C   UNL     1       0.150  -0.604  -3.899  1.00  0.00     0.273 C 
BRANCH  22  23
ATOM     23  C   UNL     1       1.204  -1.820  -3.977  1.00  0.00     0.136 C 
BRANCH  23  24
ATOM     24  S   UNL     1       0.733  -3.591  -4.561  1.00  0.00    -0.120 SA
BRANCH  24  25
ATOM     25  C   UNL     1       0.356  -4.683  -3.140  1.00  0.00     0.007 A 
ATOM     26  C   UNL     1      -0.963  -4.816  -2.654  1.00  0.00     0.015 A 
ATOM     27  C   UNL     1       1.277  -5.630  -2.674  1.00  0.00     0.015 A 
ATOM     28  C   UNL     1      -1.308  -5.688  -1.615  1.00  0.00     0.001 A 
ATOM     29  C   UNL     1       0.903  -6.598  -1.714  1.00  0.00     0.001 A 
ATOM     30  C   UNL     1      -0.375  -6.601  -1.156  1.00  0.00     0.000 A 
ENDBRANCH  24  25
ENDBRANCH  23  24
ENDBRANCH  22  23
ENDBRANCH  20  22
ENDBRANCH   7   9
ENDBRANCH   6   7
ENDBRANCH   5   6
ENDBRANCH   4   5
ENDBRANCH   3   4
ENDBRANCH   2   3
ENDBRANCH   1   2
BRANCH   1  31
ATOM     31  O   UNL     1      -4.069   0.270  -0.199  1.00  0.00    -0.377 OA
BRANCH  31  32
ATOM     32  C   UNL     1      -4.371   1.665  -0.205  1.00  0.00     0.188 C 
BRANCH  32  33
ATOM     33  C   UNL     1      -5.626   2.177  -0.923  1.00  0.00     0.188 C 
BRANCH  33  34
ATOM     34  O   UNL     1      -5.721   2.093  -2.346  1.00  0.00    -0.376 OA
BRANCH  34  35
ATOM     35  C   UNL     1      -4.558   1.817  -3.113  1.00  0.00     0.202 C 
BRANCH  35  36
ATOM     36  C   UNL     1      -3.726   3.027  -3.543  1.00  0.00     0.261 C 
BRANCH  36  37
ATOM     37  O   UNL     1      -3.095   3.676  -2.425  1.00  0.00    -0.460 OA
BRANCH  37  38
ATOM     38  C   UNL     1      -3.765   4.748  -1.963  1.00  0.00     0.338 C 
ATOM     39  O   UNL     1      -4.780   5.253  -2.439  1.00  0.00    -0.246 OA
BRANCH  38  40
ATOM     40  C   UNL     1      -3.223   5.189  -0.671  1.00  0.00     0.060 A 
ATOM     41  C   UNL     1      -4.154   5.410   0.349  1.00  0.00     0.016 A 
ATOM     42  C   UNL     1      -1.877   5.526  -0.497  1.00  0.00     0.016 A 
ATOM     43  C   UNL     1      -3.772   6.062   1.508  1.00  0.00     0.010 A 
ATOM     44  C   UNL     1      -1.493   6.201   0.668  1.00  0.00     0.010 A 
ATOM     45  C   UNL     1      -2.460   6.533   1.634  1.00  0.00    -0.014 A 
BRANCH  45  46
ATOM     46  C   UNL     1      -2.234   7.604   2.631  1.00  0.00     0.031 A 
ATOM     47  C   UNL     1      -2.289   9.033   2.159  1.00  0.00     0.074 A 
ATOM     48  C   UNL     1      -2.163   7.311   3.939  1.00  0.00     0.049 A 
ATOM     49  N   UNL     1      -2.223  10.142   2.850  1.00  0.00    -0.248 NA
ATOM     50  C   UNL     1      -2.457   9.241   0.710  1.00  0.00     0.031 C 
ATOM     51  C   UNL     1      -2.182   5.962   4.502  1.00  0.00     0.029 A 
ATOM     52  N   UNL     1      -2.086   8.134   5.032  1.00  0.00    -0.354 N 
ATOM     53  C   UNL     1      -2.348  11.171   1.923  1.00  0.00     0.074 A 
ATOM     54  C   UNL     1      -2.447  10.561   0.617  1.00  0.00     0.031 C 
ATOM     55  C   UNL     1      -2.115   6.049   5.841  1.00  0.00     0.029 A 
ATOM     56  C   UNL     1      -2.020   7.456   6.223  1.00  0.00     0.049 A 
ATOM     57  H   UNL     1      -2.078   9.116   4.968  1.00  0.00     0.167 HD
ATOM     58  C   UNL     1      -2.395  12.505   2.146  1.00  0.00     0.037 A 
ATOM     59  C   UNL     1      -1.879   7.928   7.476  1.00  0.00     0.037 A 
ATOM     60  C   UNL     1      -2.296  13.100   3.452  1.00  0.00     0.049 A 
ATOM     61  C   UNL     1      -1.844   9.420   7.689  1.00  0.00     0.074 A 
ATOM     62  C   UNL     1      -2.309  14.439   3.796  1.00  0.00     0.029 A 
ATOM     63  N   UNL     1      -2.162  12.382   4.633  1.00  0.00    -0.354 N 
ATOM     64  N   UNL     1      -1.957  10.387   6.808  1.00  0.00    -0.248 NA
ATOM     65  C   UNL     1      -1.672   9.886   9.070  1.00  0.00     0.031 C 
ATOM     66  C   UNL     1      -2.127  14.533   5.179  1.00  0.00     0.029 A 
ATOM     67  C   UNL     1      -2.065  13.252   5.706  1.00  0.00     0.049 A 
ATOM     68  H   UNL     1      -2.138  11.400   4.697  1.00  0.00     0.167 HD
ATOM     69  C   UNL     1      -1.891  11.572   7.529  1.00  0.00     0.074 A 
ATOM     70  C   UNL     1      -1.758  11.200   8.923  1.00  0.00     0.031 C 
ATOM     71  C   UNL     1      -1.931  12.853   7.084  1.00  0.00     0.037 A 
BRANCH  58  72
ATOM     72  C   UNL     1      -2.531  13.406   0.952  1.00  0.00     0.064 A 
ATOM     73  C   UNL     1      -3.718  13.473   0.205  1.00  0.00     0.173 A 
ATOM     74  C   UNL     1      -1.466  14.231   0.560  1.00  0.00     0.173 A 
ATOM     75  F   UNL     1      -4.761  12.692   0.522  1.00  0.00    -0.203 F 
ATOM     76  C   UNL     1      -3.823  14.313  -0.902  1.00  0.00     0.198 A 
ATOM     77  C   UNL     1      -1.585  15.093  -0.527  1.00  0.00     0.198 A 
ATOM     78  F   UNL     1      -0.308  14.206   1.237  1.00  0.00    -0.203 F 
ATOM     79  F   UNL     1      -4.949  14.323  -1.630  1.00  0.00    -0.200 F 
ATOM     80  C   UNL     1      -2.761  15.128  -1.261  1.00  0.00     0.200 A 
ATOM     81  F   UNL     1      -0.561  15.888  -0.865  1.00  0.00    -0.200 F 
ATOM     82  F   UNL     1      -2.866  15.942  -2.321  1.00  0.00    -0.200 F 
ENDBRANCH  58  72
BRANCH  59  83
ATOM     83  C   UNL     1      -1.727   6.983   8.614  1.00  0.00     0.064 A 
ATOM     84  C   UNL     1      -2.683   6.899   9.634  1.00  0.00     0.173 A 
ATOM     85  C   UNL     1      -0.596   6.157   8.715  1.00  0.00     0.173 A 
ATOM     86  F   UNL     1      -3.773   7.680   9.598  1.00  0.00    -0.203 F 
ATOM     87  C   UNL     1      -2.502   6.047  10.723  1.00  0.00     0.198 A 
ATOM     88  C   UNL     1      -0.432   5.281   9.785  1.00  0.00     0.198 A 
ATOM     89  F   UNL     1       0.351   6.196   7.765  1.00  0.00    -0.203 F 
ATOM     90  F   UNL     1      -3.405   6.029  11.714  1.00  0.00    -0.200 F 
ATOM     91  C   UNL     1      -1.380   5.235  10.795  1.00  0.00     0.200 A 
ATOM     92  F   UNL     1       0.646   4.488   9.839  1.00  0.00    -0.200 F 
ATOM     93  F   UNL     1      -1.208   4.416  11.841  1.00  0.00    -0.200 F 
ENDBRANCH  59  83
BRANCH  71  94
ATOM     94  C   UNL     1      -1.854  13.939   8.119  1.00  0.00     0.064 A 
ATOM     95  C   UNL     1      -0.676  14.189   8.839  1.00  0.00     0.173 A 
ATOM     96  C   UNL     1      -2.965  14.758   8.374  1.00  0.00     0.173 A 
ATOM     97  F   UNL     1       0.411  13.428   8.640  1.00  0.00    -0.203 F 
ATOM     98  C   UNL     1      -0.626  15.191   9.804  1.00  0.00     0.198 A 
ATOM     99  C   UNL     1      -2.899  15.784   9.312  1.00  0.00     0.198 A 
ATOM    100  F   UNL     1      -4.113  14.570   7.705  1.00  0.00    -0.203 F 
ATOM    101  F   UNL     1       0.490  15.368  10.524  1.00  0.00    -0.200 F 
ATOM    102  C   UNL     1      -1.734  15.992  10.035  1.00  0.00     0.200 A 
ATOM    103  F   UNL     1      -3.966  16.569   9.520  1.00  0.00    -0.200 F 
ATOM    104  F   UNL     1      -1.683  16.958  10.961  1.00  0.00    -0.200 F 
ENDBRANCH  71  94
ENDBRANCH  45  46
ENDBRANCH  38  40
ENDBRANCH  37  38
ENDBRANCH  36  37
ENDBRANCH  35  36
ENDBRANCH  34  35
ENDBRANCH  33  34
ENDBRANCH  32  33
ENDBRANCH  31  32
ENDBRANCH   1  31
TORSDOF 24
