REMARK SMILES CC1=C(C(=O)OCCOCCOCCOCCOC(=O)c2ccc(-c3c4nc(c(-c5c(F)c(F)c(F)c(F)c5F)c5ccc([nH]5)c(-c5c(F)c(F)c(F)c(F)c5F)c5nc(c(-c6c(F)c(F)c(F)c(F)c6F)c6ccc3[nH]6)C=C5)C=C4)cc2)N2C(=O)[C@H](NC(=O)c3cc(C(F)(F)F)nn3C)[C@@H]2SC1
REMARK SMILES IDX 11 1 10 2 9 3 8 4 7 5 6 6 4 7 5 8 3 9 1 10 2 11 103 12 84 13
REMARK SMILES IDX 102 14 85 15 101 16 86 17 87 18 88 19 89 20 90 22 91 23
REMARK SMILES IDX 92 24 99 25 93 26 98 27 100 28 94 29 95 30 96 31 97 32 12 33
REMARK SMILES IDX 13 34 14 35 15 36 16 37 17 38 18 39 19 40 20 41 21 42 22 43
REMARK SMILES IDX 83 44 23 45 82 46 24 47 25 48 26 49 76 50 27 51 81 52 75 53
REMARK SMILES IDX 77 54 28 55 80 56 74 57 73 58 29 60 61 61 41 62 60 63 42 64
REMARK SMILES IDX 45 65 59 66 78 67 43 68 44 69 58 71 79 72 46 73 30 74 31 75
REMARK SMILES IDX 39 76 32 77 33 78 37 79 40 80 34 81 35 82 38 83 36 84 62 85
REMARK SMILES IDX 63 86 71 87 64 88 65 89 69 90 72 91 66 92 67 93 70 94 68 95
REMARK SMILES IDX 47 96 48 97 56 98 49 99 50 100 54 101 57 102 51 103 52 104
REMARK SMILES IDX 55 105 53 106
REMARK H PARENT 88 21 77 59 45 70
REMARK Flexibility Score: inf
ROOT
ATOM      1  C   UNL     1       3.507  -2.556   1.254  1.00  0.00     0.188 C 
ENDROOT
BRANCH   1   2
ATOM      2  C   UNL     1       3.148  -3.966   0.738  1.00  0.00     0.188 C 
BRANCH   2   3
ATOM      3  O   UNL     1       3.475  -4.207  -0.627  1.00  0.00    -0.376 OA
BRANCH   3   4
ATOM      4  C   UNL     1       2.370  -4.508  -1.472  1.00  0.00     0.202 C 
BRANCH   4   5
ATOM      5  C   UNL     1       1.605  -3.259  -1.912  1.00  0.00     0.261 C 
BRANCH   5   6
ATOM      6  O   UNL     1       1.218  -2.443  -0.798  1.00  0.00    -0.459 OA
BRANCH   6   7
ATOM      7  C   UNL     1       0.065  -2.769  -0.169  1.00  0.00     0.355 C 
ATOM      8  O   UNL     1      -0.715  -3.643  -0.504  1.00  0.00    -0.244 OA
BRANCH   7   9
ATOM      9  C   UNL     1      -0.056  -1.942   1.080  1.00  0.00     0.131 C 
ATOM     10  C   UNL     1       0.375   0.209  -0.169  1.00  0.00     0.043 C 
ATOM     11  C   UNL     1       0.025  -0.587   1.067  1.00  0.00    -0.032 C 
ATOM     12  C   UNL     1      -0.210   0.289   2.287  1.00  0.00     0.105 C 
ATOM     13  N   UNL     1      -0.237  -2.607   2.254  1.00  0.00    -0.289 N 
ATOM     14  S   UNL     1      -1.126  -0.542   3.628  1.00  0.00    -0.129 SA
ATOM     15  C   UNL     1      -0.325  -3.880   2.692  1.00  0.00     0.253 C 
ATOM     16  C   UNL     1      -0.075  -2.001   3.559  1.00  0.00     0.181 C 
ATOM     17  O   UNL     1      -0.227  -4.954   2.156  1.00  0.00    -0.272 OA
ATOM     18  C   UNL     1      -0.596  -3.343   4.150  1.00  0.00     0.206 C 
BRANCH  18  19
ATOM     19  N   UNL     1      -2.020  -3.418   4.565  1.00  0.00    -0.336 N 
ATOM     20  C   UNL     1      -2.557  -3.920   5.723  1.00  0.00     0.270 C 
ATOM     21  H   UNL     1      -2.669  -3.057   3.919  1.00  0.00     0.164 HD
ATOM     22  O   UNL     1      -3.769  -4.113   5.768  1.00  0.00    -0.268 OA
BRANCH  20  23
ATOM     23  C   UNL     1      -1.679  -4.209   6.826  1.00  0.00     0.126 A 
ATOM     24  C   UNL     1      -0.668  -3.446   7.386  1.00  0.00     0.069 A 
ATOM     25  N   UNL     1      -1.754  -5.326   7.620  1.00  0.00    -0.262 N 
ATOM     26  C   UNL     1      -0.145  -4.205   8.465  1.00  0.00     0.167 A 
ATOM     27  N   UNL     1      -0.812  -5.367   8.586  1.00  0.00    -0.168 NA
ATOM     28  C   UNL     1      -2.657  -6.450   7.505  1.00  0.00     0.174 C 
BRANCH  26  29
ATOM     29  C   UNL     1       0.993  -3.815   9.371  1.00  0.00     0.435 C 
ATOM     30  F   UNL     1       0.605  -3.644  10.662  1.00  0.00    -0.164 F 
ATOM     31  F   UNL     1       1.998  -4.731   9.370  1.00  0.00    -0.164 F 
ATOM     32  F   UNL     1       1.556  -2.636   8.979  1.00  0.00    -0.164 F 
ENDBRANCH  26  29
ENDBRANCH  20  23
ENDBRANCH  18  19
ENDBRANCH   7   9
ENDBRANCH   6   7
ENDBRANCH   5   6
ENDBRANCH   4   5
ENDBRANCH   3   4
ENDBRANCH   2   3
ENDBRANCH   1   2
BRANCH   1  33
ATOM     33  O   UNL     1       4.022  -1.579   0.363  1.00  0.00    -0.377 OA
BRANCH  33  34
ATOM     34  C   UNL     1       5.027  -1.954  -0.574  1.00  0.00     0.188 C 
BRANCH  34  35
ATOM     35  C   UNL     1       6.062  -3.044  -0.220  1.00  0.00     0.188 C 
BRANCH  35  36
ATOM     36  O   UNL     1       6.059  -3.447   1.142  1.00  0.00    -0.376 OA
BRANCH  36  37
ATOM     37  C   UNL     1       7.167  -3.030   1.926  1.00  0.00     0.202 C 
BRANCH  37  38
ATOM     38  C   UNL     1       7.183  -1.534   2.260  1.00  0.00     0.261 C 
BRANCH  38  39
ATOM     39  O   UNL     1       7.281  -0.654   1.129  1.00  0.00    -0.460 OA
BRANCH  39  40
ATOM     40  C   UNL     1       8.380  -0.758   0.351  1.00  0.00     0.338 C 
ATOM     41  O   UNL     1       9.328  -1.507   0.493  1.00  0.00    -0.246 OA
BRANCH  40  42
ATOM     42  C   UNL     1       8.162   0.105  -0.823  1.00  0.00     0.060 A 
ATOM     43  C   UNL     1       8.157  -0.459  -2.106  1.00  0.00     0.016 A 
ATOM     44  C   UNL     1       7.948   1.472  -0.642  1.00  0.00     0.016 A 
ATOM     45  C   UNL     1       7.959   0.358  -3.221  1.00  0.00     0.010 A 
ATOM     46  C   UNL     1       7.771   2.289  -1.756  1.00  0.00     0.010 A 
ATOM     47  C   UNL     1       7.803   1.740  -3.050  1.00  0.00    -0.014 A 
BRANCH  47  48
ATOM     48  C   UNL     1       7.876   2.661  -4.206  1.00  0.00     0.031 A 
ATOM     49  C   UNL     1       9.203   3.293  -4.517  1.00  0.00     0.074 A 
ATOM     50  C   UNL     1       6.785   2.975  -4.925  1.00  0.00     0.049 A 
ATOM     51  N   UNL     1       9.494   4.247  -5.363  1.00  0.00    -0.248 NA
ATOM     52  C   UNL     1      10.357   2.785  -3.757  1.00  0.00     0.031 C 
ATOM     53  C   UNL     1       5.456   2.397  -4.743  1.00  0.00     0.029 A 
ATOM     54  N   UNL     1       6.624   3.886  -5.939  1.00  0.00    -0.354 N 
ATOM     55  C   UNL     1      10.859   4.462  -5.226  1.00  0.00     0.074 A 
ATOM     56  C   UNL     1      11.335   3.557  -4.204  1.00  0.00     0.031 C 
ATOM     57  C   UNL     1       4.606   2.987  -5.602  1.00  0.00     0.029 A 
ATOM     58  C   UNL     1       5.324   4.010  -6.362  1.00  0.00     0.049 A 
ATOM     59  H   UNL     1       7.369   4.400  -6.327  1.00  0.00     0.167 HD
ATOM     60  C   UNL     1      11.644   5.337  -5.896  1.00  0.00     0.037 A 
ATOM     61  C   UNL     1       4.776   4.879  -7.236  1.00  0.00     0.037 A 
ATOM     62  C   UNL     1      11.162   6.240  -6.905  1.00  0.00     0.049 A 
ATOM     63  C   UNL     1       5.658   5.898  -7.915  1.00  0.00     0.074 A 
ATOM     64  C   UNL     1      11.876   7.162  -7.650  1.00  0.00     0.029 A 
ATOM     65  N   UNL     1       9.838   6.340  -7.304  1.00  0.00    -0.354 N 
ATOM     66  N   UNL     1       6.950   6.087  -7.797  1.00  0.00    -0.248 NA
ATOM     67  C   UNL     1       5.003   6.827  -8.848  1.00  0.00     0.031 C 
ATOM     68  C   UNL     1      10.975   7.853  -8.466  1.00  0.00     0.029 A 
ATOM     69  C   UNL     1       9.710   7.323  -8.271  1.00  0.00     0.049 A 
ATOM     70  H   UNL     1       9.098   5.793  -6.952  1.00  0.00     0.167 HD
ATOM     71  C   UNL     1       7.268   7.124  -8.665  1.00  0.00     0.074 A 
ATOM     72  C   UNL     1       6.033   7.526  -9.305  1.00  0.00     0.031 C 
ATOM     73  C   UNL     1       8.475   7.689  -8.915  1.00  0.00     0.037 A 
BRANCH  60  74
ATOM     74  C   UNL     1      13.098   5.379  -5.532  1.00  0.00     0.064 A 
ATOM     75  C   UNL     1      13.973   4.336  -5.870  1.00  0.00     0.173 A 
ATOM     76  C   UNL     1      13.627   6.488  -4.856  1.00  0.00     0.173 A 
ATOM     77  F   UNL     1      13.512   3.245  -6.501  1.00  0.00    -0.203 F 
ATOM     78  C   UNL     1      15.320   4.392  -5.523  1.00  0.00     0.198 A 
ATOM     79  C   UNL     1      14.979   6.554  -4.536  1.00  0.00     0.198 A 
ATOM     80  F   UNL     1      12.832   7.512  -4.509  1.00  0.00    -0.203 F 
ATOM     81  F   UNL     1      16.128   3.363  -5.813  1.00  0.00    -0.200 F 
ATOM     82  C   UNL     1      15.823   5.503  -4.863  1.00  0.00     0.200 A 
ATOM     83  F   UNL     1      15.466   7.633  -3.907  1.00  0.00    -0.200 F 
ATOM     84  F   UNL     1      17.121   5.558  -4.534  1.00  0.00    -0.200 F 
ENDBRANCH  60  74
BRANCH  61  85
ATOM     85  C   UNL     1       3.316   4.840  -7.509  1.00  0.00     0.064 A 
ATOM     86  C   UNL     1       2.826   4.446  -8.762  1.00  0.00     0.173 A 
ATOM     87  C   UNL     1       2.381   5.219  -6.535  1.00  0.00     0.173 A 
ATOM     88  F   UNL     1       3.681   4.101  -9.736  1.00  0.00    -0.203 F 
ATOM     89  C   UNL     1       1.459   4.449  -9.036  1.00  0.00     0.198 A 
ATOM     90  C   UNL     1       1.013   5.195  -6.800  1.00  0.00     0.198 A 
ATOM     91  F   UNL     1       2.796   5.609  -5.320  1.00  0.00    -0.203 F 
ATOM     92  F   UNL     1       1.022   4.112 -10.257  1.00  0.00    -0.200 F 
ATOM     93  C   UNL     1       0.553   4.817  -8.052  1.00  0.00     0.200 A 
ATOM     94  F   UNL     1       0.141   5.541  -5.843  1.00  0.00    -0.200 F 
ATOM     95  F   UNL     1      -0.760   4.818  -8.315  1.00  0.00    -0.200 F 
ENDBRANCH  61  85
BRANCH  73  96
ATOM     96  C   UNL     1       8.541   8.759  -9.966  1.00  0.00     0.064 A 
ATOM     97  C   UNL     1       8.044  10.050  -9.741  1.00  0.00     0.173 A 
ATOM     98  C   UNL     1       9.181   8.504 -11.190  1.00  0.00     0.173 A 
ATOM     99  F   UNL     1       7.413  10.341  -8.594  1.00  0.00    -0.203 F 
ATOM    100  C   UNL     1       8.173  11.044 -10.709  1.00  0.00     0.198 A 
ATOM    101  C   UNL     1       9.333   9.506 -12.142  1.00  0.00     0.198 A 
ATOM    102  F   UNL     1       9.681   7.286 -11.449  1.00  0.00    -0.203 F 
ATOM    103  F   UNL     1       7.661  12.262 -10.488  1.00  0.00    -0.200 F 
ATOM    104  C   UNL     1       8.825  10.774 -11.904  1.00  0.00     0.200 A 
ATOM    105  F   UNL     1       9.978   9.247 -13.288  1.00  0.00    -0.200 F 
ATOM    106  F   UNL     1       8.962  11.736 -12.826  1.00  0.00    -0.200 F 
ENDBRANCH  73  96
ENDBRANCH  47  48
ENDBRANCH  40  42
ENDBRANCH  39  40
ENDBRANCH  38  39
ENDBRANCH  37  38
ENDBRANCH  36  37
ENDBRANCH  35  36
ENDBRANCH  34  35
ENDBRANCH  33  34
ENDBRANCH   1  33
TORSDOF 23
