REMARK SMILES O=C(OCCOCCOCCOCCOC(=O)c1ccc(-c2c3nc(c(-c4c(F)c(F)c(F)c(F)c4F)c4ccc([nH]4)c(-c4c(F)c(F)c(F)c(F)c4F)c4nc(c(-c5c(F)c(F)c(F)c(F)c5F)c5ccc2[nH]5)C=C4)C=C3)cc1)C1=Cc2cc(Cl)ccc2O[C@@H]1C(F)(F)F
REMARK SMILES IDX 10 1 9 2 8 3 7 4 6 5 5 6 4 7 3 8 2 9 1 10 81 11 82 12 91 13
REMARK SMILES IDX 83 14 90 15 84 16 89 17 85 18 88 19 86 20 87 21 92 22 93 23
REMARK SMILES IDX 94 24 95 25 11 26 12 27 13 28 14 29 15 30 16 31 17 32 18 33
REMARK SMILES IDX 19 34 80 35 20 36 79 37 21 38 22 39 23 40 73 41 24 42 78 43
REMARK SMILES IDX 72 44 74 45 25 46 77 47 71 48 70 49 26 51 58 52 38 53 57 54
REMARK SMILES IDX 39 55 42 56 56 57 75 58 40 59 41 60 55 62 76 63 43 64 27 65
REMARK SMILES IDX 28 66 36 67 29 68 30 69 34 70 37 71 31 72 32 73 35 74 33 75
REMARK SMILES IDX 59 76 60 77 68 78 61 79 62 80 66 81 69 82 63 83 64 84 67 85
REMARK SMILES IDX 65 86 44 87 45 88 53 89 46 90 47 91 51 92 54 93 48 94 49 95
REMARK SMILES IDX 52 96 50 97
REMARK H PARENT 74 50 42 61
REMARK Flexibility Score: inf
ROOT
ATOM      1  C   UNL     1       3.164   2.213  -3.675  1.00  0.00     0.188 C 
ENDROOT
BRANCH   1   2
ATOM      2  O   UNL     1       1.857   2.579  -3.255  1.00  0.00    -0.377 OA
BRANCH   2   3
ATOM      3  C   UNL     1       1.141   1.579  -2.543  1.00  0.00     0.188 C 
BRANCH   3   4
ATOM      4  C   UNL     1       1.575   1.493  -1.088  1.00  0.00     0.188 C 
BRANCH   4   5
ATOM      5  O   UNL     1       2.942   1.137  -0.930  1.00  0.00    -0.376 OA
BRANCH   5   6
ATOM      6  C   UNL     1       3.338  -0.195  -1.223  1.00  0.00     0.202 C 
BRANCH   6   7
ATOM      7  C   UNL     1       2.795  -1.256  -0.264  1.00  0.00     0.261 C 
BRANCH   7   8
ATOM      8  O   UNL     1       2.253  -0.651   0.921  1.00  0.00    -0.460 OA
BRANCH   8   9
ATOM      9  C   UNL     1       2.747  -1.107   2.089  1.00  0.00     0.338 C 
ATOM     10  O   UNL     1       2.272  -2.061   2.686  1.00  0.00    -0.246 OA
BRANCH   9  11
ATOM     11  C   UNL     1       3.883  -0.292   2.596  1.00  0.00     0.087 C 
ATOM     12  C   UNL     1       4.904  -1.086   2.965  1.00  0.00     0.027 C 
ATOM     13  C   UNL     1       4.138   1.054   1.951  1.00  0.00     0.316 C 
ATOM     14  C   UNL     1       6.000  -1.074   1.986  1.00  0.00     0.019 A 
ATOM     15  O   UNL     1       5.381   1.142   1.202  1.00  0.00    -0.475 OA
ATOM     16  C   UNL     1       6.827  -2.194   1.864  1.00  0.00     0.032 A 
ATOM     17  C   UNL     1       6.154   0.015   1.123  1.00  0.00     0.128 A 
ATOM     18  C   UNL     1       7.782  -2.232   0.850  1.00  0.00     0.041 A 
ATOM     19  C   UNL     1       7.117  -0.027   0.116  1.00  0.00     0.048 A 
ATOM     20  Cl  UNL     1       8.775  -3.625   0.670  1.00  0.00    -0.084 Cl
ATOM     21  C   UNL     1       7.921  -1.161  -0.033  1.00  0.00     0.024 A 
BRANCH  13  22
ATOM     22  C   UNL     1       4.010   2.199   2.958  1.00  0.00     0.430 C 
ATOM     23  F   UNL     1       3.831   3.386   2.332  1.00  0.00    -0.167 F 
ATOM     24  F   UNL     1       2.933   2.021   3.764  1.00  0.00    -0.167 F 
ATOM     25  F   UNL     1       5.096   2.310   3.753  1.00  0.00    -0.167 F 
ENDBRANCH  13  22
ENDBRANCH   9  11
ENDBRANCH   8   9
ENDBRANCH   7   8
ENDBRANCH   6   7
ENDBRANCH   5   6
ENDBRANCH   4   5
ENDBRANCH   3   4
ENDBRANCH   2   3
ENDBRANCH   1   2
BRANCH   1  26
ATOM     26  C   UNL     1       4.348   2.835  -2.896  1.00  0.00     0.188 C 
BRANCH  26  27
ATOM     27  O   UNL     1       4.377   4.189  -2.458  1.00  0.00    -0.376 OA
BRANCH  27  28
ATOM     28  C   UNL     1       3.298   5.053  -2.760  1.00  0.00     0.202 C 
BRANCH  28  29
ATOM     29  C   UNL     1       3.340   5.662  -4.169  1.00  0.00     0.261 C 
BRANCH  29  30
ATOM     30  O   UNL     1       3.665   4.714  -5.200  1.00  0.00    -0.460 OA
BRANCH  30  31
ATOM     31  C   UNL     1       4.975   4.648  -5.558  1.00  0.00     0.338 C 
ATOM     32  O   UNL     1       5.865   5.406  -5.234  1.00  0.00    -0.246 OA
BRANCH  31  33
ATOM     33  C   UNL     1       5.221   3.367  -6.278  1.00  0.00     0.060 A 
ATOM     34  C   UNL     1       6.370   2.635  -5.941  1.00  0.00     0.016 A 
ATOM     35  C   UNL     1       4.323   2.852  -7.218  1.00  0.00     0.016 A 
ATOM     36  C   UNL     1       6.627   1.397  -6.540  1.00  0.00     0.010 A 
ATOM     37  C   UNL     1       4.592   1.623  -7.835  1.00  0.00     0.010 A 
ATOM     38  C   UNL     1       5.757   0.900  -7.518  1.00  0.00    -0.014 A 
BRANCH  38  39
ATOM     39  C   UNL     1       6.167  -0.238  -8.381  1.00  0.00     0.031 A 
ATOM     40  C   UNL     1       6.848   0.088  -9.683  1.00  0.00     0.074 A 
ATOM     41  C   UNL     1       5.927  -1.522  -8.054  1.00  0.00     0.049 A 
ATOM     42  N   UNL     1       7.165  -0.698 -10.679  1.00  0.00    -0.248 NA
ATOM     43  C   UNL     1       7.213   1.500  -9.890  1.00  0.00     0.031 C 
ATOM     44  C   UNL     1       5.331  -1.984  -6.804  1.00  0.00     0.029 A 
ATOM     45  N   UNL     1       6.139  -2.677  -8.773  1.00  0.00    -0.354 N 
ATOM     46  C   UNL     1       7.741   0.127 -11.636  1.00  0.00     0.074 A 
ATOM     47  C   UNL     1       7.730   1.472 -11.108  1.00  0.00     0.031 C 
ATOM     48  C   UNL     1       5.189  -3.322  -6.857  1.00  0.00     0.029 A 
ATOM     49  C   UNL     1       5.645  -3.805  -8.162  1.00  0.00     0.049 A 
ATOM     50  H   UNL     1       6.601  -2.693  -9.642  1.00  0.00     0.167 HD
ATOM     51  C   UNL     1       8.230  -0.208 -12.852  1.00  0.00     0.037 A 
ATOM     52  C   UNL     1       5.531  -5.068  -8.624  1.00  0.00     0.037 A 
ATOM     53  C   UNL     1       8.259  -1.545 -13.376  1.00  0.00     0.049 A 
ATOM     54  C   UNL     1       6.012  -5.399 -10.020  1.00  0.00     0.074 A 
ATOM     55  C   UNL     1       8.785  -1.986 -14.577  1.00  0.00     0.029 A 
ATOM     56  N   UNL     1       7.726  -2.652 -12.738  1.00  0.00    -0.354 N 
ATOM     57  N   UNL     1       6.592  -4.623 -10.904  1.00  0.00    -0.248 NA
ATOM     58  C   UNL     1       5.810  -6.780 -10.487  1.00  0.00     0.031 C 
ATOM     59  C   UNL     1       8.516  -3.352 -14.694  1.00  0.00     0.029 A 
ATOM     60  C   UNL     1       7.871  -3.771 -13.541  1.00  0.00     0.049 A 
ATOM     61  H   UNL     1       7.308  -2.646 -11.847  1.00  0.00     0.167 HD
ATOM     62  C   UNL     1       6.841  -5.423 -12.014  1.00  0.00     0.074 A 
ATOM     63  C   UNL     1       6.368  -6.750 -11.689  1.00  0.00     0.031 C 
ATOM     64  C   UNL     1       7.405  -5.088 -13.200  1.00  0.00     0.037 A 
BRANCH  51  65
ATOM     65  C   UNL     1       8.743   0.895 -13.726  1.00  0.00     0.064 A 
ATOM     66  C   UNL     1       9.969   1.527 -13.479  1.00  0.00     0.173 A 
ATOM     67  C   UNL     1       8.020   1.277 -14.867  1.00  0.00     0.173 A 
ATOM     68  F   UNL     1      10.686   1.208 -12.391  1.00  0.00    -0.203 F 
ATOM     69  C   UNL     1      10.452   2.507 -14.341  1.00  0.00     0.198 A 
ATOM     70  C   UNL     1       8.518   2.239 -15.740  1.00  0.00     0.198 A 
ATOM     71  F   UNL     1       6.840   0.701 -15.143  1.00  0.00    -0.203 F 
ATOM     72  F   UNL     1      11.613   3.120 -14.074  1.00  0.00    -0.200 F 
ATOM     73  C   UNL     1       9.731   2.854 -15.476  1.00  0.00     0.200 A 
ATOM     74  F   UNL     1       7.825   2.564 -16.840  1.00  0.00    -0.200 F 
ATOM     75  F   UNL     1      10.207   3.785 -16.314  1.00  0.00    -0.200 F 
ENDBRANCH  51  65
BRANCH  52  76
ATOM     76  C   UNL     1       4.871  -6.121  -7.801  1.00  0.00     0.064 A 
ATOM     77  C   UNL     1       5.578  -7.246  -7.351  1.00  0.00     0.173 A 
ATOM     78  C   UNL     1       3.498  -6.064  -7.518  1.00  0.00     0.173 A 
ATOM     79  F   UNL     1       6.885  -7.368  -7.626  1.00  0.00    -0.203 F 
ATOM     80  C   UNL     1       4.933  -8.284  -6.679  1.00  0.00     0.198 A 
ATOM     81  C   UNL     1       2.860  -7.086  -6.817  1.00  0.00     0.198 A 
ATOM     82  F   UNL     1       2.769  -5.016  -7.932  1.00  0.00    -0.203 F 
ATOM     83  F   UNL     1       5.620  -9.378  -6.322  1.00  0.00    -0.200 F 
ATOM     84  C   UNL     1       3.575  -8.201  -6.409  1.00  0.00     0.200 A 
ATOM     85  F   UNL     1       1.550  -6.995  -6.550  1.00  0.00    -0.200 F 
ATOM     86  F   UNL     1       2.953  -9.202  -5.771  1.00  0.00    -0.200 F 
ENDBRANCH  52  76
BRANCH  64  87
ATOM     87  C   UNL     1       7.568  -6.169 -14.230  1.00  0.00     0.064 A 
ATOM     88  C   UNL     1       6.471  -6.680 -14.937  1.00  0.00     0.173 A 
ATOM     89  C   UNL     1       8.845  -6.645 -14.565  1.00  0.00     0.173 A 
ATOM     90  F   UNL     1       5.228  -6.267 -14.645  1.00  0.00    -0.203 F 
ATOM     91  C   UNL     1       6.644  -7.639 -15.932  1.00  0.00     0.198 A 
ATOM     92  C   UNL     1       9.018  -7.582 -15.581  1.00  0.00     0.198 A 
ATOM     93  F   UNL     1       9.930  -6.182 -13.925  1.00  0.00    -0.203 F 
ATOM     94  F   UNL     1       5.577  -8.140 -16.570  1.00  0.00    -0.200 F 
ATOM     95  C   UNL     1       7.917  -8.082 -16.259  1.00  0.00     0.200 A 
ATOM     96  F   UNL     1      10.250  -7.995 -15.907  1.00  0.00    -0.200 F 
ATOM     97  F   UNL     1       8.083  -8.992 -17.228  1.00  0.00    -0.200 F 
ENDBRANCH  64  87
ENDBRANCH  38  39
ENDBRANCH  31  33
ENDBRANCH  30  31
ENDBRANCH  29  30
ENDBRANCH  28  29
ENDBRANCH  27  28
ENDBRANCH  26  27
ENDBRANCH   1  26
TORSDOF 21
