REMARK SMILES Cc1nnc(-c2ccccc2-c2cc(NCC(=O)OCCOCCOCCOCCOC(=O)c3ccc(-c4c5nc(c(-c6c(F)c(F)c(F)c(F)c6F)c6ccc([nH]6)c(-c6c(F)c(F)c(F)c(F)c6F)c6nc(c(-c7c(F)c(F)c(F)c(F)c7F)c7ccc4[nH]7)C=C6)C=C5)cc3)nc3[nH]ccc23)o1
REMARK SMILES IDX 24 1 23 2 22 3 21 4 20 5 19 6 17 7 18 8 16 9 15 10 14 12
REMARK SMILES IDX 12 13 13 14 102 15 98 16 101 17 97 18 99 19 100 20 11 22
REMARK SMILES IDX 6 23 7 24 8 25 10 26 9 27 5 28 1 29 2 30 3 31 103 32 4 33
REMARK SMILES IDX 25 34 26 35 27 36 28 37 29 38 30 39 31 40 32 41 33 42 34 43
REMARK SMILES IDX 35 44 96 45 36 46 95 47 37 48 38 49 39 50 89 51 40 52 94 53
REMARK SMILES IDX 88 54 90 55 41 56 93 57 87 58 86 59 42 61 74 62 54 63 73 64
REMARK SMILES IDX 55 65 58 66 72 67 91 68 56 69 57 70 71 72 92 73 59 74 43 75
REMARK SMILES IDX 44 76 52 77 45 78 46 79 50 80 53 81 47 82 48 83 51 84 49 85
REMARK SMILES IDX 75 86 76 87 84 88 77 89 78 90 82 91 85 92 79 93 80 94 83 95
REMARK SMILES IDX 81 96 60 97 61 98 69 99 62 100 63 101 67 102 70 103 64 104
REMARK SMILES IDX 65 105 68 106 66 107
REMARK H PARENT 15 11 99 21 90 60 58 71
REMARK Flexibility Score: inf
ROOT
ATOM      1  C   UNL     1      -2.067  -1.056  -4.335  1.00  0.00     0.188 C 
ENDROOT
BRANCH   1   2
ATOM      2  C   UNL     1      -2.515  -2.160  -5.312  1.00  0.00     0.188 C 
BRANCH   2   3
ATOM      3  O   UNL     1      -3.074  -3.319  -4.708  1.00  0.00    -0.376 OA
BRANCH   3   4
ATOM      4  C   UNL     1      -2.304  -4.510  -4.868  1.00  0.00     0.202 C 
BRANCH   4   5
ATOM      5  C   UNL     1      -1.029  -4.561  -4.013  1.00  0.00     0.261 C 
BRANCH   5   6
ATOM      6  O   UNL     1      -0.124  -3.475  -4.284  1.00  0.00    -0.462 OA
BRANCH   6   7
ATOM      7  C   UNL     1       0.709  -3.632  -5.344  1.00  0.00     0.325 C 
ATOM      8  O   UNL     1       0.720  -4.635  -6.054  1.00  0.00    -0.250 OA
BRANCH   7   9
ATOM      9  C   UNL     1       1.518  -2.380  -5.683  1.00  0.00     0.237 C 
BRANCH   9  10
ATOM     10  N   UNL     1       1.506  -1.303  -4.688  1.00  0.00    -0.359 N 
ATOM     11  H   UNL     1       0.707  -0.737  -4.591  1.00  0.00     0.162 HD
BRANCH  10  12
ATOM     12  C   UNL     1       2.614  -1.075  -3.881  1.00  0.00     0.129 A 
ATOM     13  C   UNL     1       3.721   0.342  -2.216  1.00  0.00    -0.003 A 
ATOM     14  C   UNL     1       2.606   0.038  -3.025  1.00  0.00     0.056 A 
ATOM     15  C   UNL     1       4.804  -0.552  -2.291  1.00  0.00     0.027 A 
ATOM     16  C   UNL     1       4.674  -1.636  -3.149  1.00  0.00     0.140 A 
ATOM     17  C   UNL     1       6.080  -0.677  -1.670  1.00  0.00     0.030 A 
ATOM     18  N   UNL     1       3.640  -1.939  -3.947  1.00  0.00    -0.213 NA
ATOM     19  N   UNL     1       5.809  -2.391  -3.053  1.00  0.00    -0.346 N 
ATOM     20  C   UNL     1       6.679  -1.816  -2.164  1.00  0.00     0.085 A 
ATOM     21  H   UNL     1       5.977  -3.225  -3.549  1.00  0.00     0.167 HD
BRANCH  13  22
ATOM     22  C   UNL     1       3.787   1.475  -1.277  1.00  0.00    -0.005 A 
ATOM     23  C   UNL     1       3.046   1.501  -0.079  1.00  0.00     0.047 A 
ATOM     24  C   UNL     1       3.147   2.589   0.809  1.00  0.00     0.014 A 
ATOM     25  C   UNL     1       3.991   3.656   0.524  1.00  0.00     0.001 A 
ATOM     26  C   UNL     1       4.629   2.571  -1.545  1.00  0.00     0.009 A 
ATOM     27  C   UNL     1       4.730   3.647  -0.654  1.00  0.00     0.001 A 
BRANCH  23  28
ATOM     28  C   UNL     1       2.101   0.457   0.226  1.00  0.00     0.248 A 
ATOM     29  C   UNL     1      -1.298  -0.236   0.248  1.00  0.00     0.113 C 
ATOM     30  C   UNL     1       0.153  -0.325   0.316  1.00  0.00     0.213 A 
ATOM     31  N   UNL     1       0.954  -1.339   0.551  1.00  0.00    -0.113 NA
ATOM     32  O   UNL     1       0.803   0.853   0.132  1.00  0.00    -0.421 OA
ATOM     33  N   UNL     1       2.237  -0.828   0.477  1.00  0.00    -0.108 NA
ENDBRANCH  23  28
ENDBRANCH  13  22
ENDBRANCH  10  12
ENDBRANCH   9  10
ENDBRANCH   7   9
ENDBRANCH   6   7
ENDBRANCH   5   6
ENDBRANCH   4   5
ENDBRANCH   3   4
ENDBRANCH   2   3
ENDBRANCH   1   2
BRANCH   1  34
ATOM     34  O   UNL     1      -2.018  -1.300  -2.937  1.00  0.00    -0.377 OA
BRANCH  34  35
ATOM     35  C   UNL     1      -3.098  -1.985  -2.317  1.00  0.00     0.188 C 
BRANCH  35  36
ATOM     36  C   UNL     1      -4.545  -1.654  -2.715  1.00  0.00     0.188 C 
BRANCH  36  37
ATOM     37  O   UNL     1      -4.674  -0.653  -3.712  1.00  0.00    -0.376 OA
BRANCH  37  38
ATOM     38  C   UNL     1      -5.288   0.564  -3.303  1.00  0.00     0.202 C 
BRANCH  38  39
ATOM     39  C   UNL     1      -4.422   1.427  -2.377  1.00  0.00     0.261 C 
BRANCH  39  40
ATOM     40  O   UNL     1      -4.218   0.873  -1.067  1.00  0.00    -0.460 OA
BRANCH  40  41
ATOM     41  C   UNL     1      -5.314   0.684  -0.297  1.00  0.00     0.338 C 
ATOM     42  O   UNL     1      -6.473   0.948  -0.557  1.00  0.00    -0.246 OA
BRANCH  41  43
ATOM     43  C   UNL     1      -4.859  -0.056   0.888  1.00  0.00     0.060 A 
ATOM     44  C   UNL     1      -5.256  -1.383   1.074  1.00  0.00     0.016 A 
ATOM     45  C   UNL     1      -3.980   0.559   1.778  1.00  0.00     0.016 A 
ATOM     46  C   UNL     1      -4.771  -2.102   2.169  1.00  0.00     0.010 A 
ATOM     47  C   UNL     1      -3.457  -0.176   2.841  1.00  0.00     0.010 A 
ATOM     48  C   UNL     1      -3.887  -1.495   3.073  1.00  0.00    -0.014 A 
BRANCH  48  49
ATOM     49  C   UNL     1      -3.620  -2.121   4.394  1.00  0.00     0.031 A 
ATOM     50  C   UNL     1      -4.263  -1.488   5.601  1.00  0.00     0.074 A 
ATOM     51  C   UNL     1      -2.857  -3.219   4.538  1.00  0.00     0.049 A 
ATOM     52  N   UNL     1      -4.170  -1.808   6.866  1.00  0.00    -0.248 NA
ATOM     53  C   UNL     1      -5.102  -0.304   5.346  1.00  0.00     0.031 C 
ATOM     54  C   UNL     1      -2.162  -3.928   3.465  1.00  0.00     0.029 A 
ATOM     55  N   UNL     1      -2.543  -3.934   5.669  1.00  0.00    -0.354 N 
ATOM     56  C   UNL     1      -4.913  -0.853   7.545  1.00  0.00     0.074 A 
ATOM     57  C   UNL     1      -5.377   0.106   6.571  1.00  0.00     0.031 C 
ATOM     58  C   UNL     1      -1.526  -4.994   3.986  1.00  0.00     0.029 A 
ATOM     59  C   UNL     1      -1.753  -5.032   5.431  1.00  0.00     0.049 A 
ATOM     60  H   UNL     1      -2.857  -3.683   6.568  1.00  0.00     0.167 HD
ATOM     61  C   UNL     1      -5.232  -0.797   8.858  1.00  0.00     0.037 A 
ATOM     62  C   UNL     1      -1.281  -5.961   6.286  1.00  0.00     0.037 A 
ATOM     63  C   UNL     1      -4.823  -1.771   9.827  1.00  0.00     0.049 A 
ATOM     64  C   UNL     1      -1.629  -5.869   7.753  1.00  0.00     0.074 A 
ATOM     65  C   UNL     1      -5.122  -1.827  11.175  1.00  0.00     0.029 A 
ATOM     66  N   UNL     1      -4.030  -2.872   9.542  1.00  0.00    -0.354 N 
ATOM     67  N   UNL     1      -2.380  -4.994   8.378  1.00  0.00    -0.248 NA
ATOM     68  C   UNL     1      -1.068  -6.907   8.633  1.00  0.00     0.031 C 
ATOM     69  C   UNL     1      -4.483  -2.947  11.715  1.00  0.00     0.029 A 
ATOM     70  C   UNL     1      -3.823  -3.611  10.693  1.00  0.00     0.049 A 
ATOM     71  H   UNL     1      -3.668  -3.094   8.654  1.00  0.00     0.167 HD
ATOM     72  C   UNL     1      -2.416  -5.399   9.708  1.00  0.00     0.074 A 
ATOM     73  C   UNL     1      -1.616  -6.601   9.801  1.00  0.00     0.031 C 
ATOM     74  C   UNL     1      -3.055  -4.827  10.758  1.00  0.00     0.037 A 
BRANCH  61  75
ATOM     75  C   UNL     1      -6.079   0.359   9.299  1.00  0.00     0.064 A 
ATOM     76  C   UNL     1      -7.422   0.475   8.906  1.00  0.00     0.173 A 
ATOM     77  C   UNL     1      -5.533   1.381  10.088  1.00  0.00     0.173 A 
ATOM     78  F   UNL     1      -7.982  -0.464   8.128  1.00  0.00    -0.203 F 
ATOM     79  C   UNL     1      -8.172   1.597   9.246  1.00  0.00     0.198 A 
ATOM     80  C   UNL     1      -6.298   2.483  10.456  1.00  0.00     0.198 A 
ATOM     81  F   UNL     1      -4.254   1.318  10.487  1.00  0.00    -0.203 F 
ATOM     82  F   UNL     1      -9.427   1.724   8.792  1.00  0.00    -0.200 F 
ATOM     83  C   UNL     1      -7.611   2.597  10.024  1.00  0.00     0.200 A 
ATOM     84  F   UNL     1      -5.757   3.447  11.214  1.00  0.00    -0.200 F 
ATOM     85  F   UNL     1      -8.331   3.681  10.345  1.00  0.00    -0.200 F 
ENDBRANCH  61  75
BRANCH  62  86
ATOM     86  C   UNL     1      -0.462  -7.099   5.789  1.00  0.00     0.064 A 
ATOM     87  C   UNL     1      -0.975  -8.405   5.795  1.00  0.00     0.173 A 
ATOM     88  C   UNL     1       0.859  -6.921   5.356  1.00  0.00     0.173 A 
ATOM     89  F   UNL     1      -2.224  -8.631   6.231  1.00  0.00    -0.203 F 
ATOM     90  C   UNL     1      -0.190  -9.491   5.413  1.00  0.00     0.198 A 
ATOM     91  C   UNL     1       1.636  -8.005   4.950  1.00  0.00     0.198 A 
ATOM     92  F   UNL     1       1.401  -5.694   5.342  1.00  0.00    -0.203 F 
ATOM     93  F   UNL     1      -0.688 -10.733   5.487  1.00  0.00    -0.200 F 
ATOM     94  C   UNL     1       1.114  -9.290   4.989  1.00  0.00     0.200 A 
ATOM     95  F   UNL     1       2.896  -7.809   4.541  1.00  0.00    -0.200 F 
ATOM     96  F   UNL     1       1.873 -10.336   4.633  1.00  0.00    -0.200 F 
ENDBRANCH  62  86
BRANCH  74  97
ATOM     97  C   UNL     1      -2.978  -5.520  12.087  1.00  0.00     0.064 A 
ATOM     98  C   UNL     1      -1.805  -5.519  12.855  1.00  0.00     0.173 A 
ATOM     99  C   UNL     1      -4.120  -6.130  12.631  1.00  0.00     0.173 A 
ATOM    100  F   UNL     1      -0.685  -4.958  12.375  1.00  0.00    -0.203 F 
ATOM    101  C   UNL     1      -1.773  -6.120  14.111  1.00  0.00     0.198 A 
ATOM    102  C   UNL     1      -4.092  -6.703  13.899  1.00  0.00     0.198 A 
ATOM    103  F   UNL     1      -5.270  -6.147  11.941  1.00  0.00    -0.203 F 
ATOM    104  F   UNL     1      -0.631  -6.139  14.812  1.00  0.00    -0.200 F 
ATOM    105  C   UNL     1      -2.917  -6.702  14.635  1.00  0.00     0.200 A 
ATOM    106  F   UNL     1      -5.203  -7.250  14.411  1.00  0.00    -0.200 F 
ATOM    107  F   UNL     1      -2.887  -7.266  15.851  1.00  0.00    -0.200 F 
ENDBRANCH  74  97
ENDBRANCH  48  49
ENDBRANCH  41  43
ENDBRANCH  40  41
ENDBRANCH  39  40
ENDBRANCH  38  39
ENDBRANCH  37  38
ENDBRANCH  36  37
ENDBRANCH  35  36
ENDBRANCH  34  35
ENDBRANCH   1  34
TORSDOF 24
