REMARK SMILES CC1(C)CCC[C@H]1NC(=O)N[C@@H]1COC[C@@]1(C)C(=O)OCCOCCOCCOCCOC(=O)c1ccc(-c2c3nc(c(-c4c(F)c(F)c(F)c(F)c4F)c4ccc([nH]4)c(-c4c(F)c(F)c(F)c(F)c4F)c4nc(c(-c5c(F)c(F)c(F)c(F)c5F)c5ccc2[nH]5)C=C4)C=C3)cc1
REMARK SMILES IDX 26 1 25 2 24 3 23 4 22 5 21 6 20 7 18 8 19 9 16 10 12 11
REMARK SMILES IDX 13 12 14 13 15 14 17 15 11 16 8 17 9 18 10 20 7 22 1 23 2 24
REMARK SMILES IDX 3 25 4 26 5 27 6 28 27 29 28 30 29 31 30 32 31 33 32 34
REMARK SMILES IDX 33 35 34 36 35 37 36 38 97 39 37 40 96 41 38 42 39 43 40 44
REMARK SMILES IDX 90 45 41 46 95 47 89 48 91 49 42 50 94 51 88 52 87 53 43 55
REMARK SMILES IDX 75 56 55 57 74 58 56 59 59 60 73 61 92 62 57 63 58 64 72 66
REMARK SMILES IDX 93 67 60 68 44 69 45 70 53 71 46 72 47 73 51 74 54 75 48 76
REMARK SMILES IDX 49 77 52 78 50 79 76 80 77 81 85 82 78 83 79 84 83 85 86 86
REMARK SMILES IDX 80 87 81 88 84 89 82 90 61 91 62 92 70 93 63 94 64 95 68 96
REMARK SMILES IDX 71 97 65 98 66 99 69 100 67 101
REMARK H PARENT 8 19 11 21 91 54 59 65
REMARK Flexibility Score: inf
ROOT
ATOM      1  O   UNL     1       4.631   0.511  -0.599  1.00  0.00    -0.377 OA
ENDROOT
BRANCH   1   2
ATOM      2  C   UNL     1       4.348   0.407  -1.986  1.00  0.00     0.188 C 
BRANCH   2   3
ATOM      3  C   UNL     1       4.500   1.776  -2.655  1.00  0.00     0.188 C 
BRANCH   3   4
ATOM      4  O   UNL     1       5.779   2.392  -2.495  1.00  0.00    -0.376 OA
BRANCH   4   5
ATOM      5  C   UNL     1       6.102   2.916  -1.199  1.00  0.00     0.202 C 
BRANCH   5   6
ATOM      6  C   UNL     1       5.247   4.109  -0.729  1.00  0.00     0.261 C 
BRANCH   6   7
ATOM      7  O   UNL     1       3.948   3.651  -0.318  1.00  0.00    -0.463 OA
BRANCH   7   8
ATOM      8  C   UNL     1       2.807   4.298  -0.699  1.00  0.00     0.316 C 
ATOM      9  O   UNL     1       2.776   5.389  -1.248  1.00  0.00    -0.251 OA
BRANCH   8  10
ATOM     10  C   UNL     1       1.584   3.388  -0.476  1.00  0.00     0.111 C 
ATOM     11  C   UNL     1       0.326   4.103   0.034  1.00  0.00     0.129 C 
ATOM     12  C   UNL     1      -0.740   3.937  -1.043  1.00  0.00     0.186 C 
ATOM     13  O   UNL     1      -0.265   2.982  -1.989  1.00  0.00    -0.378 OA
ATOM     14  C   UNL     1       1.155   2.885  -1.860  1.00  0.00     0.181 C 
ATOM     15  C   UNL     1       2.019   2.269   0.455  1.00  0.00     0.028 C 
BRANCH  11  16
ATOM     16  N   UNL     1      -0.158   3.771   1.394  1.00  0.00    -0.332 N 
ATOM     17  N   UNL     1      -0.926   1.522   1.740  1.00  0.00    -0.335 N 
ATOM     18  C   UNL     1      -0.650   2.769   2.124  1.00  0.00     0.315 C 
ATOM     19  H   UNL     1      -1.137   0.953   2.516  1.00  0.00     0.165 HD
ATOM     20  O   UNL     1      -0.847   3.027   3.317  1.00  0.00    -0.249 OA
ATOM     21  H   UNL     1      -0.094   4.574   1.960  1.00  0.00     0.165 HD
BRANCH  17  22
ATOM     22  C   UNL     1      -1.005   0.758   0.493  1.00  0.00     0.089 C 
ATOM     23  C   UNL     1       0.918  -0.801   1.505  1.00  0.00     0.013 C 
ATOM     24  C   UNL     1      -0.248  -0.624   0.515  1.00  0.00    -0.015 C 
ATOM     25  C   UNL     1       0.287  -0.934  -0.901  1.00  0.00     0.013 C 
ATOM     26  C   UNL     1      -1.352  -1.619   0.899  1.00  0.00     0.008 C 
ATOM     27  C   UNL     1      -2.583  -1.122   0.170  1.00  0.00     0.003 C 
ATOM     28  C   UNL     1      -2.480   0.401   0.203  1.00  0.00     0.025 C 
ENDBRANCH  17  22
ENDBRANCH  11  16
ENDBRANCH   8  10
ENDBRANCH   7   8
ENDBRANCH   6   7
ENDBRANCH   5   6
ENDBRANCH   4   5
ENDBRANCH   3   4
ENDBRANCH   2   3
ENDBRANCH   1   2
BRANCH   1  29
ATOM     29  C   UNL     1       5.130  -0.622   0.099  1.00  0.00     0.188 C 
BRANCH  29  30
ATOM     30  C   UNL     1       5.907  -1.646  -0.733  1.00  0.00     0.188 C 
BRANCH  30  31
ATOM     31  O   UNL     1       5.141  -2.474  -1.614  1.00  0.00    -0.376 OA
BRANCH  31  32
ATOM     32  C   UNL     1       3.839  -2.893  -1.213  1.00  0.00     0.202 C 
BRANCH  32  33
ATOM     33  C   UNL     1       3.797  -4.072  -0.243  1.00  0.00     0.261 C 
BRANCH  33  34
ATOM     34  O   UNL     1       4.225  -3.681   1.071  1.00  0.00    -0.460 OA
BRANCH  34  35
ATOM     35  C   UNL     1       5.485  -4.039   1.388  1.00  0.00     0.338 C 
ATOM     36  O   UNL     1       6.275  -4.684   0.704  1.00  0.00    -0.246 OA
BRANCH  35  37
ATOM     37  C   UNL     1       5.876  -3.402   2.652  1.00  0.00     0.060 A 
ATOM     38  C   UNL     1       7.116  -2.753   2.705  1.00  0.00     0.016 A 
ATOM     39  C   UNL     1       5.088  -3.540   3.797  1.00  0.00     0.016 A 
ATOM     40  C   UNL     1       7.612  -2.310   3.923  1.00  0.00     0.010 A 
ATOM     41  C   UNL     1       5.592  -3.107   5.023  1.00  0.00     0.010 A 
ATOM     42  C   UNL     1       6.880  -2.548   5.092  1.00  0.00    -0.014 A 
BRANCH  42  43
ATOM     43  C   UNL     1       7.579  -2.443   6.390  1.00  0.00     0.031 A 
ATOM     44  C   UNL     1       8.152  -3.698   6.989  1.00  0.00     0.074 A 
ATOM     45  C   UNL     1       7.762  -1.249   6.975  1.00  0.00     0.049 A 
ATOM     46  N   UNL     1       8.820  -3.861   8.100  1.00  0.00    -0.248 NA
ATOM     47  C   UNL     1       7.942  -4.941   6.226  1.00  0.00     0.031 C 
ATOM     48  C   UNL     1       7.290   0.029   6.449  1.00  0.00     0.029 A 
ATOM     49  N   UNL     1       8.401  -0.923   8.142  1.00  0.00    -0.354 N 
ATOM     50  C   UNL     1       9.106  -5.219   8.170  1.00  0.00     0.074 A 
ATOM     51  C   UNL     1       8.508  -5.843   7.012  1.00  0.00     0.031 C 
ATOM     52  C   UNL     1       7.654   1.007   7.296  1.00  0.00     0.029 A 
ATOM     53  C   UNL     1       8.357   0.416   8.432  1.00  0.00     0.049 A 
ATOM     54  H   UNL     1       8.848  -1.586   8.716  1.00  0.00     0.167 HD
ATOM     55  C   UNL     1       9.817  -5.882   9.113  1.00  0.00     0.037 A 
ATOM     56  C   UNL     1       8.824   1.079   9.507  1.00  0.00     0.037 A 
ATOM     57  C   UNL     1      10.405  -5.247  10.262  1.00  0.00     0.049 A 
ATOM     58  C   UNL     1       9.554   0.307  10.576  1.00  0.00     0.074 A 
ATOM     59  C   UNL     1      11.144  -5.817  11.282  1.00  0.00     0.029 A 
ATOM     60  N   UNL     1      10.310  -3.891  10.544  1.00  0.00    -0.354 N 
ATOM     61  N   UNL     1       9.836  -0.973  10.631  1.00  0.00    -0.248 NA
ATOM     62  C   UNL     1      10.041   1.077  11.728  1.00  0.00     0.031 C 
ATOM     63  C   UNL     1      11.451  -4.816  12.209  1.00  0.00     0.029 A 
ATOM     64  C   UNL     1      10.960  -3.609  11.735  1.00  0.00     0.049 A 
ATOM     65  H   UNL     1       9.849  -3.228   9.982  1.00  0.00     0.167 HD
ATOM     66  C   UNL     1      10.561  -1.157  11.802  1.00  0.00     0.074 A 
ATOM     67  C   UNL     1      10.688   0.149  12.417  1.00  0.00     0.031 C 
ATOM     68  C   UNL     1      11.078  -2.298  12.322  1.00  0.00     0.037 A 
BRANCH  55  69
ATOM     69  C   UNL     1       9.964  -7.368   8.953  1.00  0.00     0.064 A 
ATOM     70  C   UNL     1      10.748  -7.930   7.933  1.00  0.00     0.173 A 
ATOM     71  C   UNL     1       9.320  -8.243   9.840  1.00  0.00     0.173 A 
ATOM     72  F   UNL     1      11.369  -7.139   7.045  1.00  0.00    -0.203 F 
ATOM     73  C   UNL     1      10.857  -9.311   7.791  1.00  0.00     0.198 A 
ATOM     74  C   UNL     1       9.458  -9.623   9.715  1.00  0.00     0.198 A 
ATOM     75  F   UNL     1       8.557  -7.760  10.832  1.00  0.00    -0.203 F 
ATOM     76  F   UNL     1      11.566  -9.825   6.776  1.00  0.00    -0.200 F 
ATOM     77  C   UNL     1      10.219 -10.156   8.686  1.00  0.00     0.200 A 
ATOM     78  F   UNL     1       8.848 -10.438  10.587  1.00  0.00    -0.200 F 
ATOM     79  F   UNL     1      10.328 -11.485   8.551  1.00  0.00    -0.200 F 
ENDBRANCH  55  69
BRANCH  56  80
ATOM     80  C   UNL     1       8.617   2.546   9.624  1.00  0.00     0.064 A 
ATOM     81  C   UNL     1       9.696   3.438   9.570  1.00  0.00     0.173 A 
ATOM     82  C   UNL     1       7.334   3.085   9.808  1.00  0.00     0.173 A 
ATOM     83  F   UNL     1      10.944   2.971   9.418  1.00  0.00    -0.203 F 
ATOM     84  C   UNL     1       9.504   4.810   9.718  1.00  0.00     0.198 A 
ATOM     85  C   UNL     1       7.140   4.459   9.924  1.00  0.00     0.198 A 
ATOM     86  F   UNL     1       6.267   2.275   9.865  1.00  0.00    -0.203 F 
ATOM     87  F   UNL     1      10.559   5.636   9.713  1.00  0.00    -0.200 F 
ATOM     88  C   UNL     1       8.226   5.320   9.889  1.00  0.00     0.200 A 
ATOM     89  F   UNL     1       5.902   4.948  10.075  1.00  0.00    -0.200 F 
ATOM     90  F   UNL     1       8.042   6.640  10.028  1.00  0.00    -0.200 F 
ENDBRANCH  56  80
BRANCH  68  91
ATOM     91  C   UNL     1      11.869  -2.174  13.593  1.00  0.00     0.064 A 
ATOM     92  C   UNL     1      11.260  -1.865  14.818  1.00  0.00     0.173 A 
ATOM     93  C   UNL     1      13.256  -2.391  13.586  1.00  0.00     0.173 A 
ATOM     94  F   UNL     1       9.939  -1.637  14.877  1.00  0.00    -0.203 F 
ATOM     95  C   UNL     1      12.015  -1.739  15.981  1.00  0.00     0.198 A 
ATOM     96  C   UNL     1      14.002  -2.300  14.757  1.00  0.00     0.198 A 
ATOM     97  F   UNL     1      13.887  -2.701  12.443  1.00  0.00    -0.203 F 
ATOM     98  F   UNL     1      11.421  -1.380  17.127  1.00  0.00    -0.200 F 
ATOM     99  C   UNL     1      13.383  -1.962  15.951  1.00  0.00     0.200 A 
ATOM    100  F   UNL     1      15.321  -2.534  14.729  1.00  0.00    -0.200 F 
ATOM    101  F   UNL     1      14.108  -1.841  17.071  1.00  0.00    -0.200 F 
ENDBRANCH  68  91
ENDBRANCH  42  43
ENDBRANCH  35  37
ENDBRANCH  34  35
ENDBRANCH  33  34
ENDBRANCH  32  33
ENDBRANCH  31  32
ENDBRANCH  30  31
ENDBRANCH  29  30
ENDBRANCH   1  29
TORSDOF 22
