REMARK SMILES NS(=O)(=O)c1ccc(-c2coc(=O)n2-c2ccc(C(=O)OCCOCCOCCOCCOC(=O)c3ccc(-c4c5nc(c(-c6c(F)c(F)c(F)c(F)c6F)c6ccc([nH]6)c(-c6c(F)c(F)c(F)c(F)c6F)c6nc(c(-c7c(F)c(F)c(F)c(F)c7F)c7ccc4[nH]7)C=C6)C=C5)cc3)cc2)cc1
REMARK SMILES IDX 26 1 25 2 24 3 23 4 22 5 21 6 19 7 20 8 18 9 15 10 16 11
REMARK SMILES IDX 100 12 17 13 99 14 14 15 9 16 10 17 11 18 12 19 13 20 8 21
REMARK SMILES IDX 5 22 6 23 102 24 7 25 101 26 2 27 3 28 4 29 1 30 27 33 28 34
REMARK SMILES IDX 29 35 30 36 31 37 32 38 33 39 34 40 35 41 36 42 37 43 98 44
REMARK SMILES IDX 38 45 97 46 39 47 40 48 41 49 91 50 42 51 96 52 90 53 92 54
REMARK SMILES IDX 43 55 95 56 89 57 88 58 44 60 76 61 56 62 75 63 57 64 60 65
REMARK SMILES IDX 74 66 93 67 58 68 59 69 73 71 94 72 61 73 45 74 46 75 54 76
REMARK SMILES IDX 47 77 48 78 52 79 55 80 49 81 50 82 53 83 51 84 77 85 78 86
REMARK SMILES IDX 86 87 79 88 80 89 84 90 87 91 81 92 82 93 85 94 83 95 62 96
REMARK SMILES IDX 63 97 71 98 64 99 65 100 69 101 72 102 66 103 67 104 70 105
REMARK SMILES IDX 68 106
REMARK H PARENT 1 31 1 32 92 59 60 70
REMARK Flexibility Score: inf
ROOT
ATOM      1  C   UNL     1       8.104  -3.733   4.674  1.00  0.00     0.188 C 
ENDROOT
BRANCH   1   2
ATOM      2  C   UNL     1       7.511  -4.996   4.012  1.00  0.00     0.188 C 
BRANCH   2   3
ATOM      3  O   UNL     1       8.180  -5.386   2.831  1.00  0.00    -0.376 OA
BRANCH   3   4
ATOM      4  C   UNL     1       7.631  -5.151   1.558  1.00  0.00     0.202 C 
BRANCH   4   5
ATOM      5  C   UNL     1       7.037  -3.788   1.181  1.00  0.00     0.261 C 
BRANCH   5   6
ATOM      6  O   UNL     1       6.384  -3.063   2.224  1.00  0.00    -0.460 OA
BRANCH   6   7
ATOM      7  C   UNL     1       5.144  -3.476   2.561  1.00  0.00     0.338 C 
ATOM      8  O   UNL     1       4.505  -4.381   2.056  1.00  0.00    -0.246 OA
BRANCH   7   9
ATOM      9  C   UNL     1       4.755  -2.766   3.800  1.00  0.00     0.060 A 
ATOM     10  C   UNL     1       3.825  -1.464   6.075  1.00  0.00     0.053 A 
ATOM     11  C   UNL     1       3.783  -2.860   6.019  1.00  0.00     0.028 A 
ATOM     12  C   UNL     1       4.457  -0.739   5.053  1.00  0.00     0.028 A 
ATOM     13  C   UNL     1       4.211  -3.507   4.860  1.00  0.00     0.018 A 
ATOM     14  C   UNL     1       4.942  -1.389   3.922  1.00  0.00     0.018 A 
BRANCH  10  15
ATOM     15  N   UNL     1       3.014  -0.786   7.005  1.00  0.00    -0.242 N 
ATOM     16  C   UNL     1       2.010   0.096   6.710  1.00  0.00     0.095 A 
ATOM     17  C   UNL     1       1.470   0.437   7.873  1.00  0.00     0.228 A 
ATOM     18  O   UNL     1       2.052  -0.185   8.978  1.00  0.00    -0.415 OA
ATOM     19  C   UNL     1       3.014  -1.001   8.378  1.00  0.00     0.424 A 
ATOM     20  O   UNL     1       3.732  -1.758   9.018  1.00  0.00    -0.223 OA
BRANCH  16  21
ATOM     21  C   UNL     1       1.538   0.412   5.360  1.00  0.00     0.002 A 
ATOM     22  C   UNL     1       0.812   0.954   2.709  1.00  0.00     0.082 A 
ATOM     23  C   UNL     1       0.796  -0.363   3.167  1.00  0.00     0.022 A 
ATOM     24  C   UNL     1       1.167   2.001   3.565  1.00  0.00     0.022 A 
ATOM     25  C   UNL     1       1.147  -0.626   4.492  1.00  0.00     0.012 A 
ATOM     26  C   UNL     1       1.525   1.729   4.891  1.00  0.00     0.012 A 
BRANCH  22  27
ATOM     27  S   UNL     1       0.425   1.310   1.020  1.00  0.00     0.238 S 
ATOM     28  O   UNL     1       1.110   2.509   0.626  1.00  0.00    -0.207 OA
ATOM     29  O   UNL     1      -1.001   1.117   0.833  1.00  0.00    -0.207 OA
BRANCH  27  30
ATOM     30  N   UNL     1       1.179   0.070   0.171  1.00  0.00    -0.225 NA
ATOM     31  H   UNL     1       1.011   0.191  -0.828  1.00  0.00     0.137 HD
ATOM     32  H   UNL     1       0.801  -0.827   0.473  1.00  0.00     0.137 HD
ENDBRANCH  27  30
ENDBRANCH  22  27
ENDBRANCH  16  21
ENDBRANCH  10  15
ENDBRANCH   7   9
ENDBRANCH   6   7
ENDBRANCH   5   6
ENDBRANCH   4   5
ENDBRANCH   3   4
ENDBRANCH   2   3
ENDBRANCH   1   2
BRANCH   1  33
ATOM     33  O   UNL     1       9.009  -2.929   3.936  1.00  0.00    -0.377 OA
BRANCH  33  34
ATOM     34  C   UNL     1      10.164  -3.500   3.326  1.00  0.00     0.188 C 
BRANCH  34  35
ATOM     35  C   UNL     1      10.724  -4.916   3.649  1.00  0.00     0.188 C 
BRANCH  35  36
ATOM     36  O   UNL     1      10.026  -5.674   4.617  1.00  0.00    -0.376 OA
BRANCH  36  37
ATOM     37  C   UNL     1      10.441  -5.870   5.949  1.00  0.00     0.202 C 
BRANCH  37  38
ATOM     38  C   UNL     1      10.893  -4.697   6.798  1.00  0.00     0.261 C 
BRANCH  38  39
ATOM     39  O   UNL     1      11.452  -3.642   6.052  1.00  0.00    -0.460 OA
BRANCH  39  40
ATOM     40  C   UNL     1      12.716  -3.862   5.654  1.00  0.00     0.338 C 
ATOM     41  O   UNL     1      13.323  -4.918   5.632  1.00  0.00    -0.246 OA
BRANCH  40  42
ATOM     42  C   UNL     1      13.315  -2.554   5.409  1.00  0.00     0.060 A 
ATOM     43  C   UNL     1      14.594  -2.556   4.853  1.00  0.00     0.016 A 
ATOM     44  C   UNL     1      12.794  -1.474   6.136  1.00  0.00     0.016 A 
ATOM     45  C   UNL     1      15.460  -1.577   5.268  1.00  0.00     0.010 A 
ATOM     46  C   UNL     1      13.670  -0.537   6.594  1.00  0.00     0.010 A 
ATOM     47  C   UNL     1      15.005  -0.659   6.219  1.00  0.00    -0.014 A 
BRANCH  47  48
ATOM     48  C   UNL     1      15.934   0.310   6.741  1.00  0.00     0.031 A 
ATOM     49  C   UNL     1      16.125   1.404   5.773  1.00  0.00     0.074 A 
ATOM     50  C   UNL     1      16.391   0.229   8.005  1.00  0.00     0.049 A 
ATOM     51  N   UNL     1      17.177   1.644   5.066  1.00  0.00    -0.248 NA
ATOM     52  C   UNL     1      14.938   2.176   5.355  1.00  0.00     0.031 C 
ATOM     53  C   UNL     1      15.949  -0.715   9.040  1.00  0.00     0.029 A 
ATOM     54  N   UNL     1      17.248   1.049   8.679  1.00  0.00    -0.354 N 
ATOM     55  C   UNL     1      16.859   2.793   4.353  1.00  0.00     0.074 A 
ATOM     56  C   UNL     1      15.428   2.888   4.340  1.00  0.00     0.031 C 
ATOM     57  C   UNL     1      16.355  -0.273  10.251  1.00  0.00     0.029 A 
ATOM     58  C   UNL     1      17.187   0.902  10.064  1.00  0.00     0.049 A 
ATOM     59  H   UNL     1      17.852   1.685   8.230  1.00  0.00     0.167 HD
ATOM     60  C   UNL     1      17.788   3.781   4.258  1.00  0.00     0.037 A 
ATOM     61  C   UNL     1      17.727   1.750  10.974  1.00  0.00     0.037 A 
ATOM     62  C   UNL     1      19.098   3.271   4.572  1.00  0.00     0.049 A 
ATOM     63  C   UNL     1      18.764   2.546  10.276  1.00  0.00     0.074 A 
ATOM     64  C   UNL     1      20.040   2.477   3.957  1.00  0.00     0.029 A 
ATOM     65  N   UNL     1      19.369   3.261   5.914  1.00  0.00    -0.354 N 
ATOM     66  N   UNL     1      19.880   2.036   9.833  1.00  0.00    -0.248 NA
ATOM     67  C   UNL     1      18.409   3.850   9.721  1.00  0.00     0.031 C 
ATOM     68  C   UNL     1      20.852   1.935   4.998  1.00  0.00     0.029 A 
ATOM     69  C   UNL     1      20.417   2.440   6.220  1.00  0.00     0.049 A 
ATOM     70  H   UNL     1      18.868   3.785   6.581  1.00  0.00     0.167 HD
ATOM     71  C   UNL     1      20.126   2.725   8.663  1.00  0.00     0.074 A 
ATOM     72  C   UNL     1      19.308   3.928   8.736  1.00  0.00     0.031 C 
ATOM     73  C   UNL     1      20.687   2.091   7.594  1.00  0.00     0.037 A 
BRANCH  60  74
ATOM     74  C   UNL     1      17.474   5.251   4.461  1.00  0.00     0.064 A 
ATOM     75  C   UNL     1      18.498   6.188   4.222  1.00  0.00     0.173 A 
ATOM     76  C   UNL     1      16.357   5.747   5.174  1.00  0.00     0.173 A 
ATOM     77  F   UNL     1      19.618   5.821   3.581  1.00  0.00    -0.203 F 
ATOM     78  C   UNL     1      18.433   7.495   4.713  1.00  0.00     0.198 A 
ATOM     79  C   UNL     1      16.273   7.064   5.616  1.00  0.00     0.198 A 
ATOM     80  F   UNL     1      15.352   4.966   5.582  1.00  0.00    -0.203 F 
ATOM     81  F   UNL     1      19.482   8.314   4.563  1.00  0.00    -0.200 F 
ATOM     82  C   UNL     1      17.322   7.931   5.412  1.00  0.00     0.200 A 
ATOM     83  F   UNL     1      15.198   7.454   6.317  1.00  0.00    -0.200 F 
ATOM     84  F   UNL     1      17.281   9.164   5.932  1.00  0.00    -0.200 F 
ENDBRANCH  60  74
BRANCH  61  85
ATOM     85  C   UNL     1      17.243   2.104  12.329  1.00  0.00     0.064 A 
ATOM     86  C   UNL     1      18.090   2.728  13.260  1.00  0.00     0.173 A 
ATOM     87  C   UNL     1      15.870   2.097  12.638  1.00  0.00     0.173 A 
ATOM     88  F   UNL     1      19.407   2.813  13.023  1.00  0.00    -0.203 F 
ATOM     89  C   UNL     1      17.588   3.341  14.413  1.00  0.00     0.198 A 
ATOM     90  C   UNL     1      15.371   2.703  13.793  1.00  0.00     0.198 A 
ATOM     91  F   UNL     1      14.975   1.589  11.779  1.00  0.00    -0.203 F 
ATOM     92  F   UNL     1      18.420   3.986  15.244  1.00  0.00    -0.200 F 
ATOM     93  C   UNL     1      16.228   3.339  14.672  1.00  0.00     0.200 A 
ATOM     94  F   UNL     1      14.049   2.726  14.012  1.00  0.00    -0.200 F 
ATOM     95  F   UNL     1      15.739   3.984  15.740  1.00  0.00    -0.200 F 
ENDBRANCH  61  85
BRANCH  73  96
ATOM     96  C   UNL     1      21.516   0.879   7.870  1.00  0.00     0.064 A 
ATOM     97  C   UNL     1      21.014  -0.337   8.358  1.00  0.00     0.173 A 
ATOM     98  C   UNL     1      22.878   0.944   7.552  1.00  0.00     0.173 A 
ATOM     99  F   UNL     1      19.707  -0.490   8.612  1.00  0.00    -0.203 F 
ATOM    100  C   UNL     1      21.857  -1.430   8.553  1.00  0.00     0.198 A 
ATOM    101  C   UNL     1      23.709  -0.158   7.711  1.00  0.00     0.198 A 
ATOM    102  F   UNL     1      23.397   2.074   7.047  1.00  0.00    -0.203 F 
ATOM    103  F   UNL     1      21.367  -2.579   9.040  1.00  0.00    -0.200 F 
ATOM    104  C   UNL     1      23.201  -1.341   8.223  1.00  0.00     0.200 A 
ATOM    105  F   UNL     1      24.996  -0.077   7.350  1.00  0.00    -0.200 F 
ATOM    106  F   UNL     1      24.006  -2.402   8.378  1.00  0.00    -0.200 F 
ENDBRANCH  73  96
ENDBRANCH  47  48
ENDBRANCH  40  42
ENDBRANCH  39  40
ENDBRANCH  38  39
ENDBRANCH  37  38
ENDBRANCH  36  37
ENDBRANCH  35  36
ENDBRANCH  34  35
ENDBRANCH  33  34
ENDBRANCH   1  33
TORSDOF 24
