REMARK SMILES CC[C@H]1SC[C@H](C(=O)OCCOCCOCCOCCOC(=O)c2ccc(-c3c4nc(c(-c5c(F)c(F)c(F)c(F)c5F)c5ccc([nH]5)c(-c5c(F)c(F)c(F)c(F)c5F)c5nc(c(-c6c(F)c(F)c(F)c(F)c6F)c6ccc3[nH]6)C=C5)C=C4)cc2)N1C(=O)c1ccc(F)c(F)c1F
REMARK SMILES IDX 15 1 14 2 13 3 12 4 11 5 10 6 9 7 7 8 8 9 6 10 3 11 4 12
REMARK SMILES IDX 87 13 5 14 2 15 1 16 88 17 89 18 90 19 91 20 97 21 92 22
REMARK SMILES IDX 95 23 98 24 93 25 96 26 94 27 16 28 17 29 18 30 19 31 20 32
REMARK SMILES IDX 21 33 22 34 23 35 24 36 25 37 86 38 26 39 85 40 27 41 28 42
REMARK SMILES IDX 29 43 79 44 30 45 84 46 78 47 80 48 31 49 83 50 77 51 76 52
REMARK SMILES IDX 32 54 64 55 44 56 63 57 45 58 48 59 62 60 81 61 46 62 47 63
REMARK SMILES IDX 61 65 82 66 49 67 33 68 34 69 42 70 35 71 36 72 40 73 43 74
REMARK SMILES IDX 37 75 38 76 41 77 39 78 65 79 66 80 74 81 67 82 68 83 72 84
REMARK SMILES IDX 75 85 69 86 70 87 73 88 71 89 50 90 51 91 59 92 52 93 53 94
REMARK SMILES IDX 57 95 60 96 54 97 55 98 58 99 56 100
REMARK H PARENT 80 53 48 64
REMARK Flexibility Score: inf
ROOT
ATOM      1  O   UNL     1       3.375   4.128   4.172  1.00  0.00    -0.377 OA
ENDROOT
BRANCH   1   2
ATOM      2  C   UNL     1       2.146   3.824   3.528  1.00  0.00     0.188 C 
BRANCH   2   3
ATOM      3  C   UNL     1       0.996   4.852   3.536  1.00  0.00     0.188 C 
BRANCH   3   4
ATOM      4  O   UNL     1       0.638   5.262   4.849  1.00  0.00    -0.376 OA
BRANCH   4   5
ATOM      5  C   UNL     1      -0.504   4.675   5.449  1.00  0.00     0.202 C 
BRANCH   5   6
ATOM      6  C   UNL     1      -0.475   3.160   5.707  1.00  0.00     0.261 C 
BRANCH   6   7
ATOM      7  O   UNL     1      -0.290   2.274   4.587  1.00  0.00    -0.462 OA
BRANCH   7   8
ATOM      8  C   UNL     1      -1.117   2.371   3.514  1.00  0.00     0.329 C 
ATOM      9  O   UNL     1      -1.933   3.271   3.346  1.00  0.00    -0.250 OA
BRANCH   8  10
ATOM     10  C   UNL     1      -0.799   1.319   2.433  1.00  0.00     0.206 C 
ATOM     11  C   UNL     1       0.802  -0.557   2.226  1.00  0.00     0.144 C 
ATOM     12  S   UNL     1       1.745   0.898   1.711  1.00  0.00    -0.134 SA
ATOM     13  N   UNL     1      -0.335   0.017   2.948  1.00  0.00    -0.312 N 
ATOM     14  C   UNL     1       0.240   1.879   1.458  1.00  0.00     0.109 C 
BRANCH  11  15
ATOM     15  C   UNL     1       0.351  -1.459   1.045  1.00  0.00     0.033 C 
ATOM     16  C   UNL     1       0.609  -0.986  -0.389  1.00  0.00     0.007 C 
ENDBRANCH  11  15
BRANCH  13  17
ATOM     17  C   UNL     1      -1.166  -0.597   3.871  1.00  0.00     0.258 C 
ATOM     18  O   UNL     1      -2.239  -0.089   4.204  1.00  0.00    -0.269 OA
BRANCH  17  19
ATOM     19  C   UNL     1      -0.848  -1.883   4.508  1.00  0.00     0.079 A 
ATOM     20  C   UNL     1      -1.902  -2.806   4.620  1.00  0.00     0.020 A 
ATOM     21  C   UNL     1       0.358  -2.134   5.159  1.00  0.00     0.174 A 
ATOM     22  C   UNL     1      -1.730  -3.990   5.335  1.00  0.00     0.043 A 
ATOM     23  C   UNL     1       0.533  -3.324   5.859  1.00  0.00     0.195 A 
ATOM     24  F   UNL     1       1.342  -1.224   5.168  1.00  0.00    -0.203 F 
ATOM     25  C   UNL     1      -0.506  -4.245   5.943  1.00  0.00     0.161 A 
ATOM     26  F   UNL     1       1.697  -3.574   6.475  1.00  0.00    -0.200 F 
ATOM     27  F   UNL     1      -0.346  -5.382   6.633  1.00  0.00    -0.204 F 
ENDBRANCH  17  19
ENDBRANCH  13  17
ENDBRANCH   8  10
ENDBRANCH   7   8
ENDBRANCH   6   7
ENDBRANCH   5   6
ENDBRANCH   4   5
ENDBRANCH   3   4
ENDBRANCH   2   3
ENDBRANCH   1   2
BRANCH   1  28
ATOM     28  C   UNL     1       3.271   4.815   5.406  1.00  0.00     0.188 C 
BRANCH  28  29
ATOM     29  C   UNL     1       3.346   6.340   5.213  1.00  0.00     0.188 C 
BRANCH  29  30
ATOM     30  O   UNL     1       3.037   6.763   3.898  1.00  0.00    -0.376 OA
BRANCH  30  31
ATOM     31  C   UNL     1       4.041   6.853   2.900  1.00  0.00     0.202 C 
BRANCH  31  32
ATOM     32  C   UNL     1       5.243   5.895   2.743  1.00  0.00     0.261 C 
BRANCH  32  33
ATOM     33  O   UNL     1       5.791   5.271   3.906  1.00  0.00    -0.460 OA
BRANCH  33  34
ATOM     34  C   UNL     1       6.521   6.014   4.754  1.00  0.00     0.338 C 
ATOM     35  O   UNL     1       6.807   7.194   4.653  1.00  0.00    -0.246 OA
BRANCH  34  36
ATOM     36  C   UNL     1       6.736   5.183   5.959  1.00  0.00     0.060 A 
ATOM     37  C   UNL     1       6.209   5.626   7.180  1.00  0.00     0.016 A 
ATOM     38  C   UNL     1       7.387   3.949   5.874  1.00  0.00     0.016 A 
ATOM     39  C   UNL     1       6.334   4.839   8.322  1.00  0.00     0.010 A 
ATOM     40  C   UNL     1       7.560   3.184   7.030  1.00  0.00     0.010 A 
ATOM     41  C   UNL     1       7.056   3.641   8.261  1.00  0.00    -0.014 A 
BRANCH  41  42
ATOM     42  C   UNL     1       7.495   3.008   9.523  1.00  0.00     0.031 A 
ATOM     43  C   UNL     1       8.833   3.413  10.073  1.00  0.00     0.074 A 
ATOM     44  C   UNL     1       6.723   2.125  10.177  1.00  0.00     0.049 A 
ATOM     45  N   UNL     1       9.472   2.971  11.123  1.00  0.00    -0.248 NA
ATOM     46  C   UNL     1       9.546   4.467   9.331  1.00  0.00     0.031 C 
ATOM     47  C   UNL     1       5.386   1.705   9.769  1.00  0.00     0.029 A 
ATOM     48  N   UNL     1       6.968   1.415  11.326  1.00  0.00    -0.354 N 
ATOM     49  C   UNL     1      10.663   3.683  11.161  1.00  0.00     0.074 A 
ATOM     50  C   UNL     1      10.670   4.571  10.021  1.00  0.00     0.031 C 
ATOM     51  C   UNL     1       4.935   0.787  10.642  1.00  0.00     0.029 A 
ATOM     52  C   UNL     1       5.968   0.532  11.646  1.00  0.00     0.049 A 
ATOM     53  H   UNL     1       7.781   1.529  11.868  1.00  0.00     0.167 HD
ATOM     54  C   UNL     1      11.662   3.601  12.070  1.00  0.00     0.037 A 
ATOM     55  C   UNL     1       5.917  -0.401  12.618  1.00  0.00     0.037 A 
ATOM     56  C   UNL     1      11.649   2.708  13.195  1.00  0.00     0.049 A 
ATOM     57  C   UNL     1       7.085  -0.540  13.565  1.00  0.00     0.074 A 
ATOM     58  C   UNL     1      12.597   2.562  14.191  1.00  0.00     0.029 A 
ATOM     59  N   UNL     1      10.640   1.793  13.463  1.00  0.00    -0.354 N 
ATOM     60  N   UNL     1       8.196   0.155  13.620  1.00  0.00    -0.248 NA
ATOM     61  C   UNL     1       6.993  -1.597  14.582  1.00  0.00     0.031 C 
ATOM     62  C   UNL     1      12.195   1.512  15.022  1.00  0.00     0.029 A 
ATOM     63  C   UNL     1      10.964   1.048  14.584  1.00  0.00     0.049 A 
ATOM     64  H   UNL     1       9.816   1.690  12.934  1.00  0.00     0.167 HD
ATOM     65  C   UNL     1       8.924  -0.365  14.682  1.00  0.00     0.074 A 
ATOM     66  C   UNL     1       8.119  -1.421  15.259  1.00  0.00     0.031 C 
ATOM     67  C   UNL     1      10.149  -0.003  15.140  1.00  0.00     0.037 A 
BRANCH  54  68
ATOM     68  C   UNL     1      12.869   4.465  11.850  1.00  0.00     0.064 A 
ATOM     69  C   UNL     1      12.823   5.859  12.001  1.00  0.00     0.173 A 
ATOM     70  C   UNL     1      14.095   3.883  11.496  1.00  0.00     0.173 A 
ATOM     71  F   UNL     1      11.671   6.467  12.320  1.00  0.00    -0.203 F 
ATOM     72  C   UNL     1      13.955   6.640  11.778  1.00  0.00     0.198 A 
ATOM     73  C   UNL     1      15.231   4.663  11.306  1.00  0.00     0.198 A 
ATOM     74  F   UNL     1      14.193   2.554  11.336  1.00  0.00    -0.203 F 
ATOM     75  F   UNL     1      13.875   7.974  11.876  1.00  0.00    -0.200 F 
ATOM     76  C   UNL     1      15.159   6.042  11.439  1.00  0.00     0.200 A 
ATOM     77  F   UNL     1      16.396   4.082  10.990  1.00  0.00    -0.200 F 
ATOM     78  F   UNL     1      16.248   6.794  11.232  1.00  0.00    -0.200 F 
ENDBRANCH  54  68
BRANCH  55  79
ATOM     79  C   UNL     1       4.739  -1.303  12.723  1.00  0.00     0.064 A 
ATOM     80  C   UNL     1       3.874  -1.246  13.824  1.00  0.00     0.173 A 
ATOM     81  C   UNL     1       4.465  -2.255  11.729  1.00  0.00     0.173 A 
ATOM     82  F   UNL     1       4.109  -0.374  14.815  1.00  0.00    -0.203 F 
ATOM     83  C   UNL     1       2.791  -2.116  13.934  1.00  0.00     0.198 A 
ATOM     84  C   UNL     1       3.364  -3.103  11.825  1.00  0.00     0.198 A 
ATOM     85  F   UNL     1       5.266  -2.358  10.658  1.00  0.00    -0.203 F 
ATOM     86  F   UNL     1       2.008  -2.073  15.021  1.00  0.00    -0.200 F 
ATOM     87  C   UNL     1       2.532  -3.038  12.931  1.00  0.00     0.200 A 
ATOM     88  F   UNL     1       3.113  -3.986  10.848  1.00  0.00    -0.200 F 
ATOM     89  F   UNL     1       1.487  -3.870  13.036  1.00  0.00    -0.200 F 
ENDBRANCH  55  79
BRANCH  67  90
ATOM     90  C   UNL     1      10.691  -0.741  16.331  1.00  0.00     0.064 A 
ATOM     91  C   UNL     1      11.126  -2.071  16.236  1.00  0.00     0.173 A 
ATOM     92  C   UNL     1      10.839  -0.089  17.565  1.00  0.00     0.173 A 
ATOM     93  F   UNL     1      10.995  -2.744  15.083  1.00  0.00    -0.203 F 
ATOM     94  C   UNL     1      11.670  -2.727  17.338  1.00  0.00     0.198 A 
ATOM     95  C   UNL     1      11.415  -0.736  18.654  1.00  0.00     0.198 A 
ATOM     96  F   UNL     1      10.449   1.187  17.707  1.00  0.00    -0.203 F 
ATOM     97  F   UNL     1      12.039  -4.011  17.236  1.00  0.00    -0.200 F 
ATOM     98  C   UNL     1      11.823  -2.056  18.542  1.00  0.00     0.200 A 
ATOM     99  F   UNL     1      11.580  -0.080  19.811  1.00  0.00    -0.200 F 
ATOM    100  F   UNL     1      12.362  -2.684  19.596  1.00  0.00    -0.200 F 
ENDBRANCH  67  90
ENDBRANCH  41  42
ENDBRANCH  34  36
ENDBRANCH  33  34
ENDBRANCH  32  33
ENDBRANCH  31  32
ENDBRANCH  30  31
ENDBRANCH  29  30
ENDBRANCH  28  29
ENDBRANCH   1  28
TORSDOF 23
