REMARK SMILES Cc1cc(N2CCOC[C@H]2C(=O)OCCOCCOCCOCCOC(=O)c2ccc(-c3c4nc(c(-c5c(F)c(F)c(F)c(F)c5F)c5ccc([nH]5)c(-c5c(F)c(F)c(F)c(F)c5F)c5nc(c(-c6c(F)c(F)c(F)c(F)c6F)c6ccc3[nH]6)C=C5)C=C4)cc2)ncc1[N+](=O)[O-]
REMARK SMILES IDX 19 1 18 2 17 3 16 4 15 5 14 6 13 7 11 8 12 9 10 10 5 11 6 12
REMARK SMILES IDX 7 13 9 14 8 15 4 16 1 17 2 18 3 19 93 20 92 21 91 22 94 23
REMARK SMILES IDX 95 24 96 25 20 26 21 27 22 28 23 29 24 30 25 31 26 32 27 33
REMARK SMILES IDX 28 34 29 35 90 36 30 37 89 38 31 39 32 40 33 41 83 42 34 43
REMARK SMILES IDX 88 44 82 45 84 46 35 47 87 48 81 49 80 50 36 52 68 53 48 54
REMARK SMILES IDX 67 55 49 56 52 57 66 58 85 59 50 60 51 61 65 63 86 64 53 65
REMARK SMILES IDX 37 66 38 67 46 68 39 69 40 70 44 71 47 72 41 73 42 74 45 75
REMARK SMILES IDX 43 76 69 77 70 78 78 79 71 80 72 81 76 82 79 83 73 84 74 85
REMARK SMILES IDX 77 86 75 87 54 88 55 89 63 90 56 91 57 92 61 93 64 94 58 95
REMARK SMILES IDX 59 96 62 97 60 98
REMARK H PARENT 84 51 52 62
REMARK Flexibility Score: inf
ROOT
ATOM      1  O   UNL     1       0.236   4.518  -2.450  1.00  0.00    -0.377 OA
ENDROOT
BRANCH   1   2
ATOM      2  C   UNL     1      -0.379   3.631  -1.538  1.00  0.00     0.188 C 
BRANCH   2   3
ATOM      3  C   UNL     1      -1.390   4.300  -0.598  1.00  0.00     0.188 C 
BRANCH   3   4
ATOM      4  O   UNL     1      -1.671   5.636  -0.963  1.00  0.00    -0.376 OA
BRANCH   4   5
ATOM      5  C   UNL     1      -0.793   6.667  -0.537  1.00  0.00     0.202 C 
BRANCH   5   6
ATOM      6  C   UNL     1       0.711   6.485  -0.228  1.00  0.00     0.261 C 
BRANCH   6   7
ATOM      7  O   UNL     1       1.201   5.198   0.176  1.00  0.00    -0.462 OA
BRANCH   7   8
ATOM      8  C   UNL     1       1.090   4.826   1.471  1.00  0.00     0.331 C 
ATOM      9  O   UNL     1       0.511   5.498   2.320  1.00  0.00    -0.250 OA
BRANCH   8  10
ATOM     10  C   UNL     1       1.794   3.493   1.799  1.00  0.00     0.220 C 
ATOM     11  N   UNL     1       1.952   2.509   0.696  1.00  0.00    -0.339 N 
ATOM     12  C   UNL     1       3.012   2.772  -0.295  1.00  0.00     0.147 C 
ATOM     13  C   UNL     1       4.310   3.216   0.380  1.00  0.00     0.181 C 
ATOM     14  C   UNL     1       3.180   3.856   2.356  1.00  0.00     0.197 C 
ATOM     15  O   UNL     1       4.091   4.276   1.324  1.00  0.00    -0.377 OA
BRANCH  11  16
ATOM     16  C   UNL     1       1.303   1.294   0.649  1.00  0.00     0.130 A 
ATOM     17  C   UNL     1      -2.288   0.055   0.575  1.00  0.00     0.052 C 
ATOM     18  C   UNL     1      -0.784   0.003   0.572  1.00  0.00     0.032 A 
ATOM     19  C   UNL     1      -0.077   1.194   0.851  1.00  0.00     0.057 A 
ATOM     20  C   UNL     1      -0.029  -1.115   0.199  1.00  0.00     0.290 A 
ATOM     21  C   UNL     1       1.347  -0.970   0.086  1.00  0.00     0.199 A 
ATOM     22  N   UNL     1       2.004   0.205   0.272  1.00  0.00    -0.232 NA
BRANCH  20  23
ATOM     23  N   UNL     1      -0.595  -2.428  -0.104  1.00  0.00     0.064 N 
ATOM     24  O   UNL     1       0.160  -3.407  -0.016  1.00  0.00    -0.258 OA
ATOM     25  O   UNL     1      -1.781  -2.495  -0.450  1.00  0.00    -0.258 OA
ENDBRANCH  20  23
ENDBRANCH  11  16
ENDBRANCH   8  10
ENDBRANCH   7   8
ENDBRANCH   6   7
ENDBRANCH   5   6
ENDBRANCH   4   5
ENDBRANCH   3   4
ENDBRANCH   2   3
ENDBRANCH   1   2
BRANCH   1  26
ATOM     26  C   UNL     1      -0.491   4.878  -3.612  1.00  0.00     0.188 C 
BRANCH  26  27
ATOM     27  C   UNL     1      -2.008   4.617  -3.760  1.00  0.00     0.188 C 
BRANCH  27  28
ATOM     28  O   UNL     1      -2.512   3.479  -3.073  1.00  0.00    -0.376 OA
BRANCH  28  29
ATOM     29  C   UNL     1      -2.865   2.330  -3.825  1.00  0.00     0.202 C 
BRANCH  29  30
ATOM     30  C   UNL     1      -1.692   1.471  -4.319  1.00  0.00     0.261 C 
BRANCH  30  31
ATOM     31  O   UNL     1      -0.721   2.164  -5.112  1.00  0.00    -0.460 OA
BRANCH  31  32
ATOM     32  C   UNL     1      -1.140   2.640  -6.303  1.00  0.00     0.338 C 
ATOM     33  O   UNL     1      -2.255   2.551  -6.788  1.00  0.00    -0.246 OA
BRANCH  32  34
ATOM     34  C   UNL     1      -0.048   3.455  -6.862  1.00  0.00     0.060 A 
ATOM     35  C   UNL     1      -0.264   4.824  -7.074  1.00  0.00     0.016 A 
ATOM     36  C   UNL     1       1.194   2.877  -7.133  1.00  0.00     0.016 A 
ATOM     37  C   UNL     1       0.766   5.620  -7.572  1.00  0.00     0.010 A 
ATOM     38  C   UNL     1       2.211   3.667  -7.668  1.00  0.00     0.010 A 
ATOM     39  C   UNL     1       1.990   5.034  -7.916  1.00  0.00    -0.014 A 
BRANCH  39  40
ATOM     40  C   UNL     1       2.950   5.780  -8.760  1.00  0.00     0.031 A 
ATOM     41  C   UNL     1       2.858   5.587 -10.247  1.00  0.00     0.074 A 
ATOM     42  C   UNL     1       3.881   6.591  -8.229  1.00  0.00     0.049 A 
ATOM     43  N   UNL     1       3.642   6.027 -11.195  1.00  0.00    -0.248 NA
ATOM     44  C   UNL     1       1.726   4.776 -10.729  1.00  0.00     0.031 C 
ATOM     45  C   UNL     1       4.033   6.892  -6.807  1.00  0.00     0.029 A 
ATOM     46  N   UNL     1       4.892   7.295  -8.834  1.00  0.00    -0.354 N 
ATOM     47  C   UNL     1       3.108   5.535 -12.379  1.00  0.00     0.074 A 
ATOM     48  C   UNL     1       1.945   4.750 -12.034  1.00  0.00     0.031 C 
ATOM     49  C   UNL     1       5.098   7.699  -6.646  1.00  0.00     0.029 A 
ATOM     50  C   UNL     1       5.723   7.936  -7.947  1.00  0.00     0.049 A 
ATOM     51  H   UNL     1       5.011   7.337  -9.810  1.00  0.00     0.167 HD
ATOM     52  C   UNL     1       3.553   5.724 -13.642  1.00  0.00     0.037 A 
ATOM     53  C   UNL     1       6.874   8.602  -8.166  1.00  0.00     0.037 A 
ATOM     54  C   UNL     1       4.710   6.506 -13.976  1.00  0.00     0.049 A 
ATOM     55  C   UNL     1       7.388   8.735  -9.581  1.00  0.00     0.074 A 
ATOM     56  C   UNL     1       5.233   6.779 -15.227  1.00  0.00     0.029 A 
ATOM     57  N   UNL     1       5.531   7.132 -13.050  1.00  0.00    -0.354 N 
ATOM     58  N   UNL     1       6.864   8.296 -10.700  1.00  0.00    -0.248 NA
ATOM     59  C   UNL     1       8.657   9.457  -9.763  1.00  0.00     0.031 C 
ATOM     60  C   UNL     1       6.406   7.518 -15.056  1.00  0.00     0.029 A 
ATOM     61  C   UNL     1       6.575   7.766 -13.703  1.00  0.00     0.049 A 
ATOM     62  H   UNL     1       5.393   7.126 -12.076  1.00  0.00     0.167 HD
ATOM     63  C   UNL     1       7.712   8.722 -11.716  1.00  0.00     0.074 A 
ATOM     64  C   UNL     1       8.783   9.460 -11.083  1.00  0.00     0.031 C 
ATOM     65  C   UNL     1       7.615   8.521 -13.053  1.00  0.00     0.037 A 
BRANCH  52  66
ATOM     66  C   UNL     1       2.809   5.047 -14.753  1.00  0.00     0.064 A 
ATOM     67  C   UNL     1       1.535   5.471 -15.158  1.00  0.00     0.173 A 
ATOM     68  C   UNL     1       3.407   3.992 -15.460  1.00  0.00     0.173 A 
ATOM     69  F   UNL     1       0.912   6.461 -14.501  1.00  0.00    -0.203 F 
ATOM     70  C   UNL     1       0.882   4.854 -16.222  1.00  0.00     0.198 A 
ATOM     71  C   UNL     1       2.764   3.400 -16.542  1.00  0.00     0.198 A 
ATOM     72  F   UNL     1       4.624   3.548 -15.110  1.00  0.00    -0.203 F 
ATOM     73  F   UNL     1      -0.351   5.250 -16.569  1.00  0.00    -0.200 F 
ATOM     74  C   UNL     1       1.501   3.828 -16.920  1.00  0.00     0.200 A 
ATOM     75  F   UNL     1       3.370   2.416 -17.222  1.00  0.00    -0.200 F 
ATOM     76  F   UNL     1       0.878   3.249 -17.955  1.00  0.00    -0.200 F 
ENDBRANCH  52  66
BRANCH  53  77
ATOM     77  C   UNL     1       7.651   9.164  -7.027  1.00  0.00     0.064 A 
ATOM     78  C   UNL     1       7.843  10.546  -6.889  1.00  0.00     0.173 A 
ATOM     79  C   UNL     1       8.271   8.326  -6.087  1.00  0.00     0.173 A 
ATOM     80  F   UNL     1       7.295  11.390  -7.777  1.00  0.00    -0.203 F 
ATOM     81  C   UNL     1       8.650  11.066  -5.878  1.00  0.00     0.198 A 
ATOM     82  C   UNL     1       9.050   8.849  -5.056  1.00  0.00     0.198 A 
ATOM     83  F   UNL     1       8.126   6.996  -6.173  1.00  0.00    -0.203 F 
ATOM     84  F   UNL     1       8.872  12.386  -5.813  1.00  0.00    -0.200 F 
ATOM     85  C   UNL     1       9.250  10.217  -4.960  1.00  0.00     0.200 A 
ATOM     86  F   UNL     1       9.618   8.025  -4.166  1.00  0.00    -0.200 F 
ATOM     87  F   UNL     1      10.033  10.716  -3.995  1.00  0.00    -0.200 F 
ENDBRANCH  53  77
BRANCH  65  88
ATOM     88  C   UNL     1       8.651   9.159 -13.935  1.00  0.00     0.064 A 
ATOM     89  C   UNL     1       9.972   8.692 -13.985  1.00  0.00     0.173 A 
ATOM     90  C   UNL     1       8.291  10.208 -14.797  1.00  0.00     0.173 A 
ATOM     91  F   UNL     1      10.369   7.700 -13.174  1.00  0.00    -0.203 F 
ATOM     92  C   UNL     1      10.900   9.265 -14.851  1.00  0.00     0.198 A 
ATOM     93  C   UNL     1       9.212  10.754 -15.685  1.00  0.00     0.198 A 
ATOM     94  F   UNL     1       7.037  10.684 -14.796  1.00  0.00    -0.203 F 
ATOM     95  F   UNL     1      12.168   8.831 -14.853  1.00  0.00    -0.200 F 
ATOM     96  C   UNL     1      10.517  10.287 -15.707  1.00  0.00     0.200 A 
ATOM     97  F   UNL     1       8.834  11.727 -16.526  1.00  0.00    -0.200 F 
ATOM     98  F   UNL     1      11.407  10.825 -16.552  1.00  0.00    -0.200 F 
ENDBRANCH  65  88
ENDBRANCH  39  40
ENDBRANCH  32  34
ENDBRANCH  31  32
ENDBRANCH  30  31
ENDBRANCH  29  30
ENDBRANCH  28  29
ENDBRANCH  27  28
ENDBRANCH  26  27
ENDBRANCH   1  26
TORSDOF 22
