REMARK SMILES CO[C@@H]1C[C@@H](C(=O)OCCOCCOCCOCCOC(=O)c2ccc(-c3c4nc(c(-c5c(F)c(F)c(F)c(F)c5F)c5ccc([nH]5)c(-c5c(F)c(F)c(F)c(F)c5F)c5nc(c(-c6c(F)c(F)c(F)c(F)c6F)c6ccc3[nH]6)C=C5)C=C4)cc2)N(C(=O)c2nc(C(C)C)n[nH]2)C1
REMARK SMILES IDX 13 1 12 2 11 3 10 4 9 5 8 6 6 7 7 8 5 9 3 10 4 11 97 12
REMARK SMILES IDX 86 13 2 14 1 15 87 16 88 17 89 18 90 19 96 20 91 21 95 22
REMARK SMILES IDX 92 24 93 25 94 26 14 27 15 28 16 29 17 30 18 31 19 32 20 33
REMARK SMILES IDX 21 34 22 35 23 36 24 37 85 38 25 39 84 40 26 41 27 42 28 43
REMARK SMILES IDX 78 44 29 45 83 46 77 47 79 48 30 49 82 50 76 51 75 52 31 54
REMARK SMILES IDX 63 55 43 56 62 57 44 58 47 59 61 60 80 61 45 62 46 63 60 65
REMARK SMILES IDX 81 66 48 67 32 68 33 69 41 70 34 71 35 72 39 73 42 74 36 75
REMARK SMILES IDX 37 76 40 77 38 78 64 79 65 80 73 81 66 82 67 83 71 84 74 85
REMARK SMILES IDX 68 86 69 87 72 88 70 89 49 90 50 91 58 92 51 93 52 94 56 95
REMARK SMILES IDX 59 96 53 97 54 98 57 99 55 100
REMARK H PARENT 96 23 79 53 47 64
REMARK Flexibility Score: inf
ROOT
ATOM      1  C   UNL     1       1.837   4.142   0.863  1.00  0.00     0.188 C 
ENDROOT
BRANCH   1   2
ATOM      2  C   UNL     1       3.230   3.513   0.595  1.00  0.00     0.188 C 
BRANCH   2   3
ATOM      3  O   UNL     1       4.280   4.458   0.409  1.00  0.00    -0.376 OA
BRANCH   3   4
ATOM      4  C   UNL     1       4.779   4.767  -0.885  1.00  0.00     0.202 C 
BRANCH   4   5
ATOM      5  C   UNL     1       3.785   5.399  -1.856  1.00  0.00     0.261 C 
BRANCH   5   6
ATOM      6  O   UNL     1       2.613   4.591  -1.923  1.00  0.00    -0.462 OA
BRANCH   6   7
ATOM      7  C   UNL     1       2.543   3.572  -2.807  1.00  0.00     0.329 C 
ATOM      8  O   UNL     1       3.250   3.442  -3.792  1.00  0.00    -0.250 OA
BRANCH   7   9
ATOM      9  C   UNL     1       1.413   2.651  -2.352  1.00  0.00     0.198 C 
ATOM     10  C   UNL     1       0.649   0.404  -2.381  1.00  0.00     0.140 C 
ATOM     11  C   UNL     1       1.937   1.212  -2.347  1.00  0.00     0.071 C 
ATOM     12  C   UNL     1      -0.195   1.220  -3.383  1.00  0.00     0.153 C 
ATOM     13  N   UNL     1       0.215   2.612  -3.174  1.00  0.00    -0.319 N 
BRANCH  10  14
ATOM     14  O   UNL     1      -0.024   0.391  -1.116  1.00  0.00    -0.380 OA
ATOM     15  C   UNL     1       0.739  -0.097  -0.020  1.00  0.00     0.195 C 
ENDBRANCH  10  14
BRANCH  13  16
ATOM     16  C   UNL     1      -0.711   3.644  -3.343  1.00  0.00     0.292 C 
ATOM     17  O   UNL     1      -1.746   3.441  -3.979  1.00  0.00    -0.265 OA
BRANCH  16  18
ATOM     18  C   UNL     1      -0.410   4.950  -2.786  1.00  0.00     0.214 A 
ATOM     19  N   UNL     1      -1.022   5.514  -1.758  1.00  0.00    -0.207 NA
ATOM     20  N   UNL     1       0.443   5.867  -3.328  1.00  0.00    -0.255 N 
ATOM     21  C   UNL     1      -0.490   6.782  -1.709  1.00  0.00     0.153 A 
ATOM     22  N   UNL     1       0.462   7.013  -2.624  1.00  0.00    -0.158 NA
ATOM     23  H   UNL     1       0.980   5.709  -4.138  1.00  0.00     0.192 HD
BRANCH  21  24
ATOM     24  C   UNL     1      -0.996   7.869  -0.805  1.00  0.00     0.053 C 
ATOM     25  C   UNL     1      -2.034   8.731  -1.533  1.00  0.00     0.016 C 
ATOM     26  C   UNL     1      -1.581   7.347   0.507  1.00  0.00     0.016 C 
ENDBRANCH  21  24
ENDBRANCH  16  18
ENDBRANCH  13  16
ENDBRANCH   7   9
ENDBRANCH   6   7
ENDBRANCH   5   6
ENDBRANCH   4   5
ENDBRANCH   3   4
ENDBRANCH   2   3
ENDBRANCH   1   2
BRANCH   1  27
ATOM     27  O   UNL     1       1.742   5.105   1.903  1.00  0.00    -0.377 OA
BRANCH  27  28
ATOM     28  C   UNL     1       2.723   6.126   1.845  1.00  0.00     0.188 C 
BRANCH  28  29
ATOM     29  C   UNL     1       3.936   5.836   2.751  1.00  0.00     0.188 C 
BRANCH  29  30
ATOM     30  O   UNL     1       4.042   4.596   3.429  1.00  0.00    -0.376 OA
BRANCH  30  31
ATOM     31  C   UNL     1       2.959   4.040   4.156  1.00  0.00     0.202 C 
BRANCH  31  32
ATOM     32  C   UNL     1       1.866   4.851   4.884  1.00  0.00     0.261 C 
BRANCH  32  33
ATOM     33  O   UNL     1       1.690   6.223   4.537  1.00  0.00    -0.460 OA
BRANCH  33  34
ATOM     34  C   UNL     1       2.437   7.113   5.221  1.00  0.00     0.338 C 
ATOM     35  O   UNL     1       3.250   6.885   6.103  1.00  0.00    -0.246 OA
BRANCH  34  36
ATOM     36  C   UNL     1       2.246   8.429   4.584  1.00  0.00     0.060 A 
ATOM     37  C   UNL     1       3.348   9.067   3.996  1.00  0.00     0.016 A 
ATOM     38  C   UNL     1       0.981   9.018   4.548  1.00  0.00     0.016 A 
ATOM     39  C   UNL     1       3.194  10.306   3.385  1.00  0.00     0.010 A 
ATOM     40  C   UNL     1       0.835  10.281   3.975  1.00  0.00     0.010 A 
ATOM     41  C   UNL     1       1.948  10.940   3.424  1.00  0.00    -0.014 A 
BRANCH  41  42
ATOM     42  C   UNL     1       1.870  12.382   3.112  1.00  0.00     0.031 A 
ATOM     43  C   UNL     1       1.948  13.351   4.257  1.00  0.00     0.074 A 
ATOM     44  C   UNL     1       1.768  12.819   1.847  1.00  0.00     0.049 A 
ATOM     45  N   UNL     1       1.849  14.655   4.255  1.00  0.00    -0.248 NA
ATOM     46  C   UNL     1       2.164  12.764   5.590  1.00  0.00     0.031 C 
ATOM     47  C   UNL     1       1.748  11.972   0.658  1.00  0.00     0.029 A 
ATOM     48  N   UNL     1       1.654  14.096   1.360  1.00  0.00    -0.354 N 
ATOM     49  C   UNL     1       1.982  15.040   5.582  1.00  0.00     0.074 A 
ATOM     50  C   UNL     1       2.131  13.835   6.365  1.00  0.00     0.031 C 
ATOM     51  C   UNL     1       1.617  12.755  -0.428  1.00  0.00     0.029 A 
ATOM     52  C   UNL     1       1.507  14.150  -0.002  1.00  0.00     0.049 A 
ATOM     53  H   UNL     1       1.676  14.896   1.933  1.00  0.00     0.167 HD
ATOM     54  C   UNL     1       1.989  16.292   6.098  1.00  0.00     0.037 A 
ATOM     55  C   UNL     1       1.284  15.210  -0.803  1.00  0.00     0.037 A 
ATOM     56  C   UNL     1       1.824  17.484   5.311  1.00  0.00     0.049 A 
ATOM     57  C   UNL     1       1.190  16.586  -0.193  1.00  0.00     0.074 A 
ATOM     58  C   UNL     1       1.815  18.802   5.731  1.00  0.00     0.029 A 
ATOM     59  N   UNL     1       1.625  17.499   3.937  1.00  0.00    -0.354 N 
ATOM     60  N   UNL     1       1.332  16.952   1.059  1.00  0.00    -0.248 NA
ATOM     61  C   UNL     1       0.904  17.697  -1.111  1.00  0.00     0.031 C 
ATOM     62  C   UNL     1       1.546  19.610   4.621  1.00  0.00     0.029 A 
ATOM     63  C   UNL     1       1.460  18.803   3.497  1.00  0.00     0.049 A 
ATOM     64  H   UNL     1       1.605  16.702   3.361  1.00  0.00     0.167 HD
ATOM     65  C   UNL     1       1.187  18.335   1.074  1.00  0.00     0.074 A 
ATOM     66  C   UNL     1       0.959  18.742  -0.297  1.00  0.00     0.031 C 
ATOM     67  C   UNL     1       1.241  19.191   2.126  1.00  0.00     0.037 A 
BRANCH  54  68
ATOM     68  C   UNL     1       2.136  16.420   7.587  1.00  0.00     0.064 A 
ATOM     69  C   UNL     1       3.330  16.086   8.246  1.00  0.00     0.173 A 
ATOM     70  C   UNL     1       1.065  16.881   8.368  1.00  0.00     0.173 A 
ATOM     71  F   UNL     1       4.379  15.623   7.550  1.00  0.00    -0.203 F 
ATOM     72  C   UNL     1       3.433  16.173   9.632  1.00  0.00     0.198 A 
ATOM     73  C   UNL     1       1.184  17.002   9.750  1.00  0.00     0.198 A 
ATOM     74  F   UNL     1      -0.099  17.215   7.791  1.00  0.00    -0.203 F 
ATOM     75  F   UNL     1       4.561  15.787  10.244  1.00  0.00    -0.200 F 
ATOM     76  C   UNL     1       2.363  16.637  10.382  1.00  0.00     0.200 A 
ATOM     77  F   UNL     1       0.153  17.464  10.471  1.00  0.00    -0.200 F 
ATOM     78  F   UNL     1       2.464  16.722  11.716  1.00  0.00    -0.200 F 
ENDBRANCH  54  68
BRANCH  55  79
ATOM     79  C   UNL     1       1.130  15.014  -2.268  1.00  0.00     0.064 A 
ATOM     80  C   UNL     1       2.083  15.516  -3.166  1.00  0.00     0.173 A 
ATOM     81  C   UNL     1       0.024  14.336  -2.803  1.00  0.00     0.173 A 
ATOM     82  F   UNL     1       3.145  16.194  -2.705  1.00  0.00    -0.203 F 
ATOM     83  C   UNL     1       1.926  15.364  -4.542  1.00  0.00     0.198 A 
ATOM     84  C   UNL     1      -0.116  14.158  -4.178  1.00  0.00     0.198 A 
ATOM     85  F   UNL     1      -0.918  13.840  -1.988  1.00  0.00    -0.203 F 
ATOM     86  F   UNL     1       2.826  15.897  -5.379  1.00  0.00    -0.200 F 
ATOM     87  C   UNL     1       0.831  14.680  -5.047  1.00  0.00     0.200 A 
ATOM     88  F   UNL     1      -1.170  13.486  -4.660  1.00  0.00    -0.200 F 
ATOM     89  F   UNL     1       0.683  14.530  -6.370  1.00  0.00    -0.200 F 
ENDBRANCH  55  79
BRANCH  67  90
ATOM     90  C   UNL     1       1.097  20.658   1.833  1.00  0.00     0.064 A 
ATOM     91  C   UNL     1      -0.122  21.217   1.421  1.00  0.00     0.173 A 
ATOM     92  C   UNL     1       2.187  21.525   2.010  1.00  0.00     0.173 A 
ATOM     93  F   UNL     1      -1.192  20.432   1.224  1.00  0.00    -0.203 F 
ATOM     94  C   UNL     1      -0.236  22.582   1.167  1.00  0.00     0.198 A 
ATOM     95  C   UNL     1       2.060  22.894   1.792  1.00  0.00     0.198 A 
ATOM     96  F   UNL     1       3.374  21.047   2.412  1.00  0.00    -0.203 F 
ATOM     97  F   UNL     1      -1.396  23.084   0.721  1.00  0.00    -0.200 F 
ATOM     98  C   UNL     1       0.852  23.420   1.361  1.00  0.00     0.200 A 
ATOM     99  F   UNL     1       3.107  23.704   1.998  1.00  0.00    -0.200 F 
ATOM    100  F   UNL     1       0.738  24.734   1.126  1.00  0.00    -0.200 F 
ENDBRANCH  67  90
ENDBRANCH  41  42
ENDBRANCH  34  36
ENDBRANCH  33  34
ENDBRANCH  32  33
ENDBRANCH  31  32
ENDBRANCH  30  31
ENDBRANCH  29  30
ENDBRANCH  28  29
ENDBRANCH  27  28
ENDBRANCH   1  27
TORSDOF 24
