REMARK SMILES CC[N@@H+](C)Cc1cc2c(cc1Cl)C=C(C(=O)OCCOCCOCCOCCOC(=O)c1ccc(-c3c4nc(c(-c5c(F)c(F)c(F)c(F)c5F)c5ccc([nH]5)c(-c5c(F)c(F)c(F)c(F)c5F)c5nc(c(-c6c(F)c(F)c(F)c(F)c6F)c6ccc3[nH]6)C=C5)C=C4)cc1)[C@@H](C(F)(F)F)O2
REMARK SMILES IDX 22 1 21 2 20 3 19 4 18 5 17 6 15 7 16 8 14 9 6 10 7 11 11 12
REMARK SMILES IDX 8 13 10 14 12 15 9 16 100 17 13 18 95 19 5 20 3 21 4 22 2 24
REMARK SMILES IDX 1 25 96 26 97 27 98 28 99 29 23 30 24 31 25 32 26 33 27 34
REMARK SMILES IDX 28 35 29 36 30 37 31 38 32 39 33 40 94 41 34 42 93 43 35 44
REMARK SMILES IDX 36 45 37 46 87 47 38 48 92 49 86 50 88 51 39 52 91 53 85 54
REMARK SMILES IDX 84 55 40 57 72 58 52 59 71 60 53 61 56 62 70 63 89 64 54 65
REMARK SMILES IDX 55 66 69 68 90 69 57 70 41 71 42 72 50 73 43 74 44 75 48 76
REMARK SMILES IDX 51 77 45 78 46 79 49 80 47 81 73 82 74 83 82 84 75 85 76 86
REMARK SMILES IDX 80 87 83 88 77 89 78 90 81 91 79 92 58 93 59 94 67 95 60 96
REMARK SMILES IDX 61 97 65 98 68 99 62 100 63 101 66 102 64 103
REMARK H PARENT 3 23 88 56 56 67
REMARK Flexibility Score: inf
ROOT
ATOM      1  C   UNL     1       3.911  -5.897   7.117  1.00  0.00     0.188 C 
ENDROOT
BRANCH   1   2
ATOM      2  C   UNL     1       3.999  -7.147   6.224  1.00  0.00     0.188 C 
BRANCH   2   3
ATOM      3  O   UNL     1       4.823  -8.176   6.770  1.00  0.00    -0.376 OA
BRANCH   3   4
ATOM      4  C   UNL     1       6.096  -8.367   6.163  1.00  0.00     0.202 C 
BRANCH   4   5
ATOM      5  C   UNL     1       7.153  -7.295   6.476  1.00  0.00     0.261 C 
BRANCH   5   6
ATOM      6  O   UNL     1       6.783  -5.962   6.088  1.00  0.00    -0.460 OA
BRANCH   6   7
ATOM      7  C   UNL     1       6.661  -5.743   4.766  1.00  0.00     0.338 C 
ATOM      8  O   UNL     1       6.956  -6.518   3.872  1.00  0.00    -0.246 OA
BRANCH   7   9
ATOM      9  C   UNL     1       5.925  -4.480   4.561  1.00  0.00     0.087 C 
ATOM     10  C   UNL     1       3.052  -0.850   2.587  1.00  0.00     0.029 A 
ATOM     11  C   UNL     1       3.874  -0.939   3.739  1.00  0.00     0.058 A 
ATOM     12  C   UNL     1       2.844  -2.028   1.850  1.00  0.00     0.050 A 
ATOM     13  C   UNL     1       4.502  -2.140   4.098  1.00  0.00     0.128 A 
ATOM     14  C   UNL     1       3.387  -3.244   2.272  1.00  0.00     0.033 A 
ATOM     15  Cl  UNL     1       2.072  -2.091   0.310  1.00  0.00    -0.084 Cl
ATOM     16  C   UNL     1       4.248  -3.292   3.362  1.00  0.00     0.019 A 
ATOM     17  O   UNL     1       5.371  -2.108   5.154  1.00  0.00    -0.475 OA
ATOM     18  C   UNL     1       4.949  -4.525   3.650  1.00  0.00     0.027 C 
ATOM     19  C   UNL     1       6.260  -3.252   5.366  1.00  0.00     0.316 C 
BRANCH  10  20
ATOM     20  C   UNL     1       2.573   0.526   2.144  1.00  0.00     0.300 C 
BRANCH  20  21
ATOM     21  N   UNL     1       1.167   0.911   2.347  1.00  0.00    -0.334 N 
ATOM     22  C   UNL     1       0.716   0.752   3.726  1.00  0.00     0.333 C 
ATOM     23  H   UNL     1       1.196   1.907   2.130  1.00  0.00     0.348 HD
BRANCH  21  24
ATOM     24  C   UNL     1       0.187   0.374   1.401  1.00  0.00     0.258 C 
ATOM     25  C   UNL     1       0.424   0.782  -0.053  1.00  0.00     0.071 C 
ENDBRANCH  21  24
ENDBRANCH  20  21
ENDBRANCH  10  20
BRANCH  19  26
ATOM     26  C   UNL     1       7.717  -2.825   5.140  1.00  0.00     0.430 C 
ATOM     27  F   UNL     1       8.022  -1.707   5.840  1.00  0.00    -0.167 F 
ATOM     28  F   UNL     1       8.584  -3.785   5.543  1.00  0.00    -0.167 F 
ATOM     29  F   UNL     1       7.974  -2.573   3.837  1.00  0.00    -0.167 F 
ENDBRANCH  19  26
ENDBRANCH   7   9
ENDBRANCH   6   7
ENDBRANCH   5   6
ENDBRANCH   4   5
ENDBRANCH   3   4
ENDBRANCH   2   3
ENDBRANCH   1   2
BRANCH   1  30
ATOM     30  O   UNL     1       4.873  -5.869   8.158  1.00  0.00    -0.377 OA
BRANCH  30  31
ATOM     31  C   UNL     1       4.652  -6.697   9.300  1.00  0.00     0.188 C 
BRANCH  31  32
ATOM     32  C   UNL     1       3.582  -7.814   9.327  1.00  0.00     0.188 C 
BRANCH  32  33
ATOM     33  O   UNL     1       2.346  -7.459   8.717  1.00  0.00    -0.376 OA
BRANCH  33  34
ATOM     34  C   UNL     1       1.236  -7.269   9.585  1.00  0.00     0.202 C 
BRANCH  34  35
ATOM     35  C   UNL     1       1.243  -5.915  10.301  1.00  0.00     0.261 C 
BRANCH  35  36
ATOM     36  O   UNL     1       2.353  -5.704  11.188  1.00  0.00    -0.460 OA
BRANCH  36  37
ATOM     37  C   UNL     1       2.512  -6.567  12.215  1.00  0.00     0.338 C 
ATOM     38  O   UNL     1       1.784  -7.494  12.524  1.00  0.00    -0.246 OA
BRANCH  37  39
ATOM     39  C   UNL     1       3.848  -6.316  12.795  1.00  0.00     0.060 A 
ATOM     40  C   UNL     1       4.233  -5.018  13.136  1.00  0.00     0.016 A 
ATOM     41  C   UNL     1       4.736  -7.388  12.954  1.00  0.00     0.016 A 
ATOM     42  C   UNL     1       5.502  -4.795  13.670  1.00  0.00     0.010 A 
ATOM     43  C   UNL     1       6.010  -7.161  13.483  1.00  0.00     0.010 A 
ATOM     44  C   UNL     1       6.389  -5.867  13.867  1.00  0.00    -0.014 A 
BRANCH  44  45
ATOM     45  C   UNL     1       7.623  -5.646  14.657  1.00  0.00     0.031 A 
ATOM     46  C   UNL     1       8.964  -5.471  14.016  1.00  0.00     0.074 A 
ATOM     47  C   UNL     1       7.498  -5.590  15.996  1.00  0.00     0.049 A 
ATOM     48  N   UNL     1      10.104  -5.157  14.579  1.00  0.00    -0.248 NA
ATOM     49  C   UNL     1       9.042  -5.678  12.565  1.00  0.00     0.031 C 
ATOM     50  C   UNL     1       6.242  -5.777  16.725  1.00  0.00     0.029 A 
ATOM     51  N   UNL     1       8.423  -5.346  16.978  1.00  0.00    -0.354 N 
ATOM     52  C   UNL     1      11.033  -5.100  13.551  1.00  0.00     0.074 A 
ATOM     53  C   UNL     1      10.333  -5.462  12.334  1.00  0.00     0.031 C 
ATOM     54  C   UNL     1       6.469  -5.612  18.036  1.00  0.00     0.029 A 
ATOM     55  C   UNL     1       7.886  -5.328  18.241  1.00  0.00     0.049 A 
ATOM     56  H   UNL     1       9.379  -5.199  16.795  1.00  0.00     0.167 HD
ATOM     57  C   UNL     1      12.342  -4.757  13.622  1.00  0.00     0.037 A 
ATOM     58  C   UNL     1       8.466  -5.095  19.432  1.00  0.00     0.037 A 
ATOM     59  C   UNL     1      13.032  -4.415  14.842  1.00  0.00     0.049 A 
ATOM     60  C   UNL     1       9.929  -4.762  19.484  1.00  0.00     0.074 A 
ATOM     61  C   UNL     1      14.346  -4.010  15.005  1.00  0.00     0.029 A 
ATOM     62  N   UNL     1      12.469  -4.454  16.111  1.00  0.00    -0.354 N 
ATOM     63  N   UNL     1      10.779  -4.626  18.496  1.00  0.00    -0.248 NA
ATOM     64  C   UNL     1      10.512  -4.545  20.814  1.00  0.00     0.031 C 
ATOM     65  C   UNL     1      14.593  -3.855  16.373  1.00  0.00     0.029 A 
ATOM     66  C   UNL     1      13.420  -4.113  17.062  1.00  0.00     0.049 A 
ATOM     67  H   UNL     1      11.533  -4.689  16.306  1.00  0.00     0.167 HD
ATOM     68  C   UNL     1      11.991  -4.290  19.081  1.00  0.00     0.074 A 
ATOM     69  C   UNL     1      11.762  -4.224  20.510  1.00  0.00     0.031 C 
ATOM     70  C   UNL     1      13.185  -4.059  18.483  1.00  0.00     0.037 A 
BRANCH  57  71
ATOM     71  C   UNL     1      13.129  -4.712  12.345  1.00  0.00     0.064 A 
ATOM     72  C   UNL     1      12.934  -3.687  11.407  1.00  0.00     0.173 A 
ATOM     73  C   UNL     1      14.157  -5.636  12.102  1.00  0.00     0.173 A 
ATOM     74  F   UNL     1      11.964  -2.779  11.592  1.00  0.00    -0.203 F 
ATOM     75  C   UNL     1      13.732  -3.595  10.269  1.00  0.00     0.198 A 
ATOM     76  C   UNL     1      14.969  -5.526  10.975  1.00  0.00     0.198 A 
ATOM     77  F   UNL     1      14.395  -6.628  12.973  1.00  0.00    -0.203 F 
ATOM     78  F   UNL     1      13.514  -2.618   9.377  1.00  0.00    -0.200 F 
ATOM     79  C   UNL     1      14.754  -4.508  10.059  1.00  0.00     0.200 A 
ATOM     80  F   UNL     1      15.968  -6.399  10.783  1.00  0.00    -0.200 F 
ATOM     81  F   UNL     1      15.535  -4.405   8.974  1.00  0.00    -0.200 F 
ENDBRANCH  57  71
BRANCH  58  82
ATOM     82  C   UNL     1       7.637  -5.125  20.662  1.00  0.00     0.064 A 
ATOM     83  C   UNL     1       7.333  -3.943  21.351  1.00  0.00     0.173 A 
ATOM     84  C   UNL     1       7.099  -6.325  21.149  1.00  0.00     0.173 A 
ATOM     85  F   UNL     1       7.837  -2.774  20.929  1.00  0.00    -0.203 F 
ATOM     86  C   UNL     1       6.526  -3.961  22.486  1.00  0.00     0.198 A 
ATOM     87  C   UNL     1       6.271  -6.338  22.269  1.00  0.00     0.198 A 
ATOM     88  F   UNL     1       7.355  -7.481  20.519  1.00  0.00    -0.203 F 
ATOM     89  F   UNL     1       6.273  -2.821  23.142  1.00  0.00    -0.200 F 
ATOM     90  C   UNL     1       5.989  -5.157  22.939  1.00  0.00     0.200 A 
ATOM     91  F   UNL     1       5.740  -7.493  22.694  1.00  0.00    -0.200 F 
ATOM     92  F   UNL     1       5.201  -5.171  24.023  1.00  0.00    -0.200 F 
ENDBRANCH  58  82
BRANCH  70  93
ATOM     93  C   UNL     1      14.346  -3.714  19.370  1.00  0.00     0.064 A 
ATOM     94  C   UNL     1      14.960  -4.681  20.179  1.00  0.00     0.173 A 
ATOM     95  C   UNL     1      14.890  -2.420  19.365  1.00  0.00     0.173 A 
ATOM     96  F   UNL     1      14.468  -5.928  20.232  1.00  0.00    -0.203 F 
ATOM     97  C   UNL     1      16.069  -4.363  20.959  1.00  0.00     0.198 A 
ATOM     98  C   UNL     1      16.015  -2.112  20.125  1.00  0.00     0.198 A 
ATOM     99  F   UNL     1      14.342  -1.459  18.605  1.00  0.00    -0.203 F 
ATOM    100  F   UNL     1      16.618  -5.294  21.751  1.00  0.00    -0.200 F 
ATOM    101  C   UNL     1      16.601  -3.082  20.924  1.00  0.00     0.200 A 
ATOM    102  F   UNL     1      16.536  -0.879  20.079  1.00  0.00    -0.200 F 
ATOM    103  F   UNL     1      17.677  -2.782  21.664  1.00  0.00    -0.200 F 
ENDBRANCH  70  93
ENDBRANCH  44  45
ENDBRANCH  37  39
ENDBRANCH  36  37
ENDBRANCH  35  36
ENDBRANCH  34  35
ENDBRANCH  33  34
ENDBRANCH  32  33
ENDBRANCH  31  32
ENDBRANCH  30  31
ENDBRANCH   1  30
TORSDOF 24
