REMARK SMILES C=CCn1nc(C(=O)OCCOCCOCCOCCOC(=O)c2ccc(-c3c4nc(c(-c5c(F)c(F)c(F)c(F)c5F)c5ccc([nH]5)c(-c5c(F)c(F)c(F)c(F)c5F)c5nc(c(-c6c(F)c(F)c(F)c(F)c6F)c6ccc3[nH]6)C=C5)C=C4)cc2)c2c1CC[C@@H]([NH+]1CCC(C(C)(C)O)CC1)C2
REMARK SMILES IDX 14 1 13 2 12 3 11 4 10 5 9 6 7 7 8 8 6 9 4 10 5 11 88 12
REMARK SMILES IDX 87 13 89 14 102 15 90 16 91 17 3 18 2 19 1 20 92 21 93 22
REMARK SMILES IDX 101 23 94 25 100 26 95 27 96 28 97 29 98 30 99 31 15 33
REMARK SMILES IDX 16 34 17 35 18 36 19 37 20 38 21 39 22 40 23 41 24 42 25 43
REMARK SMILES IDX 86 44 26 45 85 46 27 47 28 48 29 49 79 50 30 51 84 52 78 53
REMARK SMILES IDX 80 54 31 55 83 56 77 57 76 58 32 60 64 61 44 62 63 63 45 64
REMARK SMILES IDX 48 65 62 66 81 67 46 68 47 69 61 71 82 72 49 73 33 74 34 75
REMARK SMILES IDX 42 76 35 77 36 78 40 79 43 80 37 81 38 82 41 83 39 84 65 85
REMARK SMILES IDX 66 86 74 87 67 88 68 89 72 90 75 91 69 92 70 93 73 94 71 95
REMARK SMILES IDX 50 96 51 97 59 98 52 99 53 100 57 101 60 102 54 103 55 104
REMARK SMILES IDX 58 105 56 106
REMARK H PARENT 92 24 99 32 80 59 48 70
REMARK Flexibility Score: inf
ROOT
ATOM      1  C   UNL     1      -0.020  -6.179  -1.024  1.00  0.00     0.188 C 
ENDROOT
BRANCH   1   2
ATOM      2  C   UNL     1       0.126  -6.962   0.303  1.00  0.00     0.188 C 
BRANCH   2   3
ATOM      3  O   UNL     1      -0.306  -8.305   0.205  1.00  0.00    -0.376 OA
BRANCH   3   4
ATOM      4  C   UNL     1      -1.295  -8.823   1.063  1.00  0.00     0.202 C 
BRANCH   4   5
ATOM      5  C   UNL     1      -2.722  -8.366   0.762  1.00  0.00     0.261 C 
BRANCH   5   6
ATOM      6  O   UNL     1      -2.846  -6.976   0.471  1.00  0.00    -0.458 OA
BRANCH   6   7
ATOM      7  C   UNL     1      -2.652  -6.101   1.491  1.00  0.00     0.359 C 
ATOM      8  O   UNL     1      -2.454  -6.445   2.660  1.00  0.00    -0.244 OA
BRANCH   7   9
ATOM      9  C   UNL     1      -2.644  -4.721   0.999  1.00  0.00     0.174 A 
ATOM     10  N   UNL     1      -2.397  -2.602   0.919  1.00  0.00    -0.265 N 
ATOM     11  N   UNL     1      -2.096  -3.686   1.678  1.00  0.00    -0.165 NA
ATOM     12  C   UNL     1      -3.327  -2.918  -0.027  1.00  0.00     0.043 A 
ATOM     13  C   UNL     1      -3.175  -4.265  -0.239  1.00  0.00     0.014 A 
ATOM     14  C   UNL     1      -4.279  -2.045  -0.736  1.00  0.00     0.062 C 
ATOM     15  C   UNL     1      -3.708  -4.965  -1.446  1.00  0.00     0.105 C 
ATOM     16  C   UNL     1      -5.007  -2.845  -1.834  1.00  0.00     0.072 C 
ATOM     17  C   UNL     1      -4.185  -3.953  -2.545  1.00  0.00     0.189 C 
BRANCH  10  18
ATOM     18  C   UNL     1      -1.745  -1.312   1.157  1.00  0.00     0.171 C 
BRANCH  18  19
ATOM     19  C   UNL     1      -0.251  -1.344   0.921  1.00  0.00    -0.011 C 
ATOM     20  C   UNL     1       0.442  -0.471   0.174  1.00  0.00     0.006 C 
ENDBRANCH  18  19
ENDBRANCH  10  18
BRANCH  17  21
ATOM     21  N   UNL     1      -3.151  -3.607  -3.548  1.00  0.00    -0.332 N 
ATOM     22  C   UNL     1      -1.950  -2.883  -3.176  1.00  0.00     0.262 C 
ATOM     23  C   UNL     1      -3.631  -3.118  -4.835  1.00  0.00     0.262 C 
ATOM     24  H   UNL     1      -2.831  -4.572  -3.630  1.00  0.00     0.348 HD
ATOM     25  C   UNL     1      -2.067  -1.356  -3.148  1.00  0.00     0.068 C 
ATOM     26  C   UNL     1      -4.043  -1.653  -4.830  1.00  0.00     0.068 C 
ATOM     27  C   UNL     1      -3.070  -0.678  -4.120  1.00  0.00     0.031 C 
BRANCH  27  28
ATOM     28  C   UNL     1      -3.843   0.560  -3.511  1.00  0.00     0.062 C 
ATOM     29  C   UNL     1      -2.971   1.467  -2.634  1.00  0.00     0.042 C 
ATOM     30  C   UNL     1      -4.493   1.397  -4.620  1.00  0.00     0.042 C 
BRANCH  28  31
ATOM     31  O   UNL     1      -4.920   0.112  -2.683  1.00  0.00    -0.390 OA
ATOM     32  H   UNL     1      -4.567  -0.428  -1.958  1.00  0.00     0.211 HD
ENDBRANCH  28  31
ENDBRANCH  27  28
ENDBRANCH  17  21
ENDBRANCH   7   9
ENDBRANCH   6   7
ENDBRANCH   5   6
ENDBRANCH   4   5
ENDBRANCH   3   4
ENDBRANCH   2   3
ENDBRANCH   1   2
BRANCH   1  33
ATOM     33  O   UNL     1       0.029  -6.817  -2.297  1.00  0.00    -0.377 OA
BRANCH  33  34
ATOM     34  C   UNL     1      -0.176  -8.214  -2.370  1.00  0.00     0.188 C 
BRANCH  34  35
ATOM     35  C   UNL     1       1.052  -9.085  -2.014  1.00  0.00     0.188 C 
BRANCH  35  36
ATOM     36  O   UNL     1       2.103  -8.595  -1.196  1.00  0.00    -0.376 OA
BRANCH  36  37
ATOM     37  C   UNL     1       2.957  -7.494  -1.456  1.00  0.00     0.202 C 
BRANCH  37  38
ATOM     38  C   UNL     1       3.121  -6.748  -2.773  1.00  0.00     0.261 C 
BRANCH  38  39
ATOM     39  O   UNL     1       2.216  -7.104  -3.779  1.00  0.00    -0.460 OA
BRANCH  39  40
ATOM     40  C   UNL     1       2.538  -8.222  -4.430  1.00  0.00     0.338 C 
ATOM     41  O   UNL     1       3.457  -9.002  -4.178  1.00  0.00    -0.246 OA
BRANCH  40  42
ATOM     42  C   UNL     1       1.680  -8.304  -5.607  1.00  0.00     0.060 A 
ATOM     43  C   UNL     1       1.882  -9.429  -6.402  1.00  0.00     0.016 A 
ATOM     44  C   UNL     1       1.154  -7.099  -6.101  1.00  0.00     0.016 A 
ATOM     45  C   UNL     1       1.906  -9.233  -7.756  1.00  0.00     0.010 A 
ATOM     46  C   UNL     1       1.220  -6.893  -7.448  1.00  0.00     0.010 A 
ATOM     47  C   UNL     1       1.702  -7.934  -8.234  1.00  0.00    -0.014 A 
BRANCH  47  48
ATOM     48  C   UNL     1       1.954  -7.689  -9.627  1.00  0.00     0.031 A 
ATOM     49  C   UNL     1       0.836  -8.133 -10.472  1.00  0.00     0.074 A 
ATOM     50  C   UNL     1       3.057  -7.050 -10.050  1.00  0.00     0.049 A 
ATOM     51  N   UNL     1       0.823  -9.142 -11.273  1.00  0.00    -0.248 NA
ATOM     52  C   UNL     1      -0.480  -7.518 -10.239  1.00  0.00     0.031 C 
ATOM     53  C   UNL     1       4.076  -6.348  -9.267  1.00  0.00     0.029 A 
ATOM     54  N   UNL     1       3.442  -6.820 -11.330  1.00  0.00    -0.354 N 
ATOM     55  C   UNL     1      -0.461  -9.170 -11.797  1.00  0.00     0.074 A 
ATOM     56  C   UNL     1      -1.264  -8.303 -10.976  1.00  0.00     0.031 C 
ATOM     57  C   UNL     1       4.825  -5.586 -10.099  1.00  0.00     0.029 A 
ATOM     58  C   UNL     1       4.415  -5.842 -11.469  1.00  0.00     0.049 A 
ATOM     59  H   UNL     1       3.062  -7.307 -12.097  1.00  0.00     0.167 HD
ATOM     60  C   UNL     1      -0.693  -9.682 -13.032  1.00  0.00     0.037 A 
ATOM     61  C   UNL     1       4.748  -5.242 -12.639  1.00  0.00     0.037 A 
ATOM     62  C   UNL     1       0.401 -10.510 -13.471  1.00  0.00     0.049 A 
ATOM     63  C   UNL     1       4.264  -6.124 -13.740  1.00  0.00     0.074 A 
ATOM     64  C   UNL     1       0.984 -11.667 -12.988  1.00  0.00     0.029 A 
ATOM     65  N   UNL     1       1.318  -9.959 -14.334  1.00  0.00    -0.354 N 
ATOM     66  N   UNL     1       4.779  -7.294 -14.005  1.00  0.00    -0.248 NA
ATOM     67  C   UNL     1       2.902  -5.922 -14.221  1.00  0.00     0.031 C 
ATOM     68  C   UNL     1       2.381 -11.504 -13.217  1.00  0.00     0.029 A 
ATOM     69  C   UNL     1       2.569 -10.291 -13.879  1.00  0.00     0.049 A 
ATOM     70  H   UNL     1       1.113  -9.423 -15.134  1.00  0.00     0.167 HD
ATOM     71  C   UNL     1       3.689  -8.106 -14.291  1.00  0.00     0.074 A 
ATOM     72  C   UNL     1       2.568  -7.190 -14.483  1.00  0.00     0.031 C 
ATOM     73  C   UNL     1       3.730  -9.449 -14.048  1.00  0.00     0.037 A 
BRANCH  60  74
ATOM     74  C   UNL     1      -1.718  -9.119 -13.974  1.00  0.00     0.064 A 
ATOM     75  C   UNL     1      -2.033  -9.833 -15.142  1.00  0.00     0.173 A 
ATOM     76  C   UNL     1      -2.186  -7.786 -13.922  1.00  0.00     0.173 A 
ATOM     77  F   UNL     1      -1.610 -11.095 -15.304  1.00  0.00    -0.203 F 
ATOM     78  C   UNL     1      -2.711  -9.234 -16.205  1.00  0.00     0.198 A 
ATOM     79  C   UNL     1      -2.916  -7.213 -14.958  1.00  0.00     0.198 A 
ATOM     80  F   UNL     1      -1.861  -6.948 -12.931  1.00  0.00    -0.203 F 
ATOM     81  F   UNL     1      -2.880  -9.911 -17.349  1.00  0.00    -0.200 F 
ATOM     82  C   UNL     1      -3.150  -7.925 -16.113  1.00  0.00     0.200 A 
ATOM     83  F   UNL     1      -3.312  -5.936 -14.855  1.00  0.00    -0.200 F 
ATOM     84  F   UNL     1      -3.750  -7.332 -17.153  1.00  0.00    -0.200 F 
ENDBRANCH  60  74
BRANCH  61  85
ATOM     85  C   UNL     1       5.131  -3.827 -12.860  1.00  0.00     0.064 A 
ATOM     86  C   UNL     1       5.708  -3.413 -14.072  1.00  0.00     0.173 A 
ATOM     87  C   UNL     1       4.696  -2.803 -11.995  1.00  0.00     0.173 A 
ATOM     88  F   UNL     1       6.105  -4.323 -14.974  1.00  0.00    -0.203 F 
ATOM     89  C   UNL     1       5.822  -2.059 -14.406  1.00  0.00     0.198 A 
ATOM     90  C   UNL     1       4.818  -1.453 -12.326  1.00  0.00     0.198 A 
ATOM     91  F   UNL     1       4.055  -3.088 -10.853  1.00  0.00    -0.203 F 
ATOM     92  F   UNL     1       6.322  -1.705 -15.599  1.00  0.00    -0.200 F 
ATOM     93  C   UNL     1       5.369  -1.081 -13.537  1.00  0.00     0.200 A 
ATOM     94  F   UNL     1       4.340  -0.518 -11.491  1.00  0.00    -0.200 F 
ATOM     95  F   UNL     1       5.423   0.213 -13.882  1.00  0.00    -0.200 F 
ENDBRANCH  61  85
BRANCH  73  96
ATOM     96  C   UNL     1       5.061 -10.055 -13.697  1.00  0.00     0.064 A 
ATOM     97  C   UNL     1       5.795  -9.723 -12.544  1.00  0.00     0.173 A 
ATOM     98  C   UNL     1       5.534 -11.118 -14.477  1.00  0.00     0.173 A 
ATOM     99  F   UNL     1       5.353  -8.791 -11.691  1.00  0.00    -0.203 F 
ATOM    100  C   UNL     1       6.973 -10.394 -12.218  1.00  0.00     0.198 A 
ATOM    101  C   UNL     1       6.689 -11.812 -14.128  1.00  0.00     0.198 A 
ATOM    102  F   UNL     1       4.843 -11.518 -15.556  1.00  0.00    -0.203 F 
ATOM    103  F   UNL     1       7.662 -10.048 -11.120  1.00  0.00    -0.200 F 
ATOM    104  C   UNL     1       7.414 -11.443 -13.006  1.00  0.00     0.200 A 
ATOM    105  F   UNL     1       7.083 -12.860 -14.864  1.00  0.00    -0.200 F 
ATOM    106  F   UNL     1       8.523 -12.118 -12.671  1.00  0.00    -0.200 F 
ENDBRANCH  73  96
ENDBRANCH  47  48
ENDBRANCH  40  42
ENDBRANCH  39  40
ENDBRANCH  38  39
ENDBRANCH  37  38
ENDBRANCH  36  37
ENDBRANCH  35  36
ENDBRANCH  34  35
ENDBRANCH  33  34
ENDBRANCH   1  33
TORSDOF 25
