REMARK SMILES COc1ccc(-c2noc(CC(=O)OCCOCCOCCOCCOC(=O)c3ccc(-c4c5nc(c(-c6c(F)c(F)c(F)c(F)c6F)c6ccc([nH]6)c(-c6c(F)c(F)c(F)c(F)c6F)c6nc(c(-c7c(F)c(F)c(F)c(F)c7F)c7ccc4[nH]7)C=C6)C=C5)cc3)c2-c2ccc(OC)cc2)cc1
REMARK SMILES IDX 19 1 18 2 17 3 16 4 15 5 14 6 12 7 13 8 11 9 10 10 7 11 8 12
REMARK SMILES IDX 92 13 9 14 6 15 3 16 4 17 102 18 5 19 101 20 2 21 1 22 93 23
REMARK SMILES IDX 94 24 100 25 95 26 99 27 96 28 97 29 98 30 20 31 21 32 22 33
REMARK SMILES IDX 23 34 24 35 25 36 26 37 27 38 28 39 29 40 30 41 91 42 31 43
REMARK SMILES IDX 90 44 32 45 33 46 34 47 84 48 35 49 89 50 83 51 85 52 36 53
REMARK SMILES IDX 88 54 82 55 81 56 37 58 69 59 49 60 68 61 50 62 53 63 67 64
REMARK SMILES IDX 86 65 51 66 52 67 66 69 87 70 54 71 38 72 39 73 47 74 40 75
REMARK SMILES IDX 41 76 45 77 48 78 42 79 43 80 46 81 44 82 70 83 71 84 79 85
REMARK SMILES IDX 72 86 73 87 77 88 80 89 74 90 75 91 78 92 76 93 55 94 56 95
REMARK SMILES IDX 64 96 57 97 58 98 62 99 65 100 59 101 60 102 63 103 61 104
REMARK H PARENT 85 57 53 68
REMARK Flexibility Score: inf
ROOT
ATOM      1  C   UNL     1       1.615 -10.918   1.225  1.00  0.00     0.188 C 
ENDROOT
BRANCH   1   2
ATOM      2  C   UNL     1       2.324 -12.242   1.516  1.00  0.00     0.188 C 
BRANCH   2   3
ATOM      3  O   UNL     1       1.942 -13.019   2.636  1.00  0.00    -0.376 OA
BRANCH   3   4
ATOM      4  C   UNL     1       1.794 -12.415   3.913  1.00  0.00     0.202 C 
BRANCH   4   5
ATOM      5  C   UNL     1       2.749 -11.319   4.440  1.00  0.00     0.261 C 
BRANCH   5   6
ATOM      6  O   UNL     1       3.038 -10.220   3.548  1.00  0.00    -0.463 OA
BRANCH   6   7
ATOM      7  C   UNL     1       4.333 -10.017   3.219  1.00  0.00     0.313 C 
ATOM      8  O   UNL     1       5.260 -10.664   3.705  1.00  0.00    -0.252 OA
BRANCH   7   9
ATOM      9  C   UNL     1       4.602  -9.041   2.092  1.00  0.00     0.201 C 
BRANCH   9  10
ATOM     10  C   UNL     1       3.581  -8.008   1.735  1.00  0.00     0.156 A 
ATOM     11  C   UNL     1       2.333  -6.236   1.196  1.00  0.00     0.122 A 
ATOM     12  N   UNL     1       2.013  -7.198   0.323  1.00  0.00    -0.079 NA
ATOM     13  C   UNL     1       3.324  -6.705   2.112  1.00  0.00     0.053 A 
ATOM     14  O   UNL     1       2.847  -8.254   0.609  1.00  0.00    -0.359 OA
BRANCH  11  15
ATOM     15  C   UNL     1       1.806  -4.889   1.054  1.00  0.00     0.005 A 
ATOM     16  C   UNL     1       0.848  -2.260   0.851  1.00  0.00     0.118 A 
ATOM     17  C   UNL     1      -0.013  -3.302   1.207  1.00  0.00     0.047 A 
ATOM     18  C   UNL     1       2.191  -2.534   0.596  1.00  0.00     0.047 A 
ATOM     19  C   UNL     1       0.457  -4.617   1.294  1.00  0.00     0.014 A 
ATOM     20  C   UNL     1       2.666  -3.844   0.695  1.00  0.00     0.014 A 
BRANCH  16  21
ATOM     21  O   UNL     1       0.284  -1.014   0.832  1.00  0.00    -0.497 OA
ATOM     22  C   UNL     1       0.882  -0.081  -0.062  1.00  0.00     0.278 C 
ENDBRANCH  16  21
ENDBRANCH  11  15
BRANCH  13  23
ATOM     23  C   UNL     1       4.146  -5.960   3.029  1.00  0.00    -0.012 A 
ATOM     24  C   UNL     1       3.604  -5.284   4.121  1.00  0.00     0.013 A 
ATOM     25  C   UNL     1       5.513  -5.858   2.753  1.00  0.00     0.013 A 
ATOM     26  C   UNL     1       4.449  -4.540   4.951  1.00  0.00     0.047 A 
ATOM     27  C   UNL     1       6.351  -5.137   3.591  1.00  0.00     0.047 A 
ATOM     28  C   UNL     1       5.824  -4.479   4.699  1.00  0.00     0.118 A 
BRANCH  28  29
ATOM     29  O   UNL     1       6.555  -3.738   5.587  1.00  0.00    -0.497 OA
ATOM     30  C   UNL     1       7.970  -3.808   5.431  1.00  0.00     0.278 C 
ENDBRANCH  28  29
ENDBRANCH  13  23
ENDBRANCH   9  10
ENDBRANCH   7   9
ENDBRANCH   6   7
ENDBRANCH   5   6
ENDBRANCH   4   5
ENDBRANCH   3   4
ENDBRANCH   2   3
ENDBRANCH   1   2
BRANCH   1  31
ATOM     31  O   UNL     1       0.824 -10.386   2.267  1.00  0.00    -0.377 OA
BRANCH  31  32
ATOM     32  C   UNL     1      -0.561 -10.685   2.281  1.00  0.00     0.188 C 
BRANCH  32  33
ATOM     33  C   UNL     1      -1.047 -11.949   1.556  1.00  0.00     0.188 C 
BRANCH  33  34
ATOM     34  O   UNL     1      -0.539 -12.109   0.240  1.00  0.00    -0.376 OA
BRANCH  34  35
ATOM     35  C   UNL     1      -1.265 -11.565  -0.855  1.00  0.00     0.202 C 
BRANCH  35  36
ATOM     36  C   UNL     1      -1.499 -10.044  -0.904  1.00  0.00     0.261 C 
BRANCH  36  37
ATOM     37  O   UNL     1      -2.280  -9.475   0.161  1.00  0.00    -0.460 OA
BRANCH  37  38
ATOM     38  C   UNL     1      -3.495 -10.002   0.417  1.00  0.00     0.338 C 
ATOM     39  O   UNL     1      -4.078 -10.859  -0.210  1.00  0.00    -0.246 OA
BRANCH  38  40
ATOM     40  C   UNL     1      -3.932  -9.494   1.737  1.00  0.00     0.060 A 
ATOM     41  C   UNL     1      -4.194 -10.419   2.755  1.00  0.00     0.016 A 
ATOM     42  C   UNL     1      -4.102  -8.126   1.963  1.00  0.00     0.016 A 
ATOM     43  C   UNL     1      -4.673  -9.983   3.988  1.00  0.00     0.010 A 
ATOM     44  C   UNL     1      -4.604  -7.691   3.194  1.00  0.00     0.010 A 
ATOM     45  C   UNL     1      -4.931  -8.622   4.196  1.00  0.00    -0.014 A 
BRANCH  45  46
ATOM     46  C   UNL     1      -5.728  -8.214   5.379  1.00  0.00     0.031 A 
ATOM     47  C   UNL     1      -7.203  -7.980   5.202  1.00  0.00     0.074 A 
ATOM     48  C   UNL     1      -5.169  -8.116   6.598  1.00  0.00     0.049 A 
ATOM     49  N   UNL     1      -8.104  -7.628   6.084  1.00  0.00    -0.248 NA
ATOM     50  C   UNL     1      -7.735  -8.171   3.843  1.00  0.00     0.031 C 
ATOM     51  C   UNL     1      -3.763  -8.364   6.904  1.00  0.00     0.029 A 
ATOM     52  N   UNL     1      -5.725  -7.780   7.807  1.00  0.00    -0.354 N 
ATOM     53  C   UNL     1      -9.304  -7.553   5.387  1.00  0.00     0.074 A 
ATOM     54  C   UNL     1      -9.012  -7.859   4.004  1.00  0.00     0.031 C 
ATOM     55  C   UNL     1      -3.563  -8.167   8.219  1.00  0.00     0.029 A 
ATOM     56  C   UNL     1      -4.820  -7.748   8.839  1.00  0.00     0.049 A 
ATOM     57  H   UNL     1      -6.682  -7.580   7.924  1.00  0.00     0.167 HD
ATOM     58  C   UNL     1     -10.540  -7.266   5.860  1.00  0.00     0.037 A 
ATOM     59  C   UNL     1      -4.987  -7.402  10.130  1.00  0.00     0.037 A 
ATOM     60  C   UNL     1     -10.826  -6.958   7.237  1.00  0.00     0.049 A 
ATOM     61  C   UNL     1      -6.360  -7.008  10.616  1.00  0.00     0.074 A 
ATOM     62  C   UNL     1     -12.046  -6.666   7.820  1.00  0.00     0.029 A 
ATOM     63  N   UNL     1      -9.875  -6.891   8.245  1.00  0.00    -0.354 N 
ATOM     64  N   UNL     1      -7.494  -6.965   9.959  1.00  0.00    -0.248 NA
ATOM     65  C   UNL     1      -6.476  -6.619  12.029  1.00  0.00     0.031 C 
ATOM     66  C   UNL     1     -11.825  -6.358   9.166  1.00  0.00     0.029 A 
ATOM     67  C   UNL     1     -10.477  -6.530   9.440  1.00  0.00     0.049 A 
ATOM     68  H   UNL     1      -8.915  -7.073   8.128  1.00  0.00     0.167 HD
ATOM     69  C   UNL     1      -8.460  -6.579  10.882  1.00  0.00     0.074 A 
ATOM     70  C   UNL     1      -7.780  -6.418  12.150  1.00  0.00     0.031 C 
ATOM     71  C   UNL     1      -9.789  -6.377  10.697  1.00  0.00     0.037 A 
BRANCH  58  72
ATOM     72  C   UNL     1     -11.672  -7.238   4.872  1.00  0.00     0.064 A 
ATOM     73  C   UNL     1     -12.150  -8.406   4.257  1.00  0.00     0.173 A 
ATOM     74  C   UNL     1     -12.306  -6.027   4.557  1.00  0.00     0.173 A 
ATOM     75  F   UNL     1     -11.570  -9.589   4.511  1.00  0.00    -0.203 F 
ATOM     76  C   UNL     1     -13.200  -8.357   3.343  1.00  0.00     0.198 A 
ATOM     77  C   UNL     1     -13.377  -5.986   3.669  1.00  0.00     0.198 A 
ATOM     78  F   UNL     1     -11.892  -4.880   5.118  1.00  0.00    -0.203 F 
ATOM     79  F   UNL     1     -13.604  -9.477   2.728  1.00  0.00    -0.200 F 
ATOM     80  C   UNL     1     -13.818  -7.149   3.056  1.00  0.00     0.200 A 
ATOM     81  F   UNL     1     -13.982  -4.820   3.405  1.00  0.00    -0.200 F 
ATOM     82  F   UNL     1     -14.833  -7.104   2.183  1.00  0.00    -0.200 F 
ENDBRANCH  58  72
BRANCH  59  83
ATOM     83  C   UNL     1      -3.824  -7.397  11.059  1.00  0.00     0.064 A 
ATOM     84  C   UNL     1      -3.751  -8.289  12.138  1.00  0.00     0.173 A 
ATOM     85  C   UNL     1      -2.776  -6.477  10.904  1.00  0.00     0.173 A 
ATOM     86  F   UNL     1      -4.740  -9.170  12.347  1.00  0.00    -0.203 F 
ATOM     87  C   UNL     1      -2.687  -8.246  13.038  1.00  0.00     0.198 A 
ATOM     88  C   UNL     1      -1.696  -6.458  11.784  1.00  0.00     0.198 A 
ATOM     89  F   UNL     1      -2.797  -5.598   9.891  1.00  0.00    -0.203 F 
ATOM     90  F   UNL     1      -2.672  -9.073  14.093  1.00  0.00    -0.200 F 
ATOM     91  C   UNL     1      -1.658  -7.335  12.857  1.00  0.00     0.200 A 
ATOM     92  F   UNL     1      -0.698  -5.584  11.597  1.00  0.00    -0.200 F 
ATOM     93  F   UNL     1      -0.635  -7.296  13.721  1.00  0.00    -0.200 F 
ENDBRANCH  59  83
BRANCH  71  94
ATOM     94  C   UNL     1     -10.605  -6.002  11.903  1.00  0.00     0.064 A 
ATOM     95  C   UNL     1     -10.470  -4.755  12.533  1.00  0.00     0.173 A 
ATOM     96  C   UNL     1     -11.559  -6.894  12.419  1.00  0.00     0.173 A 
ATOM     97  F   UNL     1      -9.567  -3.868  12.089  1.00  0.00    -0.203 F 
ATOM     98  C   UNL     1     -11.230  -4.433  13.655  1.00  0.00     0.198 A 
ATOM     99  C   UNL     1     -12.344  -6.553  13.517  1.00  0.00     0.198 A 
ATOM    100  F   UNL     1     -11.739  -8.096  11.850  1.00  0.00    -0.203 F 
ATOM    101  F   UNL     1     -11.038  -3.261  14.277  1.00  0.00    -0.200 F 
ATOM    102  C   UNL     1     -12.170  -5.328  14.142  1.00  0.00     0.200 A 
ATOM    103  F   UNL     1     -13.265  -7.413  13.973  1.00  0.00    -0.200 F 
ATOM    104  F   UNL     1     -12.903  -5.014  15.218  1.00  0.00    -0.200 F 
ENDBRANCH  71  94
ENDBRANCH  45  46
ENDBRANCH  38  40
ENDBRANCH  37  38
ENDBRANCH  36  37
ENDBRANCH  35  36
ENDBRANCH  34  35
ENDBRANCH  33  34
ENDBRANCH  32  33
ENDBRANCH  31  32
ENDBRANCH   1  31
TORSDOF 25
