REMARK SMILES Nc1nc(Nc2ccc(C(=O)OCCOCCOCCOCCOC(=O)c3ccc(-c4c5nc(c(-c6c(F)c(F)c(F)c(F)c6F)c6ccc([nH]6)c(-c6c(F)c(F)c(F)c(F)c6F)c6nc(c(-c7c(F)c(F)c(F)c(F)c7F)c7ccc4[nH]7)C=C6)C=C5)cc3)cc2)ccc1[N+](=O)[O-]
REMARK SMILES IDX 17 1 16 2 15 3 14 4 13 5 12 6 10 7 11 8 9 9 6 10 7 11 91 12
REMARK SMILES IDX 8 13 90 14 5 15 4 17 2 18 3 19 94 20 93 21 92 22 1 23 95 26
REMARK SMILES IDX 96 27 97 28 18 29 19 30 20 31 21 32 22 33 23 34 24 35 25 36
REMARK SMILES IDX 26 37 27 38 28 39 89 40 29 41 88 42 30 43 31 44 32 45 82 46
REMARK SMILES IDX 33 47 87 48 81 49 83 50 34 51 86 52 80 53 79 54 35 56 67 57
REMARK SMILES IDX 47 58 66 59 48 60 51 61 65 62 84 63 49 64 50 65 64 67 85 68
REMARK SMILES IDX 52 69 36 70 37 71 45 72 38 73 39 74 43 75 46 76 40 77 41 78
REMARK SMILES IDX 44 79 42 80 68 81 69 82 77 83 70 84 71 85 75 86 78 87 72 88
REMARK SMILES IDX 73 89 76 90 74 91 53 92 54 93 62 94 55 95 56 96 60 97 63 98
REMARK SMILES IDX 57 99 58 100 61 101 59 102
REMARK H PARENT 5 16 1 24 1 25 83 55 51 66
REMARK Flexibility Score: inf
ROOT
ATOM      1  C   UNL     1      -0.001   8.472  -0.715  1.00  0.00     0.188 C 
ENDROOT
BRANCH   1   2
ATOM      2  C   UNL     1       0.621   8.986   0.603  1.00  0.00     0.188 C 
BRANCH   2   3
ATOM      3  O   UNL     1       1.714   9.868   0.417  1.00  0.00    -0.376 OA
BRANCH   3   4
ATOM      4  C   UNL     1       3.018   9.432   0.747  1.00  0.00     0.202 C 
BRANCH   4   5
ATOM      5  C   UNL     1       3.602   8.220   0.007  1.00  0.00     0.261 C 
BRANCH   5   6
ATOM      6  O   UNL     1       2.716   7.113  -0.177  1.00  0.00    -0.460 OA
BRANCH   6   7
ATOM      7  C   UNL     1       2.439   6.374   0.919  1.00  0.00     0.338 C 
ATOM      8  O   UNL     1       2.887   6.538   2.040  1.00  0.00    -0.246 OA
BRANCH   7   9
ATOM      9  C   UNL     1       1.331   5.450   0.584  1.00  0.00     0.060 A 
ATOM     10  C   UNL     1      -0.731   3.627   0.075  1.00  0.00     0.040 A 
ATOM     11  C   UNL     1      -0.734   4.380   1.256  1.00  0.00     0.027 A 
ATOM     12  C   UNL     1       0.263   3.869  -0.886  1.00  0.00     0.027 A 
ATOM     13  C   UNL     1       0.303   5.277   1.518  1.00  0.00     0.018 A 
ATOM     14  C   UNL     1       1.287   4.784  -0.643  1.00  0.00     0.018 A 
BRANCH  10  15
ATOM     15  N   UNL     1      -1.544   2.475  -0.011  1.00  0.00    -0.340 N 
ATOM     16  H   UNL     1      -2.522   2.583  -0.058  1.00  0.00     0.168 HD
BRANCH  15  17
ATOM     17  C   UNL     1      -0.998   1.174  -0.033  1.00  0.00     0.133 A 
ATOM     18  C   UNL     1       0.915  -0.192  -0.035  1.00  0.00     0.204 A 
ATOM     19  N   UNL     1       0.348   1.028  -0.049  1.00  0.00    -0.207 NA
ATOM     20  C   UNL     1       0.130  -1.335  -0.013  1.00  0.00     0.311 A 
ATOM     21  C   UNL     1      -1.267  -1.204  -0.024  1.00  0.00     0.093 A 
ATOM     22  C   UNL     1      -1.836   0.070  -0.050  1.00  0.00     0.054 A 
BRANCH  18  23
ATOM     23  N   UNL     1       2.286  -0.154  -0.142  1.00  0.00    -0.378 N 
ATOM     24  H   UNL     1       2.755   0.711  -0.149  1.00  0.00     0.158 HD
ATOM     25  H   UNL     1       2.798  -0.992  -0.212  1.00  0.00     0.158 HD
ENDBRANCH  18  23
BRANCH  20  26
ATOM     26  N   UNL     1       0.724  -2.666   0.058  1.00  0.00     0.066 N 
ATOM     27  O   UNL     1      -0.032  -3.635  -0.112  1.00  0.00    -0.258 OA
ATOM     28  O   UNL     1       1.932  -2.768   0.320  1.00  0.00    -0.258 OA
ENDBRANCH  20  26
ENDBRANCH  15  17
ENDBRANCH  10  15
ENDBRANCH   7   9
ENDBRANCH   6   7
ENDBRANCH   5   6
ENDBRANCH   4   5
ENDBRANCH   3   4
ENDBRANCH   2   3
ENDBRANCH   1   2
BRANCH   1  29
ATOM     29  O   UNL     1       0.668   8.720  -1.944  1.00  0.00    -0.377 OA
BRANCH  29  30
ATOM     30  C   UNL     1       1.182  10.018  -2.226  1.00  0.00     0.188 C 
BRANCH  30  31
ATOM     31  C   UNL     1       0.561  11.292  -1.604  1.00  0.00     0.188 C 
BRANCH  31  32
ATOM     32  O   UNL     1      -0.623  11.069  -0.859  1.00  0.00    -0.376 OA
BRANCH  32  33
ATOM     33  C   UNL     1      -1.850  11.494  -1.420  1.00  0.00     0.202 C 
BRANCH  33  34
ATOM     34  C   UNL     1      -2.281  10.844  -2.742  1.00  0.00     0.261 C 
BRANCH  34  35
ATOM     35  O   UNL     1      -1.313  10.855  -3.803  1.00  0.00    -0.460 OA
BRANCH  35  36
ATOM     36  C   UNL     1      -0.989  12.050  -4.338  1.00  0.00     0.338 C 
ATOM     37  O   UNL     1      -1.426  13.146  -4.023  1.00  0.00    -0.246 OA
BRANCH  36  38
ATOM     38  C   UNL     1       0.138  11.830  -5.266  1.00  0.00     0.060 A 
ATOM     39  C   UNL     1       1.369  12.453  -5.016  1.00  0.00     0.016 A 
ATOM     40  C   UNL     1      -0.021  10.995  -6.374  1.00  0.00     0.016 A 
ATOM     41  C   UNL     1       2.437  12.264  -5.894  1.00  0.00     0.010 A 
ATOM     42  C   UNL     1       1.042  10.825  -7.264  1.00  0.00     0.010 A 
ATOM     43  C   UNL     1       2.265  11.485  -7.046  1.00  0.00    -0.014 A 
BRANCH  43  44
ATOM     44  C   UNL     1       3.284  11.520  -8.124  1.00  0.00     0.031 A 
ATOM     45  C   UNL     1       3.044  12.432  -9.296  1.00  0.00     0.074 A 
ATOM     46  C   UNL     1       4.403  10.778  -8.061  1.00  0.00     0.049 A 
ATOM     47  N   UNL     1       3.743  12.587 -10.391  1.00  0.00    -0.248 NA
ATOM     48  C   UNL     1       1.847  13.286  -9.221  1.00  0.00     0.031 C 
ATOM     49  C   UNL     1       4.775   9.897  -6.957  1.00  0.00     0.029 A 
ATOM     50  N   UNL     1       5.432  10.644  -8.961  1.00  0.00    -0.354 N 
ATOM     51  C   UNL     1       3.073  13.553 -11.131  1.00  0.00     0.074 A 
ATOM     52  C   UNL     1       1.890  13.919 -10.383  1.00  0.00     0.031 C 
ATOM     53  C   UNL     1       5.947   9.305  -7.249  1.00  0.00     0.029 A 
ATOM     54  C   UNL     1       6.386   9.734  -8.576  1.00  0.00     0.049 A 
ATOM     55  H   UNL     1       5.481  11.153  -9.803  1.00  0.00     0.167 HD
ATOM     56  C   UNL     1       3.420  14.098 -12.320  1.00  0.00     0.037 A 
ATOM     57  C   UNL     1       7.472   9.285  -9.236  1.00  0.00     0.037 A 
ATOM     58  C   UNL     1       4.591  13.724 -13.068  1.00  0.00     0.049 A 
ATOM     59  C   UNL     1       7.775   9.828 -10.613  1.00  0.00     0.074 A 
ATOM     60  C   UNL     1       5.026  14.206 -14.290  1.00  0.00     0.029 A 
ATOM     61  N   UNL     1       5.511  12.767 -12.665  1.00  0.00    -0.354 N 
ATOM     62  N   UNL     1       7.147  10.751 -11.301  1.00  0.00    -0.248 NA
ATOM     63  C   UNL     1       8.945   9.264 -11.304  1.00  0.00     0.031 C 
ATOM     64  C   UNL     1       6.179  13.504 -14.652  1.00  0.00     0.029 A 
ATOM     65  C   UNL     1       6.501  12.631 -13.625  1.00  0.00     0.049 A 
ATOM     66  H   UNL     1       5.468  12.261 -11.822  1.00  0.00     0.167 HD
ATOM     67  C   UNL     1       7.867  10.909 -12.479  1.00  0.00     0.074 A 
ATOM     68  C   UNL     1       8.988   9.995 -12.408  1.00  0.00     0.031 C 
ATOM     69  C   UNL     1       7.625  11.734 -13.528  1.00  0.00     0.037 A 
BRANCH  56  70
ATOM     70  C   UNL     1       2.512  15.145 -12.896  1.00  0.00     0.064 A 
ATOM     71  C   UNL     1       2.401  16.420 -12.319  1.00  0.00     0.173 A 
ATOM     72  C   UNL     1       1.772  14.885 -14.059  1.00  0.00     0.173 A 
ATOM     73  F   UNL     1       3.074  16.715 -11.197  1.00  0.00    -0.203 F 
ATOM     74  C   UNL     1       1.565  17.387 -12.873  1.00  0.00     0.198 A 
ATOM     75  C   UNL     1       0.963  15.865 -14.629  1.00  0.00     0.198 A 
ATOM     76  F   UNL     1       1.843  13.684 -14.652  1.00  0.00    -0.203 F 
ATOM     77  F   UNL     1       1.439  18.581 -12.278  1.00  0.00    -0.200 F 
ATOM     78  C   UNL     1       0.855  17.112 -14.032  1.00  0.00     0.200 A 
ATOM     79  F   UNL     1       0.289  15.602 -15.757  1.00  0.00    -0.200 F 
ATOM     80  F   UNL     1       0.061  18.047 -14.571  1.00  0.00    -0.200 F 
ENDBRANCH  56  70
BRANCH  57  81
ATOM     81  C   UNL     1       8.355   8.252  -8.627  1.00  0.00     0.064 A 
ATOM     82  C   UNL     1       9.691   8.539  -8.311  1.00  0.00     0.173 A 
ATOM     83  C   UNL     1       7.904   6.942  -8.409  1.00  0.00     0.173 A 
ATOM     84  F   UNL     1      10.181   9.769  -8.526  1.00  0.00    -0.203 F 
ATOM     85  C   UNL     1      10.549   7.550  -7.834  1.00  0.00     0.198 A 
ATOM     86  C   UNL     1       8.754   5.962  -7.898  1.00  0.00     0.198 A 
ATOM     87  F   UNL     1       6.638   6.609  -8.699  1.00  0.00    -0.203 F 
ATOM     88  F   UNL     1      11.838   7.836  -7.608  1.00  0.00    -0.200 F 
ATOM     89  C   UNL     1      10.079   6.263  -7.624  1.00  0.00     0.200 A 
ATOM     90  F   UNL     1       8.291   4.722  -7.687  1.00  0.00    -0.200 F 
ATOM     91  F   UNL     1      10.906   5.309  -7.174  1.00  0.00    -0.200 F 
ENDBRANCH  57  81
BRANCH  69  92
ATOM     92  C   UNL     1       8.619  11.739 -14.655  1.00  0.00     0.064 A 
ATOM     93  C   UNL     1       8.758  10.651 -15.529  1.00  0.00     0.173 A 
ATOM     94  C   UNL     1       9.416  12.871 -14.889  1.00  0.00     0.173 A 
ATOM     95  F   UNL     1       8.030   9.539 -15.344  1.00  0.00    -0.203 F 
ATOM     96  C   UNL     1       9.681  10.683 -16.572  1.00  0.00     0.198 A 
ATOM     97  C   UNL     1      10.310  12.915 -15.955  1.00  0.00     0.198 A 
ATOM     98  F   UNL     1       9.317  13.945 -14.091  1.00  0.00    -0.203 F 
ATOM     99  F   UNL     1       9.836   9.609 -17.360  1.00  0.00    -0.200 F 
ATOM    100  C   UNL     1      10.448  11.817 -16.790  1.00  0.00     0.200 A 
ATOM    101  F   UNL     1      11.036  14.019 -16.174  1.00  0.00    -0.200 F 
ATOM    102  F   UNL     1      11.328  11.849 -17.801  1.00  0.00    -0.200 F 
ENDBRANCH  69  92
ENDBRANCH  43  44
ENDBRANCH  36  38
ENDBRANCH  35  36
ENDBRANCH  34  35
ENDBRANCH  33  34
ENDBRANCH  32  33
ENDBRANCH  31  32
ENDBRANCH  30  31
ENDBRANCH  29  30
ENDBRANCH   1  29
TORSDOF 24
