REMARK SMILES Cc1ccc(S(=O)(=O)N2CCC(C(=O)N3CCC[C@@H](C(=O)OCCOCCOCCOCCOC(=O)c4ccc(-c5c6nc(c(-c7c(F)c(F)c(F)c(F)c7F)c7ccc([nH]7)c(-c7c(F)c(F)c(F)c(F)c7F)c7nc(c(-c8c(F)c(F)c(F)c(F)c8F)c8ccc5[nH]8)C=C7)C=C6)cc4)C3)CC2)cc1
REMARK SMILES IDX 27 1 26 2 25 3 24 4 23 5 22 6 20 7 21 8 19 9 15 10 16 11
REMARK SMILES IDX 100 12 17 13 18 14 13 15 14 16 12 17 9 18 10 19 102 20 11 21
REMARK SMILES IDX 101 22 6 23 7 24 8 25 5 26 1 27 2 28 3 29 104 30 4 31 103 32
REMARK SMILES IDX 28 33 29 34 30 35 31 36 32 37 33 38 34 39 35 40 36 41 37 42
REMARK SMILES IDX 38 43 99 44 39 45 98 46 40 47 41 48 42 49 92 50 43 51 97 52
REMARK SMILES IDX 91 53 93 54 44 55 96 56 90 57 89 58 45 60 77 61 57 62 76 63
REMARK SMILES IDX 58 64 61 65 75 66 94 67 59 68 60 69 74 71 95 72 62 73 46 74
REMARK SMILES IDX 47 75 55 76 48 77 49 78 53 79 56 80 50 81 51 82 54 83 52 84
REMARK SMILES IDX 78 85 79 86 87 87 80 88 81 89 85 90 88 91 82 92 83 93 86 94
REMARK SMILES IDX 84 95 63 96 64 97 72 98 65 99 66 100 70 101 73 102 67 103
REMARK SMILES IDX 68 104 71 105 69 106
REMARK H PARENT 93 59 61 70
REMARK Flexibility Score: inf
ROOT
ATOM      1  C   UNL     1      -7.331   3.294   0.909  1.00  0.00     0.188 C 
ENDROOT
BRANCH   1   2
ATOM      2  C   UNL     1      -6.653   3.724   2.234  1.00  0.00     0.188 C 
BRANCH   2   3
ATOM      3  O   UNL     1      -7.287   3.586   3.486  1.00  0.00    -0.376 OA
BRANCH   3   4
ATOM      4  C   UNL     1      -8.486   4.317   3.638  1.00  0.00     0.202 C 
BRANCH   4   5
ATOM      5  C   UNL     1      -8.494   5.819   3.347  1.00  0.00     0.261 C 
BRANCH   5   6
ATOM      6  O   UNL     1      -8.064   6.201   2.040  1.00  0.00    -0.463 OA
BRANCH   6   7
ATOM      7  C   UNL     1      -7.577   7.465   1.921  1.00  0.00     0.310 C 
ATOM      8  O   UNL     1      -7.498   8.286   2.824  1.00  0.00    -0.252 OA
BRANCH   7   9
ATOM      9  C   UNL     1      -7.028   7.713   0.534  1.00  0.00     0.119 C 
ATOM     10  N   UNL     1      -5.516   6.599  -1.099  1.00  0.00    -0.342 N 
ATOM     11  C   UNL     1      -6.413   6.907  -2.213  1.00  0.00     0.119 C 
ATOM     12  C   UNL     1      -6.132   6.535   0.200  1.00  0.00     0.134 C 
ATOM     13  C   UNL     1      -7.415   8.029  -1.908  1.00  0.00     0.022 C 
ATOM     14  C   UNL     1      -8.097   7.875  -0.542  1.00  0.00     0.019 C 
BRANCH  10  15
ATOM     15  C   UNL     1      -4.202   6.243  -1.338  1.00  0.00     0.225 C 
ATOM     16  O   UNL     1      -3.506   6.920  -2.100  1.00  0.00    -0.275 OA
BRANCH  15  17
ATOM     17  C   UNL     1      -3.669   4.854  -0.898  1.00  0.00     0.081 C 
ATOM     18  N   UNL     1      -3.756   1.986  -0.284  1.00  0.00    -0.198 NA
ATOM     19  C   UNL     1      -3.432   2.940   0.806  1.00  0.00     0.103 C 
ATOM     20  C   UNL     1      -3.551   2.461  -1.672  1.00  0.00     0.103 C 
ATOM     21  C   UNL     1      -3.938   4.351   0.510  1.00  0.00     0.030 C 
ATOM     22  C   UNL     1      -4.212   3.814  -1.885  1.00  0.00     0.030 C 
BRANCH  18  23
ATOM     23  S   UNL     1      -3.372   0.334  -0.006  1.00  0.00     0.243 S 
ATOM     24  O   UNL     1      -3.880  -0.422  -1.128  1.00  0.00    -0.207 OA
ATOM     25  O   UNL     1      -3.790   0.018   1.349  1.00  0.00    -0.207 OA
BRANCH  23  26
ATOM     26  C   UNL     1      -1.594   0.182  -0.045  1.00  0.00     0.082 A 
ATOM     27  C   UNL     1       2.684  -0.317  -0.007  1.00  0.00     0.044 C 
ATOM     28  C   UNL     1       1.194  -0.154  -0.019  1.00  0.00    -0.051 A 
ATOM     29  C   UNL     1       0.345  -1.268   0.018  1.00  0.00     0.005 A 
ATOM     30  C   UNL     1       0.638   1.121  -0.093  1.00  0.00     0.005 A 
ATOM     31  C   UNL     1      -1.046  -1.103   0.013  1.00  0.00     0.022 A 
ATOM     32  C   UNL     1      -0.744   1.284  -0.128  1.00  0.00     0.022 A 
ENDBRANCH  23  26
ENDBRANCH  18  23
ENDBRANCH  15  17
ENDBRANCH  10  15
ENDBRANCH   7   9
ENDBRANCH   6   7
ENDBRANCH   5   6
ENDBRANCH   4   5
ENDBRANCH   3   4
ENDBRANCH   2   3
ENDBRANCH   1   2
BRANCH   1  33
ATOM     33  O   UNL     1      -8.699   3.612   0.745  1.00  0.00    -0.377 OA
BRANCH  33  34
ATOM     34  C   UNL     1      -9.596   2.511   0.591  1.00  0.00     0.188 C 
BRANCH  34  35
ATOM     35  C   UNL     1      -9.047   1.095   0.702  1.00  0.00     0.188 C 
BRANCH  35  36
ATOM     36  O   UNL     1      -8.457   1.000   1.996  1.00  0.00    -0.376 OA
BRANCH  36  37
ATOM     37  C   UNL     1      -7.371   0.088   2.130  1.00  0.00     0.202 C 
BRANCH  37  38
ATOM     38  C   UNL     1      -7.827  -1.357   1.972  1.00  0.00     0.261 C 
BRANCH  38  39
ATOM     39  O   UNL     1      -8.810  -1.638   2.993  1.00  0.00    -0.460 OA
BRANCH  39  40
ATOM     40  C   UNL     1     -10.102  -1.543   2.576  1.00  0.00     0.338 C 
ATOM     41  O   UNL     1     -10.563  -2.110   1.598  1.00  0.00    -0.246 OA
BRANCH  40  42
ATOM     42  C   UNL     1     -10.812  -0.439   3.297  1.00  0.00     0.060 A 
ATOM     43  C   UNL     1     -12.044   0.029   2.808  1.00  0.00     0.016 A 
ATOM     44  C   UNL     1     -10.124   0.331   4.227  1.00  0.00     0.016 A 
ATOM     45  C   UNL     1     -12.497   1.327   3.120  1.00  0.00     0.010 A 
ATOM     46  C   UNL     1     -10.539   1.637   4.459  1.00  0.00     0.010 A 
ATOM     47  C   UNL     1     -11.702   2.185   3.879  1.00  0.00    -0.014 A 
BRANCH  47  48
ATOM     48  C   UNL     1     -11.888   3.664   3.989  1.00  0.00     0.031 A 
ATOM     49  C   UNL     1     -11.524   4.336   5.301  1.00  0.00     0.074 A 
ATOM     50  C   UNL     1     -12.054   4.460   2.884  1.00  0.00     0.049 A 
ATOM     51  N   UNL     1     -11.313   5.601   5.418  1.00  0.00    -0.248 NA
ATOM     52  C   UNL     1     -11.298   3.666   6.583  1.00  0.00     0.031 C 
ATOM     53  C   UNL     1     -11.679   5.871   2.797  1.00  0.00     0.029 A 
ATOM     54  N   UNL     1     -12.476   4.216   1.561  1.00  0.00    -0.354 N 
ATOM     55  C   UNL     1     -10.702   5.892   6.606  1.00  0.00     0.074 A 
ATOM     56  C   UNL     1     -10.754   4.645   7.326  1.00  0.00     0.031 C 
ATOM     57  C   UNL     1     -11.828   6.383   1.574  1.00  0.00     0.029 A 
ATOM     58  C   UNL     1     -12.725   5.475   0.938  1.00  0.00     0.049 A 
ATOM     59  H   UNL     1     -12.579   3.332   1.141  1.00  0.00     0.167 HD
ATOM     60  C   UNL     1     -10.178   7.147   6.750  1.00  0.00     0.037 A 
ATOM     61  C   UNL     1     -13.984   5.879   0.584  1.00  0.00     0.037 A 
ATOM     62  C   UNL     1     -10.684   8.054   5.703  1.00  0.00     0.049 A 
ATOM     63  C   UNL     1     -14.452   7.072   1.409  1.00  0.00     0.074 A 
ATOM     64  C   UNL     1     -10.116   8.830   4.707  1.00  0.00     0.029 A 
ATOM     65  N   UNL     1     -12.065   8.133   5.503  1.00  0.00    -0.354 N 
ATOM     66  N   UNL     1     -14.010   7.305   2.623  1.00  0.00    -0.248 NA
ATOM     67  C   UNL     1     -15.271   8.176   0.913  1.00  0.00     0.031 C 
ATOM     68  C   UNL     1     -11.164   9.317   3.870  1.00  0.00     0.029 A 
ATOM     69  C   UNL     1     -12.376   8.877   4.384  1.00  0.00     0.049 A 
ATOM     70  H   UNL     1     -12.734   7.711   6.090  1.00  0.00     0.167 HD
ATOM     71  C   UNL     1     -14.320   8.583   2.993  1.00  0.00     0.074 A 
ATOM     72  C   UNL     1     -15.185   9.061   1.928  1.00  0.00     0.031 C 
ATOM     73  C   UNL     1     -13.760   9.212   4.071  1.00  0.00     0.037 A 
BRANCH  60  74
ATOM     74  C   UNL     1      -9.152   7.598   7.781  1.00  0.00     0.064 A 
ATOM     75  C   UNL     1      -8.746   8.954   7.857  1.00  0.00     0.173 A 
ATOM     76  C   UNL     1      -8.461   6.742   8.663  1.00  0.00     0.173 A 
ATOM     77  F   UNL     1      -9.294   9.894   7.076  1.00  0.00    -0.203 F 
ATOM     78  C   UNL     1      -7.752   9.406   8.736  1.00  0.00     0.198 A 
ATOM     79  C   UNL     1      -7.505   7.203   9.579  1.00  0.00     0.198 A 
ATOM     80  F   UNL     1      -8.643   5.418   8.650  1.00  0.00    -0.203 F 
ATOM     81  F   UNL     1      -7.387  10.696   8.725  1.00  0.00    -0.200 F 
ATOM     82  C   UNL     1      -7.144   8.533   9.611  1.00  0.00     0.200 A 
ATOM     83  F   UNL     1      -6.924   6.337  10.422  1.00  0.00    -0.200 F 
ATOM     84  F   UNL     1      -6.211   8.965  10.470  1.00  0.00    -0.200 F 
ENDBRANCH  60  74
BRANCH  61  85
ATOM     85  C   UNL     1     -14.711   4.749  -0.053  1.00  0.00     0.064 A 
ATOM     86  C   UNL     1     -14.121   4.326  -1.269  1.00  0.00     0.173 A 
ATOM     87  C   UNL     1     -15.290   3.765   0.761  1.00  0.00     0.173 A 
ATOM     88  F   UNL     1     -13.562   5.235  -2.087  1.00  0.00    -0.203 F 
ATOM     89  C   UNL     1     -13.860   2.978  -1.506  1.00  0.00     0.198 A 
ATOM     90  C   UNL     1     -15.060   2.410   0.492  1.00  0.00     0.198 A 
ATOM     91  F   UNL     1     -15.865   4.105   1.923  1.00  0.00    -0.203 F 
ATOM     92  F   UNL     1     -13.071   2.622  -2.531  1.00  0.00    -0.200 F 
ATOM     93  C   UNL     1     -14.287   2.027  -0.597  1.00  0.00     0.200 A 
ATOM     94  F   UNL     1     -15.459   1.480   1.372  1.00  0.00    -0.200 F 
ATOM     95  F   UNL     1     -13.886   0.753  -0.725  1.00  0.00    -0.200 F 
ENDBRANCH  61  85
BRANCH  73  96
ATOM     96  C   UNL     1     -14.450  10.247   4.936  1.00  0.00     0.064 A 
ATOM     97  C   UNL     1     -15.832  10.484   4.898  1.00  0.00     0.173 A 
ATOM     98  C   UNL     1     -13.761  10.861   6.018  1.00  0.00     0.173 A 
ATOM     99  F   UNL     1     -16.617   9.908   3.979  1.00  0.00    -0.203 F 
ATOM    100  C   UNL     1     -16.472  11.279   5.853  1.00  0.00     0.198 A 
ATOM    101  C   UNL     1     -14.412  11.604   6.999  1.00  0.00     0.198 A 
ATOM    102  F   UNL     1     -12.440  10.720   6.197  1.00  0.00    -0.203 F 
ATOM    103  F   UNL     1     -17.793  11.483   5.761  1.00  0.00    -0.200 F 
ATOM    104  C   UNL     1     -15.768  11.820   6.912  1.00  0.00     0.200 A 
ATOM    105  F   UNL     1     -13.719  12.074   8.046  1.00  0.00    -0.200 F 
ATOM    106  F   UNL     1     -16.399  12.528   7.857  1.00  0.00    -0.200 F 
ENDBRANCH  73  96
ENDBRANCH  47  48
ENDBRANCH  40  42
ENDBRANCH  39  40
ENDBRANCH  38  39
ENDBRANCH  37  38
ENDBRANCH  36  37
ENDBRANCH  35  36
ENDBRANCH  34  35
ENDBRANCH  33  34
ENDBRANCH   1  33
TORSDOF 24
