REMARK SMILES Cc1ccc([C@H]2CC(c3cccs3)=NN2C(=O)CCC(=O)OCCOCCOCCOCCOC(=O)c2ccc(-c3c4nc(c(-c5c(F)c(F)c(F)c(F)c5F)c5ccc([nH]5)c(-c5c(F)c(F)c(F)c(F)c5F)c5nc(c(-c6c(F)c(F)c(F)c(F)c6F)c6ccc3[nH]6)C=C5)C=C4)cc2)o1
REMARK SMILES IDX 27 1 26 2 25 3 24 4 23 5 22 6 20 7 21 8 19 9 18 10 16 11
REMARK SMILES IDX 17 12 15 13 6 14 7 15 8 16 14 17 5 18 1 19 2 20 3 21 100 22
REMARK SMILES IDX 4 23 9 24 10 25 13 26 11 27 12 28 28 29 29 30 30 31 31 32
REMARK SMILES IDX 32 33 33 34 34 35 35 36 36 37 37 38 38 39 99 40 39 41 98 42
REMARK SMILES IDX 40 43 41 44 42 45 92 46 43 47 97 48 91 49 93 50 44 51 96 52
REMARK SMILES IDX 90 53 89 54 45 56 77 57 57 58 76 59 58 60 61 61 75 62 94 63
REMARK SMILES IDX 59 64 60 65 74 67 95 68 62 69 46 70 47 71 55 72 48 73 49 74
REMARK SMILES IDX 53 75 56 76 50 77 51 78 54 79 52 80 78 81 79 82 87 83 80 84
REMARK SMILES IDX 81 85 85 86 88 87 82 88 83 89 86 90 84 91 63 92 64 93 72 94
REMARK SMILES IDX 65 95 66 96 70 97 73 98 67 99 68 100 71 101 69 102
REMARK H PARENT 93 55 61 66
REMARK Flexibility Score: inf
ROOT
ATOM      1  C   UNL     1      -0.111   3.107  -0.165  1.00  0.00     0.188 C 
ENDROOT
BRANCH   1   2
ATOM      2  C   UNL     1       0.151   1.938  -1.165  1.00  0.00     0.188 C 
BRANCH   2   3
ATOM      3  O   UNL     1      -0.996   1.100  -1.298  1.00  0.00    -0.376 OA
BRANCH   3   4
ATOM      4  C   UNL     1      -0.979  -0.297  -1.650  1.00  0.00     0.202 C 
BRANCH   4   5
ATOM      5  C   UNL     1      -2.234  -1.326  -1.078  1.00  0.00     0.261 C 
BRANCH   5   6
ATOM      6  O   UNL     1      -2.902  -1.675   0.439  1.00  0.00    -0.463 OA
BRANCH   6   7
ATOM      7  C   UNL     1      -3.130  -1.839   1.813  1.00  0.00     0.306 C 
ATOM      8  O   UNL     1      -3.979  -2.691   2.116  1.00  0.00    -0.252 OA
BRANCH   7   9
ATOM      9  C   UNL     1      -2.296  -1.210   3.110  1.00  0.00     0.132 C 
BRANCH   9  10
ATOM     10  C   UNL     1      -2.343   0.256   3.657  1.00  0.00     0.114 C 
BRANCH  10  11
ATOM     11  C   UNL     1      -3.549   0.914   3.117  1.00  0.00     0.243 C 
ATOM     12  O   UNL     1      -4.405   1.473   3.785  1.00  0.00    -0.273 OA
BRANCH  11  13
ATOM     13  N   UNL     1      -3.547   0.716   1.769  1.00  0.00    -0.222 N 
ATOM     14  C   UNL     1      -2.360   0.959   0.905  1.00  0.00     0.183 C 
ATOM     15  C   UNL     1      -3.198   1.315  -0.364  1.00  0.00     0.095 C 
ATOM     16  C   UNL     1      -4.536   0.697  -0.126  1.00  0.00     0.081 C 
ATOM     17  N   UNL     1      -4.761   0.483   1.123  1.00  0.00    -0.173 NA
BRANCH  14  18
ATOM     18  C   UNL     1      -0.892  -0.076   1.040  1.00  0.00     0.129 A 
ATOM     19  C   UNL     1       2.744   0.068   0.496  1.00  0.00     0.087 C 
ATOM     20  C   UNL     1       1.378  -0.357   0.884  1.00  0.00     0.101 A 
ATOM     21  C   UNL     1       0.885  -1.620   0.865  1.00  0.00     0.045 A 
ATOM     22  O   UNL     1       0.368   0.565   1.134  1.00  0.00    -0.464 OA
ATOM     23  C   UNL     1      -0.497  -1.454   0.997  1.00  0.00     0.048 A 
ENDBRANCH  14  18
BRANCH  16  24
ATOM     24  C   UNL     1      -5.445   0.456  -1.226  1.00  0.00     0.050 A 
ATOM     25  C   UNL     1      -5.895  -0.732  -1.778  1.00  0.00     0.022 A 
ATOM     26  S   UNL     1      -5.940   1.788  -2.171  1.00  0.00    -0.142 S 
ATOM     27  C   UNL     1      -6.710  -0.525  -2.938  1.00  0.00     0.012 A 
ATOM     28  C   UNL     1      -6.887   0.812  -3.206  1.00  0.00     0.065 A 
ENDBRANCH  16  24
ENDBRANCH  11  13
ENDBRANCH  10  11
ENDBRANCH   9  10
ENDBRANCH   7   9
ENDBRANCH   6   7
ENDBRANCH   5   6
ENDBRANCH   4   5
ENDBRANCH   3   4
ENDBRANCH   2   3
ENDBRANCH   1   2
BRANCH   1  29
ATOM     29  O   UNL     1      -1.256   3.927  -0.376  1.00  0.00    -0.377 OA
BRANCH  29  30
ATOM     30  C   UNL     1      -1.794   4.018  -1.684  1.00  0.00     0.188 C 
BRANCH  30  31
ATOM     31  C   UNL     1      -0.896   4.577  -2.789  1.00  0.00     0.188 C 
BRANCH  31  32
ATOM     32  O   UNL     1      -0.343   5.878  -2.691  1.00  0.00    -0.376 OA
BRANCH  32  33
ATOM     33  C   UNL     1       0.050   6.356  -1.419  1.00  0.00     0.202 C 
BRANCH  33  34
ATOM     34  C   UNL     1      -1.006   7.244  -0.748  1.00  0.00     0.261 C 
BRANCH  34  35
ATOM     35  O   UNL     1      -2.371   6.860  -0.987  1.00  0.00    -0.460 OA
BRANCH  35  36
ATOM     36  C   UNL     1      -2.867   7.190  -2.211  1.00  0.00     0.338 C 
ATOM     37  O   UNL     1      -2.321   7.805  -3.096  1.00  0.00    -0.246 OA
BRANCH  36  38
ATOM     38  C   UNL     1      -4.222   6.606  -2.361  1.00  0.00     0.060 A 
ATOM     39  C   UNL     1      -4.477   5.731  -3.426  1.00  0.00     0.016 A 
ATOM     40  C   UNL     1      -5.255   7.005  -1.514  1.00  0.00     0.016 A 
ATOM     41  C   UNL     1      -5.783   5.302  -3.677  1.00  0.00     0.010 A 
ATOM     42  C   UNL     1      -6.568   6.603  -1.786  1.00  0.00     0.010 A 
ATOM     43  C   UNL     1      -6.844   5.788  -2.896  1.00  0.00    -0.014 A 
BRANCH  43  44
ATOM     44  C   UNL     1      -8.236   5.645  -3.400  1.00  0.00     0.031 A 
ATOM     45  C   UNL     1      -8.761   6.699  -4.327  1.00  0.00     0.074 A 
ATOM     46  C   UNL     1      -9.030   4.622  -3.043  1.00  0.00     0.049 A 
ATOM     47  N   UNL     1      -9.938   6.792  -4.887  1.00  0.00    -0.248 NA
ATOM     48  C   UNL     1      -7.872   7.842  -4.591  1.00  0.00     0.031 C 
ATOM     49  C   UNL     1      -8.696   3.641  -2.028  1.00  0.00     0.029 A 
ATOM     50  N   UNL     1     -10.256   4.210  -3.510  1.00  0.00    -0.354 N 
ATOM     51  C   UNL     1      -9.969   8.045  -5.479  1.00  0.00     0.074 A 
ATOM     52  C   UNL     1      -8.677   8.656  -5.256  1.00  0.00     0.031 C 
ATOM     53  C   UNL     1      -9.598   2.646  -2.062  1.00  0.00     0.029 A 
ATOM     54  C   UNL     1     -10.633   2.971  -3.036  1.00  0.00     0.049 A 
ATOM     55  H   UNL     1     -10.810   4.747  -4.122  1.00  0.00     0.167 HD
ATOM     56  C   UNL     1     -11.012   8.645  -6.097  1.00  0.00     0.037 A 
ATOM     57  C   UNL     1     -11.692   2.201  -3.362  1.00  0.00     0.037 A 
ATOM     58  C   UNL     1     -12.292   8.018  -6.305  1.00  0.00     0.049 A 
ATOM     59  C   UNL     1     -12.771   2.823  -4.215  1.00  0.00     0.074 A 
ATOM     60  C   UNL     1     -13.409   8.530  -6.939  1.00  0.00     0.029 A 
ATOM     61  N   UNL     1     -12.626   6.740  -5.876  1.00  0.00    -0.354 N 
ATOM     62  N   UNL     1     -12.789   3.998  -4.798  1.00  0.00    -0.248 NA
ATOM     63  C   UNL     1     -14.010   2.050  -4.387  1.00  0.00     0.031 C 
ATOM     64  C   UNL     1     -14.434   7.583  -6.851  1.00  0.00     0.029 A 
ATOM     65  C   UNL     1     -13.936   6.451  -6.226  1.00  0.00     0.049 A 
ATOM     66  H   UNL     1     -12.022   6.130  -5.394  1.00  0.00     0.167 HD
ATOM     67  C   UNL     1     -14.049   4.124  -5.363  1.00  0.00     0.074 A 
ATOM     68  C   UNL     1     -14.739   2.872  -5.129  1.00  0.00     0.031 C 
ATOM     69  C   UNL     1     -14.604   5.198  -5.977  1.00  0.00     0.037 A 
BRANCH  56  70
ATOM     70  C   UNL     1     -10.833  10.076  -6.509  1.00  0.00     0.064 A 
ATOM     71  C   UNL     1      -9.967  10.456  -7.545  1.00  0.00     0.173 A 
ATOM     72  C   UNL     1     -11.544  11.089  -5.845  1.00  0.00     0.173 A 
ATOM     73  F   UNL     1      -9.245   9.531  -8.195  1.00  0.00    -0.203 F 
ATOM     74  C   UNL     1      -9.797  11.797  -7.880  1.00  0.00     0.198 A 
ATOM     75  C   UNL     1     -11.400  12.425  -6.207  1.00  0.00     0.198 A 
ATOM     76  F   UNL     1     -12.382  10.783  -4.843  1.00  0.00    -0.203 F 
ATOM     77  F   UNL     1      -8.919  12.142  -8.832  1.00  0.00    -0.200 F 
ATOM     78  C   UNL     1     -10.519  12.779  -7.217  1.00  0.00     0.200 A 
ATOM     79  F   UNL     1     -12.107  13.370  -5.573  1.00  0.00    -0.200 F 
ATOM     80  F   UNL     1     -10.359  14.068  -7.546  1.00  0.00    -0.200 F 
ENDBRANCH  56  70
BRANCH  57  81
ATOM     81  C   UNL     1     -11.816   0.786  -2.896  1.00  0.00     0.064 A 
ATOM     82  C   UNL     1     -11.909  -0.260  -3.832  1.00  0.00     0.173 A 
ATOM     83  C   UNL     1     -11.878   0.432  -1.541  1.00  0.00     0.173 A 
ATOM     84  F   UNL     1     -11.892   0.012  -5.146  1.00  0.00    -0.203 F 
ATOM     85  C   UNL     1     -12.075  -1.587  -3.432  1.00  0.00     0.198 A 
ATOM     86  C   UNL     1     -11.988  -0.900  -1.141  1.00  0.00     0.198 A 
ATOM     87  F   UNL     1     -11.837   1.381  -0.595  1.00  0.00    -0.203 F 
ATOM     88  F   UNL     1     -12.233  -2.548  -4.353  1.00  0.00    -0.200 F 
ATOM     89  C   UNL     1     -12.099  -1.908  -2.086  1.00  0.00     0.200 A 
ATOM     90  F   UNL     1     -12.000  -1.205   0.164  1.00  0.00    -0.200 F 
ATOM     91  F   UNL     1     -12.246  -3.183  -1.700  1.00  0.00    -0.200 F 
ENDBRANCH  57  81
BRANCH  69  92
ATOM     92  C   UNL     1     -16.026   5.057  -6.440  1.00  0.00     0.064 A 
ATOM     93  C   UNL     1     -17.094   4.992  -5.531  1.00  0.00     0.173 A 
ATOM     94  C   UNL     1     -16.325   5.014  -7.809  1.00  0.00     0.173 A 
ATOM     95  F   UNL     1     -16.860   5.015  -4.210  1.00  0.00    -0.203 F 
ATOM     96  C   UNL     1     -18.405   4.854  -5.977  1.00  0.00     0.198 A 
ATOM     97  C   UNL     1     -17.640   4.911  -8.252  1.00  0.00     0.198 A 
ATOM     98  F   UNL     1     -15.341   5.081  -8.719  1.00  0.00    -0.203 F 
ATOM     99  F   UNL     1     -19.404   4.735  -5.091  1.00  0.00    -0.200 F 
ATOM    100  C   UNL     1     -18.678   4.821  -7.336  1.00  0.00     0.200 A 
ATOM    101  F   UNL     1     -17.903   4.894  -9.566  1.00  0.00    -0.200 F 
ATOM    102  F   UNL     1     -19.941   4.691  -7.765  1.00  0.00    -0.200 F 
ENDBRANCH  69  92
ENDBRANCH  43  44
ENDBRANCH  36  38
ENDBRANCH  35  36
ENDBRANCH  34  35
ENDBRANCH  33  34
ENDBRANCH  32  33
ENDBRANCH  31  32
ENDBRANCH  30  31
ENDBRANCH  29  30
ENDBRANCH   1  29
TORSDOF 25
