REMARK SMILES C[C@@H](Oc1ccc(/C=N/NC(=O)c2ccc(I)c(O)c2)cc1)C(=O)OCCOCCOCCOCCOC(=O)c1ccc(-c2c3nc(c(-c4c(F)c(F)c(F)c(F)c4F)c4ccc([nH]4)c(-c4c(F)c(F)c(F)c(F)c4F)c4nc(c(-c5c(F)c(F)c(F)c(F)c5F)c5ccc2[nH]5)C=C4)C=C3)cc1
REMARK SMILES IDX 29 1 28 2 27 3 26 4 25 5 23 6 24 7 2 8 1 9 3 10 4 11 5 12
REMARK SMILES IDX 22 13 6 14 21 15 7 16 8 17 9 18 10 19 11 20 12 22 13 23
REMARK SMILES IDX 14 24 20 25 15 26 18 27 16 28 17 29 19 30 30 32 31 33 32 34
REMARK SMILES IDX 33 35 34 36 35 37 36 38 37 39 38 40 39 41 40 42 41 43 102 44
REMARK SMILES IDX 42 45 101 46 43 47 44 48 45 49 95 50 46 51 100 52 94 53
REMARK SMILES IDX 96 54 47 55 99 56 93 57 92 58 48 60 80 61 60 62 79 63 61 64
REMARK SMILES IDX 64 65 78 66 97 67 62 68 63 69 77 71 98 72 65 73 49 74 50 75
REMARK SMILES IDX 58 76 51 77 52 78 56 79 59 80 53 81 54 82 57 83 55 84 81 85
REMARK SMILES IDX 82 86 90 87 83 88 84 89 88 90 91 91 85 92 86 93 89 94 87 95
REMARK SMILES IDX 66 96 67 97 75 98 68 99 69 100 73 101 76 102 70 103 71 104
REMARK SMILES IDX 74 105 72 106
REMARK H PARENT 10 21 19 31 96 59 64 70
REMARK Flexibility Score: inf
ROOT
ATOM      1  C   UNL     1      -1.969  -1.964   0.792  1.00  0.00     0.188 C 
ENDROOT
BRANCH   1   2
ATOM      2  O   UNL     1      -3.231  -1.715   1.399  1.00  0.00    -0.376 OA
BRANCH   2   3
ATOM      3  C   UNL     1      -3.767  -0.401   1.460  1.00  0.00     0.202 C 
BRANCH   3   4
ATOM      4  C   UNL     1      -2.968   0.773   2.050  1.00  0.00     0.261 C 
BRANCH   4   5
ATOM      5  O   UNL     1      -1.579   0.831   1.708  1.00  0.00    -0.461 OA
BRANCH   5   6
ATOM      6  C   UNL     1      -0.721   0.424   2.681  1.00  0.00     0.347 C 
ATOM      7  O   UNL     1      -1.063  -0.001   3.780  1.00  0.00    -0.248 OA
BRANCH   6   8
ATOM      8  C   UNL     1       0.742   0.542   2.265  1.00  0.00     0.279 C 
ATOM      9  C   UNL     1       1.019   0.004   0.867  1.00  0.00     0.066 C 
BRANCH   8  10
ATOM     10  O   UNL     1       1.148   1.915   2.378  1.00  0.00    -0.479 OA
BRANCH  10  11
ATOM     11  C   UNL     1       2.490   1.937   2.646  1.00  0.00     0.120 A 
ATOM     12  C   UNL     1       2.931   1.883   3.968  1.00  0.00     0.047 A 
ATOM     13  C   UNL     1       3.382   1.900   1.578  1.00  0.00     0.047 A 
ATOM     14  C   UNL     1       4.293   1.740   4.223  1.00  0.00     0.013 A 
ATOM     15  C   UNL     1       4.716   1.639   1.828  1.00  0.00     0.013 A 
ATOM     16  C   UNL     1       5.168   1.591   3.146  1.00  0.00    -0.005 A 
BRANCH  16  17
ATOM     17  C   UNL     1       6.615   1.507   3.339  1.00  0.00     0.141 C 
ATOM     18  N   UNL     1       7.225   2.454   3.973  1.00  0.00    -0.180 NA
BRANCH  18  19
ATOM     19  N   UNL     1       8.587   2.465   3.932  1.00  0.00    -0.243 N 
ATOM     20  C   UNL     1       9.434   2.315   2.846  1.00  0.00     0.271 C 
ATOM     21  H   UNL     1       9.033   2.599   4.800  1.00  0.00     0.194 HD
ATOM     22  O   UNL     1      10.654   2.316   3.000  1.00  0.00    -0.267 OA
BRANCH  20  23
ATOM     23  C   UNL     1       8.899   2.139   1.474  1.00  0.00     0.045 A 
ATOM     24  C   UNL     1       9.402   1.079   0.710  1.00  0.00     0.015 A 
ATOM     25  C   UNL     1       7.907   2.975   0.949  1.00  0.00     0.061 A 
ATOM     26  C   UNL     1       8.863   0.806  -0.549  1.00  0.00     0.019 A 
ATOM     27  C   UNL     1       7.362   2.691  -0.306  1.00  0.00     0.129 A 
ATOM     28  C   UNL     1       7.828   1.601  -1.050  1.00  0.00     0.055 A 
ATOM     29  I   UNL     1       6.978   1.068  -2.885  1.00  0.00    -0.040 I 
BRANCH  27  30
ATOM     30  O   UNL     1       6.314   3.439  -0.770  1.00  0.00    -0.507 OA
ATOM     31  H   UNL     1       5.943   3.255  -1.610  1.00  0.00     0.293 HD
ENDBRANCH  27  30
ENDBRANCH  20  23
ENDBRANCH  18  19
ENDBRANCH  16  17
ENDBRANCH  10  11
ENDBRANCH   8  10
ENDBRANCH   6   8
ENDBRANCH   5   6
ENDBRANCH   4   5
ENDBRANCH   3   4
ENDBRANCH   2   3
ENDBRANCH   1   2
BRANCH   1  32
ATOM     32  C   UNL     1      -1.603  -1.327  -0.557  1.00  0.00     0.188 C 
BRANCH  32  33
ATOM     33  O   UNL     1      -2.292  -0.127  -0.831  1.00  0.00    -0.377 OA
BRANCH  33  34
ATOM     34  C   UNL     1      -3.193  -0.185  -1.931  1.00  0.00     0.188 C 
BRANCH  34  35
ATOM     35  C   UNL     1      -4.135  -1.411  -2.002  1.00  0.00     0.188 C 
BRANCH  35  36
ATOM     36  O   UNL     1      -3.490  -2.677  -1.938  1.00  0.00    -0.376 OA
BRANCH  36  37
ATOM     37  C   UNL     1      -3.127  -3.328  -3.152  1.00  0.00     0.202 C 
BRANCH  37  38
ATOM     38  C   UNL     1      -2.090  -2.644  -4.065  1.00  0.00     0.261 C 
BRANCH  38  39
ATOM     39  O   UNL     1      -2.453  -1.354  -4.587  1.00  0.00    -0.460 OA
BRANCH  39  40
ATOM     40  C   UNL     1      -3.609  -1.250  -5.274  1.00  0.00     0.338 C 
ATOM     41  O   UNL     1      -4.352  -2.156  -5.609  1.00  0.00    -0.246 OA
BRANCH  40  42
ATOM     42  C   UNL     1      -3.955   0.186  -5.352  1.00  0.00     0.060 A 
ATOM     43  C   UNL     1      -5.153   0.618  -4.767  1.00  0.00     0.016 A 
ATOM     44  C   UNL     1      -3.101   1.102  -5.968  1.00  0.00     0.016 A 
ATOM     45  C   UNL     1      -5.505   1.966  -4.801  1.00  0.00     0.010 A 
ATOM     46  C   UNL     1      -3.473   2.449  -6.036  1.00  0.00     0.010 A 
ATOM     47  C   UNL     1      -4.686   2.883  -5.470  1.00  0.00    -0.014 A 
BRANCH  47  48
ATOM     48  C   UNL     1      -5.184   4.256  -5.722  1.00  0.00     0.031 A 
ATOM     49  C   UNL     1      -5.832   4.549  -7.046  1.00  0.00     0.074 A 
ATOM     50  C   UNL     1      -5.088   5.215  -4.785  1.00  0.00     0.049 A 
ATOM     51  N   UNL     1      -6.285   5.682  -7.518  1.00  0.00    -0.248 NA
ATOM     52  C   UNL     1      -5.995   3.408  -7.962  1.00  0.00     0.031 C 
ATOM     53  C   UNL     1      -4.532   5.036  -3.446  1.00  0.00     0.029 A 
ATOM     54  N   UNL     1      -5.449   6.540  -4.826  1.00  0.00    -0.354 N 
ATOM     55  C   UNL     1      -6.774   5.393  -8.785  1.00  0.00     0.074 A 
ATOM     56  C   UNL     1      -6.549   3.983  -9.018  1.00  0.00     0.031 C 
ATOM     57  C   UNL     1      -4.568   6.215  -2.799  1.00  0.00     0.029 A 
ATOM     58  C   UNL     1      -5.112   7.237  -3.692  1.00  0.00     0.049 A 
ATOM     59  H   UNL     1      -5.906   6.950  -5.596  1.00  0.00     0.167 HD
ATOM     60  C   UNL     1      -7.362   6.231  -9.671  1.00  0.00     0.037 A 
ATOM     61  C   UNL     1      -5.200   8.555  -3.425  1.00  0.00     0.037 A 
ATOM     62  C   UNL     1      -7.586   7.632  -9.432  1.00  0.00     0.049 A 
ATOM     63  C   UNL     1      -5.776   9.481  -4.470  1.00  0.00     0.074 A 
ATOM     64  C   UNL     1      -8.198   8.558 -10.258  1.00  0.00     0.029 A 
ATOM     65  N   UNL     1      -7.195   8.311  -8.288  1.00  0.00    -0.354 N 
ATOM     66  N   UNL     1      -6.268   9.197  -5.652  1.00  0.00    -0.248 NA
ATOM     67  C   UNL     1      -5.809  10.914  -4.141  1.00  0.00     0.031 C 
ATOM     68  C   UNL     1      -8.117   9.811  -9.644  1.00  0.00     0.029 A 
ATOM     69  C   UNL     1      -7.517   9.654  -8.405  1.00  0.00     0.049 A 
ATOM     70  H   UNL     1      -6.755   7.901  -7.510  1.00  0.00     0.167 HD
ATOM     71  C   UNL     1      -6.691  10.406  -6.193  1.00  0.00     0.074 A 
ATOM     72  C   UNL     1      -6.421  11.423  -5.200  1.00  0.00     0.031 C 
ATOM     73  C   UNL     1      -7.248  10.654  -7.404  1.00  0.00     0.037 A 
BRANCH  60  74
ATOM     74  C   UNL     1      -7.776   5.670 -10.999  1.00  0.00     0.064 A 
ATOM     75  C   UNL     1      -8.873   4.807 -11.130  1.00  0.00     0.173 A 
ATOM     76  C   UNL     1      -7.105   6.062 -12.168  1.00  0.00     0.173 A 
ATOM     77  F   UNL     1      -9.538   4.390 -10.042  1.00  0.00    -0.203 F 
ATOM     78  C   UNL     1      -9.277   4.349 -12.382  1.00  0.00     0.198 A 
ATOM     79  C   UNL     1      -7.529   5.627 -13.420  1.00  0.00     0.198 A 
ATOM     80  F   UNL     1      -6.049   6.887 -12.098  1.00  0.00    -0.203 F 
ATOM     81  F   UNL     1     -10.308   3.499 -12.482  1.00  0.00    -0.200 F 
ATOM     82  C   UNL     1      -8.613   4.768 -13.525  1.00  0.00     0.200 A 
ATOM     83  F   UNL     1      -6.895   6.044 -14.524  1.00  0.00    -0.200 F 
ATOM     84  F   UNL     1      -9.016   4.342 -14.731  1.00  0.00    -0.200 F 
ENDBRANCH  60  74
BRANCH  61  85
ATOM     85  C   UNL     1      -4.690   9.101  -2.137  1.00  0.00     0.064 A 
ATOM     86  C   UNL     1      -5.549   9.715  -1.215  1.00  0.00     0.173 A 
ATOM     87  C   UNL     1      -3.320   9.075  -1.830  1.00  0.00     0.173 A 
ATOM     88  F   UNL     1      -6.863   9.793  -1.473  1.00  0.00    -0.203 F 
ATOM     89  C   UNL     1      -5.056  10.313  -0.056  1.00  0.00     0.198 A 
ATOM     90  C   UNL     1      -2.833   9.640  -0.653  1.00  0.00     0.198 A 
ATOM     91  F   UNL     1      -2.451   8.506  -2.678  1.00  0.00    -0.203 F 
ATOM     92  F   UNL     1      -5.891  10.956   0.771  1.00  0.00    -0.200 F 
ATOM     93  C   UNL     1      -3.699  10.271   0.226  1.00  0.00     0.200 A 
ATOM     94  F   UNL     1      -1.522   9.586  -0.380  1.00  0.00    -0.200 F 
ATOM     95  F   UNL     1      -3.224  10.852   1.336  1.00  0.00    -0.200 F 
ENDBRANCH  61  85
BRANCH  73  96
ATOM     96  C   UNL     1      -7.635  12.073  -7.712  1.00  0.00     0.064 A 
ATOM     97  C   UNL     1      -6.672  13.070  -7.931  1.00  0.00     0.173 A 
ATOM     98  C   UNL     1      -8.987  12.432  -7.833  1.00  0.00     0.173 A 
ATOM     99  F   UNL     1      -5.366  12.784  -7.816  1.00  0.00    -0.203 F 
ATOM    100  C   UNL     1      -7.048  14.378  -8.227  1.00  0.00     0.198 A 
ATOM    101  C   UNL     1      -9.358  13.732  -8.165  1.00  0.00     0.198 A 
ATOM    102  F   UNL     1      -9.949  11.517  -7.645  1.00  0.00    -0.203 F 
ATOM    103  F   UNL     1      -6.111  15.324  -8.377  1.00  0.00    -0.200 F 
ATOM    104  C   UNL     1      -8.390  14.705  -8.352  1.00  0.00     0.200 A 
ATOM    105  F   UNL     1     -10.655  14.041  -8.305  1.00  0.00    -0.200 F 
ATOM    106  F   UNL     1      -8.749  15.962  -8.647  1.00  0.00    -0.200 F 
ENDBRANCH  73  96
ENDBRANCH  47  48
ENDBRANCH  40  42
ENDBRANCH  39  40
ENDBRANCH  38  39
ENDBRANCH  37  38
ENDBRANCH  36  37
ENDBRANCH  35  36
ENDBRANCH  34  35
ENDBRANCH  33  34
ENDBRANCH  32  33
ENDBRANCH   1  32
TORSDOF 26
