REMARK SMILES O=C(OCCOCCOCCOCCOC(=O)c1cc(N2C(=O)C[C@H](Nc3ccccc3O)C2=O)ccc1O)c1ccc(-c2c3nc(c(-c4c(F)c(F)c(F)c(F)c4F)c4ccc([nH]4)c(-c4c(F)c(F)c(F)c(F)c4F)c4nc(c(-c5c(F)c(F)c(F)c(F)c5F)c5ccc2[nH]5)C=C4)C=C3)cc1
REMARK SMILES IDX 10 1 9 2 8 3 7 4 6 5 5 6 4 7 3 8 2 9 1 10 40 11 41 12 102 13
REMARK SMILES IDX 42 14 101 15 43 16 44 17 45 18 95 19 46 20 100 21 94 22
REMARK SMILES IDX 96 23 47 24 99 25 93 26 92 27 48 29 80 30 60 31 79 32 61 33
REMARK SMILES IDX 64 34 78 35 97 36 62 37 63 38 77 40 98 41 65 42 49 43 50 44
REMARK SMILES IDX 58 45 51 46 52 47 56 48 59 49 53 50 54 51 57 52 55 53 81 54
REMARK SMILES IDX 82 55 90 56 83 57 84 58 88 59 91 60 85 61 86 62 89 63 87 64
REMARK SMILES IDX 66 65 67 66 75 67 68 68 69 69 73 70 76 71 70 72 71 73 74 74
REMARK SMILES IDX 72 75 11 76 12 77 13 78 14 79 15 80 16 81 17 82 18 83 19 84
REMARK SMILES IDX 38 85 20 86 37 87 36 88 39 89 21 91 22 92 34 93 23 94 24 95
REMARK SMILES IDX 25 96 35 97 26 98 27 100 28 101 32 102 29 103 31 104 30 105
REMARK SMILES IDX 33 106
REMARK H PARENT 96 28 64 39 39 90 26 99 33 107
REMARK Flexibility Score: inf
ROOT
ATOM      1  C   UNL     1       3.772   3.306  -2.034  1.00  0.00     0.188 C 
ENDROOT
BRANCH   1   2
ATOM      2  O   UNL     1       2.351   3.368  -1.967  1.00  0.00    -0.377 OA
BRANCH   2   3
ATOM      3  C   UNL     1       1.716   2.490  -1.042  1.00  0.00     0.188 C 
BRANCH   3   4
ATOM      4  C   UNL     1       2.130   1.026  -1.169  1.00  0.00     0.188 C 
BRANCH   4   5
ATOM      5  O   UNL     1       3.468   0.847  -0.693  1.00  0.00    -0.376 OA
BRANCH   5   6
ATOM      6  C   UNL     1       4.266  -0.050  -1.467  1.00  0.00     0.202 C 
BRANCH   6   7
ATOM      7  C   UNL     1       4.172  -1.499  -0.991  1.00  0.00     0.261 C 
BRANCH   7   8
ATOM      8  O   UNL     1       2.842  -1.848  -0.580  1.00  0.00    -0.460 OA
BRANCH   8   9
ATOM      9  C   UNL     1       2.277  -1.706   0.645  1.00  0.00     0.338 C 
ATOM     10  O   UNL     1       1.103  -2.053   0.778  1.00  0.00    -0.246 OA
BRANCH   9  11
ATOM     11  C   UNL     1       2.986  -1.194   1.865  1.00  0.00     0.060 A 
ATOM     12  C   UNL     1       4.148  -0.417   1.884  1.00  0.00     0.016 A 
ATOM     13  C   UNL     1       2.393  -1.500   3.105  1.00  0.00     0.016 A 
ATOM     14  C   UNL     1       4.747  -0.025   3.075  1.00  0.00     0.010 A 
ATOM     15  C   UNL     1       2.976  -1.097   4.311  1.00  0.00     0.010 A 
ATOM     16  C   UNL     1       4.181  -0.391   4.292  1.00  0.00    -0.014 A 
BRANCH  16  17
ATOM     17  C   UNL     1       4.989  -0.203   5.509  1.00  0.00     0.031 A 
ATOM     18  C   UNL     1       5.750  -1.388   6.023  1.00  0.00     0.074 A 
ATOM     19  C   UNL     1       5.147   1.022   6.037  1.00  0.00     0.049 A 
ATOM     20  N   UNL     1       6.505  -1.498   7.082  1.00  0.00    -0.248 NA
ATOM     21  C   UNL     1       5.660  -2.618   5.216  1.00  0.00     0.031 C 
ATOM     22  C   UNL     1       4.553   2.249   5.508  1.00  0.00     0.029 A 
ATOM     23  N   UNL     1       5.876   1.438   7.118  1.00  0.00    -0.354 N 
ATOM     24  C   UNL     1       6.956  -2.811   7.082  1.00  0.00     0.074 A 
ATOM     25  C   UNL     1       6.395  -3.463   5.921  1.00  0.00     0.031 C 
ATOM     26  C   UNL     1       4.951   3.287   6.263  1.00  0.00     0.029 A 
ATOM     27  C   UNL     1       5.775   2.786   7.358  1.00  0.00     0.049 A 
ATOM     28  H   UNL     1       6.421   0.831   7.669  1.00  0.00     0.167 HD
ATOM     29  C   UNL     1       7.762  -3.415   7.984  1.00  0.00     0.037 A 
ATOM     30  C   UNL     1       6.271   3.514   8.377  1.00  0.00     0.037 A 
ATOM     31  C   UNL     1       8.300  -2.738   9.131  1.00  0.00     0.049 A 
ATOM     32  C   UNL     1       7.085   2.797   9.424  1.00  0.00     0.074 A 
ATOM     33  C   UNL     1       9.067  -3.247  10.161  1.00  0.00     0.029 A 
ATOM     34  N   UNL     1       8.116  -1.385   9.392  1.00  0.00    -0.354 N 
ATOM     35  N   UNL     1       7.450   1.536   9.469  1.00  0.00    -0.248 NA
ATOM     36  C   UNL     1       7.542   3.594  10.569  1.00  0.00     0.031 C 
ATOM     37  C   UNL     1       9.311  -2.210  11.068  1.00  0.00     0.029 A 
ATOM     38  C   UNL     1       8.741  -1.044  10.577  1.00  0.00     0.049 A 
ATOM     39  H   UNL     1       7.616  -0.762   8.818  1.00  0.00     0.167 HD
ATOM     40  C   UNL     1       8.188   1.390  10.634  1.00  0.00     0.074 A 
ATOM     41  C   UNL     1       8.237   2.699  11.257  1.00  0.00     0.031 C 
ATOM     42  C   UNL     1       8.768   0.279  11.152  1.00  0.00     0.037 A 
BRANCH  29  43
ATOM     43  C   UNL     1       8.020  -4.880   7.794  1.00  0.00     0.064 A 
ATOM     44  C   UNL     1       8.836  -5.365   6.761  1.00  0.00     0.173 A 
ATOM     45  C   UNL     1       7.395  -5.816   8.631  1.00  0.00     0.173 A 
ATOM     46  F   UNL     1       9.430  -4.513   5.912  1.00  0.00    -0.203 F 
ATOM     47  C   UNL     1       8.991  -6.735   6.554  1.00  0.00     0.198 A 
ATOM     48  C   UNL     1       7.572  -7.184   8.437  1.00  0.00     0.198 A 
ATOM     49  F   UNL     1       6.595  -5.406   9.626  1.00  0.00    -0.203 F 
ATOM     50  F   UNL     1       9.722  -7.177   5.521  1.00  0.00    -0.200 F 
ATOM     51  C   UNL     1       8.361  -7.642   7.393  1.00  0.00     0.200 A 
ATOM     52  F   UNL     1       6.962  -8.059   9.249  1.00  0.00    -0.200 F 
ATOM     53  F   UNL     1       8.500  -8.959   7.184  1.00  0.00    -0.200 F 
ENDBRANCH  29  43
BRANCH  30  54
ATOM     54  C   UNL     1       5.971   4.967   8.479  1.00  0.00     0.064 A 
ATOM     55  C   UNL     1       6.983   5.933   8.386  1.00  0.00     0.173 A 
ATOM     56  C   UNL     1       4.658   5.423   8.683  1.00  0.00     0.173 A 
ATOM     57  F   UNL     1       8.258   5.553   8.218  1.00  0.00    -0.203 F 
ATOM     58  C   UNL     1       6.696   7.293   8.506  1.00  0.00     0.198 A 
ATOM     59  C   UNL     1       4.369   6.783   8.772  1.00  0.00     0.198 A 
ATOM     60  F   UNL     1       3.650   4.545   8.789  1.00  0.00    -0.203 F 
ATOM     61  F   UNL     1       7.689   8.191   8.460  1.00  0.00    -0.200 F 
ATOM     62  C   UNL     1       5.389   7.717   8.691  1.00  0.00     0.200 A 
ATOM     63  F   UNL     1       3.102   7.187   8.939  1.00  0.00    -0.200 F 
ATOM     64  F   UNL     1       5.114   9.024   8.802  1.00  0.00    -0.200 F 
ENDBRANCH  30  54
BRANCH  42  65
ATOM     65  C   UNL     1       9.522   0.444  12.436  1.00  0.00     0.064 A 
ATOM     66  C   UNL     1       8.859   0.618  13.658  1.00  0.00     0.173 A 
ATOM     67  C   UNL     1      10.923   0.365  12.447  1.00  0.00     0.173 A 
ATOM     68  F   UNL     1       7.521   0.713  13.693  1.00  0.00    -0.203 F 
ATOM     69  C   UNL     1       9.574   0.728  14.847  1.00  0.00     0.198 A 
ATOM     70  C   UNL     1      11.632   0.445  13.640  1.00  0.00     0.198 A 
ATOM     71  F   UNL     1      11.599   0.189  11.301  1.00  0.00    -0.203 F 
ATOM     72  F   UNL     1       8.924   0.934  16.000  1.00  0.00    -0.200 F 
ATOM     73  C   UNL     1      10.958   0.632  14.837  1.00  0.00     0.200 A 
ATOM     74  F   UNL     1      12.968   0.337  13.631  1.00  0.00    -0.200 F 
ATOM     75  F   UNL     1      11.644   0.725  15.985  1.00  0.00    -0.200 F 
ENDBRANCH  42  65
ENDBRANCH  16  17
ENDBRANCH   9  11
ENDBRANCH   8   9
ENDBRANCH   7   8
ENDBRANCH   6   7
ENDBRANCH   5   6
ENDBRANCH   4   5
ENDBRANCH   3   4
ENDBRANCH   2   3
ENDBRANCH   1   2
BRANCH   1  76
ATOM     76  C   UNL     1       4.581   3.572  -0.745  1.00  0.00     0.188 C 
BRANCH  76  77
ATOM     77  O   UNL     1       3.814   4.033   0.361  1.00  0.00    -0.376 OA
BRANCH  77  78
ATOM     78  C   UNL     1       3.898   5.432   0.620  1.00  0.00     0.202 C 
BRANCH  78  79
ATOM     79  C   UNL     1       3.186   6.317  -0.407  1.00  0.00     0.261 C 
BRANCH  79  80
ATOM     80  O   UNL     1       3.725   6.265  -1.739  1.00  0.00    -0.460 OA
BRANCH  80  81
ATOM     81  C   UNL     1       5.006   6.643  -1.964  1.00  0.00     0.342 C 
ATOM     82  O   UNL     1       5.805   7.056  -1.142  1.00  0.00    -0.246 OA
BRANCH  81  83
ATOM     83  C   UNL     1       5.354   6.197  -3.336  1.00  0.00     0.103 A 
ATOM     84  C   UNL     1       6.377   5.239  -3.489  1.00  0.00     0.046 A 
ATOM     85  C   UNL     1       4.576   6.568  -4.436  1.00  0.00     0.130 A 
ATOM     86  C   UNL     1       6.589   4.638  -4.737  1.00  0.00     0.053 A 
ATOM     87  C   UNL     1       4.814   5.998  -5.686  1.00  0.00     0.049 A 
ATOM     88  C   UNL     1       5.819   5.036  -5.836  1.00  0.00     0.031 A 
BRANCH  85  89
ATOM     89  O   UNL     1       3.573   7.484  -4.293  1.00  0.00    -0.507 OA
ATOM     90  H   UNL     1       3.408   7.870  -3.455  1.00  0.00     0.293 HD
ENDBRANCH  85  89
BRANCH  86  91
ATOM     91  N   UNL     1       7.545   3.614  -4.892  1.00  0.00    -0.249 N 
ATOM     92  C   UNL     1       8.736   3.804  -5.535  1.00  0.00     0.236 C 
ATOM     93  C   UNL     1       7.306   2.292  -4.583  1.00  0.00     0.256 C 
ATOM     94  O   UNL     1       9.158   4.842  -6.027  1.00  0.00    -0.274 OA
ATOM     95  C   UNL     1       9.505   2.519  -5.545  1.00  0.00     0.136 C 
ATOM     96  C   UNL     1       8.542   1.478  -4.980  1.00  0.00     0.179 C 
ATOM     97  O   UNL     1       6.279   1.840  -4.091  1.00  0.00    -0.272 OA
BRANCH  96  98
ATOM     98  N   UNL     1       8.270   0.461  -6.005  1.00  0.00    -0.370 N 
ATOM     99  H   UNL     1       7.743   0.692  -6.803  1.00  0.00     0.161 HD
BRANCH  98 100
ATOM    100  C   UNL     1       8.762  -0.834  -5.841  1.00  0.00     0.077 A 
ATOM    101  C   UNL     1       9.648  -1.358  -6.795  1.00  0.00     0.029 A 
ATOM    102  C   UNL     1       8.455  -1.642  -4.734  1.00  0.00     0.138 A 
ATOM    103  C   UNL     1      10.187  -2.644  -6.659  1.00  0.00     0.002 A 
ATOM    104  C   UNL     1       8.974  -2.934  -4.599  1.00  0.00     0.048 A 
ATOM    105  C   UNL     1       9.843  -3.435  -5.565  1.00  0.00     0.004 A 
BRANCH 102 106
ATOM    106  O   UNL     1       7.587  -1.176  -3.781  1.00  0.00    -0.506 OA
ATOM    107  H   UNL     1       7.229  -0.313  -3.854  1.00  0.00     0.293 HD
ENDBRANCH 102 106
ENDBRANCH  98 100
ENDBRANCH  96  98
ENDBRANCH  86  91
ENDBRANCH  81  83
ENDBRANCH  80  81
ENDBRANCH  79  80
ENDBRANCH  78  79
ENDBRANCH  77  78
ENDBRANCH  76  77
ENDBRANCH   1  76
TORSDOF 25
