REMARK SMILES O=C(OCCOCCOCCOCCOC(=O)c1c(F)cccc1NC(=O)C1CCCCC1)c1ccc(-c2c3nc(c(-c4c(F)c(F)c(F)c(F)c4F)c4ccc([nH]4)c(-c4c(F)c(F)c(F)c(F)c4F)c4nc(c(-c5c(F)c(F)c(F)c(F)c5F)c5ccc2[nH]5)C=C4)C=C3)cc1
REMARK SMILES IDX 9 1 8 2 7 3 6 4 5 5 4 6 3 7 2 8 1 9 34 10 35 11 96 12 36 13
REMARK SMILES IDX 95 14 37 15 38 16 39 17 89 18 40 19 94 20 88 21 90 22 41 23
REMARK SMILES IDX 93 24 87 25 86 26 42 28 74 29 54 30 73 31 55 32 58 33 72 34
REMARK SMILES IDX 91 35 56 36 57 37 71 39 92 40 59 41 43 42 44 43 52 44 45 45
REMARK SMILES IDX 46 46 50 47 53 48 47 49 48 50 51 51 49 52 75 53 76 54 84 55
REMARK SMILES IDX 77 56 78 57 82 58 85 59 79 60 80 61 83 62 81 63 60 64 61 65
REMARK SMILES IDX 69 66 62 67 63 68 67 69 70 70 64 71 65 72 68 73 66 74 10 75
REMARK SMILES IDX 11 76 12 77 13 78 14 79 15 80 16 81 17 82 18 83 19 84 24 85
REMARK SMILES IDX 20 86 21 87 23 88 22 89 25 90 26 91 27 93 28 94 29 95 33 96
REMARK SMILES IDX 30 97 32 98 31 99
REMARK H PARENT 90 27 58 38 25 92
REMARK Flexibility Score: inf
ROOT
ATOM      1  O   UNL     1       2.308   1.555  -3.346  1.00  0.00    -0.377 OA
ENDROOT
BRANCH   1   2
ATOM      2  C   UNL     1       1.640   1.300  -2.116  1.00  0.00     0.188 C 
BRANCH   2   3
ATOM      3  C   UNL     1       2.091   0.009  -1.445  1.00  0.00     0.188 C 
BRANCH   3   4
ATOM      4  O   UNL     1       3.404   0.185  -0.908  1.00  0.00    -0.376 OA
BRANCH   4   5
ATOM      5  C   UNL     1       4.242  -0.967  -0.949  1.00  0.00     0.202 C 
BRANCH   5   6
ATOM      6  C   UNL     1       3.990  -1.954   0.193  1.00  0.00     0.261 C 
BRANCH   6   7
ATOM      7  O   UNL     1       2.628  -1.938   0.654  1.00  0.00    -0.460 OA
BRANCH   7   8
ATOM      8  C   UNL     1       2.081  -1.175   1.634  1.00  0.00     0.338 C 
ATOM      9  O   UNL     1       0.894  -1.345   1.911  1.00  0.00    -0.246 OA
BRANCH   8  10
ATOM     10  C   UNL     1       2.838  -0.165   2.436  1.00  0.00     0.060 A 
ATOM     11  C   UNL     1       3.966   0.534   2.006  1.00  0.00     0.016 A 
ATOM     12  C   UNL     1       2.337   0.133   3.716  1.00  0.00     0.016 A 
ATOM     13  C   UNL     1       4.652   1.400   2.845  1.00  0.00     0.010 A 
ATOM     14  C   UNL     1       2.999   1.030   4.561  1.00  0.00     0.010 A 
ATOM     15  C   UNL     1       4.196   1.619   4.141  1.00  0.00    -0.014 A 
BRANCH  15  16
ATOM     16  C   UNL     1       5.131   2.248   5.092  1.00  0.00     0.031 A 
ATOM     17  C   UNL     1       5.835   1.346   6.063  1.00  0.00     0.074 A 
ATOM     18  C   UNL     1       5.480   3.539   4.957  1.00  0.00     0.049 A 
ATOM     19  N   UNL     1       6.659   1.642   7.031  1.00  0.00    -0.248 NA
ATOM     20  C   UNL     1       5.584  -0.099   5.911  1.00  0.00     0.031 C 
ATOM     21  C   UNL     1       4.969   4.445   3.928  1.00  0.00     0.029 A 
ATOM     22  N   UNL     1       6.385   4.297   5.652  1.00  0.00    -0.354 N 
ATOM     23  C   UNL     1       6.983   0.430   7.627  1.00  0.00     0.074 A 
ATOM     24  C   UNL     1       6.271  -0.607   6.919  1.00  0.00     0.031 C 
ATOM     25  C   UNL     1       5.601   5.625   4.032  1.00  0.00     0.029 A 
ATOM     26  C   UNL     1       6.502   5.580   5.180  1.00  0.00     0.049 A 
ATOM     27  H   UNL     1       6.901   3.954   6.417  1.00  0.00     0.167 HD
ATOM     28  C   UNL     1       7.804   0.213   8.678  1.00  0.00     0.037 A 
ATOM     29  C   UNL     1       7.238   6.605   5.651  1.00  0.00     0.037 A 
ATOM     30  C   UNL     1       8.518   1.268   9.341  1.00  0.00     0.049 A 
ATOM     31  C   UNL     1       8.082   6.362   6.874  1.00  0.00     0.074 A 
ATOM     32  C   UNL     1       9.299   1.209  10.477  1.00  0.00     0.029 A 
ATOM     33  N   UNL     1       8.544   2.585   8.896  1.00  0.00    -0.354 N 
ATOM     34  N   UNL     1       8.277   5.243   7.532  1.00  0.00    -0.248 NA
ATOM     35  C   UNL     1       8.786   7.520   7.437  1.00  0.00     0.031 C 
ATOM     36  C   UNL     1       9.774   2.499  10.739  1.00  0.00     0.029 A 
ATOM     37  C   UNL     1       9.327   3.351   9.738  1.00  0.00     0.049 A 
ATOM     38  H   UNL     1       8.075   2.921   8.099  1.00  0.00     0.167 HD
ATOM     39  C   UNL     1       9.125   5.557   8.584  1.00  0.00     0.074 A 
ATOM     40  C   UNL     1       9.427   6.970   8.461  1.00  0.00     0.031 C 
ATOM     41  C   UNL     1       9.604   4.756   9.569  1.00  0.00     0.037 A 
BRANCH  28  42
ATOM     42  C   UNL     1       7.896  -1.191   9.195  1.00  0.00     0.064 A 
ATOM     43  C   UNL     1       7.262  -1.540  10.397  1.00  0.00     0.173 A 
ATOM     44  C   UNL     1       8.563  -2.203   8.488  1.00  0.00     0.173 A 
ATOM     45  F   UNL     1       6.601  -0.612  11.106  1.00  0.00    -0.203 F 
ATOM     46  C   UNL     1       7.289  -2.849  10.870  1.00  0.00     0.198 A 
ATOM     47  C   UNL     1       8.565  -3.518   8.951  1.00  0.00     0.198 A 
ATOM     48  F   UNL     1       9.154  -1.931   7.315  1.00  0.00    -0.203 F 
ATOM     49  F   UNL     1       6.677  -3.156  12.023  1.00  0.00    -0.200 F 
ATOM     50  C   UNL     1       7.932  -3.838  10.143  1.00  0.00     0.200 A 
ATOM     51  F   UNL     1       9.152  -4.481   8.227  1.00  0.00    -0.200 F 
ATOM     52  F   UNL     1       7.926  -5.105  10.581  1.00  0.00    -0.200 F 
ENDBRANCH  28  42
BRANCH  29  53
ATOM     53  C   UNL     1       7.171   7.934   4.986  1.00  0.00     0.064 A 
ATOM     54  C   UNL     1       5.981   8.679   4.971  1.00  0.00     0.173 A 
ATOM     55  C   UNL     1       8.279   8.473   4.318  1.00  0.00     0.173 A 
ATOM     56  F   UNL     1       4.890   8.217   5.600  1.00  0.00    -0.203 F 
ATOM     57  C   UNL     1       5.891   9.888   4.284  1.00  0.00     0.198 A 
ATOM     58  C   UNL     1       8.197   9.698   3.655  1.00  0.00     0.198 A 
ATOM     59  F   UNL     1       9.448   7.817   4.324  1.00  0.00    -0.203 F 
ATOM     60  F   UNL     1       4.727  10.553   4.249  1.00  0.00    -0.200 F 
ATOM     61  C   UNL     1       7.000  10.398   3.628  1.00  0.00     0.200 A 
ATOM     62  F   UNL     1       9.278  10.201   3.045  1.00  0.00    -0.200 F 
ATOM     63  F   UNL     1       6.916  11.565   2.974  1.00  0.00    -0.200 F 
ENDBRANCH  29  53
BRANCH  41  64
ATOM     64  C   UNL     1      10.513   5.385  10.578  1.00  0.00     0.064 A 
ATOM     65  C   UNL     1      11.882   5.077  10.583  1.00  0.00     0.173 A 
ATOM     66  C   UNL     1      10.014   6.210  11.594  1.00  0.00     0.173 A 
ATOM     67  F   UNL     1      12.399   4.281   9.635  1.00  0.00    -0.203 F 
ATOM     68  C   UNL     1      12.716   5.562  11.583  1.00  0.00     0.198 A 
ATOM     69  C   UNL     1      10.857   6.715  12.578  1.00  0.00     0.198 A 
ATOM     70  F   UNL     1       8.713   6.537  11.621  1.00  0.00    -0.203 F 
ATOM     71  F   UNL     1      14.014   5.227  11.592  1.00  0.00    -0.200 F 
ATOM     72  C   UNL     1      12.204   6.382  12.578  1.00  0.00     0.200 A 
ATOM     73  F   UNL     1      10.367   7.522  13.528  1.00  0.00    -0.200 F 
ATOM     74  F   UNL     1      13.011   6.852  13.540  1.00  0.00    -0.200 F 
ENDBRANCH  41  64
ENDBRANCH  15  16
ENDBRANCH   8  10
ENDBRANCH   7   8
ENDBRANCH   6   7
ENDBRANCH   5   6
ENDBRANCH   4   5
ENDBRANCH   3   4
ENDBRANCH   2   3
ENDBRANCH   1   2
BRANCH   1  75
ATOM     75  C   UNL     1       3.730   1.604  -3.295  1.00  0.00     0.188 C 
BRANCH  75  76
ATOM     76  C   UNL     1       4.389   2.590  -2.312  1.00  0.00     0.188 C 
BRANCH  76  77
ATOM     77  O   UNL     1       3.502   3.612  -1.879  1.00  0.00    -0.376 OA
BRANCH  77  78
ATOM     78  C   UNL     1       3.807   4.915  -2.352  1.00  0.00     0.202 C 
BRANCH  78  79
ATOM     79  C   UNL     1       3.435   5.173  -3.814  1.00  0.00     0.261 C 
BRANCH  79  80
ATOM     80  O   UNL     1       3.932   4.239  -4.788  1.00  0.00    -0.460 OA
BRANCH  80  81
ATOM     81  C   UNL     1       5.253   4.180  -5.102  1.00  0.00     0.343 C 
ATOM     82  O   UNL     1       6.163   4.744  -4.557  1.00  0.00    -0.246 OA
BRANCH  81  83
ATOM     83  C   UNL     1       5.376   3.100  -6.119  1.00  0.00     0.119 A 
ATOM     84  C   UNL     1       4.572   3.235  -7.258  1.00  0.00     0.139 A 
ATOM     85  C   UNL     1       6.086   1.896  -5.867  1.00  0.00     0.058 A 
ATOM     86  F   UNL     1       3.912   4.377  -7.498  1.00  0.00    -0.206 F 
ATOM     87  C   UNL     1       4.402   2.180  -8.141  1.00  0.00     0.040 A 
ATOM     88  C   UNL     1       5.849   0.832  -6.749  1.00  0.00     0.027 A 
ATOM     89  C   UNL     1       5.025   0.971  -7.874  1.00  0.00     0.005 A 
BRANCH  85  90
ATOM     90  N   UNL     1       6.893   1.784  -4.704  1.00  0.00    -0.325 N 
ATOM     91  C   UNL     1       7.681   0.816  -4.140  1.00  0.00     0.227 C 
ATOM     92  H   UNL     1       6.883   2.609  -4.168  1.00  0.00     0.169 HD
ATOM     93  O   UNL     1       8.074   1.023  -2.986  1.00  0.00    -0.274 OA
BRANCH  91  94
ATOM     94  C   UNL     1       8.068  -0.470  -4.856  1.00  0.00     0.079 C 
ATOM     95  C   UNL     1       9.534  -0.849  -4.595  1.00  0.00     0.013 C 
ATOM     96  C   UNL     1       7.174  -1.638  -4.418  1.00  0.00     0.013 C 
ATOM     97  C   UNL     1       9.906  -2.073  -5.434  1.00  0.00     0.001 C 
ATOM     98  C   UNL     1       7.512  -2.910  -5.199  1.00  0.00     0.001 C 
ATOM     99  C   UNL     1       8.999  -3.264  -5.131  1.00  0.00     0.000 C 
ENDBRANCH  91  94
ENDBRANCH  85  90
ENDBRANCH  81  83
ENDBRANCH  80  81
ENDBRANCH  79  80
ENDBRANCH  78  79
ENDBRANCH  77  78
ENDBRANCH  76  77
ENDBRANCH  75  76
ENDBRANCH   1  75
TORSDOF 22
