REMARK SMILES CC[C@@H]1CCC[C@@](CC[NH+]2CCOCC2)(C(=O)OCCOCCOCCOCCOC(=O)c2ccc(-c3c4nc(c(-c5c(F)c(F)c(F)c(F)c5F)c5ccc([nH]5)c(-c5c(F)c(F)c(F)c(F)c5F)c5nc(c(-c6c(F)c(F)c(F)c(F)c6F)c6ccc3[nH]6)C=C5)C=C4)cc2)C1
REMARK SMILES IDX 23 1 22 2 21 3 20 4 19 5 18 6 16 7 17 8 7 9 3 10 4 11 96 12
REMARK SMILES IDX 5 13 6 14 2 15 1 16 8 17 9 18 10 19 11 20 15 21 12 23 14 24
REMARK SMILES IDX 13 25 24 26 25 27 26 28 27 29 28 30 29 31 30 32 31 33 32 34
REMARK SMILES IDX 33 35 34 36 95 37 35 38 94 39 36 40 37 41 38 42 88 43 39 44
REMARK SMILES IDX 93 45 87 46 89 47 40 48 92 49 86 50 85 51 41 53 73 54 53 55
REMARK SMILES IDX 72 56 54 57 57 58 71 59 90 60 55 61 56 62 70 64 91 65 58 66
REMARK SMILES IDX 42 67 43 68 51 69 44 70 45 71 49 72 52 73 46 74 47 75 50 76
REMARK SMILES IDX 48 77 74 78 75 79 83 80 76 81 77 82 81 83 84 84 78 85 79 86
REMARK SMILES IDX 82 87 80 88 59 89 60 90 68 91 61 92 62 93 66 94 69 95 63 96
REMARK SMILES IDX 64 97 67 98 65 99
REMARK H PARENT 10 22 89 52 57 63
REMARK Flexibility Score: inf
ROOT
ATOM      1  C   UNL     1       3.349   3.673  -0.936  1.00  0.00     0.188 C 
ENDROOT
BRANCH   1   2
ATOM      2  C   UNL     1       2.808   3.216  -2.290  1.00  0.00     0.188 C 
BRANCH   2   3
ATOM      3  O   UNL     1       2.980   4.067  -3.412  1.00  0.00    -0.376 OA
BRANCH   3   4
ATOM      4  C   UNL     1       2.709   5.457  -3.278  1.00  0.00     0.202 C 
BRANCH   4   5
ATOM      5  C   UNL     1       1.451   5.920  -2.534  1.00  0.00     0.261 C 
BRANCH   5   6
ATOM      6  O   UNL     1       1.428   5.718  -1.099  1.00  0.00    -0.463 OA
BRANCH   6   7
ATOM      7  C   UNL     1       0.446   4.913  -0.612  1.00  0.00     0.312 C 
ATOM      8  O   UNL     1      -0.284   4.237  -1.335  1.00  0.00    -0.252 OA
BRANCH   7   9
ATOM      9  C   UNL     1       0.261   4.949   0.929  1.00  0.00     0.074 C 
ATOM     10  C   UNL     1       0.746   2.445   1.245  1.00  0.00    -0.010 C 
ATOM     11  C   UNL     1       1.820   2.694   2.304  1.00  0.00     0.003 C 
ATOM     12  C   UNL     1      -0.312   3.553   1.353  1.00  0.00     0.022 C 
ATOM     13  C   UNL     1       2.412   4.103   2.273  1.00  0.00     0.001 C 
ATOM     14  C   UNL     1       1.496   5.260   1.821  1.00  0.00     0.019 C 
BRANCH  10  15
ATOM     15  C   UNL     1       0.164   1.021   1.343  1.00  0.00     0.000 C 
ATOM     16  C   UNL     1       0.813   0.096   0.311  1.00  0.00     0.004 C 
ENDBRANCH  10  15
BRANCH   9  17
ATOM     17  C   UNL     1      -0.854   6.015   1.192  1.00  0.00     0.080 C 
BRANCH  17  18
ATOM     18  C   UNL     1      -0.551   7.497   0.861  1.00  0.00     0.263 C 
BRANCH  18  19
ATOM     19  N   UNL     1      -0.306   7.844  -0.542  1.00  0.00    -0.331 N 
ATOM     20  C   UNL     1      -0.093   9.296  -0.734  1.00  0.00     0.291 C 
ATOM     21  C   UNL     1      -1.322   7.394  -1.514  1.00  0.00     0.291 C 
ATOM     22  H   UNL     1       0.545   7.319  -0.744  1.00  0.00     0.348 HD
ATOM     23  C   UNL     1      -1.399  10.111  -0.804  1.00  0.00     0.221 C 
ATOM     24  C   UNL     1      -2.601   8.222  -1.527  1.00  0.00     0.221 C 
ATOM     25  O   UNL     1      -2.304   9.597  -1.789  1.00  0.00    -0.370 OA
ENDBRANCH  18  19
ENDBRANCH  17  18
ENDBRANCH   9  17
ENDBRANCH   7   9
ENDBRANCH   6   7
ENDBRANCH   5   6
ENDBRANCH   4   5
ENDBRANCH   3   4
ENDBRANCH   2   3
ENDBRANCH   1   2
BRANCH   1  26
ATOM     26  O   UNL     1       3.973   4.935  -0.895  1.00  0.00    -0.377 OA
BRANCH  26  27
ATOM     27  C   UNL     1       5.362   5.000  -1.129  1.00  0.00     0.188 C 
BRANCH  27  28
ATOM     28  C   UNL     1       6.028   3.822  -1.846  1.00  0.00     0.188 C 
BRANCH  28  29
ATOM     29  O   UNL     1       5.767   2.557  -1.277  1.00  0.00    -0.376 OA
BRANCH  29  30
ATOM     30  C   UNL     1       6.387   2.064  -0.106  1.00  0.00     0.202 C 
BRANCH  30  31
ATOM     31  C   UNL     1       6.946   2.888   1.070  1.00  0.00     0.261 C 
BRANCH  31  32
ATOM     32  O   UNL     1       7.378   4.230   0.863  1.00  0.00    -0.460 OA
BRANCH  32  33
ATOM     33  C   UNL     1       8.464   4.441   0.092  1.00  0.00     0.338 C 
ATOM     34  O   UNL     1       9.152   3.610  -0.455  1.00  0.00    -0.246 OA
BRANCH  33  35
ATOM     35  C   UNL     1       8.555   5.906  -0.119  1.00  0.00     0.060 A 
ATOM     36  C   UNL     1       8.492   6.415  -1.423  1.00  0.00     0.016 A 
ATOM     37  C   UNL     1       8.700   6.768   0.971  1.00  0.00     0.016 A 
ATOM     38  C   UNL     1       8.630   7.783  -1.647  1.00  0.00     0.010 A 
ATOM     39  C   UNL     1       8.871   8.134   0.745  1.00  0.00     0.010 A 
ATOM     40  C   UNL     1       8.883   8.638  -0.568  1.00  0.00    -0.014 A 
BRANCH  40  41
ATOM     41  C   UNL     1       9.410   9.997  -0.825  1.00  0.00     0.031 A 
ATOM     42  C   UNL     1      10.900  10.192  -0.762  1.00  0.00     0.074 A 
ATOM     43  C   UNL     1       8.597  11.022  -1.123  1.00  0.00     0.049 A 
ATOM     44  N   UNL     1      11.604  11.290  -0.864  1.00  0.00    -0.248 NA
ATOM     45  C   UNL     1      11.706   8.978  -0.548  1.00  0.00     0.031 C 
ATOM     46  C   UNL     1       7.146  10.937  -1.268  1.00  0.00     0.029 A 
ATOM     47  N   UNL     1       8.884  12.345  -1.346  1.00  0.00    -0.354 N 
ATOM     48  C   UNL     1      12.928  10.900  -0.713  1.00  0.00     0.074 A 
ATOM     49  C   UNL     1      12.931   9.473  -0.480  1.00  0.00     0.031 C 
ATOM     50  C   UNL     1       6.664  12.163  -1.537  1.00  0.00     0.029 A 
ATOM     51  C   UNL     1       7.769  13.121  -1.544  1.00  0.00     0.049 A 
ATOM     52  H   UNL     1       9.800  12.703  -1.362  1.00  0.00     0.167 HD
ATOM     53  C   UNL     1      14.043  11.666  -0.770  1.00  0.00     0.037 A 
ATOM     54  C   UNL     1       7.660  14.457  -1.683  1.00  0.00     0.037 A 
ATOM     55  C   UNL     1      14.027  13.086  -0.999  1.00  0.00     0.049 A 
ATOM     56  C   UNL     1       8.911  15.301  -1.657  1.00  0.00     0.074 A 
ATOM     57  C   UNL     1      15.097  13.957  -1.089  1.00  0.00     0.029 A 
ATOM     58  N   UNL     1      12.877  13.844  -1.165  1.00  0.00    -0.354 N 
ATOM     59  N   UNL     1      10.162  14.929  -1.532  1.00  0.00    -0.248 NA
ATOM     60  C   UNL     1       8.731  16.753  -1.795  1.00  0.00     0.031 C 
ATOM     61  C   UNL     1      14.592  15.251  -1.244  1.00  0.00     0.029 A 
ATOM     62  C   UNL     1      13.210  15.179  -1.324  1.00  0.00     0.049 A 
ATOM     63  H   UNL     1      11.959  13.486  -1.168  1.00  0.00     0.167 HD
ATOM     64  C   UNL     1      10.919  16.092  -1.611  1.00  0.00     0.074 A 
ATOM     65  C   UNL     1       9.985  17.181  -1.809  1.00  0.00     0.031 C 
ATOM     66  C   UNL     1      12.264  16.247  -1.530  1.00  0.00     0.037 A 
BRANCH  53  67
ATOM     67  C   UNL     1      15.363  10.989  -0.543  1.00  0.00     0.064 A 
ATOM     68  C   UNL     1      15.903  10.083  -1.469  1.00  0.00     0.173 A 
ATOM     69  C   UNL     1      16.111  11.268   0.611  1.00  0.00     0.173 A 
ATOM     70  F   UNL     1      15.221   9.766  -2.580  1.00  0.00    -0.203 F 
ATOM     71  C   UNL     1      17.127   9.461  -1.234  1.00  0.00     0.198 A 
ATOM     72  C   UNL     1      17.351  10.671   0.826  1.00  0.00     0.198 A 
ATOM     73  F   UNL     1      15.643  12.126   1.530  1.00  0.00    -0.203 F 
ATOM     74  F   UNL     1      17.596   8.558  -2.106  1.00  0.00    -0.200 F 
ATOM     75  C   UNL     1      17.854   9.762  -0.092  1.00  0.00     0.200 A 
ATOM     76  F   UNL     1      18.057  10.974   1.924  1.00  0.00    -0.200 F 
ATOM     77  F   UNL     1      19.035   9.170   0.129  1.00  0.00    -0.200 F 
ENDBRANCH  53  67
BRANCH  54  78
ATOM     78  C   UNL     1       6.321  15.084  -1.839  1.00  0.00     0.064 A 
ATOM     79  C   UNL     1       5.957  15.727  -3.030  1.00  0.00     0.173 A 
ATOM     80  C   UNL     1       5.386  15.075  -0.793  1.00  0.00     0.173 A 
ATOM     81  F   UNL     1       6.825  15.786  -4.051  1.00  0.00    -0.203 F 
ATOM     82  C   UNL     1       4.721  16.358  -3.161  1.00  0.00     0.198 A 
ATOM     83  C   UNL     1       4.137  15.677  -0.937  1.00  0.00     0.198 A 
ATOM     84  F   UNL     1       5.682  14.476   0.369  1.00  0.00    -0.203 F 
ATOM     85  F   UNL     1       4.422  17.013  -4.291  1.00  0.00    -0.200 F 
ATOM     86  C   UNL     1       3.809  16.326  -2.117  1.00  0.00     0.200 A 
ATOM     87  F   UNL     1       3.254  15.631   0.070  1.00  0.00    -0.200 F 
ATOM     88  F   UNL     1       2.620  16.931  -2.244  1.00  0.00    -0.200 F 
ENDBRANCH  54  78
BRANCH  66  89
ATOM     89  C   UNL     1      12.814  17.636  -1.704  1.00  0.00     0.064 A 
ATOM     90  C   UNL     1      12.628  18.634  -0.736  1.00  0.00     0.173 A 
ATOM     91  C   UNL     1      13.579  17.956  -2.837  1.00  0.00     0.173 A 
ATOM     92  F   UNL     1      11.896  18.384   0.360  1.00  0.00    -0.203 F 
ATOM     93  C   UNL     1      13.159  19.909  -0.911  1.00  0.00     0.198 A 
ATOM     94  C   UNL     1      14.140  19.221  -2.990  1.00  0.00     0.198 A 
ATOM     95  F   UNL     1      13.798  17.036  -3.788  1.00  0.00    -0.203 F 
ATOM     96  F   UNL     1      12.921  20.862   0.000  1.00  0.00    -0.200 F 
ATOM     97  C   UNL     1      13.922  20.199  -2.033  1.00  0.00     0.200 A 
ATOM     98  F   UNL     1      14.893  19.491  -4.065  1.00  0.00    -0.200 F 
ATOM     99  F   UNL     1      14.441  21.423  -2.194  1.00  0.00    -0.200 F 
ENDBRANCH  66  89
ENDBRANCH  40  41
ENDBRANCH  33  35
ENDBRANCH  32  33
ENDBRANCH  31  32
ENDBRANCH  30  31
ENDBRANCH  29  30
ENDBRANCH  28  29
ENDBRANCH  27  28
ENDBRANCH  26  27
ENDBRANCH   1  26
TORSDOF 24
