REMARK SMILES C[C@H]1[C@H](C(=O)OCCOCCOCCOCCOC(=O)c2ccc(-c3c4nc(c(-c5c(F)c(F)c(F)c(F)c5F)c5ccc([nH]5)c(-c5c(F)c(F)c(F)c(F)c5F)c5nc(c(-c6c(F)c(F)c(F)c(F)c6F)c6ccc3[nH]6)C=C5)C=C4)cc2)CC[N@@H+]1CC(=O)N1CCCC1
REMARK SMILES IDX 12 1 11 2 10 3 9 4 8 5 7 6 6 7 4 8 5 9 3 10 1 11 2 12 86 13
REMARK SMILES IDX 84 14 85 15 87 17 88 18 89 19 90 20 91 21 94 22 92 23 93 24
REMARK SMILES IDX 13 25 14 26 15 27 16 28 17 29 18 30 19 31 20 32 21 33 22 34
REMARK SMILES IDX 83 35 23 36 82 37 24 38 25 39 26 40 76 41 27 42 81 43 75 44
REMARK SMILES IDX 77 45 28 46 80 47 74 48 73 49 29 51 61 52 41 53 60 54 42 55
REMARK SMILES IDX 45 56 59 57 78 58 43 59 44 60 58 62 79 63 46 64 30 65 31 66
REMARK SMILES IDX 39 67 32 68 33 69 37 70 40 71 34 72 35 73 38 74 36 75 62 76
REMARK SMILES IDX 63 77 71 78 64 79 65 80 69 81 72 82 66 83 67 84 70 85 68 86
REMARK SMILES IDX 47 87 48 88 56 89 49 90 50 91 54 92 57 93 51 94 52 95 55 96
REMARK SMILES IDX 53 97
REMARK H PARENT 86 16 77 50 45 61
REMARK Flexibility Score: inf
ROOT
ATOM      1  O   UNL     1       2.612   2.050   3.079  1.00  0.00    -0.377 OA
ENDROOT
BRANCH   1   2
ATOM      2  C   UNL     1       2.859   2.368   1.721  1.00  0.00     0.188 C 
BRANCH   2   3
ATOM      3  C   UNL     1       2.108   3.521   1.042  1.00  0.00     0.188 C 
BRANCH   3   4
ATOM      4  O   UNL     1       1.647   4.609   1.824  1.00  0.00    -0.376 OA
BRANCH   4   5
ATOM      5  C   UNL     1       0.298   4.553   2.296  1.00  0.00     0.202 C 
BRANCH   5   6
ATOM      6  C   UNL     1      -0.812   4.387   1.250  1.00  0.00     0.261 C 
BRANCH   6   7
ATOM      7  O   UNL     1      -0.966   3.001   0.856  1.00  0.00    -0.463 OA
BRANCH   7   8
ATOM      8  C   UNL     1      -0.885   2.721  -0.473  1.00  0.00     0.315 C 
ATOM      9  O   UNL     1      -0.682   3.560  -1.343  1.00  0.00    -0.252 OA
BRANCH   8  10
ATOM     10  C   UNL     1      -1.044   1.248  -0.788  1.00  0.00     0.162 C 
ATOM     11  C   UNL     1       1.149  -0.016  -1.090  1.00  0.00     0.076 C 
ATOM     12  C   UNL     1      -0.014   0.305  -0.148  1.00  0.00     0.195 C 
ATOM     13  N   UNL     1      -0.756  -0.925   0.135  1.00  0.00    -0.324 N 
ATOM     14  C   UNL     1      -2.386   0.691  -0.338  1.00  0.00     0.083 C 
ATOM     15  C   UNL     1      -2.136  -0.805  -0.303  1.00  0.00     0.264 C 
ATOM     16  H   UNL     1      -0.327  -1.639  -0.454  1.00  0.00     0.348 HD
BRANCH  13  17
ATOM     17  C   UNL     1      -0.480  -1.656   1.376  1.00  0.00     0.364 C 
BRANCH  17  18
ATOM     18  C   UNL     1      -1.434  -1.435   2.570  1.00  0.00     0.277 C 
ATOM     19  O   UNL     1      -2.405  -2.179   2.747  1.00  0.00    -0.268 OA
ATOM     20  N   UNL     1      -1.117  -0.465   3.495  1.00  0.00    -0.338 N 
ATOM     21  C   UNL     1      -0.296   0.697   3.265  1.00  0.00     0.119 C 
ATOM     22  C   UNL     1      -1.714  -0.422   4.819  1.00  0.00     0.119 C 
ATOM     23  C   UNL     1      -0.589   1.622   4.433  1.00  0.00     0.023 C 
ATOM     24  C   UNL     1      -0.924   0.656   5.550  1.00  0.00     0.023 C 
ENDBRANCH  17  18
ENDBRANCH  13  17
ENDBRANCH   8  10
ENDBRANCH   7   8
ENDBRANCH   6   7
ENDBRANCH   5   6
ENDBRANCH   4   5
ENDBRANCH   3   4
ENDBRANCH   2   3
ENDBRANCH   1   2
BRANCH   1  25
ATOM     25  C   UNL     1       2.883   3.031   4.072  1.00  0.00     0.188 C 
BRANCH  25  26
ATOM     26  C   UNL     1       4.233   3.759   4.115  1.00  0.00     0.188 C 
BRANCH  26  27
ATOM     27  O   UNL     1       4.965   3.707   2.906  1.00  0.00    -0.376 OA
BRANCH  27  28
ATOM     28  C   UNL     1       6.187   2.975   2.965  1.00  0.00     0.202 C 
BRANCH  28  29
ATOM     29  C   UNL     1       6.091   1.450   3.178  1.00  0.00     0.261 C 
BRANCH  29  30
ATOM     30  O   UNL     1       5.265   1.000   4.268  1.00  0.00    -0.460 OA
BRANCH  30  31
ATOM     31  C   UNL     1       5.778   1.125   5.503  1.00  0.00     0.338 C 
ATOM     32  O   UNL     1       6.847   1.648   5.809  1.00  0.00    -0.246 OA
BRANCH  31  33
ATOM     33  C   UNL     1       4.808   0.627   6.494  1.00  0.00     0.060 A 
ATOM     34  C   UNL     1       4.272   1.527   7.422  1.00  0.00     0.016 A 
ATOM     35  C   UNL     1       4.534  -0.741   6.596  1.00  0.00     0.016 A 
ATOM     36  C   UNL     1       3.521   1.053   8.498  1.00  0.00     0.010 A 
ATOM     37  C   UNL     1       3.791  -1.217   7.684  1.00  0.00     0.010 A 
ATOM     38  C   UNL     1       3.334  -0.326   8.672  1.00  0.00    -0.014 A 
BRANCH  38  39
ATOM     39  C   UNL     1       2.906  -0.823  10.006  1.00  0.00     0.031 A 
ATOM     40  C   UNL     1       3.975  -1.215  10.995  1.00  0.00     0.074 A 
ATOM     41  C   UNL     1       1.612  -0.854  10.371  1.00  0.00     0.049 A 
ATOM     42  N   UNL     1       3.861  -1.609  12.238  1.00  0.00    -0.248 NA
ATOM     43  C   UNL     1       5.365  -1.146  10.513  1.00  0.00     0.031 C 
ATOM     44  C   UNL     1       0.485  -0.471   9.527  1.00  0.00     0.029 A 
ATOM     45  N   UNL     1       1.034  -1.221  11.562  1.00  0.00    -0.354 N 
ATOM     46  C   UNL     1       5.159  -1.825  12.686  1.00  0.00     0.074 A 
ATOM     47  C   UNL     1       6.042  -1.560  11.572  1.00  0.00     0.031 C 
ATOM     48  C   UNL     1      -0.654  -0.623  10.226  1.00  0.00     0.029 A 
ATOM     49  C   UNL     1      -0.336  -1.129  11.562  1.00  0.00     0.049 A 
ATOM     50  H   UNL     1       1.553  -1.522  12.343  1.00  0.00     0.167 HD
ATOM     51  C   UNL     1       5.582  -2.196  13.918  1.00  0.00     0.037 A 
ATOM     52  C   UNL     1      -1.226  -1.423  12.530  1.00  0.00     0.037 A 
ATOM     53  C   UNL     1       4.709  -2.469  15.027  1.00  0.00     0.049 A 
ATOM     54  C   UNL     1      -0.734  -1.896  13.876  1.00  0.00     0.074 A 
ATOM     55  C   UNL     1       5.041  -2.848  16.316  1.00  0.00     0.029 A 
ATOM     56  N   UNL     1       3.325  -2.400  14.975  1.00  0.00    -0.354 N 
ATOM     57  N   UNL     1       0.496  -2.061  14.300  1.00  0.00    -0.248 NA
ATOM     58  C   UNL     1      -1.759  -2.212  14.882  1.00  0.00     0.031 C 
ATOM     59  C   UNL     1       3.856  -3.054  17.031  1.00  0.00     0.029 A 
ATOM     60  C   UNL     1       2.787  -2.749  16.203  1.00  0.00     0.049 A 
ATOM     61  H   UNL     1       2.802  -2.140  14.182  1.00  0.00     0.167 HD
ATOM     62  C   UNL     1       0.393  -2.466  15.626  1.00  0.00     0.074 A 
ATOM     63  C   UNL     1      -1.019  -2.508  15.941  1.00  0.00     0.031 C 
ATOM     64  C   UNL     1       1.379  -2.775  16.505  1.00  0.00     0.037 A 
BRANCH  51  65
ATOM     65  C   UNL     1       7.061  -2.349  14.119  1.00  0.00     0.064 A 
ATOM     66  C   UNL     1       7.917  -1.238  14.162  1.00  0.00     0.173 A 
ATOM     67  C   UNL     1       7.627  -3.621  14.288  1.00  0.00     0.173 A 
ATOM     68  F   UNL     1       7.427  -0.001  13.988  1.00  0.00    -0.203 F 
ATOM     69  C   UNL     1       9.289  -1.397  14.338  1.00  0.00     0.198 A 
ATOM     70  C   UNL     1       8.996  -3.775  14.492  1.00  0.00     0.198 A 
ATOM     71  F   UNL     1       6.853  -4.716  14.257  1.00  0.00    -0.203 F 
ATOM     72  F   UNL     1      10.094  -0.326  14.326  1.00  0.00    -0.200 F 
ATOM     73  C   UNL     1       9.826  -2.664  14.509  1.00  0.00     0.200 A 
ATOM     74  F   UNL     1       9.512  -4.999  14.668  1.00  0.00    -0.200 F 
ATOM     75  F   UNL     1      11.147  -2.816  14.682  1.00  0.00    -0.200 F 
ENDBRANCH  51  65
BRANCH  52  76
ATOM     76  C   UNL     1      -2.684  -1.278  12.272  1.00  0.00     0.064 A 
ATOM     77  C   UNL     1      -3.444  -0.299  12.928  1.00  0.00     0.173 A 
ATOM     78  C   UNL     1      -3.353  -2.140  11.392  1.00  0.00     0.173 A 
ATOM     79  F   UNL     1      -2.855   0.532  13.801  1.00  0.00    -0.203 F 
ATOM     80  C   UNL     1      -4.820  -0.203  12.729  1.00  0.00     0.198 A 
ATOM     81  C   UNL     1      -4.724  -2.025  11.172  1.00  0.00     0.198 A 
ATOM     82  F   UNL     1      -2.672  -3.097  10.743  1.00  0.00    -0.203 F 
ATOM     83  F   UNL     1      -5.530   0.709  13.408  1.00  0.00    -0.200 F 
ATOM     84  C   UNL     1      -5.458  -1.062  11.848  1.00  0.00     0.200 A 
ATOM     85  F   UNL     1      -5.335  -2.852  10.313  1.00  0.00    -0.200 F 
ATOM     86  F   UNL     1      -6.781  -0.970  11.658  1.00  0.00    -0.200 F 
ENDBRANCH  52  76
BRANCH  64  87
ATOM     87  C   UNL     1       0.970  -3.143  17.903  1.00  0.00     0.064 A 
ATOM     88  C   UNL     1       0.335  -4.360  18.191  1.00  0.00     0.173 A 
ATOM     89  C   UNL     1       1.248  -2.279  18.973  1.00  0.00     0.173 A 
ATOM     90  F   UNL     1       0.036  -5.216  17.203  1.00  0.00    -0.203 F 
ATOM     91  C   UNL     1      -0.037  -4.682  19.494  1.00  0.00     0.198 A 
ATOM     92  C   UNL     1       0.904  -2.618  20.279  1.00  0.00     0.198 A 
ATOM     93  F   UNL     1       1.864  -1.107  18.754  1.00  0.00    -0.203 F 
ATOM     94  F   UNL     1      -0.692  -5.826  19.739  1.00  0.00    -0.200 F 
ATOM     95  C   UNL     1       0.253  -3.815  20.537  1.00  0.00     0.200 A 
ATOM     96  F   UNL     1       1.198  -1.785  21.287  1.00  0.00    -0.200 F 
ATOM     97  F   UNL     1      -0.103  -4.128  21.790  1.00  0.00    -0.200 F 
ENDBRANCH  64  87
ENDBRANCH  38  39
ENDBRANCH  31  33
ENDBRANCH  30  31
ENDBRANCH  29  30
ENDBRANCH  28  29
ENDBRANCH  27  28
ENDBRANCH  26  27
ENDBRANCH  25  26
ENDBRANCH   1  25
TORSDOF 22
