REMARK SMILES CSc1nc2nnc(C(=O)OCCOCCOCCOCCOC(=O)c3ccc(-c4c5nc(c(-c6c(F)c(F)c(F)c(F)c6F)c6ccc([nH]6)c(-c6c(F)c(F)c(F)c(F)c6F)c6nc(c(-c7c(F)c(F)c(F)c(F)c7F)c7ccc4[nH]7)C=C6)C=C5)cc3)c(O)n2n1
REMARK SMILES IDX 18 1 17 2 16 3 15 4 14 5 13 6 12 7 11 8 9 9 10 10 8 11 3 12
REMARK SMILES IDX 4 13 92 14 5 15 91 16 6 17 89 18 7 19 2 20 1 21 90 22 19 24
REMARK SMILES IDX 20 25 21 26 22 27 23 28 24 29 25 30 26 31 27 32 88 33 28 34
REMARK SMILES IDX 87 35 29 36 30 37 31 38 81 39 32 40 86 41 80 42 82 43 33 44
REMARK SMILES IDX 85 45 79 46 78 47 34 49 66 50 46 51 65 52 47 53 50 54 64 55
REMARK SMILES IDX 83 56 48 57 49 58 63 60 84 61 51 62 35 63 36 64 44 65 37 66
REMARK SMILES IDX 38 67 42 68 45 69 39 70 40 71 43 72 41 73 67 74 68 75 76 76
REMARK SMILES IDX 69 77 70 78 74 79 77 80 71 81 72 82 75 83 73 84 52 85 53 86
REMARK SMILES IDX 61 87 54 88 55 89 59 90 62 91 56 92 57 93 60 94 58 95
REMARK H PARENT 90 23 82 48 50 59
REMARK Flexibility Score: inf
ROOT
ATOM      1  C   UNL     1       3.307   8.688   6.069  1.00  0.00     0.188 C 
ENDROOT
BRANCH   1   2
ATOM      2  O   UNL     1       2.887   8.262   4.771  1.00  0.00    -0.377 OA
BRANCH   2   3
ATOM      3  C   UNL     1       2.961   6.893   4.409  1.00  0.00     0.188 C 
BRANCH   3   4
ATOM      4  C   UNL     1       4.348   6.227   4.473  1.00  0.00     0.188 C 
BRANCH   4   5
ATOM      5  O   UNL     1       5.339   7.067   5.038  1.00  0.00    -0.376 OA
BRANCH   5   6
ATOM      6  C   UNL     1       6.279   7.691   4.189  1.00  0.00     0.202 C 
BRANCH   6   7
ATOM      7  C   UNL     1       5.769   8.569   3.036  1.00  0.00     0.261 C 
BRANCH   7   8
ATOM      8  O   UNL     1       4.784   7.992   2.163  1.00  0.00    -0.458 OA
BRANCH   8   9
ATOM      9  C   UNL     1       5.131   6.900   1.452  1.00  0.00     0.364 C 
ATOM     10  O   UNL     1       6.229   6.347   1.462  1.00  0.00    -0.244 OA
BRANCH   9  11
ATOM     11  C   UNL     1       3.918   6.285   0.853  1.00  0.00     0.232 A 
ATOM     12  C   UNL     1       1.027   3.272  -0.346  1.00  0.00     0.210 A 
ATOM     13  N   UNL     1       0.649   4.555  -0.616  1.00  0.00    -0.182 NA
ATOM     14  N   UNL     1       2.175   3.142   0.317  1.00  0.00    -0.134 NA
ATOM     15  C   UNL     1       1.637   5.273  -0.128  1.00  0.00     0.275 A 
ATOM     16  N   UNL     1       2.597   4.425   0.410  1.00  0.00    -0.159 N 
ATOM     17  N   UNL     1       1.843   6.623  -0.107  1.00  0.00    -0.108 NA
ATOM     18  C   UNL     1       3.789   4.942   0.919  1.00  0.00     0.251 A 
ATOM     19  N   UNL     1       2.917   7.104   0.356  1.00  0.00    -0.134 NA
BRANCH  12  20
ATOM     20  S   UNL     1       0.095   1.903  -0.892  1.00  0.00    -0.088 SA
ATOM     21  C   UNL     1       0.963   0.534  -0.095  1.00  0.00     0.094 C 
ENDBRANCH  12  20
BRANCH  18  22
ATOM     22  O   UNL     1       4.720   4.068   1.464  1.00  0.00    -0.491 OA
ATOM     23  H   UNL     1       5.526   4.398   1.811  1.00  0.00     0.295 HD
ENDBRANCH  18  22
ENDBRANCH   9  11
ENDBRANCH   8   9
ENDBRANCH   7   8
ENDBRANCH   6   7
ENDBRANCH   5   6
ENDBRANCH   4   5
ENDBRANCH   3   4
ENDBRANCH   2   3
ENDBRANCH   1   2
BRANCH   1  24
ATOM     24  C   UNL     1       3.745   7.720   7.204  1.00  0.00     0.188 C 
BRANCH  24  25
ATOM     25  O   UNL     1       3.499   6.342   6.974  1.00  0.00    -0.376 OA
BRANCH  25  26
ATOM     26  C   UNL     1       2.547   5.628   7.733  1.00  0.00     0.202 C 
BRANCH  26  27
ATOM     27  C   UNL     1       1.093   5.985   7.463  1.00  0.00     0.261 C 
BRANCH  27  28
ATOM     28  O   UNL     1       0.859   7.382   7.425  1.00  0.00    -0.460 OA
BRANCH  28  29
ATOM     29  C   UNL     1       0.997   8.007   8.593  1.00  0.00     0.338 C 
ATOM     30  O   UNL     1       1.516   7.561   9.634  1.00  0.00    -0.246 OA
BRANCH  29  31
ATOM     31  C   UNL     1       0.299   9.273   8.529  1.00  0.00     0.060 A 
ATOM     32  C   UNL     1       0.494  10.156   9.591  1.00  0.00     0.016 A 
ATOM     33  C   UNL     1      -0.782   9.377   7.638  1.00  0.00     0.016 A 
ATOM     34  C   UNL     1      -0.540  10.997   9.911  1.00  0.00     0.010 A 
ATOM     35  C   UNL     1      -1.823  10.197   7.975  1.00  0.00     0.010 A 
ATOM     36  C   UNL     1      -1.718  10.921   9.157  1.00  0.00    -0.014 A 
BRANCH  36  37
ATOM     37  C   UNL     1      -2.848  11.683   9.620  1.00  0.00     0.031 A 
ATOM     38  C   UNL     1      -2.709  13.124   9.350  1.00  0.00     0.074 A 
ATOM     39  C   UNL     1      -3.921  11.097  10.179  1.00  0.00     0.049 A 
ATOM     40  N   UNL     1      -2.585  14.076  10.210  1.00  0.00    -0.248 NA
ATOM     41  C   UNL     1      -2.516  13.534   7.950  1.00  0.00     0.031 C 
ATOM     42  C   UNL     1      -4.258   9.672  10.229  1.00  0.00     0.029 A 
ATOM     43  N   UNL     1      -5.000  11.691  10.749  1.00  0.00    -0.354 N 
ATOM     44  C   UNL     1      -2.486  15.238   9.456  1.00  0.00     0.074 A 
ATOM     45  C   UNL     1      -2.266  14.834   8.094  1.00  0.00     0.031 C 
ATOM     46  C   UNL     1      -5.552   9.538  10.600  1.00  0.00     0.029 A 
ATOM     47  C   UNL     1      -6.085  10.849  10.931  1.00  0.00     0.049 A 
ATOM     48  H   UNL     1      -5.010  12.640  11.011  1.00  0.00     0.167 HD
ATOM     49  C   UNL     1      -2.872  16.431   9.977  1.00  0.00     0.037 A 
ATOM     50  C   UNL     1      -7.343  11.243  11.248  1.00  0.00     0.037 A 
ATOM     51  C   UNL     1      -2.869  16.396  11.417  1.00  0.00     0.049 A 
ATOM     52  C   UNL     1      -7.241  12.611  11.823  1.00  0.00     0.074 A 
ATOM     53  C   UNL     1      -1.899  16.173  12.375  1.00  0.00     0.029 A 
ATOM     54  N   UNL     1      -4.073  16.246  12.058  1.00  0.00    -0.354 N 
ATOM     55  N   UNL     1      -6.694  12.883  12.976  1.00  0.00    -0.248 NA
ATOM     56  C   UNL     1      -7.377  13.743  10.917  1.00  0.00     0.031 C 
ATOM     57  C   UNL     1      -2.560  15.466  13.421  1.00  0.00     0.029 A 
ATOM     58  C   UNL     1      -3.904  15.333  13.066  1.00  0.00     0.049 A 
ATOM     59  H   UNL     1      -4.911  16.711  11.833  1.00  0.00     0.167 HD
ATOM     60  C   UNL     1      -6.046  14.094  12.783  1.00  0.00     0.074 A 
ATOM     61  C   UNL     1      -6.590  14.625  11.538  1.00  0.00     0.031 C 
ATOM     62  C   UNL     1      -4.928  14.411  13.498  1.00  0.00     0.037 A 
BRANCH  49  63
ATOM     63  C   UNL     1      -3.627  17.465   9.184  1.00  0.00     0.064 A 
ATOM     64  C   UNL     1      -3.890  18.715   9.774  1.00  0.00     0.173 A 
ATOM     65  C   UNL     1      -4.355  17.182   8.005  1.00  0.00     0.173 A 
ATOM     66  F   UNL     1      -3.278  19.075  10.912  1.00  0.00    -0.203 F 
ATOM     67  C   UNL     1      -4.862  19.578   9.265  1.00  0.00     0.198 A 
ATOM     68  C   UNL     1      -5.280  18.072   7.467  1.00  0.00     0.198 A 
ATOM     69  F   UNL     1      -4.296  15.996   7.388  1.00  0.00    -0.203 F 
ATOM     70  F   UNL     1      -5.173  20.695   9.935  1.00  0.00    -0.200 F 
ATOM     71  C   UNL     1      -5.559  19.255   8.114  1.00  0.00     0.200 A 
ATOM     72  F   UNL     1      -5.959  17.727   6.364  1.00  0.00    -0.200 F 
ATOM     73  F   UNL     1      -6.532  20.053   7.659  1.00  0.00    -0.200 F 
ENDBRANCH  49  63
BRANCH  50  74
ATOM     74  C   UNL     1      -8.635  10.674  10.792  1.00  0.00     0.064 A 
ATOM     75  C   UNL     1      -9.842  11.082  11.385  1.00  0.00     0.173 A 
ATOM     76  C   UNL     1      -8.746   9.949   9.590  1.00  0.00     0.173 A 
ATOM     77  F   UNL     1      -9.828  11.809  12.512  1.00  0.00    -0.203 F 
ATOM     78  C   UNL     1     -11.079  10.822  10.789  1.00  0.00     0.198 A 
ATOM     79  C   UNL     1      -9.983   9.678   9.002  1.00  0.00     0.198 A 
ATOM     80  F   UNL     1      -7.657   9.572   8.905  1.00  0.00    -0.203 F 
ATOM     81  F   UNL     1     -12.202  11.297  11.345  1.00  0.00    -0.200 F 
ATOM     82  C   UNL     1     -11.148  10.131   9.591  1.00  0.00     0.200 A 
ATOM     83  F   UNL     1     -10.032   9.037   7.826  1.00  0.00    -0.200 F 
ATOM     84  F   UNL     1     -12.327   9.940   8.984  1.00  0.00    -0.200 F 
ENDBRANCH  50  74
BRANCH  62  85
ATOM     85  C   UNL     1      -4.600  13.567  14.698  1.00  0.00     0.064 A 
ATOM     86  C   UNL     1      -4.240  12.210  14.628  1.00  0.00     0.173 A 
ATOM     87  C   UNL     1      -4.476  14.207  15.939  1.00  0.00     0.173 A 
ATOM     88  F   UNL     1      -4.245  11.554  13.461  1.00  0.00    -0.203 F 
ATOM     89  C   UNL     1      -3.798  11.523  15.758  1.00  0.00     0.198 A 
ATOM     90  C   UNL     1      -3.999  13.528  17.056  1.00  0.00     0.198 A 
ATOM     91  F   UNL     1      -4.759  15.514  16.051  1.00  0.00    -0.203 F 
ATOM     92  F   UNL     1      -3.458  10.229  15.668  1.00  0.00    -0.200 F 
ATOM     93  C   UNL     1      -3.666  12.187  16.967  1.00  0.00     0.200 A 
ATOM     94  F   UNL     1      -3.827  14.186  18.210  1.00  0.00    -0.200 F 
ATOM     95  F   UNL     1      -3.187  11.541  18.040  1.00  0.00    -0.200 F 
ENDBRANCH  62  85
ENDBRANCH  36  37
ENDBRANCH  29  31
ENDBRANCH  28  29
ENDBRANCH  27  28
ENDBRANCH  26  27
ENDBRANCH  25  26
ENDBRANCH  24  25
ENDBRANCH   1  24
TORSDOF 22
