REMARK SMILES C[C@@H](C(=O)OCCOCCOCCOCCOC(=O)c1ccc(-c2c3nc(c(-c4c(F)c(F)c(F)c(F)c4F)c4ccc([nH]4)c(-c4c(F)c(F)c(F)c(F)c4F)c4nc(c(-c5c(F)c(F)c(F)c(F)c5F)c5ccc2[nH]5)C=C4)C=C3)cc1)c1ccc(C[C@H]2CCC[C@H]2O)cc1-c1ccc(O)cc1
REMARK SMILES IDX 10 1 9 2 8 3 7 4 6 5 5 6 3 7 4 8 2 9 1 10 83 11 84 12 95 13
REMARK SMILES IDX 85 14 94 15 86 16 96 17 97 18 102 19 98 20 101 21 99 22
REMARK SMILES IDX 100 23 87 25 88 26 89 27 92 28 90 29 91 30 93 31 11 33 12 34
REMARK SMILES IDX 13 35 14 36 15 37 16 38 17 39 18 40 19 41 20 42 21 43 82 44
REMARK SMILES IDX 22 45 81 46 23 47 24 48 25 49 75 50 26 51 80 52 74 53 76 54
REMARK SMILES IDX 27 55 79 56 73 57 72 58 28 60 60 61 40 62 59 63 41 64 44 65
REMARK SMILES IDX 58 66 77 67 42 68 43 69 57 71 78 72 45 73 29 74 30 75 38 76
REMARK SMILES IDX 31 77 32 78 36 79 39 80 33 81 34 82 37 83 35 84 61 85 62 86
REMARK SMILES IDX 70 87 63 88 64 89 68 90 71 91 65 92 66 93 69 94 67 95 46 96
REMARK SMILES IDX 47 97 55 98 48 99 49 100 53 101 56 102 50 103 51 104 54 105
REMARK SMILES IDX 52 106
REMARK H PARENT 100 24 93 32 76 59 44 70
REMARK Flexibility Score: inf
ROOT
ATOM      1  C   UNL     1       1.128   2.506   1.326  1.00  0.00     0.188 C 
ENDROOT
BRANCH   1   2
ATOM      2  C   UNL     1       0.293   2.586   2.614  1.00  0.00     0.188 C 
BRANCH   2   3
ATOM      3  O   UNL     1       0.926   2.904   3.842  1.00  0.00    -0.376 OA
BRANCH   3   4
ATOM      4  C   UNL     1       2.160   2.299   4.194  1.00  0.00     0.202 C 
BRANCH   4   5
ATOM      5  C   UNL     1       2.460   0.804   3.951  1.00  0.00     0.261 C 
BRANCH   5   6
ATOM      6  O   UNL     1       2.101   0.241   2.672  1.00  0.00    -0.463 OA
BRANCH   6   7
ATOM      7  C   UNL     1       1.009  -0.565   2.659  1.00  0.00     0.313 C 
ATOM      8  O   UNL     1       0.381  -0.848   3.678  1.00  0.00    -0.252 OA
BRANCH   7   9
ATOM      9  C   UNL     1       0.622  -1.115   1.261  1.00  0.00     0.127 C 
ATOM     10  C   UNL     1       1.404  -0.690   0.013  1.00  0.00     0.025 C 
BRANCH   9  11
ATOM     11  C   UNL     1      -0.908  -1.036   1.094  1.00  0.00    -0.026 A 
ATOM     12  C   UNL     1      -1.534   0.166   0.723  1.00  0.00     0.005 A 
ATOM     13  C   UNL     1      -1.733  -2.135   1.437  1.00  0.00    -0.014 A 
ATOM     14  C   UNL     1      -2.915   0.330   0.820  1.00  0.00     0.004 A 
ATOM     15  C   UNL     1      -3.123  -1.938   1.572  1.00  0.00     0.012 A 
ATOM     16  C   UNL     1      -3.717  -0.691   1.322  1.00  0.00    -0.047 A 
BRANCH  13  17
ATOM     17  C   UNL     1      -1.163  -3.487   1.501  1.00  0.00    -0.018 A 
ATOM     18  C   UNL     1      -1.252  -4.297   0.356  1.00  0.00     0.012 A 
ATOM     19  C   UNL     1      -0.352  -3.910   2.566  1.00  0.00     0.012 A 
ATOM     20  C   UNL     1      -0.486  -5.454   0.242  1.00  0.00     0.047 A 
ATOM     21  C   UNL     1       0.445  -5.051   2.437  1.00  0.00     0.047 A 
ATOM     22  C   UNL     1       0.382  -5.802   1.267  1.00  0.00     0.115 A 
BRANCH  22  23
ATOM     23  O   UNL     1       1.188  -6.883   1.072  1.00  0.00    -0.508 OA
ATOM     24  H   UNL     1       1.128  -7.374   0.276  1.00  0.00     0.293 HD
ENDBRANCH  22  23
ENDBRANCH  13  17
BRANCH  16  25
ATOM     25  C   UNL     1      -5.187  -0.453   1.567  1.00  0.00     0.041 C 
BRANCH  25  26
ATOM     26  C   UNL     1      -5.602   0.175   2.913  1.00  0.00     0.022 C 
ATOM     27  C   UNL     1      -5.060  -0.517   4.174  1.00  0.00     0.007 C 
ATOM     28  C   UNL     1      -5.331   1.671   3.143  1.00  0.00     0.117 C 
ATOM     29  C   UNL     1      -4.945   0.573   5.244  1.00  0.00     0.003 C 
ATOM     30  C   UNL     1      -5.572   1.826   4.641  1.00  0.00     0.032 C 
BRANCH  28  31
ATOM     31  O   UNL     1      -4.010   2.085   2.844  1.00  0.00    -0.393 OA
ATOM     32  H   UNL     1      -3.383   1.586   3.390  1.00  0.00     0.210 HD
ENDBRANCH  28  31
ENDBRANCH  25  26
ENDBRANCH  16  25
ENDBRANCH   9  11
ENDBRANCH   7   9
ENDBRANCH   6   7
ENDBRANCH   5   6
ENDBRANCH   4   5
ENDBRANCH   3   4
ENDBRANCH   2   3
ENDBRANCH   1   2
BRANCH   1  33
ATOM     33  O   UNL     1       2.522   2.636   1.496  1.00  0.00    -0.377 OA
BRANCH  33  34
ATOM     34  C   UNL     1       3.067   3.935   1.356  1.00  0.00     0.188 C 
BRANCH  34  35
ATOM     35  C   UNL     1       2.191   5.146   1.727  1.00  0.00     0.188 C 
BRANCH  35  36
ATOM     36  O   UNL     1       0.882   5.117   1.174  1.00  0.00    -0.376 OA
BRANCH  36  37
ATOM     37  C   UNL     1       0.619   5.830  -0.025  1.00  0.00     0.202 C 
BRANCH  37  38
ATOM     38  C   UNL     1       1.266   5.313  -1.322  1.00  0.00     0.261 C 
BRANCH  38  39
ATOM     39  O   UNL     1       2.700   5.234  -1.336  1.00  0.00    -0.460 OA
BRANCH  39  40
ATOM     40  C   UNL     1       3.399   6.362  -1.099  1.00  0.00     0.338 C 
ATOM     41  O   UNL     1       2.955   7.486  -0.935  1.00  0.00    -0.246 OA
BRANCH  40  42
ATOM     42  C   UNL     1       4.806   5.977  -0.862  1.00  0.00     0.060 A 
ATOM     43  C   UNL     1       5.392   6.284   0.374  1.00  0.00     0.016 A 
ATOM     44  C   UNL     1       5.535   5.295  -1.839  1.00  0.00     0.016 A 
ATOM     45  C   UNL     1       6.720   5.941   0.624  1.00  0.00     0.010 A 
ATOM     46  C   UNL     1       6.875   4.979  -1.599  1.00  0.00     0.010 A 
ATOM     47  C   UNL     1       7.482   5.332  -0.380  1.00  0.00    -0.014 A 
BRANCH  47  48
ATOM     48  C   UNL     1       8.957   5.275  -0.243  1.00  0.00     0.031 A 
ATOM     49  C   UNL     1       9.769   6.360  -0.897  1.00  0.00     0.074 A 
ATOM     50  C   UNL     1       9.565   4.307   0.465  1.00  0.00     0.049 A 
ATOM     51  N   UNL     1      11.067   6.506  -0.966  1.00  0.00    -0.248 NA
ATOM     52  C   UNL     1       9.007   7.426  -1.568  1.00  0.00     0.031 C 
ATOM     53  C   UNL     1       8.886   3.235   1.188  1.00  0.00     0.029 A 
ATOM     54  N   UNL     1      10.900   4.070   0.682  1.00  0.00    -0.354 N 
ATOM     55  C   UNL     1      11.275   7.669  -1.696  1.00  0.00     0.074 A 
ATOM     56  C   UNL     1       9.974   8.175  -2.073  1.00  0.00     0.031 C 
ATOM     57  C   UNL     1       9.811   2.445   1.761  1.00  0.00     0.029 A 
ATOM     58  C   UNL     1      11.145   2.934   1.414  1.00  0.00     0.049 A 
ATOM     59  H   UNL     1      11.613   4.659   0.345  1.00  0.00     0.167 HD
ATOM     60  C   UNL     1      12.447   8.265  -2.018  1.00  0.00     0.037 A 
ATOM     61  C   UNL     1      12.315   2.349   1.740  1.00  0.00     0.037 A 
ATOM     62  C   UNL     1      13.739   7.756  -1.641  1.00  0.00     0.049 A 
ATOM     63  C   UNL     1      13.608   2.987   1.294  1.00  0.00     0.074 A 
ATOM     64  C   UNL     1      14.986   8.296  -1.900  1.00  0.00     0.029 A 
ATOM     65  N   UNL     1      13.948   6.581  -0.934  1.00  0.00    -0.354 N 
ATOM     66  N   UNL     1      13.800   4.100   0.628  1.00  0.00    -0.248 NA
ATOM     67  C   UNL     1      14.850   2.284   1.650  1.00  0.00     0.031 C 
ATOM     68  C   UNL     1      15.953   7.412  -1.409  1.00  0.00     0.029 A 
ATOM     69  C   UNL     1      15.307   6.360  -0.779  1.00  0.00     0.049 A 
ATOM     70  H   UNL     1      13.237   5.992  -0.594  1.00  0.00     0.167 HD
ATOM     71  C   UNL     1      15.178   4.250   0.518  1.00  0.00     0.074 A 
ATOM     72  C   UNL     1      15.774   3.119   1.197  1.00  0.00     0.031 C 
ATOM     73  C   UNL     1      15.886   5.236  -0.088  1.00  0.00     0.037 A 
BRANCH  60  74
ATOM     74  C   UNL     1      12.387   9.512  -2.852  1.00  0.00     0.064 A 
ATOM     75  C   UNL     1      11.889  10.722  -2.346  1.00  0.00     0.173 A 
ATOM     76  C   UNL     1      12.863   9.501  -4.172  1.00  0.00     0.173 A 
ATOM     77  F   UNL     1      11.405  10.783  -1.096  1.00  0.00    -0.203 F 
ATOM     78  C   UNL     1      11.846  11.867  -3.138  1.00  0.00     0.198 A 
ATOM     79  C   UNL     1      12.850  10.655  -4.950  1.00  0.00     0.198 A 
ATOM     80  F   UNL     1      13.350   8.370  -4.706  1.00  0.00    -0.203 F 
ATOM     81  F   UNL     1      11.318  12.998  -2.650  1.00  0.00    -0.200 F 
ATOM     82  C   UNL     1      12.335  11.834  -4.436  1.00  0.00     0.200 A 
ATOM     83  F   UNL     1      13.336  10.624  -6.199  1.00  0.00    -0.200 F 
ATOM     84  F   UNL     1      12.301  12.939  -5.194  1.00  0.00    -0.200 F 
ENDBRANCH  60  74
BRANCH  61  85
ATOM     85  C   UNL     1      12.327   1.080   2.517  1.00  0.00     0.064 A 
ATOM     86  C   UNL     1      12.861   1.029   3.813  1.00  0.00     0.173 A 
ATOM     87  C   UNL     1      11.841  -0.116   1.968  1.00  0.00     0.173 A 
ATOM     88  F   UNL     1      13.364   2.139   4.374  1.00  0.00    -0.203 F 
ATOM     89  C   UNL     1      12.930  -0.171   4.518  1.00  0.00     0.198 A 
ATOM     90  C   UNL     1      11.880  -1.309   2.687  1.00  0.00     0.198 A 
ATOM     91  F   UNL     1      11.325  -0.126   0.730  1.00  0.00    -0.203 F 
ATOM     92  F   UNL     1      13.498  -0.201   5.731  1.00  0.00    -0.200 F 
ATOM     93  C   UNL     1      12.434  -1.338   3.957  1.00  0.00     0.200 A 
ATOM     94  F   UNL     1      11.389  -2.432   2.145  1.00  0.00    -0.200 F 
ATOM     95  F   UNL     1      12.501  -2.492   4.635  1.00  0.00    -0.200 F 
ENDBRANCH  61  85
BRANCH  73  96
ATOM     96  C   UNL     1      17.386   5.169  -0.003  1.00  0.00     0.064 A 
ATOM     97  C   UNL     1      18.127   4.197  -0.691  1.00  0.00     0.173 A 
ATOM     98  C   UNL     1      18.094   6.124   0.744  1.00  0.00     0.173 A 
ATOM     99  F   UNL     1      17.500   3.253  -1.410  1.00  0.00    -0.203 F 
ATOM    100  C   UNL     1      19.517   4.165  -0.610  1.00  0.00     0.198 A 
ATOM    101  C   UNL     1      19.485   6.112   0.793  1.00  0.00     0.198 A 
ATOM    102  F   UNL     1      17.437   7.083   1.414  1.00  0.00    -0.203 F 
ATOM    103  F   UNL     1      20.200   3.194  -1.232  1.00  0.00    -0.200 F 
ATOM    104  C   UNL     1      20.195   5.127   0.124  1.00  0.00     0.200 A 
ATOM    105  F   UNL     1      20.139   7.054   1.486  1.00  0.00    -0.200 F 
ATOM    106  F   UNL     1      21.533   5.100   0.192  1.00  0.00    -0.200 F 
ENDBRANCH  73  96
ENDBRANCH  47  48
ENDBRANCH  40  42
ENDBRANCH  39  40
ENDBRANCH  38  39
ENDBRANCH  37  38
ENDBRANCH  36  37
ENDBRANCH  35  36
ENDBRANCH  34  35
ENDBRANCH  33  34
ENDBRANCH   1  33
TORSDOF 26
