REMARK SMILES COc1ccc(OC)c(N2C(=O)c3ccc(C(=O)OCCOCCOCCOCCOC(=O)c4ccc(-c5c6nc(c(-c7c(F)c(F)c(F)c(F)c7F)c7ccc([nH]7)c(-c7c(F)c(F)c(F)c(F)c7F)c7nc(c(-c8c(F)c(F)c(F)c(F)c8F)c8ccc5[nH]8)C=C7)C=C6)cc4)cc3C2=O)c1
REMARK SMILES IDX 25 1 24 2 23 3 22 4 21 5 20 6 19 7 17 8 18 9 16 10 10 11
REMARK SMILES IDX 11 12 99 13 12 14 13 15 98 16 100 17 14 18 97 19 15 20 9 21
REMARK SMILES IDX 3 22 4 23 101 24 5 25 6 26 2 27 1 28 7 29 8 30 26 31 27 32
REMARK SMILES IDX 28 33 29 34 30 35 31 36 32 37 33 38 34 39 35 40 96 41 36 42
REMARK SMILES IDX 95 43 37 44 38 45 39 46 89 47 40 48 94 49 88 50 90 51 41 52
REMARK SMILES IDX 93 53 87 54 86 55 42 57 74 58 54 59 73 60 55 61 58 62 72 63
REMARK SMILES IDX 91 64 56 65 57 66 71 68 92 69 59 70 43 71 44 72 52 73 45 74
REMARK SMILES IDX 46 75 50 76 53 77 47 78 48 79 51 80 49 81 75 82 76 83 84 84
REMARK SMILES IDX 77 85 78 86 82 87 85 88 79 89 80 90 83 91 81 92 60 93 61 94
REMARK SMILES IDX 69 95 62 96 63 97 67 98 70 99 64 100 65 101 68 102 66 103
REMARK H PARENT 90 56 58 67
REMARK Flexibility Score: inf
ROOT
ATOM      1  O   UNL     1      10.789  -5.474  -1.811  1.00  0.00    -0.377 OA
ENDROOT
BRANCH   1   2
ATOM      2  C   UNL     1      10.672  -4.234  -1.133  1.00  0.00     0.188 C 
BRANCH   2   3
ATOM      3  C   UNL     1      11.809  -3.795  -0.197  1.00  0.00     0.188 C 
BRANCH   3   4
ATOM      4  O   UNL     1      12.813  -4.781   0.017  1.00  0.00    -0.376 OA
BRANCH   4   5
ATOM      5  C   UNL     1      12.803  -5.410   1.293  1.00  0.00     0.202 C 
BRANCH   5   6
ATOM      6  C   UNL     1      11.707  -6.473   1.442  1.00  0.00     0.261 C 
BRANCH   6   7
ATOM      7  O   UNL     1      10.373  -5.936   1.435  1.00  0.00    -0.460 OA
BRANCH   7   8
ATOM      8  C   UNL     1      10.057  -5.142   2.479  1.00  0.00     0.338 C 
ATOM      9  O   UNL     1      10.747  -4.878   3.447  1.00  0.00    -0.246 OA
BRANCH   8  10
ATOM     10  C   UNL     1       8.796  -4.452   2.166  1.00  0.00     0.060 A 
ATOM     11  N   UNL     1       4.325  -3.642   1.643  1.00  0.00    -0.238 N 
ATOM     12  C   UNL     1       5.150  -2.545   1.553  1.00  0.00     0.266 C 
ATOM     13  C   UNL     1       5.064  -4.805   1.648  1.00  0.00     0.266 C 
ATOM     14  O   UNL     1       4.914  -1.353   1.439  1.00  0.00    -0.268 OA
ATOM     15  C   UNL     1       6.510  -3.033   1.688  1.00  0.00     0.053 A 
ATOM     16  C   UNL     1       6.466  -4.410   1.778  1.00  0.00     0.054 A 
ATOM     17  O   UNL     1       4.758  -5.966   1.455  1.00  0.00    -0.268 OA
ATOM     18  C   UNL     1       7.681  -2.313   1.805  1.00  0.00     0.015 A 
ATOM     19  C   UNL     1       7.604  -5.165   1.993  1.00  0.00     0.030 A 
ATOM     20  C   UNL     1       8.838  -3.040   2.071  1.00  0.00     0.016 A 
BRANCH  11  21
ATOM     21  C   UNL     1       2.912  -3.538   1.741  1.00  0.00     0.098 A 
ATOM     22  C   UNL     1       0.910  -2.196   1.310  1.00  0.00     0.121 A 
ATOM     23  C   UNL     1       0.170  -3.049   2.127  1.00  0.00     0.050 A 
ATOM     24  C   UNL     1       2.262  -2.467   1.100  1.00  0.00     0.077 A 
ATOM     25  C   UNL     1       0.781  -4.142   2.751  1.00  0.00     0.052 A 
ATOM     26  C   UNL     1       2.150  -4.381   2.568  1.00  0.00     0.143 A 
BRANCH  22  27
ATOM     27  O   UNL     1       0.232  -1.120   0.805  1.00  0.00    -0.497 OA
ATOM     28  C   UNL     1       0.973  -0.218  -0.014  1.00  0.00     0.278 C 
ENDBRANCH  22  27
BRANCH  26  29
ATOM     29  O   UNL     1       2.776  -5.253   3.425  1.00  0.00    -0.495 OA
ATOM     30  C   UNL     1       2.564  -6.619   3.067  1.00  0.00     0.278 C 
ENDBRANCH  26  29
ENDBRANCH  11  21
ENDBRANCH   8  10
ENDBRANCH   7   8
ENDBRANCH   6   7
ENDBRANCH   5   6
ENDBRANCH   4   5
ENDBRANCH   3   4
ENDBRANCH   2   3
ENDBRANCH   1   2
BRANCH   1  31
ATOM     31  C   UNL     1      12.011  -5.819  -2.451  1.00  0.00     0.188 C 
BRANCH  31  32
ATOM     32  C   UNL     1      12.990  -4.734  -2.941  1.00  0.00     0.188 C 
BRANCH  32  33
ATOM     33  O   UNL     1      12.400  -3.456  -3.147  1.00  0.00    -0.376 OA
BRANCH  33  34
ATOM     34  C   UNL     1      12.297  -3.033  -4.500  1.00  0.00     0.202 C 
BRANCH  34  35
ATOM     35  C   UNL     1      11.104  -3.660  -5.228  1.00  0.00     0.261 C 
BRANCH  35  36
ATOM     36  O   UNL     1      11.191  -5.084  -5.396  1.00  0.00    -0.460 OA
BRANCH  36  37
ATOM     37  C   UNL     1      12.226  -5.553  -6.127  1.00  0.00     0.338 C 
ATOM     38  O   UNL     1      13.086  -4.909  -6.698  1.00  0.00    -0.246 OA
BRANCH  37  39
ATOM     39  C   UNL     1      12.246  -7.019  -5.982  1.00  0.00     0.060 A 
ATOM     40  C   UNL     1      13.407  -7.637  -5.502  1.00  0.00     0.016 A 
ATOM     41  C   UNL     1      11.118  -7.774  -6.313  1.00  0.00     0.016 A 
ATOM     42  C   UNL     1      13.453  -9.027  -5.382  1.00  0.00     0.010 A 
ATOM     43  C   UNL     1      11.171  -9.163  -6.210  1.00  0.00     0.010 A 
ATOM     44  C   UNL     1      12.348  -9.796  -5.773  1.00  0.00    -0.014 A 
BRANCH  44  45
ATOM     45  C   UNL     1      12.475 -11.265  -5.912  1.00  0.00     0.031 A 
ATOM     46  C   UNL     1      12.826 -11.821  -7.263  1.00  0.00     0.074 A 
ATOM     47  C   UNL     1      12.265 -12.088  -4.871  1.00  0.00     0.049 A 
ATOM     48  N   UNL     1      12.917 -13.066  -7.654  1.00  0.00    -0.248 NA
ATOM     49  C   UNL     1      13.109 -10.835  -8.320  1.00  0.00     0.031 C 
ATOM     50  C   UNL     1      11.946 -11.667  -3.509  1.00  0.00     0.029 A 
ATOM     51  N   UNL     1      12.272 -13.459  -4.809  1.00  0.00    -0.354 N 
ATOM     52  C   UNL     1      13.264 -13.012  -8.996  1.00  0.00     0.074 A 
ATOM     53  C   UNL     1      13.343 -11.616  -9.364  1.00  0.00     0.031 C 
ATOM     54  C   UNL     1      11.769 -12.761  -2.747  1.00  0.00     0.029 A 
ATOM     55  C   UNL     1      11.932 -13.955  -3.575  1.00  0.00     0.049 A 
ATOM     56  H   UNL     1      12.500 -14.032  -5.577  1.00  0.00     0.167 HD
ATOM     57  C   UNL     1      13.502 -14.038  -9.846  1.00  0.00     0.037 A 
ATOM     58  C   UNL     1      11.749 -15.228  -3.174  1.00  0.00     0.037 A 
ATOM     59  C   UNL     1      13.415 -15.427  -9.484  1.00  0.00     0.049 A 
ATOM     60  C   UNL     1      11.949 -16.352  -4.161  1.00  0.00     0.074 A 
ATOM     61  C   UNL     1      13.653 -16.540 -10.270  1.00  0.00     0.029 A 
ATOM     62  N   UNL     1      13.050 -15.890  -8.230  1.00  0.00    -0.354 N 
ATOM     63  N   UNL     1      12.311 -16.296  -5.420  1.00  0.00    -0.248 NA
ATOM     64  C   UNL     1      11.713 -17.717  -3.668  1.00  0.00     0.031 C 
ATOM     65  C   UNL     1      13.388 -17.679  -9.503  1.00  0.00     0.029 A 
ATOM     66  C   UNL     1      13.032 -17.275  -8.226  1.00  0.00     0.049 A 
ATOM     67  H   UNL     1      12.835 -15.320  -7.456  1.00  0.00     0.167 HD
ATOM     68  C   UNL     1      12.375 -17.613  -5.859  1.00  0.00     0.074 A 
ATOM     69  C   UNL     1      12.025 -18.448  -4.730  1.00  0.00     0.031 C 
ATOM     70  C   UNL     1      12.694 -18.090  -7.088  1.00  0.00     0.037 A 
BRANCH  57  71
ATOM     71  C   UNL     1      13.857 -13.694 -11.261  1.00  0.00     0.064 A 
ATOM     72  C   UNL     1      15.113 -13.165 -11.593  1.00  0.00     0.173 A 
ATOM     73  C   UNL     1      12.944 -13.927 -12.299  1.00  0.00     0.173 A 
ATOM     74  F   UNL     1      16.013 -12.907 -10.633  1.00  0.00    -0.203 F 
ATOM     75  C   UNL     1      15.435 -12.865 -12.914  1.00  0.00     0.198 A 
ATOM     76  C   UNL     1      13.278 -13.650 -13.621  1.00  0.00     0.198 A 
ATOM     77  F   UNL     1      11.730 -14.431 -12.031  1.00  0.00    -0.203 F 
ATOM     78  F   UNL     1      16.626 -12.324 -13.206  1.00  0.00    -0.200 F 
ATOM     79  C   UNL     1      14.521 -13.115 -13.927  1.00  0.00     0.200 A 
ATOM     80  F   UNL     1      12.398 -13.900 -14.600  1.00  0.00    -0.200 F 
ATOM     81  F   UNL     1      14.835 -12.834 -15.199  1.00  0.00    -0.200 F 
ENDBRANCH  57  71
BRANCH  58  82
ATOM     82  C   UNL     1      11.334 -15.520  -1.777  1.00  0.00     0.064 A 
ATOM     83  C   UNL     1      12.201 -16.170  -0.887  1.00  0.00     0.173 A 
ATOM     84  C   UNL     1      10.051 -15.193  -1.317  1.00  0.00     0.173 A 
ATOM     85  F   UNL     1      13.428 -16.530  -1.290  1.00  0.00    -0.203 F 
ATOM     86  C   UNL     1      11.791 -16.502   0.403  1.00  0.00     0.198 A 
ATOM     87  C   UNL     1       9.652 -15.501  -0.017  1.00  0.00     0.198 A 
ATOM     88  F   UNL     1       9.181 -14.577  -2.131  1.00  0.00    -0.203 F 
ATOM     89  F   UNL     1      12.620 -17.171   1.216  1.00  0.00    -0.200 F 
ATOM     90  C   UNL     1      10.519 -16.163   0.838  1.00  0.00     0.200 A 
ATOM     91  F   UNL     1       8.424 -15.165   0.402  1.00  0.00    -0.200 F 
ATOM     92  F   UNL     1      10.124 -16.485   2.078  1.00  0.00    -0.200 F 
ENDBRANCH  58  82
BRANCH  70  93
ATOM     93  C   UNL     1      12.720 -19.579  -7.268  1.00  0.00     0.064 A 
ATOM     94  C   UNL     1      11.541 -20.336  -7.318  1.00  0.00     0.173 A 
ATOM     95  C   UNL     1      13.940 -20.251  -7.441  1.00  0.00     0.173 A 
ATOM     96  F   UNL     1      10.350 -19.742  -7.144  1.00  0.00    -0.203 F 
ATOM     97  C   UNL     1      11.583 -21.714  -7.514  1.00  0.00     0.198 A 
ATOM     98  C   UNL     1      13.977 -21.624  -7.666  1.00  0.00     0.198 A 
ATOM     99  F   UNL     1      15.097 -19.572  -7.410  1.00  0.00    -0.203 F 
ATOM    100  F   UNL     1      10.446 -22.423  -7.517  1.00  0.00    -0.200 F 
ATOM    101  C   UNL     1      12.799 -22.355  -7.696  1.00  0.00     0.200 A 
ATOM    102  F   UNL     1      15.152 -22.240  -7.855  1.00  0.00    -0.200 F 
ATOM    103  F   UNL     1      12.837 -23.680  -7.893  1.00  0.00    -0.200 F 
ENDBRANCH  70  93
ENDBRANCH  44  45
ENDBRANCH  37  39
ENDBRANCH  36  37
ENDBRANCH  35  36
ENDBRANCH  34  35
ENDBRANCH  33  34
ENDBRANCH  32  33
ENDBRANCH  31  32
ENDBRANCH   1  31
TORSDOF 23
