REMARK SMILES CCCOc1ccc(NC(=O)CCC(=O)OCCOCCOCCOCCOC(=O)c2ccc(-c3c4nc(c(-c5c(F)c(F)c(F)c(F)c5F)c5ccc([nH]5)c(-c5c(F)c(F)c(F)c(F)c5F)c5nc(c(-c6c(F)c(F)c(F)c(F)c6F)c6ccc3[nH]6)C=C5)C=C4)cc2)cc1
REMARK SMILES IDX 20 1 19 2 18 3 17 4 16 5 14 6 15 7 13 8 12 9 10 10 9 11
REMARK SMILES IDX 11 13 8 14 5 15 6 16 95 17 7 18 94 19 4 20 3 21 2 22 1 23
REMARK SMILES IDX 21 24 22 25 23 26 24 27 25 28 26 29 27 30 28 31 29 32 30 33
REMARK SMILES IDX 31 34 32 35 93 36 33 37 92 38 34 39 35 40 36 41 86 42 37 43
REMARK SMILES IDX 91 44 85 45 87 46 38 47 90 48 84 49 83 50 39 52 71 53 51 54
REMARK SMILES IDX 70 55 52 56 55 57 69 58 88 59 53 60 54 61 68 63 89 64 56 65
REMARK SMILES IDX 40 66 41 67 49 68 42 69 43 70 47 71 50 72 44 73 45 74 48 75
REMARK SMILES IDX 46 76 72 77 73 78 81 79 74 80 75 81 79 82 82 83 76 84 77 85
REMARK SMILES IDX 80 86 78 87 57 88 58 89 66 90 59 91 60 92 64 93 67 94 61 95
REMARK SMILES IDX 62 96 65 97 63 98
REMARK H PARENT 9 12 87 51 55 62
REMARK Flexibility Score: inf
ROOT
ATOM      1  C   UNL     1       1.128   2.803   5.174  1.00  0.00     0.188 C 
ENDROOT
BRANCH   1   2
ATOM      2  O   UNL     1       0.125   2.116   4.411  1.00  0.00    -0.376 OA
BRANCH   2   3
ATOM      3  C   UNL     1      -1.229   2.546   4.606  1.00  0.00     0.202 C 
BRANCH   3   4
ATOM      4  C   UNL     1      -1.796   3.434   3.478  1.00  0.00     0.261 C 
BRANCH   4   5
ATOM      5  O   UNL     1      -0.977   4.561   3.136  1.00  0.00    -0.463 OA
BRANCH   5   6
ATOM      6  C   UNL     1      -0.807   5.522   4.064  1.00  0.00     0.306 C 
ATOM      7  O   UNL     1      -1.405   5.570   5.130  1.00  0.00    -0.252 OA
BRANCH   6   8
ATOM      8  C   UNL     1       0.213   6.544   3.619  1.00  0.00     0.132 C 
BRANCH   8   9
ATOM      9  C   UNL     1       1.333   6.001   2.725  1.00  0.00     0.112 C 
BRANCH   9  10
ATOM     10  C   UNL     1       1.038   6.107   1.240  1.00  0.00     0.224 C 
ATOM     11  N   UNL     1       0.719   5.096   0.382  1.00  0.00    -0.326 N 
ATOM     12  H   UNL     1       0.589   5.433  -0.533  1.00  0.00     0.169 HD
ATOM     13  O   UNL     1       1.081   7.239   0.730  1.00  0.00    -0.275 OA
BRANCH  11  14
ATOM     14  C   UNL     1       0.523   3.701   0.444  1.00  0.00     0.041 A 
ATOM     15  C   UNL     1      -0.062   0.923   0.499  1.00  0.00     0.119 A 
ATOM     16  C   UNL     1       0.487   1.544   1.591  1.00  0.00     0.048 A 
ATOM     17  C   UNL     1      -0.297   1.671  -0.646  1.00  0.00     0.048 A 
ATOM     18  C   UNL     1       0.746   2.920   1.555  1.00  0.00     0.030 A 
ATOM     19  C   UNL     1       0.026   3.041  -0.685  1.00  0.00     0.030 A 
BRANCH  15  20
ATOM     20  O   UNL     1      -0.515  -0.357   0.571  1.00  0.00    -0.494 OA
BRANCH  20  21
ATOM     21  C   UNL     1       0.489  -1.339   0.867  1.00  0.00     0.229 C 
BRANCH  21  22
ATOM     22  C   UNL     1       0.646  -2.180  -0.394  1.00  0.00     0.038 C 
ATOM     23  C   UNL     1       1.593  -1.524  -1.391  1.00  0.00     0.007 C 
ENDBRANCH  21  22
ENDBRANCH  20  21
ENDBRANCH  15  20
ENDBRANCH  11  14
ENDBRANCH   9  10
ENDBRANCH   8   9
ENDBRANCH   6   8
ENDBRANCH   5   6
ENDBRANCH   4   5
ENDBRANCH   3   4
ENDBRANCH   2   3
ENDBRANCH   1   2
BRANCH   1  24
ATOM     24  C   UNL     1       2.547   2.348   4.726  1.00  0.00     0.188 C 
BRANCH  24  25
ATOM     25  O   UNL     1       2.947   3.119   3.595  1.00  0.00    -0.377 OA
BRANCH  25  26
ATOM     26  C   UNL     1       3.742   2.570   2.545  1.00  0.00     0.188 C 
BRANCH  26  27
ATOM     27  C   UNL     1       3.844   1.047   2.368  1.00  0.00     0.188 C 
BRANCH  27  28
ATOM     28  O   UNL     1       4.792   0.369   3.191  1.00  0.00    -0.376 OA
BRANCH  28  29
ATOM     29  C   UNL     1       5.974   1.084   3.532  1.00  0.00     0.202 C 
BRANCH  29  30
ATOM     30  C   UNL     1       6.989   1.351   2.404  1.00  0.00     0.261 C 
BRANCH  30  31
ATOM     31  O   UNL     1       6.442   1.951   1.210  1.00  0.00    -0.460 OA
BRANCH  31  32
ATOM     32  C   UNL     1       6.357   1.122   0.138  1.00  0.00     0.338 C 
ATOM     33  O   UNL     1       6.652  -0.060   0.104  1.00  0.00    -0.246 OA
BRANCH  32  34
ATOM     34  C   UNL     1       5.760   1.804  -1.035  1.00  0.00     0.060 A 
ATOM     35  C   UNL     1       4.706   1.164  -1.701  1.00  0.00     0.016 A 
ATOM     36  C   UNL     1       6.330   2.955  -1.581  1.00  0.00     0.016 A 
ATOM     37  C   UNL     1       4.261   1.632  -2.943  1.00  0.00     0.010 A 
ATOM     38  C   UNL     1       5.888   3.420  -2.830  1.00  0.00     0.010 A 
ATOM     39  C   UNL     1       4.884   2.735  -3.542  1.00  0.00    -0.014 A 
BRANCH  39  40
ATOM     40  C   UNL     1       4.647   3.048  -4.981  1.00  0.00     0.031 A 
ATOM     41  C   UNL     1       5.667   2.595  -5.997  1.00  0.00     0.074 A 
ATOM     42  C   UNL     1       3.555   3.712  -5.402  1.00  0.00     0.049 A 
ATOM     43  N   UNL     1       5.744   2.852  -7.279  1.00  0.00    -0.248 NA
ATOM     44  C   UNL     1       6.747   1.734  -5.491  1.00  0.00     0.031 C 
ATOM     45  C   UNL     1       2.453   4.155  -4.552  1.00  0.00     0.029 A 
ATOM     46  N   UNL     1       3.206   4.145  -6.661  1.00  0.00    -0.354 N 
ATOM     47  C   UNL     1       6.888   2.202  -7.728  1.00  0.00     0.074 A 
ATOM     48  C   UNL     1       7.485   1.558  -6.577  1.00  0.00     0.031 C 
ATOM     49  C   UNL     1       1.560   4.817  -5.309  1.00  0.00     0.029 A 
ATOM     50  C   UNL     1       2.047   4.882  -6.689  1.00  0.00     0.049 A 
ATOM     51  H   UNL     1       3.736   3.945  -7.465  1.00  0.00     0.167 HD
ATOM     52  C   UNL     1       7.396   2.142  -8.983  1.00  0.00     0.037 A 
ATOM     53  C   UNL     1       1.467   5.561  -7.700  1.00  0.00     0.037 A 
ATOM     54  C   UNL     1       6.808   2.773 -10.135  1.00  0.00     0.049 A 
ATOM     55  C   UNL     1       2.103   5.561  -9.070  1.00  0.00     0.074 A 
ATOM     56  C   UNL     1       7.247   2.754 -11.448  1.00  0.00     0.029 A 
ATOM     57  N   UNL     1       5.655   3.543 -10.111  1.00  0.00    -0.354 N 
ATOM     58  N   UNL     1       3.181   4.943  -9.487  1.00  0.00    -0.248 NA
ATOM     59  C   UNL     1       1.439   6.363 -10.111  1.00  0.00     0.031 C 
ATOM     60  C   UNL     1       6.392   3.559 -12.208  1.00  0.00     0.029 A 
ATOM     61  C   UNL     1       5.385   4.029 -11.382  1.00  0.00     0.049 A 
ATOM     62  H   UNL     1       5.109   3.719  -9.311  1.00  0.00     0.167 HD
ATOM     63  C   UNL     1       3.305   5.253 -10.838  1.00  0.00     0.074 A 
ATOM     64  C   UNL     1       2.186   6.105 -11.176  1.00  0.00     0.031 C 
ATOM     65  C   UNL     1       4.262   4.866 -11.717  1.00  0.00     0.037 A 
BRANCH  52  66
ATOM     66  C   UNL     1       8.683   1.390  -9.174  1.00  0.00     0.064 A 
ATOM     67  C   UNL     1       8.743  -0.009  -9.085  1.00  0.00     0.173 A 
ATOM     68  C   UNL     1       9.865   2.079  -9.487  1.00  0.00     0.173 A 
ATOM     69  F   UNL     1       7.644  -0.714  -8.777  1.00  0.00    -0.203 F 
ATOM     70  C   UNL     1       9.945  -0.687  -9.273  1.00  0.00     0.198 A 
ATOM     71  C   UNL     1      11.058   1.395  -9.706  1.00  0.00     0.198 A 
ATOM     72  F   UNL     1       9.861   3.416  -9.592  1.00  0.00    -0.203 F 
ATOM     73  F   UNL     1       9.990  -2.019  -9.134  1.00  0.00    -0.200 F 
ATOM     74  C   UNL     1      11.099   0.015  -9.590  1.00  0.00     0.200 A 
ATOM     75  F   UNL     1      12.168   2.074 -10.027  1.00  0.00    -0.200 F 
ATOM     76  F   UNL     1      12.253  -0.640  -9.778  1.00  0.00    -0.200 F 
ENDBRANCH  52  66
BRANCH  53  77
ATOM     77  C   UNL     1       0.220   6.338  -7.460  1.00  0.00     0.064 A 
ATOM     78  C   UNL     1      -0.991   5.971  -8.066  1.00  0.00     0.173 A 
ATOM     79  C   UNL     1       0.223   7.489  -6.658  1.00  0.00     0.173 A 
ATOM     80  F   UNL     1      -1.038   4.899  -8.870  1.00  0.00    -0.203 F 
ATOM     81  C   UNL     1      -2.144   6.736  -7.895  1.00  0.00     0.198 A 
ATOM     82  C   UNL     1      -0.938   8.235  -6.463  1.00  0.00     0.198 A 
ATOM     83  F   UNL     1       1.356   7.891  -6.064  1.00  0.00    -0.203 F 
ATOM     84  F   UNL     1      -3.272   6.393  -8.531  1.00  0.00    -0.200 F 
ATOM     85  C   UNL     1      -2.118   7.863  -7.088  1.00  0.00     0.200 A 
ATOM     86  F   UNL     1      -0.910   9.319  -5.676  1.00  0.00    -0.200 F 
ATOM     87  F   UNL     1      -3.227   8.598  -6.924  1.00  0.00    -0.200 F 
ENDBRANCH  53  77
BRANCH  65  88
ATOM     88  C   UNL     1       4.125   5.317 -13.145  1.00  0.00     0.064 A 
ATOM     89  C   UNL     1       4.333   6.652 -13.524  1.00  0.00     0.173 A 
ATOM     90  C   UNL     1       3.832   4.390 -14.158  1.00  0.00     0.173 A 
ATOM     91  F   UNL     1       4.604   7.582 -12.596  1.00  0.00    -0.203 F 
ATOM     92  C   UNL     1       4.228   7.045 -14.857  1.00  0.00     0.198 A 
ATOM     93  C   UNL     1       3.759   4.780 -15.493  1.00  0.00     0.198 A 
ATOM     94  F   UNL     1       3.632   3.098 -13.854  1.00  0.00    -0.203 F 
ATOM     95  F   UNL     1       4.385   8.334 -15.188  1.00  0.00    -0.200 F 
ATOM     96  C   UNL     1       3.949   6.108 -15.840  1.00  0.00     0.200 A 
ATOM     97  F   UNL     1       3.506   3.869 -16.443  1.00  0.00    -0.200 F 
ATOM     98  F   UNL     1       3.859   6.486 -17.123  1.00  0.00    -0.200 F 
ENDBRANCH  65  88
ENDBRANCH  39  40
ENDBRANCH  32  34
ENDBRANCH  31  32
ENDBRANCH  30  31
ENDBRANCH  29  30
ENDBRANCH  28  29
ENDBRANCH  27  28
ENDBRANCH  26  27
ENDBRANCH  25  26
ENDBRANCH  24  25
ENDBRANCH   1  24
TORSDOF 26
