REMARK SMILES O=C(OCCOCCOCCOCCOC(=O)c1ccc(C(F)(F)F)nc1SC1CCOCC1)c1ccc(-c2c3nc(c(-c4c(F)c(F)c(F)c(F)c4F)c4ccc([nH]4)c(-c4c(F)c(F)c(F)c(F)c4F)c4nc(c(-c5c(F)c(F)c(F)c(F)c5F)c5ccc2[nH]5)C=C4)C=C3)cc1
REMARK SMILES IDX 9 1 8 2 7 3 6 4 5 5 4 6 3 7 2 8 1 9 35 10 36 11 97 12 37 13
REMARK SMILES IDX 96 14 38 15 39 16 40 17 90 18 41 19 95 20 89 21 91 22 42 23
REMARK SMILES IDX 94 24 88 25 87 26 43 28 75 29 55 30 74 31 56 32 59 33 73 34
REMARK SMILES IDX 92 35 57 36 58 37 72 39 93 40 60 41 44 42 45 43 53 44 46 45
REMARK SMILES IDX 47 46 51 47 54 48 48 49 49 50 52 51 50 52 76 53 77 54 85 55
REMARK SMILES IDX 78 56 79 57 83 58 86 59 80 60 81 61 84 62 82 63 61 64 62 65
REMARK SMILES IDX 70 66 63 67 64 68 68 69 71 70 65 71 66 72 69 73 67 74 10 75
REMARK SMILES IDX 11 76 12 77 13 78 14 79 15 80 16 81 17 82 18 83 19 84 27 85
REMARK SMILES IDX 20 86 26 87 21 88 28 89 29 90 30 91 34 92 31 93 33 94 32 95
REMARK SMILES IDX 22 96 23 97 24 98 25 99
REMARK H PARENT 91 27 59 38
REMARK Flexibility Score: inf
ROOT
ATOM      1  O   UNL     1       3.103   0.182   3.698  1.00  0.00    -0.377 OA
ENDROOT
BRANCH   1   2
ATOM      2  C   UNL     1       2.041   0.280   2.750  1.00  0.00     0.188 C 
BRANCH   2   3
ATOM      3  C   UNL     1       2.238   0.981   1.411  1.00  0.00     0.188 C 
BRANCH   3   4
ATOM      4  O   UNL     1       3.485   0.688   0.824  1.00  0.00    -0.376 OA
BRANCH   4   5
ATOM      5  C   UNL     1       4.352   1.814   0.679  1.00  0.00     0.202 C 
BRANCH   5   6
ATOM      6  C   UNL     1       3.961   2.672  -0.525  1.00  0.00     0.261 C 
BRANCH   6   7
ATOM      7  O   UNL     1       3.992   1.848  -1.702  1.00  0.00    -0.460 OA
BRANCH   7   8
ATOM      8  C   UNL     1       2.857   1.147  -1.960  1.00  0.00     0.338 C 
ATOM      9  O   UNL     1       1.707   1.492  -1.759  1.00  0.00    -0.246 OA
BRANCH   8  10
ATOM     10  C   UNL     1       3.274  -0.191  -2.430  1.00  0.00     0.060 A 
ATOM     11  C   UNL     1       4.351  -0.807  -1.783  1.00  0.00     0.016 A 
ATOM     12  C   UNL     1       2.618  -0.842  -3.474  1.00  0.00     0.016 A 
ATOM     13  C   UNL     1       4.817  -2.038  -2.191  1.00  0.00     0.010 A 
ATOM     14  C   UNL     1       3.106  -2.078  -3.913  1.00  0.00     0.010 A 
ATOM     15  C   UNL     1       4.221  -2.658  -3.282  1.00  0.00    -0.014 A 
BRANCH  15  16
ATOM     16  C   UNL     1       4.956  -3.789  -3.867  1.00  0.00     0.031 A 
ATOM     17  C   UNL     1       5.867  -3.489  -5.017  1.00  0.00     0.074 A 
ATOM     18  C   UNL     1       4.929  -4.996  -3.279  1.00  0.00     0.049 A 
ATOM     19  N   UNL     1       6.531  -4.308  -5.785  1.00  0.00    -0.248 NA
ATOM     20  C   UNL     1       6.076  -2.063  -5.333  1.00  0.00     0.031 C 
ATOM     21  C   UNL     1       4.223  -5.316  -2.036  1.00  0.00     0.029 A 
ATOM     22  N   UNL     1       5.517  -6.177  -3.645  1.00  0.00    -0.354 N 
ATOM     23  C   UNL     1       7.189  -3.502  -6.703  1.00  0.00     0.074 A 
ATOM     24  C   UNL     1       6.877  -2.129  -6.385  1.00  0.00     0.031 C 
ATOM     25  C   UNL     1       4.391  -6.621  -1.764  1.00  0.00     0.029 A 
ATOM     26  C   UNL     1       5.149  -7.234  -2.850  1.00  0.00     0.049 A 
ATOM     27  H   UNL     1       6.142  -6.259  -4.401  1.00  0.00     0.167 HD
ATOM     28  C   UNL     1       7.964  -3.897  -7.736  1.00  0.00     0.037 A 
ATOM     29  C   UNL     1       5.346  -8.553  -3.040  1.00  0.00     0.037 A 
ATOM     30  C   UNL     1       8.263  -5.276  -8.002  1.00  0.00     0.049 A 
ATOM     31  C   UNL     1       6.107  -8.974  -4.274  1.00  0.00     0.074 A 
ATOM     32  C   UNL     1       9.014  -5.816  -9.027  1.00  0.00     0.029 A 
ATOM     33  N   UNL     1       7.811  -6.335  -7.225  1.00  0.00    -0.354 N 
ATOM     34  N   UNL     1       6.687  -8.226  -5.185  1.00  0.00    -0.248 NA
ATOM     35  C   UNL     1       6.223 -10.416  -4.524  1.00  0.00     0.031 C 
ATOM     36  C   UNL     1       8.955  -7.208  -8.912  1.00  0.00     0.029 A 
ATOM     37  C   UNL     1       8.226  -7.532  -7.776  1.00  0.00     0.049 A 
ATOM     38  H   UNL     1       7.275  -6.246  -6.404  1.00  0.00     0.167 HD
ATOM     39  C   UNL     1       7.246  -9.103  -6.104  1.00  0.00     0.074 A 
ATOM     40  C   UNL     1       6.963 -10.440  -5.623  1.00  0.00     0.031 C 
ATOM     41  C   UNL     1       7.923  -8.839  -7.249  1.00  0.00     0.037 A 
BRANCH  28  42
ATOM     42  C   UNL     1       8.444  -2.852  -8.696  1.00  0.00     0.064 A 
ATOM     43  C   UNL     1       9.454  -1.937  -8.374  1.00  0.00     0.173 A 
ATOM     44  C   UNL     1       7.888  -2.791  -9.984  1.00  0.00     0.173 A 
ATOM     45  F   UNL     1       9.997  -1.932  -7.147  1.00  0.00    -0.203 F 
ATOM     46  C   UNL     1       9.887  -0.993  -9.305  1.00  0.00     0.198 A 
ATOM     47  C   UNL     1       8.340  -1.866 -10.919  1.00  0.00     0.198 A 
ATOM     48  F   UNL     1       6.907  -3.636 -10.337  1.00  0.00    -0.203 F 
ATOM     49  F   UNL     1      10.828  -0.102  -8.966  1.00  0.00    -0.200 F 
ATOM     50  C   UNL     1       9.337  -0.966 -10.579  1.00  0.00     0.200 A 
ATOM     51  F   UNL     1       7.810  -1.847 -12.150  1.00  0.00    -0.200 F 
ATOM     52  F   UNL     1       9.764  -0.067 -11.476  1.00  0.00    -0.200 F 
ENDBRANCH  28  42
BRANCH  29  53
ATOM     53  C   UNL     1       4.728  -9.558  -2.131  1.00  0.00     0.064 A 
ATOM     54  C   UNL     1       5.506 -10.485  -1.424  1.00  0.00     0.173 A 
ATOM     55  C   UNL     1       3.332  -9.659  -2.003  1.00  0.00     0.173 A 
ATOM     56  F   UNL     1       6.843 -10.452  -1.524  1.00  0.00    -0.203 F 
ATOM     57  C   UNL     1       4.915 -11.492  -0.660  1.00  0.00     0.198 A 
ATOM     58  C   UNL     1       2.743 -10.639  -1.207  1.00  0.00     0.198 A 
ATOM     59  F   UNL     1       2.531  -8.805  -2.658  1.00  0.00    -0.203 F 
ATOM     60  F   UNL     1       5.683 -12.410  -0.057  1.00  0.00    -0.200 F 
ATOM     61  C   UNL     1       3.534 -11.566  -0.549  1.00  0.00     0.200 A 
ATOM     62  F   UNL     1       1.409 -10.693  -1.091  1.00  0.00    -0.200 F 
ATOM     63  F   UNL     1       2.967 -12.539   0.177  1.00  0.00    -0.200 F 
ENDBRANCH  29  53
BRANCH  41  64
ATOM     64  C   UNL     1       8.411 -10.015  -8.039  1.00  0.00     0.064 A 
ATOM     65  C   UNL     1       7.527 -10.828  -8.761  1.00  0.00     0.173 A 
ATOM     66  C   UNL     1       9.785 -10.283  -8.133  1.00  0.00     0.173 A 
ATOM     67  F   UNL     1       6.203 -10.617  -8.689  1.00  0.00    -0.203 F 
ATOM     68  C   UNL     1       8.000 -11.881  -9.537  1.00  0.00     0.198 A 
ATOM     69  C   UNL     1      10.257 -11.313  -8.939  1.00  0.00     0.198 A 
ATOM     70  F   UNL     1      10.670  -9.525  -7.468  1.00  0.00    -0.203 F 
ATOM     71  F   UNL     1       7.136 -12.673 -10.185  1.00  0.00    -0.200 F 
ATOM     72  C   UNL     1       9.364 -12.114  -9.635  1.00  0.00     0.200 A 
ATOM     73  F   UNL     1      11.575 -11.523  -9.050  1.00  0.00    -0.200 F 
ATOM     74  F   UNL     1       9.819 -13.116 -10.399  1.00  0.00    -0.200 F 
ENDBRANCH  41  64
ENDBRANCH  15  16
ENDBRANCH   8  10
ENDBRANCH   7   8
ENDBRANCH   6   7
ENDBRANCH   5   6
ENDBRANCH   4   5
ENDBRANCH   3   4
ENDBRANCH   2   3
ENDBRANCH   1   2
BRANCH   1  75
ATOM     75  C   UNL     1       4.423  -0.385   3.486  1.00  0.00     0.188 C 
BRANCH  75  76
ATOM     76  C   UNL     1       4.638  -2.057   3.592  1.00  0.00     0.188 C 
BRANCH  76  77
ATOM     77  O   UNL     1       4.720  -3.587   2.298  1.00  0.00    -0.376 OA
BRANCH  77  78
ATOM     78  C   UNL     1       3.540  -5.015   2.506  1.00  0.00     0.202 C 
BRANCH  78  79
ATOM     79  C   UNL     1       2.572  -5.158   4.118  1.00  0.00     0.261 C 
BRANCH  79  80
ATOM     80  O   UNL     1       2.893  -4.201   5.494  1.00  0.00    -0.460 OA
BRANCH  80  81
ATOM     81  C   UNL     1       4.162  -4.063   6.114  1.00  0.00     0.340 C 
ATOM     82  O   UNL     1       4.760  -5.070   6.488  1.00  0.00    -0.246 OA
BRANCH  81  83
ATOM     83  C   UNL     1       4.825  -2.605   6.457  1.00  0.00     0.092 A 
ATOM     84  C   UNL     1       4.140  -2.037   7.550  1.00  0.00     0.021 A 
ATOM     85  C   UNL     1       6.081  -1.866   6.066  1.00  0.00     0.112 A 
ATOM     86  C   UNL     1       4.643  -0.926   8.254  1.00  0.00     0.034 A 
ATOM     87  N   UNL     1       6.546  -0.814   6.817  1.00  0.00    -0.236 NA
ATOM     88  C   UNL     1       5.869  -0.369   7.902  1.00  0.00     0.145 A 
BRANCH  85  89
ATOM     89  S   UNL     1       7.293  -1.599   4.415  1.00  0.00    -0.102 SA
BRANCH  89  90
ATOM     90  C   UNL     1       6.549  -2.262   2.462  1.00  0.00     0.058 C 
ATOM     91  C   UNL     1       4.920  -1.865   1.513  1.00  0.00     0.043 C 
ATOM     92  C   UNL     1       6.765  -3.795   2.811  1.00  0.00     0.043 C 
ATOM     93  C   UNL     1       3.254  -2.594   2.315  1.00  0.00     0.161 C 
ATOM     94  C   UNL     1       5.590  -4.430   3.816  1.00  0.00     0.161 C 
ATOM     95  O   UNL     1       3.879  -3.689   3.801  1.00  0.00    -0.381 OA
ENDBRANCH  89  90
ENDBRANCH  85  89
BRANCH  88  96
ATOM     96  C   UNL     1       6.477   0.779   8.708  1.00  0.00     0.433 C 
ATOM     97  F   UNL     1       7.808   0.614   8.965  1.00  0.00    -0.165 F 
ATOM     98  F   UNL     1       6.364   1.989   8.088  1.00  0.00    -0.165 F 
ATOM     99  F   UNL     1       5.894   0.944   9.933  1.00  0.00    -0.165 F 
ENDBRANCH  88  96
ENDBRANCH  81  83
ENDBRANCH  80  81
ENDBRANCH  79  80
ENDBRANCH  78  79
ENDBRANCH  77  78
ENDBRANCH  76  77
ENDBRANCH  75  76
ENDBRANCH   1  75
TORSDOF 23
