REMARK SMILES CS(=O)(=O)c1ccc(/C=C(/C(=O)OCCOCCOCCOCCOC(=O)c2ccc(-c3c4nc(c(-c5c(F)c(F)c(F)c(F)c5F)c5ccc([nH]5)c(-c5c(F)c(F)c(F)c(F)c5F)c5nc(c(-c6c(F)c(F)c(F)c(F)c6F)c6ccc3[nH]6)C=C5)C=C4)cc2)c2ccc(O)cc2)cc1
REMARK SMILES IDX 19 1 18 2 17 3 16 4 15 5 14 6 13 7 11 8 12 9 10 10 9 11 8 12
REMARK SMILES IDX 5 13 6 14 99 15 7 16 98 17 2 18 1 19 3 20 4 21 91 22 92 23
REMARK SMILES IDX 97 24 93 25 96 26 94 27 95 28 20 30 21 31 22 32 23 33 24 34
REMARK SMILES IDX 25 35 26 36 27 37 28 38 29 39 90 40 30 41 89 42 31 43 32 44
REMARK SMILES IDX 33 45 83 46 34 47 88 48 82 49 84 50 35 51 87 52 81 53 80 54
REMARK SMILES IDX 36 56 68 57 48 58 67 59 49 60 52 61 66 62 85 63 50 64 51 65
REMARK SMILES IDX 65 67 86 68 53 69 37 70 38 71 46 72 39 73 40 74 44 75 47 76
REMARK SMILES IDX 41 77 42 78 45 79 43 80 69 81 70 82 78 83 71 84 72 85 76 86
REMARK SMILES IDX 79 87 73 88 74 89 77 90 75 91 54 92 55 93 63 94 56 95 57 96
REMARK SMILES IDX 61 97 64 98 58 99 59 100 62 101 60 102
REMARK H PARENT 95 29 84 55 52 66
REMARK Flexibility Score: inf
ROOT
ATOM      1  O   UNL     1       4.404   6.741  -6.349  1.00  0.00    -0.377 OA
ENDROOT
BRANCH   1   2
ATOM      2  C   UNL     1       4.828   5.476  -6.833  1.00  0.00     0.188 C 
BRANCH   2   3
ATOM      3  C   UNL     1       4.927   5.247  -8.360  1.00  0.00     0.188 C 
BRANCH   3   4
ATOM      4  O   UNL     1       4.606   6.393  -9.131  1.00  0.00    -0.376 OA
BRANCH   4   5
ATOM      5  C   UNL     1       3.378   6.374  -9.835  1.00  0.00     0.202 C 
BRANCH   5   6
ATOM      6  C   UNL     1       2.088   6.294  -9.003  1.00  0.00     0.261 C 
BRANCH   6   7
ATOM      7  O   UNL     1       2.082   5.319  -7.948  1.00  0.00    -0.460 OA
BRANCH   7   8
ATOM      8  C   UNL     1       1.953   4.016  -8.302  1.00  0.00     0.338 C 
ATOM      9  O   UNL     1       1.789   3.613  -9.443  1.00  0.00    -0.246 OA
BRANCH   8  10
ATOM     10  C   UNL     1       2.183   3.121  -7.114  1.00  0.00     0.067 C 
ATOM     11  C   UNL     1       1.705   3.509  -5.904  1.00  0.00     0.024 C 
BRANCH  11  12
ATOM     12  C   UNL     1       1.602   2.731  -4.645  1.00  0.00    -0.025 A 
ATOM     13  C   UNL     1       0.898   0.974  -2.578  1.00  0.00     0.067 A 
ATOM     14  C   UNL     1       2.065   0.753  -3.304  1.00  0.00     0.021 A 
ATOM     15  C   UNL     1       0.150   2.134  -2.780  1.00  0.00     0.021 A 
ATOM     16  C   UNL     1       2.435   1.660  -4.298  1.00  0.00     0.009 A 
ATOM     17  C   UNL     1       0.510   3.011  -3.806  1.00  0.00     0.009 A 
BRANCH  13  18
ATOM     18  S   UNL     1       0.268  -0.310  -1.527  1.00  0.00     0.175 S 
ATOM     19  C   UNL     1       0.952   0.068   0.059  1.00  0.00     0.163 C 
ATOM     20  O   UNL     1       0.841  -1.564  -1.979  1.00  0.00    -0.224 OA
ATOM     21  O   UNL     1      -1.171  -0.140  -1.452  1.00  0.00    -0.224 OA
ENDBRANCH  13  18
ENDBRANCH  11  12
BRANCH  10  22
ATOM     22  C   UNL     1       2.906   1.851  -7.335  1.00  0.00    -0.011 A 
ATOM     23  C   UNL     1       4.314   1.834  -7.321  1.00  0.00     0.013 A 
ATOM     24  C   UNL     1       2.220   0.636  -7.433  1.00  0.00     0.013 A 
ATOM     25  C   UNL     1       5.020   0.635  -7.382  1.00  0.00     0.047 A 
ATOM     26  C   UNL     1       2.928  -0.570  -7.474  1.00  0.00     0.047 A 
ATOM     27  C   UNL     1       4.321  -0.559  -7.440  1.00  0.00     0.115 A 
BRANCH  27  28
ATOM     28  O   UNL     1       5.046  -1.712  -7.433  1.00  0.00    -0.508 OA
ATOM     29  H   UNL     1       5.982  -1.676  -7.409  1.00  0.00     0.293 HD
ENDBRANCH  27  28
ENDBRANCH  10  22
ENDBRANCH   8  10
ENDBRANCH   7   8
ENDBRANCH   6   7
ENDBRANCH   5   6
ENDBRANCH   4   5
ENDBRANCH   3   4
ENDBRANCH   2   3
ENDBRANCH   1   2
BRANCH   1  30
ATOM     30  C   UNL     1       4.937   7.923  -6.934  1.00  0.00     0.188 C 
BRANCH  30  31
ATOM     31  C   UNL     1       6.352   7.925  -7.561  1.00  0.00     0.188 C 
BRANCH  31  32
ATOM     32  O   UNL     1       7.105   6.744  -7.338  1.00  0.00    -0.376 OA
BRANCH  32  33
ATOM     33  C   UNL     1       8.155   6.794  -6.389  1.00  0.00     0.202 C 
BRANCH  33  34
ATOM     34  C   UNL     1       7.762   7.065  -4.931  1.00  0.00     0.261 C 
BRANCH  34  35
ATOM     35  O   UNL     1       6.981   8.247  -4.696  1.00  0.00    -0.460 OA
BRANCH  35  36
ATOM     36  C   UNL     1       7.556   9.437  -4.966  1.00  0.00     0.338 C 
ATOM     37  O   UNL     1       8.687   9.637  -5.376  1.00  0.00    -0.246 OA
BRANCH  36  38
ATOM     38  C   UNL     1       6.505  10.469  -4.868  1.00  0.00     0.060 A 
ATOM     39  C   UNL     1       6.173  11.220  -6.005  1.00  0.00     0.016 A 
ATOM     40  C   UNL     1       5.826  10.671  -3.664  1.00  0.00     0.016 A 
ATOM     41  C   UNL     1       5.177  12.193  -5.932  1.00  0.00     0.010 A 
ATOM     42  C   UNL     1       4.848  11.664  -3.585  1.00  0.00     0.010 A 
ATOM     43  C   UNL     1       4.541  12.449  -4.711  1.00  0.00    -0.014 A 
BRANCH  43  44
ATOM     44  C   UNL     1       3.700  13.661  -4.564  1.00  0.00     0.031 A 
ATOM     45  C   UNL     1       4.320  14.888  -3.956  1.00  0.00     0.074 A 
ATOM     46  C   UNL     1       2.421  13.682  -4.978  1.00  0.00     0.049 A 
ATOM     47  N   UNL     1       3.782  16.049  -3.687  1.00  0.00    -0.248 NA
ATOM     48  C   UNL     1       5.745  14.787  -3.599  1.00  0.00     0.031 C 
ATOM     49  C   UNL     1       1.722  12.570  -5.615  1.00  0.00     0.029 A 
ATOM     50  N   UNL     1       1.482  14.681  -4.911  1.00  0.00    -0.354 N 
ATOM     51  C   UNL     1       4.797  16.812  -3.124  1.00  0.00     0.074 A 
ATOM     52  C   UNL     1       5.973  15.973  -3.058  1.00  0.00     0.031 C 
ATOM     53  C   UNL     1       0.455  12.944  -5.870  1.00  0.00     0.029 A 
ATOM     54  C   UNL     1       0.248  14.307  -5.382  1.00  0.00     0.049 A 
ATOM     55  H   UNL     1       1.675  15.580  -4.559  1.00  0.00     0.167 HD
ATOM     56  C   UNL     1       4.752  18.099  -2.706  1.00  0.00     0.037 A 
ATOM     57  C   UNL     1      -0.918  14.982  -5.392  1.00  0.00     0.037 A 
ATOM     58  C   UNL     1       3.577  18.927  -2.769  1.00  0.00     0.049 A 
ATOM     59  C   UNL     1      -0.962  16.390  -4.852  1.00  0.00     0.074 A 
ATOM     60  C   UNL     1       3.434  20.252  -2.396  1.00  0.00     0.029 A 
ATOM     61  N   UNL     1       2.336  18.504  -3.223  1.00  0.00    -0.354 N 
ATOM     62  N   UNL     1       0.008  17.119  -4.354  1.00  0.00    -0.248 NA
ATOM     63  C   UNL     1      -2.264  17.072  -4.882  1.00  0.00     0.031 C 
ATOM     64  C   UNL     1       2.092  20.609  -2.560  1.00  0.00     0.029 A 
ATOM     65  C   UNL     1       1.413  19.531  -3.105  1.00  0.00     0.049 A 
ATOM     66  H   UNL     1       2.140  17.606  -3.577  1.00  0.00     0.167 HD
ATOM     67  C   UNL     1      -0.557  18.349  -4.040  1.00  0.00     0.074 A 
ATOM     68  C   UNL     1      -1.952  18.274  -4.419  1.00  0.00     0.031 C 
ATOM     69  C   UNL     1       0.026  19.443  -3.489  1.00  0.00     0.037 A 
BRANCH  56  70
ATOM     70  C   UNL     1       6.002  18.676  -2.106  1.00  0.00     0.064 A 
ATOM     71  C   UNL     1       7.145  18.936  -2.877  1.00  0.00     0.173 A 
ATOM     72  C   UNL     1       6.046  18.997  -0.740  1.00  0.00     0.173 A 
ATOM     73  F   UNL     1       7.162  18.634  -4.184  1.00  0.00    -0.203 F 
ATOM     74  C   UNL     1       8.295  19.467  -2.297  1.00  0.00     0.198 A 
ATOM     75  C   UNL     1       7.185  19.559  -0.171  1.00  0.00     0.198 A 
ATOM     76  F   UNL     1       4.981  18.770   0.043  1.00  0.00    -0.203 F 
ATOM     77  F   UNL     1       9.393  19.655  -3.042  1.00  0.00    -0.200 F 
ATOM     78  C   UNL     1       8.312  19.785  -0.947  1.00  0.00     0.200 A 
ATOM     79  F   UNL     1       7.194  19.879   1.130  1.00  0.00    -0.200 F 
ATOM     80  F   UNL     1       9.416  20.302  -0.393  1.00  0.00    -0.200 F 
ENDBRANCH  56  70
BRANCH  57  81
ATOM     81  C   UNL     1      -2.149  14.331  -5.916  1.00  0.00     0.064 A 
ATOM     82  C   UNL     1      -2.773  14.789  -7.084  1.00  0.00     0.173 A 
ATOM     83  C   UNL     1      -2.737  13.247  -5.246  1.00  0.00     0.173 A 
ATOM     84  F   UNL     1      -2.266  15.839  -7.746  1.00  0.00    -0.203 F 
ATOM     85  C   UNL     1      -3.947  14.200  -7.552  1.00  0.00     0.198 A 
ATOM     86  C   UNL     1      -3.892  12.639  -5.733  1.00  0.00     0.198 A 
ATOM     87  F   UNL     1      -2.183  12.771  -4.121  1.00  0.00    -0.203 F 
ATOM     88  F   UNL     1      -4.550  14.691  -8.643  1.00  0.00    -0.200 F 
ATOM     89  C   UNL     1      -4.502  13.121  -6.880  1.00  0.00     0.200 A 
ATOM     90  F   UNL     1      -4.416  11.588  -5.087  1.00  0.00    -0.200 F 
ATOM     91  F   UNL     1      -5.627  12.553  -7.334  1.00  0.00    -0.200 F 
ENDBRANCH  57  81
BRANCH  69  92
ATOM     92  C   UNL     1      -0.831  20.664  -3.296  1.00  0.00     0.064 A 
ATOM     93  C   UNL     1      -1.857  20.707  -2.341  1.00  0.00     0.173 A 
ATOM     94  C   UNL     1      -0.592  21.823  -4.052  1.00  0.00     0.173 A 
ATOM     95  F   UNL     1      -2.135  19.624  -1.599  1.00  0.00    -0.203 F 
ATOM     96  C   UNL     1      -2.632  21.852  -2.172  1.00  0.00     0.198 A 
ATOM     97  C   UNL     1      -1.345  22.977  -3.855  1.00  0.00     0.198 A 
ATOM     98  F   UNL     1       0.383  21.842  -4.973  1.00  0.00    -0.203 F 
ATOM     99  F   UNL     1      -3.643  21.850  -1.292  1.00  0.00    -0.200 F 
ATOM    100  C   UNL     1      -2.370  22.988  -2.923  1.00  0.00     0.200 A 
ATOM    101  F   UNL     1      -1.077  24.080  -4.569  1.00  0.00    -0.200 F 
ATOM    102  F   UNL     1      -3.112  24.091  -2.753  1.00  0.00    -0.200 F 
ENDBRANCH  69  92
ENDBRANCH  43  44
ENDBRANCH  36  38
ENDBRANCH  35  36
ENDBRANCH  34  35
ENDBRANCH  33  34
ENDBRANCH  32  33
ENDBRANCH  31  32
ENDBRANCH  30  31
ENDBRANCH   1  30
TORSDOF 24
