REMARK SMILES O=C(OCCOCCOCCOCCOC(=O)[C@H]1[C@@H](C(=O)NNC(=O)c2ccccc2Cl)[C@H]2C=C[C@@H]1C2)c1ccc(-c2c3nc(c(-c4c(F)c(F)c(F)c(F)c4F)c4ccc([nH]4)c(-c4c(F)c(F)c(F)c(F)c4F)c4nc(c(-c5c(F)c(F)c(F)c(F)c5F)c5ccc2[nH]5)C=C4)C=C3)cc1
REMARK SMILES IDX 10 1 9 2 8 3 7 4 6 5 5 6 4 7 3 8 2 9 1 10 38 11 39 12 100 13
REMARK SMILES IDX 40 14 99 15 41 16 42 17 43 18 93 19 44 20 98 21 92 22 94 23
REMARK SMILES IDX 45 24 97 25 91 26 90 27 46 29 78 30 58 31 77 32 59 33 62 34
REMARK SMILES IDX 76 35 95 36 60 37 61 38 75 40 96 41 63 42 47 43 48 44 56 45
REMARK SMILES IDX 49 46 50 47 54 48 57 49 51 50 52 51 55 52 53 53 79 54 80 55
REMARK SMILES IDX 88 56 81 57 82 58 86 59 89 60 83 61 84 62 87 63 85 64 64 65
REMARK SMILES IDX 65 66 73 67 66 68 67 69 71 70 74 71 68 72 69 73 72 74 70 75
REMARK SMILES IDX 11 76 12 77 13 78 14 79 15 80 16 81 17 82 18 83 19 84 36 85
REMARK SMILES IDX 33 86 35 87 37 88 34 89 20 90 21 91 22 92 23 94 24 95 25 97
REMARK SMILES IDX 26 98 27 99 31 100 28 101 30 102 32 103 29 104
REMARK H PARENT 94 28 62 39 22 93 23 96
REMARK Flexibility Score: inf
ROOT
ATOM      1  C   UNL     1       3.296   3.090  -1.985  1.00  0.00     0.188 C 
ENDROOT
BRANCH   1   2
ATOM      2  O   UNL     1       4.604   3.623  -2.248  1.00  0.00    -0.377 OA
BRANCH   2   3
ATOM      3  C   UNL     1       5.011   3.669  -3.615  1.00  0.00     0.188 C 
BRANCH   3   4
ATOM      4  C   UNL     1       4.805   2.406  -4.425  1.00  0.00     0.188 C 
BRANCH   4   5
ATOM      5  O   UNL     1       5.374   1.263  -3.792  1.00  0.00    -0.376 OA
BRANCH   5   6
ATOM      6  C   UNL     1       6.793   1.193  -3.884  1.00  0.00     0.202 C 
BRANCH   6   7
ATOM      7  C   UNL     1       7.256   0.418  -5.119  1.00  0.00     0.261 C 
BRANCH   7   8
ATOM      8  O   UNL     1       6.853   1.081  -6.336  1.00  0.00    -0.460 OA
BRANCH   8   9
ATOM      9  C   UNL     1       6.011   0.532  -7.246  1.00  0.00     0.338 C 
ATOM     10  O   UNL     1       6.289   0.540  -8.445  1.00  0.00    -0.246 OA
BRANCH   9  11
ATOM     11  C   UNL     1       4.607   0.222  -6.840  1.00  0.00     0.060 A 
ATOM     12  C   UNL     1       4.273  -0.531  -5.715  1.00  0.00     0.016 A 
ATOM     13  C   UNL     1       3.567   0.669  -7.679  1.00  0.00     0.016 A 
ATOM     14  C   UNL     1       2.943  -0.807  -5.409  1.00  0.00     0.010 A 
ATOM     15  C   UNL     1       2.229   0.334  -7.416  1.00  0.00     0.010 A 
ATOM     16  C   UNL     1       1.921  -0.441  -6.294  1.00  0.00    -0.014 A 
BRANCH  16  17
ATOM     17  C   UNL     1       0.659  -1.210  -6.167  1.00  0.00     0.031 A 
ATOM     18  C   UNL     1       0.726  -2.650  -6.582  1.00  0.00     0.074 A 
ATOM     19  C   UNL     1      -0.433  -0.730  -5.550  1.00  0.00     0.049 A 
ATOM     20  N   UNL     1      -0.064  -3.640  -6.272  1.00  0.00    -0.248 NA
ATOM     21  C   UNL     1       1.885  -3.034  -7.409  1.00  0.00     0.031 C 
ATOM     22  C   UNL     1      -0.590   0.635  -5.079  1.00  0.00     0.029 A 
ATOM     23  N   UNL     1      -1.601  -1.345  -5.181  1.00  0.00    -0.354 N 
ATOM     24  C   UNL     1       0.555  -4.772  -6.779  1.00  0.00     0.074 A 
ATOM     25  C   UNL     1       1.757  -4.348  -7.458  1.00  0.00     0.031 C 
ATOM     26  C   UNL     1      -1.779   0.767  -4.469  1.00  0.00     0.029 A 
ATOM     27  C   UNL     1      -2.467  -0.520  -4.502  1.00  0.00     0.049 A 
ATOM     28  H   UNL     1      -1.801  -2.288  -5.382  1.00  0.00     0.167 HD
ATOM     29  C   UNL     1       0.154  -6.058  -6.678  1.00  0.00     0.037 A 
ATOM     30  C   UNL     1      -3.671  -0.789  -3.959  1.00  0.00     0.037 A 
ATOM     31  C   UNL     1      -1.116  -6.450  -6.143  1.00  0.00     0.049 A 
ATOM     32  C   UNL     1      -4.174  -2.210  -4.012  1.00  0.00     0.074 A 
ATOM     33  C   UNL     1      -1.706  -7.699  -6.137  1.00  0.00     0.029 A 
ATOM     34  N   UNL     1      -2.017  -5.571  -5.555  1.00  0.00    -0.354 N 
ATOM     35  N   UNL     1      -3.571  -3.285  -4.461  1.00  0.00    -0.248 NA
ATOM     36  C   UNL     1      -5.520  -2.458  -3.478  1.00  0.00     0.031 C 
ATOM     37  C   UNL     1      -2.989  -7.565  -5.595  1.00  0.00     0.029 A 
ATOM     38  C   UNL     1      -3.175  -6.245  -5.212  1.00  0.00     0.049 A 
ATOM     39  H   UNL     1      -1.855  -4.612  -5.405  1.00  0.00     0.167 HD
ATOM     40  C   UNL     1      -4.454  -4.335  -4.255  1.00  0.00     0.074 A 
ATOM     41  C   UNL     1      -5.623  -3.773  -3.610  1.00  0.00     0.031 C 
ATOM     42  C   UNL     1      -4.321  -5.646  -4.577  1.00  0.00     0.037 A 
BRANCH  29  43
ATOM     43  C   UNL     1       1.086  -7.087  -7.230  1.00  0.00     0.064 A 
ATOM     44  C   UNL     1       2.259  -7.442  -6.545  1.00  0.00     0.173 A 
ATOM     45  C   UNL     1       0.847  -7.673  -8.480  1.00  0.00     0.173 A 
ATOM     46  F   UNL     1       2.549  -6.876  -5.363  1.00  0.00    -0.203 F 
ATOM     47  C   UNL     1       3.167  -8.337  -7.102  1.00  0.00     0.198 A 
ATOM     48  C   UNL     1       1.750  -8.580  -9.026  1.00  0.00     0.198 A 
ATOM     49  F   UNL     1      -0.247  -7.343  -9.181  1.00  0.00    -0.203 F 
ATOM     50  F   UNL     1       4.305  -8.626  -6.455  1.00  0.00    -0.200 F 
ATOM     51  C   UNL     1       2.911  -8.906  -8.340  1.00  0.00     0.200 A 
ATOM     52  F   UNL     1       1.507  -9.121 -10.227  1.00  0.00    -0.200 F 
ATOM     53  F   UNL     1       3.794  -9.756  -8.883  1.00  0.00    -0.200 F 
ENDBRANCH  29  43
BRANCH  30  54
ATOM     54  C   UNL     1      -4.486   0.292  -3.339  1.00  0.00     0.064 A 
ATOM     55  C   UNL     1      -4.813   0.280  -1.975  1.00  0.00     0.173 A 
ATOM     56  C   UNL     1      -5.007   1.337  -4.118  1.00  0.00     0.173 A 
ATOM     57  F   UNL     1      -4.365  -0.709  -1.187  1.00  0.00    -0.203 F 
ATOM     58  C   UNL     1      -5.651   1.250  -1.423  1.00  0.00     0.198 A 
ATOM     59  C   UNL     1      -5.820   2.322  -3.561  1.00  0.00     0.198 A 
ATOM     60  F   UNL     1      -4.736   1.397  -5.430  1.00  0.00    -0.203 F 
ATOM     61  F   UNL     1      -5.998   1.178  -0.131  1.00  0.00    -0.200 F 
ATOM     62  C   UNL     1      -6.151   2.272  -2.216  1.00  0.00     0.200 A 
ATOM     63  F   UNL     1      -6.295   3.311  -4.330  1.00  0.00    -0.200 F 
ATOM     64  F   UNL     1      -6.965   3.197  -1.689  1.00  0.00    -0.200 F 
ENDBRANCH  30  54
BRANCH  42  65
ATOM     65  C   UNL     1      -5.466  -6.550  -4.238  1.00  0.00     0.064 A 
ATOM     66  C   UNL     1      -6.668  -6.507  -4.960  1.00  0.00     0.173 A 
ATOM     67  C   UNL     1      -5.340  -7.503  -3.217  1.00  0.00     0.173 A 
ATOM     68  F   UNL     1      -6.838  -5.604  -5.937  1.00  0.00    -0.203 F 
ATOM     69  C   UNL     1      -7.713  -7.373  -4.655  1.00  0.00     0.198 A 
ATOM     70  C   UNL     1      -6.377  -8.387  -2.935  1.00  0.00     0.198 A 
ATOM     71  F   UNL     1      -4.206  -7.588  -2.506  1.00  0.00    -0.203 F 
ATOM     72  F   UNL     1      -8.869  -7.288  -5.328  1.00  0.00    -0.200 F 
ATOM     73  C   UNL     1      -7.564  -8.316  -3.649  1.00  0.00     0.200 A 
ATOM     74  F   UNL     1      -6.227  -9.307  -1.973  1.00  0.00    -0.200 F 
ATOM     75  F   UNL     1      -8.569  -9.156  -3.363  1.00  0.00    -0.200 F 
ENDBRANCH  42  65
ENDBRANCH  16  17
ENDBRANCH   9  11
ENDBRANCH   8   9
ENDBRANCH   7   8
ENDBRANCH   6   7
ENDBRANCH   5   6
ENDBRANCH   4   5
ENDBRANCH   3   4
ENDBRANCH   2   3
ENDBRANCH   1   2
BRANCH   1  76
ATOM     76  C   UNL     1       2.714   3.798  -0.752  1.00  0.00     0.188 C 
BRANCH  76  77
ATOM     77  O   UNL     1       1.298   3.976  -0.680  1.00  0.00    -0.376 OA
BRANCH  77  78
ATOM     78  C   UNL     1       0.703   5.010  -1.471  1.00  0.00     0.202 C 
BRANCH  78  79
ATOM     79  C   UNL     1       1.057   6.477  -1.135  1.00  0.00     0.261 C 
BRANCH  79  80
ATOM     80  O   UNL     1       2.456   6.791  -1.319  1.00  0.00    -0.463 OA
BRANCH  80  81
ATOM     81  C   UNL     1       3.102   7.274  -0.246  1.00  0.00     0.310 C 
ATOM     82  O   UNL     1       2.535   7.689   0.761  1.00  0.00    -0.252 OA
BRANCH  81  83
ATOM     83  C   UNL     1       4.595   7.073  -0.281  1.00  0.00     0.119 C 
ATOM     84  C   UNL     1       5.625   6.662  -1.383  1.00  0.00     0.102 C 
ATOM     85  C   UNL     1       5.292   8.246   0.453  1.00  0.00     0.027 C 
ATOM     86  C   UNL     1       6.895   7.467  -0.869  1.00  0.00     0.025 C 
ATOM     87  C   UNL     1       5.638   9.347  -0.526  1.00  0.00    -0.027 C 
ATOM     88  C   UNL     1       6.677   7.629   0.636  1.00  0.00     0.017 C 
ATOM     89  C   UNL     1       6.656   8.903  -1.276  1.00  0.00    -0.027 C 
BRANCH  84  90
ATOM     90  C   UNL     1       5.742   6.757  -2.923  1.00  0.00     0.242 C 
ATOM     91  O   UNL     1       6.808   6.339  -3.422  1.00  0.00    -0.273 OA
ATOM     92  N   UNL     1       4.919   7.314  -3.852  1.00  0.00    -0.267 N 
ATOM     93  H   UNL     1       5.363   7.645  -4.665  1.00  0.00     0.191 HD
BRANCH  92  94
ATOM     94  N   UNL     1       3.525   7.484  -3.815  1.00  0.00    -0.263 N 
ATOM     95  C   UNL     1       2.797   6.381  -4.244  1.00  0.00     0.271 C 
ATOM     96  H   UNL     1       3.099   8.316  -3.509  1.00  0.00     0.191 HD
ATOM     97  O   UNL     1       2.638   5.470  -3.450  1.00  0.00    -0.267 OA
BRANCH  95  98
ATOM     98  C   UNL     1       2.226   6.268  -5.615  1.00  0.00     0.060 A 
ATOM     99  C   UNL     1       2.284   7.340  -6.509  1.00  0.00     0.015 A 
ATOM    100  C   UNL     1       1.565   5.090  -6.039  1.00  0.00     0.053 A 
ATOM    101  C   UNL     1       1.712   7.227  -7.787  1.00  0.00     0.001 A 
ATOM    102  C   UNL     1       1.016   4.980  -7.319  1.00  0.00     0.021 A 
ATOM    103  Cl  UNL     1       1.314   3.688  -5.082  1.00  0.00    -0.083 Cl
ATOM    104  C   UNL     1       1.088   6.048  -8.195  1.00  0.00     0.002 A 
ENDBRANCH  95  98
ENDBRANCH  92  94
ENDBRANCH  84  90
ENDBRANCH  81  83
ENDBRANCH  80  81
ENDBRANCH  79  80
ENDBRANCH  78  79
ENDBRANCH  77  78
ENDBRANCH  76  77
ENDBRANCH   1  76
TORSDOF 23
