REMARK SMILES Cc1c(NC(=O)[C@@H]2CC=CC[C@@H]2C(=O)OCCOCCOCCOCCOC(=O)c2ccc(-c3c4nc(c(-c5c(F)c(F)c(F)c(F)c5F)c5ccc([nH]5)c(-c5c(F)c(F)c(F)c(F)c5F)c5nc(c(-c6c(F)c(F)c(F)c(F)c6F)c6ccc3[nH]6)C=C5)C=C4)cc2)cccc1C(=O)N1CCOCC1
REMARK SMILES IDX 20 1 19 2 18 3 17 4 16 5 15 6 13 7 14 8 12 9 7 10 8 11 9 12
REMARK SMILES IDX 11 13 10 14 5 15 4 16 6 18 3 19 1 20 2 21 96 22 93 23 95 24
REMARK SMILES IDX 94 25 97 26 98 27 99 28 100 29 104 30 101 31 103 32 102 33
REMARK SMILES IDX 21 34 22 35 23 36 24 37 25 38 26 39 27 40 28 41 29 42 30 43
REMARK SMILES IDX 31 44 92 45 32 46 91 47 33 48 34 49 35 50 85 51 36 52 90 53
REMARK SMILES IDX 84 54 86 55 37 56 89 57 83 58 82 59 38 61 70 62 50 63 69 64
REMARK SMILES IDX 51 65 54 66 68 67 87 68 52 69 53 70 67 72 88 73 55 74 39 75
REMARK SMILES IDX 40 76 48 77 41 78 42 79 46 80 49 81 43 82 44 83 47 84 45 85
REMARK SMILES IDX 71 86 72 87 80 88 73 89 74 90 78 91 81 92 75 93 76 94 79 95
REMARK SMILES IDX 77 96 56 97 57 98 65 99 58 100 59 101 63 102 66 103 60 104
REMARK SMILES IDX 61 105 64 106 62 107
REMARK H PARENT 4 17 86 60 54 71
REMARK Flexibility Score: inf
ROOT
ATOM      1  C   UNL     1      -3.818   0.396   0.372  1.00  0.00     0.188 C 
ENDROOT
BRANCH   1   2
ATOM      2  C   UNL     1      -5.475   0.572   0.091  1.00  0.00     0.188 C 
BRANCH   2   3
ATOM      3  O   UNL     1      -6.678  -0.343  -0.873  1.00  0.00    -0.376 OA
BRANCH   3   4
ATOM      4  C   UNL     1      -6.912  -2.057  -1.330  1.00  0.00     0.202 C 
BRANCH   4   5
ATOM      5  C   UNL     1      -5.649  -3.450  -1.718  1.00  0.00     0.261 C 
BRANCH   5   6
ATOM      6  O   UNL     1      -3.857  -3.341  -1.988  1.00  0.00    -0.463 OA
BRANCH   6   7
ATOM      7  C   UNL     1      -2.777  -2.624  -2.619  1.00  0.00     0.310 C 
ATOM      8  O   UNL     1      -2.893  -1.817  -3.561  1.00  0.00    -0.252 OA
BRANCH   7   9
ATOM      9  C   UNL     1      -1.229  -2.483  -2.107  1.00  0.00     0.116 C 
ATOM     10  C   UNL     1      -0.241  -3.269  -1.173  1.00  0.00     0.097 C 
ATOM     11  C   UNL     1      -0.181  -2.770   0.297  1.00  0.00     0.041 C 
ATOM     12  C   UNL     1      -0.095  -1.282   0.403  1.00  0.00    -0.030 C 
ATOM     13  C   UNL     1      -0.883  -0.942  -1.955  1.00  0.00     0.043 C 
ATOM     14  C   UNL     1      -0.375  -0.469  -0.619  1.00  0.00    -0.030 C 
BRANCH  10  15
ATOM     15  C   UNL     1      -0.284  -4.746  -1.492  1.00  0.00     0.228 C 
ATOM     16  N   UNL     1       0.327  -5.723  -0.787  1.00  0.00    -0.326 N 
ATOM     17  H   UNL     1       0.035  -6.614  -1.088  1.00  0.00     0.169 HD
ATOM     18  O   UNL     1      -0.898  -5.147  -2.489  1.00  0.00    -0.274 OA
BRANCH  16  19
ATOM     19  C   UNL     1       1.262  -5.820   0.254  1.00  0.00     0.044 A 
ATOM     20  C   UNL     1       0.070  -7.950   0.868  1.00  0.00     0.047 C 
ATOM     21  C   UNL     1       1.239  -7.011   1.028  1.00  0.00    -0.015 A 
ATOM     22  C   UNL     1       2.248  -7.233   1.988  1.00  0.00     0.045 A 
ATOM     23  C   UNL     1       2.225  -4.846   0.515  1.00  0.00     0.026 A 
ATOM     24  C   UNL     1       3.135  -6.187   2.297  1.00  0.00     0.014 A 
ATOM     25  C   UNL     1       3.107  -4.992   1.584  1.00  0.00     0.003 A 
BRANCH  22  26
ATOM     26  C   UNL     1       2.349  -8.441   2.857  1.00  0.00     0.254 C 
ATOM     27  O   UNL     1       2.566  -8.238   4.054  1.00  0.00    -0.269 OA
ATOM     28  N   UNL     1       2.189  -9.731   2.359  1.00  0.00    -0.334 N 
ATOM     29  C   UNL     1       2.311 -10.204   0.972  1.00  0.00     0.148 C 
ATOM     30  C   UNL     1       2.006 -10.819   3.321  1.00  0.00     0.148 C 
ATOM     31  C   UNL     1       1.176 -11.188   0.615  1.00  0.00     0.181 C 
ATOM     32  C   UNL     1       0.803 -11.665   2.905  1.00  0.00     0.181 C 
ATOM     33  O   UNL     1       1.020 -12.225   1.599  1.00  0.00    -0.378 OA
ENDBRANCH  22  26
ENDBRANCH  16  19
ENDBRANCH  10  15
ENDBRANCH   7   9
ENDBRANCH   6   7
ENDBRANCH   5   6
ENDBRANCH   4   5
ENDBRANCH   3   4
ENDBRANCH   2   3
ENDBRANCH   1   2
BRANCH   1  34
ATOM     34  O   UNL     1      -3.119  -0.518   1.247  1.00  0.00    -0.377 OA
BRANCH  34  35
ATOM     35  C   UNL     1      -3.418  -0.815   2.605  1.00  0.00     0.188 C 
BRANCH  35  36
ATOM     36  C   UNL     1      -3.549   0.343   3.551  1.00  0.00     0.188 C 
BRANCH  36  37
ATOM     37  O   UNL     1      -4.431   1.254   2.926  1.00  0.00    -0.376 OA
BRANCH  37  38
ATOM     38  C   UNL     1      -4.477   2.526   3.537  1.00  0.00     0.202 C 
BRANCH  38  39
ATOM     39  C   UNL     1      -5.325   2.481   4.807  1.00  0.00     0.261 C 
BRANCH  39  40
ATOM     40  O   UNL     1      -6.612   1.913   4.469  1.00  0.00    -0.460 OA
BRANCH  40  41
ATOM     41  C   UNL     1      -6.831   0.642   4.927  1.00  0.00     0.338 C 
ATOM     42  O   UNL     1      -6.493   0.210   6.007  1.00  0.00    -0.246 OA
BRANCH  41  43
ATOM     43  C   UNL     1      -7.217  -0.223   3.772  1.00  0.00     0.060 A 
ATOM     44  C   UNL     1      -6.877  -1.563   3.751  1.00  0.00     0.016 A 
ATOM     45  C   UNL     1      -7.713   0.279   2.597  1.00  0.00     0.016 A 
ATOM     46  C   UNL     1      -6.593  -2.189   2.510  1.00  0.00     0.010 A 
ATOM     47  C   UNL     1      -7.491  -0.443   1.399  1.00  0.00     0.010 A 
ATOM     48  C   UNL     1      -6.516  -1.496   1.292  1.00  0.00    -0.014 A 
BRANCH  48  49
ATOM     49  C   UNL     1      -5.165  -1.781   0.069  1.00  0.00     0.031 A 
ATOM     50  C   UNL     1      -4.928  -1.049  -1.767  1.00  0.00     0.074 A 
ATOM     51  C   UNL     1      -4.407  -2.800   0.606  1.00  0.00     0.049 A 
ATOM     52  N   UNL     1      -5.154  -1.780  -2.903  1.00  0.00    -0.248 NA
ATOM     53  C   UNL     1      -5.182   0.368  -2.480  1.00  0.00     0.031 C 
ATOM     54  C   UNL     1      -3.115  -3.209   0.186  1.00  0.00     0.029 A 
ATOM     55  N   UNL     1      -4.676  -3.822   1.537  1.00  0.00    -0.354 N 
ATOM     56  C   UNL     1      -5.354  -1.189  -4.123  1.00  0.00     0.074 A 
ATOM     57  C   UNL     1      -5.569   0.155  -3.751  1.00  0.00     0.031 C 
ATOM     58  C   UNL     1      -2.946  -4.527   0.327  1.00  0.00     0.029 A 
ATOM     59  C   UNL     1      -4.054  -4.987   1.078  1.00  0.00     0.049 A 
ATOM     60  H   UNL     1      -5.206  -3.732   2.362  1.00  0.00     0.167 HD
ATOM     61  C   UNL     1      -5.277  -1.838  -5.339  1.00  0.00     0.037 A 
ATOM     62  C   UNL     1      -4.519  -6.247   1.114  1.00  0.00     0.037 A 
ATOM     63  C   UNL     1      -4.671  -3.193  -5.277  1.00  0.00     0.049 A 
ATOM     64  C   UNL     1      -4.690  -6.820  -0.285  1.00  0.00     0.074 A 
ATOM     65  C   UNL     1      -3.376  -3.642  -5.512  1.00  0.00     0.029 A 
ATOM     66  N   UNL     1      -5.311  -4.287  -4.707  1.00  0.00    -0.354 N 
ATOM     67  N   UNL     1      -4.463  -6.177  -1.416  1.00  0.00    -0.248 NA
ATOM     68  C   UNL     1      -5.195  -8.167  -0.508  1.00  0.00     0.031 C 
ATOM     69  C   UNL     1      -3.203  -4.917  -4.893  1.00  0.00     0.029 A 
ATOM     70  C   UNL     1      -4.419  -5.320  -4.365  1.00  0.00     0.049 A 
ATOM     71  H   UNL     1      -6.283  -4.335  -4.558  1.00  0.00     0.167 HD
ATOM     72  C   UNL     1      -4.860  -6.952  -2.490  1.00  0.00     0.074 A 
ATOM     73  C   UNL     1      -5.297  -8.195  -1.847  1.00  0.00     0.031 C 
ATOM     74  C   UNL     1      -4.882  -6.609  -3.829  1.00  0.00     0.037 A 
BRANCH  61  75
ATOM     75  C   UNL     1      -5.393  -1.018  -6.635  1.00  0.00     0.064 A 
ATOM     76  C   UNL     1      -4.560  -1.237  -7.752  1.00  0.00     0.173 A 
ATOM     77  C   UNL     1      -6.289   0.063  -6.790  1.00  0.00     0.173 A 
ATOM     78  F   UNL     1      -3.790  -2.327  -7.848  1.00  0.00    -0.203 F 
ATOM     79  C   UNL     1      -4.495  -0.341  -8.831  1.00  0.00     0.198 A 
ATOM     80  C   UNL     1      -6.177   0.999  -7.830  1.00  0.00     0.198 A 
ATOM     81  F   UNL     1      -7.321   0.224  -5.947  1.00  0.00    -0.203 F 
ATOM     82  F   UNL     1      -3.673  -0.595  -9.861  1.00  0.00    -0.200 F 
ATOM     83  C   UNL     1      -5.258   0.808  -8.840  1.00  0.00     0.200 A 
ATOM     84  F   UNL     1      -6.959   2.089  -7.841  1.00  0.00    -0.200 F 
ATOM     85  F   UNL     1      -5.139   1.702  -9.833  1.00  0.00    -0.200 F 
ENDBRANCH  61  75
BRANCH  62  86
ATOM     86  C   UNL     1      -5.113  -6.502   2.462  1.00  0.00     0.064 A 
ATOM     87  C   UNL     1      -4.163  -6.378   3.517  1.00  0.00     0.173 A 
ATOM     88  C   UNL     1      -6.432  -6.144   2.760  1.00  0.00     0.173 A 
ATOM     89  F   UNL     1      -2.880  -6.710   3.295  1.00  0.00    -0.203 F 
ATOM     90  C   UNL     1      -4.456  -5.664   4.680  1.00  0.00     0.198 A 
ATOM     91  C   UNL     1      -6.735  -5.485   3.963  1.00  0.00     0.198 A 
ATOM     92  F   UNL     1      -7.381  -6.241   1.819  1.00  0.00    -0.203 F 
ATOM     93  F   UNL     1      -3.467  -5.307   5.514  1.00  0.00    -0.200 F 
ATOM     94  C   UNL     1      -5.735  -5.181   4.881  1.00  0.00     0.200 A 
ATOM     95  F   UNL     1      -7.963  -4.980   4.153  1.00  0.00    -0.200 F 
ATOM     96  F   UNL     1      -5.980  -4.341   5.897  1.00  0.00    -0.200 F 
ENDBRANCH  62  86
BRANCH  74  97
ATOM     97  C   UNL     1      -5.367  -7.597  -4.864  1.00  0.00     0.064 A 
ATOM     98  C   UNL     1      -4.949  -8.935  -4.900  1.00  0.00     0.173 A 
ATOM     99  C   UNL     1      -6.227  -7.184  -5.903  1.00  0.00     0.173 A 
ATOM    100  F   UNL     1      -4.034  -9.395  -4.033  1.00  0.00    -0.203 F 
ATOM    101  C   UNL     1      -5.483  -9.837  -5.820  1.00  0.00     0.198 A 
ATOM    102  C   UNL     1      -6.687  -8.066  -6.875  1.00  0.00     0.198 A 
ATOM    103  F   UNL     1      -6.678  -5.924  -5.984  1.00  0.00    -0.203 F 
ATOM    104  F   UNL     1      -5.170 -11.137  -5.734  1.00  0.00    -0.200 F 
ATOM    105  C   UNL     1      -6.352  -9.402  -6.806  1.00  0.00     0.200 A 
ATOM    106  F   UNL     1      -7.483  -7.617  -7.855  1.00  0.00    -0.200 F 
ATOM    107  F   UNL     1      -6.876 -10.271  -7.680  1.00  0.00    -0.200 F 
ENDBRANCH  74  97
ENDBRANCH  48  49
ENDBRANCH  41  43
ENDBRANCH  40  41
ENDBRANCH  39  40
ENDBRANCH  38  39
ENDBRANCH  37  38
ENDBRANCH  36  37
ENDBRANCH  35  36
ENDBRANCH  34  35
ENDBRANCH   1  34
TORSDOF 23
