REMARK SMILES CCN1C(=O)N/C(=C/c2cc(Cl)c(OCc3cccc(C(=O)OCCOCCOCCOCCOC(=O)c4ccc(-c5c6nc(c(-c7c(F)c(F)c(F)c(F)c7F)c7ccc([nH]7)c(-c7c(F)c(F)c(F)c(F)c7F)c7nc(c(-c8c(F)c(F)c(F)c(F)c8F)c8ccc5[nH]8)C=C7)C=C6)cc4)c3)c(OC)c2)C1=O
REMARK SMILES IDX 27 1 26 2 25 3 24 4 23 5 21 6 22 7 20 8 16 9 17 10 101 11
REMARK SMILES IDX 18 12 19 13 15 14 14 15 13 16 9 17 10 18 105 19 11 20 102 21
REMARK SMILES IDX 12 22 8 23 3 24 4 25 106 26 5 27 6 28 7 29 107 30 2 32 1 33
REMARK SMILES IDX 103 34 104 35 28 36 29 37 30 38 31 39 32 40 33 41 34 42
REMARK SMILES IDX 35 43 36 44 37 45 38 46 39 47 100 48 40 49 99 50 41 51 42 52
REMARK SMILES IDX 43 53 93 54 44 55 98 56 92 57 94 58 45 59 97 60 91 61 90 62
REMARK SMILES IDX 46 64 78 65 58 66 77 67 59 68 62 69 76 70 95 71 60 72 61 73
REMARK SMILES IDX 75 75 96 76 63 77 47 78 48 79 56 80 49 81 50 82 54 83 57 84
REMARK SMILES IDX 51 85 52 86 55 87 53 88 79 89 80 90 88 91 81 92 82 93 86 94
REMARK SMILES IDX 89 95 83 96 84 97 87 98 85 99 64 100 65 101 73 102 66 103
REMARK SMILES IDX 67 104 71 105 74 106 68 107 69 108 72 109 70 110
REMARK H PARENT 6 31 94 63 62 74
REMARK Flexibility Score: inf
ROOT
ATOM      1  C   UNL     1       0.513   7.875  -0.229  1.00  0.00     0.188 C 
ENDROOT
BRANCH   1   2
ATOM      2  O   UNL     1      -0.177   9.108  -0.331  1.00  0.00    -0.376 OA
BRANCH   2   3
ATOM      3  C   UNL     1      -1.429   9.250   0.312  1.00  0.00     0.202 C 
BRANCH   3   4
ATOM      4  C   UNL     1      -1.536   9.019   1.829  1.00  0.00     0.261 C 
BRANCH   4   5
ATOM      5  O   UNL     1      -0.797   7.914   2.361  1.00  0.00    -0.460 OA
BRANCH   5   6
ATOM      6  C   UNL     1      -1.304   6.672   2.181  1.00  0.00     0.338 C 
ATOM      7  O   UNL     1      -2.356   6.388   1.639  1.00  0.00    -0.246 OA
BRANCH   6   8
ATOM      8  C   UNL     1      -0.228   5.708   2.528  1.00  0.00     0.060 A 
ATOM      9  C   UNL     1       1.628   5.007   3.947  1.00  0.00    -0.010 A 
ATOM     10  C   UNL     1       2.006   4.091   2.956  1.00  0.00     0.007 A 
ATOM     11  C   UNL     1       0.533   5.855   3.695  1.00  0.00     0.023 A 
ATOM     12  C   UNL     1       1.235   3.930   1.801  1.00  0.00     0.001 A 
ATOM     13  C   UNL     1       0.102   4.718   1.598  1.00  0.00     0.016 A 
BRANCH   9  14
ATOM     14  C   UNL     1       2.339   5.126   5.285  1.00  0.00     0.265 C 
BRANCH  14  15
ATOM     15  O   UNL     1       3.162   4.051   5.743  1.00  0.00    -0.483 OA
BRANCH  15  16
ATOM     16  C   UNL     1       2.764   2.740   5.756  1.00  0.00     0.180 A 
ATOM     17  C   UNL     1       2.321  -0.022   5.410  1.00  0.00    -0.018 A 
ATOM     18  C   UNL     1       1.246   0.857   5.559  1.00  0.00     0.033 A 
ATOM     19  C   UNL     1       3.622   0.456   5.555  1.00  0.00     0.058 A 
ATOM     20  C   UNL     1       1.459   2.227   5.756  1.00  0.00     0.087 A 
ATOM     21  C   UNL     1       3.848   1.826   5.735  1.00  0.00     0.162 A 
ATOM     22  Cl  UNL     1       0.031   3.155   6.053  1.00  0.00    -0.080 Cl
BRANCH  17  23
ATOM     23  C   UNL     1       2.089  -1.418   5.035  1.00  0.00     0.040 C 
ATOM     24  N   UNL     1       1.082  -1.766   1.606  1.00  0.00    -0.259 N 
ATOM     25  C   UNL     1       1.033  -3.063   2.081  1.00  0.00     0.328 C 
ATOM     26  C   UNL     1       1.502  -0.907   2.589  1.00  0.00     0.278 C 
ATOM     27  O   UNL     1       0.675  -4.062   1.481  1.00  0.00    -0.248 OA
ATOM     28  N   UNL     1       1.446  -3.050   3.403  1.00  0.00    -0.303 N 
ATOM     29  C   UNL     1       1.724  -1.776   3.797  1.00  0.00     0.109 C 
ATOM     30  O   UNL     1       1.676   0.301   2.527  1.00  0.00    -0.267 OA
ATOM     31  H   UNL     1       1.527  -3.847   3.976  1.00  0.00     0.172 HD
BRANCH  24  32
ATOM     32  C   UNL     1       0.617  -1.416   0.275  1.00  0.00     0.127 C 
ATOM     33  C   UNL     1       1.041  -0.054  -0.248  1.00  0.00     0.028 C 
ENDBRANCH  24  32
ENDBRANCH  17  23
BRANCH  21  34
ATOM     34  O   UNL     1       5.107   2.374   5.842  1.00  0.00    -0.493 OA
ATOM     35  C   UNL     1       6.176   1.494   6.168  1.00  0.00     0.278 C 
ENDBRANCH  21  34
ENDBRANCH  15  16
ENDBRANCH  14  15
ENDBRANCH   9  14
ENDBRANCH   6   8
ENDBRANCH   5   6
ENDBRANCH   4   5
ENDBRANCH   3   4
ENDBRANCH   2   3
ENDBRANCH   1   2
BRANCH   1  36
ATOM     36  C   UNL     1       1.767   7.946   0.669  1.00  0.00     0.188 C 
BRANCH  36  37
ATOM     37  O   UNL     1       1.945   9.093   1.488  1.00  0.00    -0.377 OA
BRANCH  37  38
ATOM     38  C   UNL     1       1.876  10.394   0.910  1.00  0.00     0.188 C 
BRANCH  38  39
ATOM     39  C   UNL     1       2.073  10.640  -0.607  1.00  0.00     0.188 C 
BRANCH  39  40
ATOM     40  O   UNL     1       2.534   9.520  -1.341  1.00  0.00    -0.376 OA
BRANCH  40  41
ATOM     41  C   UNL     1       3.871   9.528  -1.803  1.00  0.00     0.202 C 
BRANCH  41  42
ATOM     42  C   UNL     1       4.977   9.554  -0.739  1.00  0.00     0.261 C 
BRANCH  42  43
ATOM     43  O   UNL     1       4.876  10.588   0.251  1.00  0.00    -0.460 OA
BRANCH  43  44
ATOM     44  C   UNL     1       5.043  11.861  -0.168  1.00  0.00     0.338 C 
ATOM     45  O   UNL     1       5.276  12.244  -1.299  1.00  0.00    -0.246 OA
BRANCH  44  46
ATOM     46  C   UNL     1       4.709  12.748   0.966  1.00  0.00     0.060 A 
ATOM     47  C   UNL     1       3.641  13.646   0.840  1.00  0.00     0.016 A 
ATOM     48  C   UNL     1       5.443  12.681   2.152  1.00  0.00     0.016 A 
ATOM     49  C   UNL     1       3.326  14.507   1.891  1.00  0.00     0.010 A 
ATOM     50  C   UNL     1       5.141  13.559   3.195  1.00  0.00     0.010 A 
ATOM     51  C   UNL     1       4.105  14.499   3.056  1.00  0.00    -0.014 A 
BRANCH  51  52
ATOM     52  C   UNL     1       3.967  15.601   4.038  1.00  0.00     0.031 A 
ATOM     53  C   UNL     1       4.950  16.737   3.976  1.00  0.00     0.074 A 
ATOM     54  C   UNL     1       2.983  15.607   4.954  1.00  0.00     0.049 A 
ATOM     55  N   UNL     1       5.066  17.784   4.751  1.00  0.00    -0.248 NA
ATOM     56  C   UNL     1       5.942  16.678   2.890  1.00  0.00     0.031 C 
ATOM     57  C   UNL     1       1.949  14.585   5.089  1.00  0.00     0.029 A 
ATOM     58  N   UNL     1       2.704  16.506   5.953  1.00  0.00    -0.354 N 
ATOM     59  C   UNL     1       6.148  18.500   4.254  1.00  0.00     0.074 A 
ATOM     60  C   UNL     1       6.674  17.754   3.133  1.00  0.00     0.031 C 
ATOM     61  C   UNL     1       1.154  14.906   6.124  1.00  0.00     0.029 A 
ATOM     62  C   UNL     1       1.645  16.137   6.744  1.00  0.00     0.049 A 
ATOM     63  H   UNL     1       3.215  17.337   6.089  1.00  0.00     0.167 HD
ATOM     64  C   UNL     1       6.651  19.679   4.690  1.00  0.00     0.037 A 
ATOM     65  C   UNL     1       1.150  16.714   7.856  1.00  0.00     0.037 A 
ATOM     66  C   UNL     1       6.125  20.416   5.809  1.00  0.00     0.049 A 
ATOM     67  C   UNL     1       1.773  17.990   8.367  1.00  0.00     0.074 A 
ATOM     68  C   UNL     1       6.547  21.633   6.315  1.00  0.00     0.029 A 
ATOM     69  N   UNL     1       5.069  19.997   6.604  1.00  0.00    -0.354 N 
ATOM     70  N   UNL     1       2.773  18.681   7.875  1.00  0.00    -0.248 NA
ATOM     71  C   UNL     1       1.192  18.570   9.586  1.00  0.00     0.031 C 
ATOM     72  C   UNL     1       5.792  21.915   7.458  1.00  0.00     0.029 A 
ATOM     73  C   UNL     1       4.848  20.914   7.620  1.00  0.00     0.049 A 
ATOM     74  H   UNL     1       4.552  19.170   6.468  1.00  0.00     0.167 HD
ATOM     75  C   UNL     1       2.920  19.788   8.702  1.00  0.00     0.074 A 
ATOM     76  C   UNL     1       1.895  19.685   9.719  1.00  0.00     0.031 C 
ATOM     77  C   UNL     1       3.820  20.801   8.625  1.00  0.00     0.037 A 
BRANCH  64  78
ATOM     78  C   UNL     1       7.858  20.223   3.979  1.00  0.00     0.064 A 
ATOM     79  C   UNL     1       7.792  20.700   2.661  1.00  0.00     0.173 A 
ATOM     80  C   UNL     1       9.096  20.287   4.637  1.00  0.00     0.173 A 
ATOM     81  F   UNL     1       6.637  20.649   1.980  1.00  0.00    -0.203 F 
ATOM     82  C   UNL     1       8.927  21.191   2.019  1.00  0.00     0.198 A 
ATOM     83  C   UNL     1      10.219  20.811   4.005  1.00  0.00     0.198 A 
ATOM     84  F   UNL     1       9.215  19.848   5.899  1.00  0.00    -0.203 F 
ATOM     85  F   UNL     1       8.853  21.588   0.741  1.00  0.00    -0.200 F 
ATOM     86  C   UNL     1      10.137  21.253   2.693  1.00  0.00     0.200 A 
ATOM     87  F   UNL     1      11.384  20.884   4.664  1.00  0.00    -0.200 F 
ATOM     88  F   UNL     1      11.226  21.732   2.077  1.00  0.00    -0.200 F 
ENDBRANCH  64  78
BRANCH  65  89
ATOM     89  C   UNL     1       0.010  16.085   8.576  1.00  0.00     0.064 A 
ATOM     90  C   UNL     1      -1.244  16.708   8.638  1.00  0.00     0.173 A 
ATOM     91  C   UNL     1       0.159  14.855   9.235  1.00  0.00     0.173 A 
ATOM     92  F   UNL     1      -1.430  17.898   8.049  1.00  0.00    -0.203 F 
ATOM     93  C   UNL     1      -2.299  16.136   9.347  1.00  0.00     0.198 A 
ATOM     94  C   UNL     1      -0.906  14.268   9.916  1.00  0.00     0.198 A 
ATOM     95  F   UNL     1       1.339  14.218   9.212  1.00  0.00    -0.203 F 
ATOM     96  F   UNL     1      -3.471  16.779   9.434  1.00  0.00    -0.200 F 
ATOM     97  C   UNL     1      -2.131  14.913   9.979  1.00  0.00     0.200 A 
ATOM     98  F   UNL     1      -0.743  13.080  10.514  1.00  0.00    -0.200 F 
ATOM     99  F   UNL     1      -3.147  14.362  10.657  1.00  0.00    -0.200 F 
ENDBRANCH  65  89
BRANCH  77 100
ATOM    100  C   UNL     1       3.712  21.905   9.641  1.00  0.00     0.064 A 
ATOM    101  C   UNL     1       4.021  21.702  10.994  1.00  0.00     0.173 A 
ATOM    102  C   UNL     1       3.330  23.197   9.244  1.00  0.00     0.173 A 
ATOM    103  F   UNL     1       4.381  20.486  11.431  1.00  0.00    -0.203 F 
ATOM    104  C   UNL     1       3.917  22.741  11.917  1.00  0.00     0.198 A 
ATOM    105  C   UNL     1       3.264  24.241  10.162  1.00  0.00     0.198 A 
ATOM    106  F   UNL     1       3.034  23.451   7.961  1.00  0.00    -0.203 F 
ATOM    107  F   UNL     1       4.161  22.509  13.214  1.00  0.00    -0.200 F 
ATOM    108  C   UNL     1       3.547  24.011  11.499  1.00  0.00     0.200 A 
ATOM    109  F   UNL     1       2.926  25.472   9.751  1.00  0.00    -0.200 F 
ATOM    110  F   UNL     1       3.457  25.011  12.386  1.00  0.00    -0.200 F 
ENDBRANCH  77 100
ENDBRANCH  51  52
ENDBRANCH  44  46
ENDBRANCH  43  44
ENDBRANCH  42  43
ENDBRANCH  41  42
ENDBRANCH  40  41
ENDBRANCH  39  40
ENDBRANCH  38  39
ENDBRANCH  37  38
ENDBRANCH  36  37
ENDBRANCH   1  36
TORSDOF 26
