REMARK SMILES CC(C)[C@H](CO)NS(=O)(=O)c1ccc(C(=O)OCCOCCOCCOCCOC(=O)c2ccc(-c3c4nc(c(-c5c(F)c(F)c(F)c(F)c5F)c5ccc([nH]5)c(-c5c(F)c(F)c(F)c(F)c5F)c5nc(c(-c6c(F)c(F)c(F)c(F)c6F)c6ccc3[nH]6)C=C5)C=C4)cc2)cn1
REMARK SMILES IDX 21 1 20 2 19 3 18 4 17 5 15 6 16 7 14 8 11 9 12 10 96 11
REMARK SMILES IDX 13 12 95 13 8 14 9 15 10 16 7 17 4 19 2 20 1 21 3 22 5 23
REMARK SMILES IDX 6 24 22 26 23 27 24 28 25 29 26 30 27 31 28 32 29 33 30 34
REMARK SMILES IDX 31 35 32 36 33 37 94 38 34 39 93 40 35 41 36 42 37 43 87 44
REMARK SMILES IDX 38 45 92 46 86 47 88 48 39 49 91 50 85 51 84 52 40 54 72 55
REMARK SMILES IDX 52 56 71 57 53 58 56 59 70 60 89 61 54 62 55 63 69 65 90 66
REMARK SMILES IDX 57 67 41 68 42 69 50 70 43 71 44 72 48 73 51 74 45 75 46 76
REMARK SMILES IDX 49 77 47 78 73 79 74 80 82 81 75 82 76 83 80 84 83 85 77 86
REMARK SMILES IDX 78 87 81 88 79 89 58 90 59 91 67 92 60 93 61 94 65 95 68 96
REMARK SMILES IDX 62 97 63 98 66 99 64 100
REMARK H PARENT 7 18 6 25 88 53 56 64
REMARK Flexibility Score: inf
ROOT
ATOM      1  C   UNL     1      -6.604   2.184  -5.518  1.00  0.00     0.188 C 
ENDROOT
BRANCH   1   2
ATOM      2  O   UNL     1      -6.722   1.613  -6.811  1.00  0.00    -0.376 OA
BRANCH   2   3
ATOM      3  C   UNL     1      -5.564   1.194  -7.511  1.00  0.00     0.202 C 
BRANCH   3   4
ATOM      4  C   UNL     1      -4.567   0.219  -6.863  1.00  0.00     0.261 C 
BRANCH   4   5
ATOM      5  O   UNL     1      -4.231   0.477  -5.496  1.00  0.00    -0.460 OA
BRANCH   5   6
ATOM      6  C   UNL     1      -3.443   1.539  -5.238  1.00  0.00     0.339 C 
ATOM      7  O   UNL     1      -2.917   2.274  -6.054  1.00  0.00    -0.246 OA
BRANCH   6   8
ATOM      8  C   UNL     1      -3.466   1.785  -3.780  1.00  0.00     0.078 A 
ATOM      9  C   UNL     1      -3.562   2.433  -1.138  1.00  0.00     0.170 A 
ATOM     10  C   UNL     1      -3.822   1.115  -1.495  1.00  0.00     0.043 A 
ATOM     11  N   UNL     1      -3.316   3.438  -2.017  1.00  0.00    -0.243 NA
ATOM     12  C   UNL     1      -3.727   0.779  -2.841  1.00  0.00     0.020 A 
ATOM     13  C   UNL     1      -3.309   3.090  -3.326  1.00  0.00     0.128 A 
BRANCH   9  14
ATOM     14  S   UNL     1      -3.445   2.864   0.600  1.00  0.00     0.258 S 
ATOM     15  O   UNL     1      -4.350   2.000   1.311  1.00  0.00    -0.205 OA
ATOM     16  O   UNL     1      -3.531   4.308   0.741  1.00  0.00    -0.205 OA
BRANCH  14  17
ATOM     17  N   UNL     1      -1.843   2.480   1.039  1.00  0.00    -0.204 NA
ATOM     18  H   UNL     1      -1.259   3.237   0.682  1.00  0.00     0.141 HD
BRANCH  17  19
ATOM     19  C   UNL     1      -1.193   1.213   0.610  1.00  0.00     0.098 C 
BRANCH  19  20
ATOM     20  C   UNL     1      -1.352   0.031   1.607  1.00  0.00     0.003 C 
ATOM     21  C   UNL     1      -2.361   0.209   2.739  1.00  0.00     0.009 C 
ATOM     22  C   UNL     1      -1.697  -1.255   0.836  1.00  0.00     0.009 C 
ENDBRANCH  19  20
BRANCH  19  23
ATOM     23  C   UNL     1       0.308   1.505   0.341  1.00  0.00     0.176 C 
BRANCH  23  24
ATOM     24  O   UNL     1       1.021   1.838   1.527  1.00  0.00    -0.395 OA
ATOM     25  H   UNL     1       0.646   2.644   1.915  1.00  0.00     0.210 HD
ENDBRANCH  23  24
ENDBRANCH  19  23
ENDBRANCH  17  19
ENDBRANCH  14  17
ENDBRANCH   9  14
ENDBRANCH   6   8
ENDBRANCH   5   6
ENDBRANCH   4   5
ENDBRANCH   3   4
ENDBRANCH   2   3
ENDBRANCH   1   2
BRANCH   1  26
ATOM     26  C   UNL     1      -6.968   1.198  -4.391  1.00  0.00     0.188 C 
BRANCH  26  27
ATOM     27  O   UNL     1      -6.962  -0.172  -4.763  1.00  0.00    -0.377 OA
BRANCH  27  28
ATOM     28  C   UNL     1      -7.977  -0.650  -5.650  1.00  0.00     0.188 C 
BRANCH  28  29
ATOM     29  C   UNL     1      -9.056   0.269  -6.282  1.00  0.00     0.188 C 
BRANCH  29  30
ATOM     30  O   UNL     1      -9.361   1.433  -5.532  1.00  0.00    -0.376 OA
BRANCH  30  31
ATOM     31  C   UNL     1     -10.599   1.488  -4.848  1.00  0.00     0.202 C 
BRANCH  31  32
ATOM     32  C   UNL     1     -10.784   0.493  -3.695  1.00  0.00     0.261 C 
BRANCH  32  33
ATOM     33  O   UNL     1     -10.585  -0.890  -4.024  1.00  0.00    -0.460 OA
BRANCH  33  34
ATOM     34  C   UNL     1     -11.456  -1.452  -4.890  1.00  0.00     0.338 C 
ATOM     35  O   UNL     1     -12.413  -0.923  -5.425  1.00  0.00    -0.246 OA
BRANCH  34  36
ATOM     36  C   UNL     1     -10.937  -2.792  -5.232  1.00  0.00     0.060 A 
ATOM     37  C   UNL     1     -10.600  -3.078  -6.562  1.00  0.00     0.016 A 
ATOM     38  C   UNL     1     -10.766  -3.755  -4.235  1.00  0.00     0.016 A 
ATOM     39  C   UNL     1     -10.115  -4.342  -6.903  1.00  0.00     0.010 A 
ATOM     40  C   UNL     1     -10.301  -5.025  -4.581  1.00  0.00     0.010 A 
ATOM     41  C   UNL     1     -10.001  -5.334  -5.920  1.00  0.00    -0.014 A 
BRANCH  41  42
ATOM     42  C   UNL     1      -9.738  -6.741  -6.306  1.00  0.00     0.031 A 
ATOM     43  C   UNL     1     -10.903  -7.685  -6.402  1.00  0.00     0.074 A 
ATOM     44  C   UNL     1      -8.492  -7.176  -6.564  1.00  0.00     0.049 A 
ATOM     45  N   UNL     1     -10.917  -8.974  -6.628  1.00  0.00    -0.248 NA
ATOM     46  C   UNL     1     -12.236  -7.093  -6.210  1.00  0.00     0.031 C 
ATOM     47  C   UNL     1      -7.288  -6.348  -6.550  1.00  0.00     0.029 A 
ATOM     48  N   UNL     1      -8.035  -8.434  -6.872  1.00  0.00    -0.354 N 
ATOM     49  C   UNL     1     -12.255  -9.346  -6.596  1.00  0.00     0.074 A 
ATOM     50  C   UNL     1     -13.021  -8.156  -6.300  1.00  0.00     0.031 C 
ATOM     51  C   UNL     1      -6.225  -7.125  -6.820  1.00  0.00     0.029 A 
ATOM     52  C   UNL     1      -6.669  -8.509  -6.984  1.00  0.00     0.049 A 
ATOM     53  H   UNL     1      -8.630  -9.207  -7.001  1.00  0.00     0.167 HD
ATOM     54  C   UNL     1     -12.794 -10.571  -6.802  1.00  0.00     0.037 A 
ATOM     55  C   UNL     1      -5.870  -9.580  -7.164  1.00  0.00     0.037 A 
ATOM     56  C   UNL     1     -12.027 -11.754  -7.090  1.00  0.00     0.049 A 
ATOM     57  C   UNL     1      -6.490 -10.949  -7.301  1.00  0.00     0.074 A 
ATOM     58  C   UNL     1     -12.479 -13.039  -7.332  1.00  0.00     0.029 A 
ATOM     59  N   UNL     1     -10.642 -11.798  -7.162  1.00  0.00    -0.354 N 
ATOM     60  N   UNL     1      -7.755 -11.293  -7.295  1.00  0.00    -0.248 NA
ATOM     61  C   UNL     1      -5.566 -12.081  -7.469  1.00  0.00     0.031 C 
ATOM     62  C   UNL     1     -11.367 -13.873  -7.484  1.00  0.00     0.029 A 
ATOM     63  C   UNL     1     -10.222 -13.096  -7.410  1.00  0.00     0.049 A 
ATOM     64  H   UNL     1     -10.045 -11.023  -7.053  1.00  0.00     0.167 HD
ATOM     65  C   UNL     1      -7.781 -12.669  -7.489  1.00  0.00     0.074 A 
ATOM     66  C   UNL     1      -6.404 -13.095  -7.626  1.00  0.00     0.031 C 
ATOM     67  C   UNL     1      -8.847 -13.505  -7.549  1.00  0.00     0.037 A 
BRANCH  54  68
ATOM     68  C   UNL     1     -14.286 -10.701  -6.686  1.00  0.00     0.064 A 
ATOM     69  C   UNL     1     -15.156 -10.133  -7.630  1.00  0.00     0.173 A 
ATOM     70  C   UNL     1     -14.853 -11.431  -5.630  1.00  0.00     0.173 A 
ATOM     71  F   UNL     1     -14.667  -9.412  -8.651  1.00  0.00    -0.203 F 
ATOM     72  C   UNL     1     -16.536 -10.268  -7.505  1.00  0.00     0.198 A 
ATOM     73  C   UNL     1     -16.232 -11.593  -5.527  1.00  0.00     0.198 A 
ATOM     74  F   UNL     1     -14.068 -11.996  -4.701  1.00  0.00    -0.203 F 
ATOM     75  F   UNL     1     -17.349  -9.673  -8.389  1.00  0.00    -0.200 F 
ATOM     76  C   UNL     1     -17.072 -11.005  -6.459  1.00  0.00     0.200 A 
ATOM     77  F   UNL     1     -16.746 -12.317  -4.524  1.00  0.00    -0.200 F 
ATOM     78  F   UNL     1     -18.401 -11.141  -6.346  1.00  0.00    -0.200 F 
ENDBRANCH  54  68
BRANCH  55  79
ATOM     79  C   UNL     1      -4.392  -9.411  -7.204  1.00  0.00     0.064 A 
ATOM     80  C   UNL     1      -3.664  -9.669  -8.374  1.00  0.00     0.173 A 
ATOM     81  C   UNL     1      -3.673  -9.018  -6.065  1.00  0.00     0.173 A 
ATOM     82  F   UNL     1      -4.301 -10.075  -9.482  1.00  0.00    -0.203 F 
ATOM     83  C   UNL     1      -2.275  -9.562  -8.397  1.00  0.00     0.198 A 
ATOM     84  C   UNL     1      -2.287  -8.878  -6.099  1.00  0.00     0.198 A 
ATOM     85  F   UNL     1      -4.319  -8.762  -4.917  1.00  0.00    -0.203 F 
ATOM     86  F   UNL     1      -1.601  -9.868  -9.514  1.00  0.00    -0.200 F 
ATOM     87  C   UNL     1      -1.588  -9.160  -7.262  1.00  0.00     0.200 A 
ATOM     88  F   UNL     1      -1.630  -8.475  -5.003  1.00  0.00    -0.200 F 
ATOM     89  F   UNL     1      -0.253  -9.053  -7.286  1.00  0.00    -0.200 F 
ENDBRANCH  55  79
BRANCH  67  90
ATOM     90  C   UNL     1      -8.575 -14.961  -7.814  1.00  0.00     0.064 A 
ATOM     91  C   UNL     1      -7.960 -15.785  -6.859  1.00  0.00     0.173 A 
ATOM     92  C   UNL     1      -8.972 -15.547  -9.026  1.00  0.00     0.173 A 
ATOM     93  F   UNL     1      -7.549 -15.273  -5.689  1.00  0.00    -0.203 F 
ATOM     94  C   UNL     1      -7.726 -17.133  -7.121  1.00  0.00     0.198 A 
ATOM     95  C   UNL     1      -8.770 -16.903  -9.269  1.00  0.00     0.198 A 
ATOM     96  F   UNL     1      -9.573 -14.808  -9.971  1.00  0.00    -0.203 F 
ATOM     97  F   UNL     1      -7.087 -17.888  -6.216  1.00  0.00    -0.200 F 
ATOM     98  C   UNL     1      -8.139 -17.693  -8.321  1.00  0.00     0.200 A 
ATOM     99  F   UNL     1      -9.187 -17.445 -10.422  1.00  0.00    -0.200 F 
ATOM    100  F   UNL     1      -7.920 -18.992  -8.567  1.00  0.00    -0.200 F 
ENDBRANCH  67  90
ENDBRANCH  41  42
ENDBRANCH  34  36
ENDBRANCH  33  34
ENDBRANCH  32  33
ENDBRANCH  31  32
ENDBRANCH  30  31
ENDBRANCH  29  30
ENDBRANCH  28  29
ENDBRANCH  27  28
ENDBRANCH  26  27
ENDBRANCH   1  26
TORSDOF 26
