REMARK SMILES Cc1ccc2oc(C(=O)N[C@@H]3C=C[C@H](C(=O)OCCOCCOCCOCCOC(=O)c4ccc(-c5c6nc(c(-c7c(F)c(F)c(F)c(F)c7F)c7ccc([nH]7)c(-c7c(F)c(F)c(F)c(F)c7F)c7nc(c(-c8c(F)c(F)c(F)c(F)c8F)c8ccc5[nH]8)C=C7)C=C6)cc4)C3)cc2c1
REMARK SMILES IDX 23 1 22 2 21 3 20 4 19 5 18 6 17 7 15 8 16 9 14 10 11 11
REMARK SMILES IDX 12 12 95 13 13 14 10 15 8 16 9 17 7 19 1 20 2 21 3 22 98 23
REMARK SMILES IDX 4 24 97 25 5 26 96 27 6 28 24 29 25 30 26 31 27 32 28 33
REMARK SMILES IDX 29 34 30 35 31 36 32 37 33 38 94 39 34 40 93 41 35 42 36 43
REMARK SMILES IDX 37 44 87 45 38 46 92 47 86 48 88 49 39 50 91 51 85 52 84 53
REMARK SMILES IDX 40 55 72 56 52 57 71 58 53 59 56 60 70 61 89 62 54 63 55 64
REMARK SMILES IDX 69 66 90 67 57 68 41 69 42 70 50 71 43 72 44 73 48 74 51 75
REMARK SMILES IDX 45 76 46 77 49 78 47 79 73 80 74 81 82 82 75 83 76 84 80 85
REMARK SMILES IDX 83 86 77 87 78 88 81 89 79 90 58 91 59 92 67 93 60 94 61 95
REMARK SMILES IDX 65 96 68 97 62 98 63 99 66 100 64 101
REMARK H PARENT 10 18 88 54 56 65
REMARK Flexibility Score: inf
ROOT
ATOM      1  O   UNL     1       0.309  -5.768   3.951  1.00  0.00    -0.377 OA
ENDROOT
BRANCH   1   2
ATOM      2  C   UNL     1       0.742  -4.427   3.836  1.00  0.00     0.188 C 
BRANCH   2   3
ATOM      3  C   UNL     1      -0.031  -3.606   2.790  1.00  0.00     0.188 C 
BRANCH   3   4
ATOM      4  O   UNL     1      -1.270  -4.197   2.433  1.00  0.00    -0.376 OA
BRANCH   4   5
ATOM      5  C   UNL     1      -1.367  -5.035   1.290  1.00  0.00     0.202 C 
BRANCH   5   6
ATOM      6  C   UNL     1      -0.369  -6.187   1.014  1.00  0.00     0.261 C 
BRANCH   6   7
ATOM      7  O   UNL     1       1.024  -5.934   1.263  1.00  0.00    -0.463 OA
BRANCH   7   8
ATOM      8  C   UNL     1       1.565  -4.967   0.488  1.00  0.00     0.312 C 
ATOM      9  O   UNL     1       0.954  -4.427  -0.426  1.00  0.00    -0.252 OA
BRANCH   8  10
ATOM     10  C   UNL     1       2.902  -4.463   1.057  1.00  0.00     0.124 C 
ATOM     11  C   UNL     1       3.954  -3.094  -0.631  1.00  0.00     0.106 C 
ATOM     12  C   UNL     1       4.817  -4.243  -0.274  1.00  0.00    -0.006 C 
ATOM     13  C   UNL     1       3.068  -3.004   0.616  1.00  0.00     0.048 C 
ATOM     14  C   UNL     1       4.217  -5.029   0.634  1.00  0.00    -0.014 C 
BRANCH  11  15
ATOM     15  N   UNL     1       3.263  -3.233  -1.919  1.00  0.00    -0.343 N 
ATOM     16  C   UNL     1       2.603  -4.187  -2.686  1.00  0.00     0.287 C 
ATOM     17  O   UNL     1       1.940  -3.711  -3.615  1.00  0.00    -0.266 OA
ATOM     18  H   UNL     1       3.268  -2.370  -2.394  1.00  0.00     0.164 HD
BRANCH  16  19
ATOM     19  C   UNL     1       2.661  -5.622  -2.439  1.00  0.00     0.192 A 
ATOM     20  C   UNL     1       2.515 -10.884   0.416  1.00  0.00     0.044 C 
ATOM     21  C   UNL     1       2.306  -9.803  -0.606  1.00  0.00    -0.050 A 
ATOM     22  C   UNL     1       1.251  -9.858  -1.531  1.00  0.00     0.007 A 
ATOM     23  C   UNL     1       3.158  -8.690  -0.595  1.00  0.00     0.015 A 
ATOM     24  C   UNL     1       0.945  -8.772  -2.374  1.00  0.00     0.048 A 
ATOM     25  C   UNL     1       2.910  -7.637  -1.486  1.00  0.00     0.021 A 
ATOM     26  C   UNL     1       1.768  -7.653  -2.267  1.00  0.00     0.135 A 
ATOM     27  C   UNL     1       3.588  -6.461  -1.860  1.00  0.00     0.065 A 
ATOM     28  O   UNL     1       1.598  -6.423  -2.848  1.00  0.00    -0.451 OA
ENDBRANCH  16  19
ENDBRANCH  11  15
ENDBRANCH   8  10
ENDBRANCH   7   8
ENDBRANCH   6   7
ENDBRANCH   5   6
ENDBRANCH   4   5
ENDBRANCH   3   4
ENDBRANCH   2   3
ENDBRANCH   1   2
BRANCH   1  29
ATOM     29  C   UNL     1      -0.913  -6.010   4.643  1.00  0.00     0.188 C 
BRANCH  29  30
ATOM     30  C   UNL     1      -1.875  -4.866   5.063  1.00  0.00     0.188 C 
BRANCH  30  31
ATOM     31  O   UNL     1      -1.271  -3.610   5.329  1.00  0.00    -0.376 OA
BRANCH  31  32
ATOM     32  C   UNL     1      -1.001  -3.229   6.667  1.00  0.00     0.202 C 
BRANCH  32  33
ATOM     33  C   UNL     1      -0.004  -4.081   7.469  1.00  0.00     0.261 C 
BRANCH  33  34
ATOM     34  O   UNL     1      -0.300  -5.481   7.550  1.00  0.00    -0.460 OA
BRANCH  34  35
ATOM     35  C   UNL     1      -1.472  -5.826   8.131  1.00  0.00     0.338 C 
ATOM     36  O   UNL     1      -2.284  -5.092   8.645  1.00  0.00    -0.246 OA
BRANCH  35  37
ATOM     37  C   UNL     1      -1.698  -7.261   7.849  1.00  0.00     0.060 A 
ATOM     38  C   UNL     1      -2.854  -7.638   7.152  1.00  0.00     0.016 A 
ATOM     39  C   UNL     1      -0.765  -8.219   8.249  1.00  0.00     0.016 A 
ATOM     40  C   UNL     1      -3.104  -8.983   6.891  1.00  0.00     0.010 A 
ATOM     41  C   UNL     1      -1.030  -9.569   8.014  1.00  0.00     0.010 A 
ATOM     42  C   UNL     1      -2.219  -9.957   7.371  1.00  0.00    -0.014 A 
BRANCH  42  43
ATOM     43  C   UNL     1      -2.652 -11.372   7.416  1.00  0.00     0.031 A 
ATOM     44  C   UNL     1      -3.233 -11.889   8.703  1.00  0.00     0.074 A 
ATOM     45  C   UNL     1      -2.557 -12.173   6.343  1.00  0.00     0.049 A 
ATOM     46  N   UNL     1      -3.643 -13.091   9.012  1.00  0.00    -0.248 NA
ATOM     47  C   UNL     1      -3.364 -10.909   9.794  1.00  0.00     0.031 C 
ATOM     48  C   UNL     1      -2.069 -11.771   5.027  1.00  0.00     0.029 A 
ATOM     49  N   UNL     1      -2.870 -13.501   6.199  1.00  0.00    -0.354 N 
ATOM     50  C   UNL     1      -4.063 -13.016  10.334  1.00  0.00     0.074 A 
ATOM     51  C   UNL     1      -3.829 -11.659  10.778  1.00  0.00     0.031 C 
ATOM     52  C   UNL     1      -2.114 -12.834   4.205  1.00  0.00     0.029 A 
ATOM     53  C   UNL     1      -2.596 -13.997   4.949  1.00  0.00     0.049 A 
ATOM     54  H   UNL     1      -3.255 -14.046   6.923  1.00  0.00     0.167 HD
ATOM     55  C   UNL     1      -4.598 -13.990  11.107  1.00  0.00     0.037 A 
ATOM     56  C   UNL     1      -2.707 -15.253   4.474  1.00  0.00     0.037 A 
ATOM     57  C   UNL     1      -4.825 -15.338  10.657  1.00  0.00     0.049 A 
ATOM     58  C   UNL     1      -3.217 -16.344   5.383  1.00  0.00     0.074 A 
ATOM     59  C   UNL     1      -5.389 -16.395  11.349  1.00  0.00     0.029 A 
ATOM     60  N   UNL     1      -4.480 -15.819   9.402  1.00  0.00    -0.354 N 
ATOM     61  N   UNL     1      -3.642 -16.264   6.621  1.00  0.00    -0.248 NA
ATOM     62  C   UNL     1      -3.261 -17.702   4.824  1.00  0.00     0.031 C 
ATOM     63  C   UNL     1      -5.316 -17.533  10.539  1.00  0.00     0.029 A 
ATOM     64  C   UNL     1      -4.779 -17.169   9.314  1.00  0.00     0.049 A 
ATOM     65  H   UNL     1      -4.081 -15.281   8.680  1.00  0.00     0.167 HD
ATOM     66  C   UNL     1      -4.040 -17.548   6.975  1.00  0.00     0.074 A 
ATOM     67  C   UNL     1      -3.812 -18.386   5.817  1.00  0.00     0.031 C 
ATOM     68  C   UNL     1      -4.553 -17.991   8.151  1.00  0.00     0.037 A 
BRANCH  55  69
ATOM     69  C   UNL     1      -4.920 -13.640  12.532  1.00  0.00     0.064 A 
ATOM     70  C   UNL     1      -5.942 -12.740  12.869  1.00  0.00     0.173 A 
ATOM     71  C   UNL     1      -4.184 -14.215  13.580  1.00  0.00     0.173 A 
ATOM     72  F   UNL     1      -6.667 -12.149  11.907  1.00  0.00    -0.203 F 
ATOM     73  C   UNL     1      -6.186 -12.395  14.197  1.00  0.00     0.198 A 
ATOM     74  C   UNL     1      -4.456 -13.897  14.908  1.00  0.00     0.198 A 
ATOM     75  F   UNL     1      -3.196 -15.084  13.317  1.00  0.00    -0.203 F 
ATOM     76  F   UNL     1      -7.119 -11.479  14.489  1.00  0.00    -0.200 F 
ATOM     77  C   UNL     1      -5.447 -12.978  15.215  1.00  0.00     0.200 A 
ATOM     78  F   UNL     1      -3.749 -14.474  15.890  1.00  0.00    -0.200 F 
ATOM     79  F   UNL     1      -5.681 -12.645  16.491  1.00  0.00    -0.200 F 
ENDBRANCH  55  69
BRANCH  56  80
ATOM     80  C   UNL     1      -2.337 -15.551   3.065  1.00  0.00     0.064 A 
ATOM     81  C   UNL     1      -3.311 -15.933   2.132  1.00  0.00     0.173 A 
ATOM     82  C   UNL     1      -1.008 -15.474   2.624  1.00  0.00     0.173 A 
ATOM     83  F   UNL     1      -4.593 -16.047   2.512  1.00  0.00    -0.203 F 
ATOM     84  C   UNL     1      -2.969 -16.241   0.817  1.00  0.00     0.198 A 
ATOM     85  C   UNL     1      -0.670 -15.752   1.301  1.00  0.00     0.198 A 
ATOM     86  F   UNL     1      -0.035 -15.118   3.477  1.00  0.00    -0.203 F 
ATOM     87  F   UNL     1      -3.914 -16.647  -0.041  1.00  0.00    -0.200 F 
ATOM     88  C   UNL     1      -1.650 -16.143   0.401  1.00  0.00     0.200 A 
ATOM     89  F   UNL     1       0.604 -15.643   0.900  1.00  0.00    -0.200 F 
ATOM     90  F   UNL     1      -1.321 -16.432  -0.866  1.00  0.00    -0.200 F 
ENDBRANCH  56  80
BRANCH  68  91
ATOM     91  C   UNL     1      -4.951 -19.439   8.233  1.00  0.00     0.064 A 
ATOM     92  C   UNL     1      -4.003 -20.473   8.238  1.00  0.00     0.173 A 
ATOM     93  C   UNL     1      -6.305 -19.794   8.352  1.00  0.00     0.173 A 
ATOM     94  F   UNL     1      -2.697 -20.192   8.114  1.00  0.00    -0.203 F 
ATOM     95  C   UNL     1      -4.396 -21.806   8.329  1.00  0.00     0.198 A 
ATOM     96  C   UNL     1      -6.691 -21.125   8.481  1.00  0.00     0.198 A 
ATOM     97  F   UNL     1      -7.255 -18.846   8.363  1.00  0.00    -0.203 F 
ATOM     98  F   UNL     1      -3.475 -22.779   8.276  1.00  0.00    -0.200 F 
ATOM     99  C   UNL     1      -5.738 -22.131   8.460  1.00  0.00     0.200 A 
ATOM    100  F   UNL     1      -7.987 -21.434   8.627  1.00  0.00    -0.200 F 
ATOM    101  F   UNL     1      -6.113 -23.414   8.557  1.00  0.00    -0.200 F 
ENDBRANCH  68  91
ENDBRANCH  42  43
ENDBRANCH  35  37
ENDBRANCH  34  35
ENDBRANCH  33  34
ENDBRANCH  32  33
ENDBRANCH  31  32
ENDBRANCH  30  31
ENDBRANCH  29  30
ENDBRANCH   1  29
TORSDOF 22
