REMARK SMILES CCc1nc2sc(C(=O)NCC(=O)OCCOCCOCCOCCOC(=O)c3ccc(-c4c5nc(c(-c6c(F)c(F)c(F)c(F)c6F)c6ccc([nH]6)c(-c6c(F)c(F)c(F)c(F)c6F)c6nc(c(-c7c(F)c(F)c(F)c(F)c7F)c7ccc4[nH]7)C=C6)C=C5)cc3)c(N)c2c(C(F)(F)F)c1C
REMARK SMILES IDX 19 1 18 2 17 3 16 4 15 5 14 6 12 7 13 8 11 9 10 10 8 11 9 12
REMARK SMILES IDX 7 14 3 15 4 16 100 17 5 18 95 19 101 20 6 21 94 22 92 23
REMARK SMILES IDX 2 24 1 25 96 26 97 27 98 28 99 29 93 30 20 33 21 34 22 35
REMARK SMILES IDX 23 36 24 37 25 38 26 39 27 40 28 41 29 42 30 43 91 44 31 45
REMARK SMILES IDX 90 46 32 47 33 48 34 49 84 50 35 51 89 52 83 53 85 54 36 55
REMARK SMILES IDX 88 56 82 57 81 58 37 60 69 61 49 62 68 63 50 64 53 65 67 66
REMARK SMILES IDX 86 67 51 68 52 69 66 71 87 72 54 73 38 74 39 75 47 76 40 77
REMARK SMILES IDX 41 78 45 79 48 80 42 81 43 82 46 83 44 84 70 85 71 86 79 87
REMARK SMILES IDX 72 88 73 89 77 90 80 91 74 92 75 93 78 94 76 95 55 96 56 97
REMARK SMILES IDX 64 98 57 99 58 100 62 101 65 102 59 103 60 104 63 105 61 106
REMARK H PARENT 10 13 93 31 93 32 85 59 53 70
REMARK Flexibility Score: inf
ROOT
ATOM      1  C   UNL     1       5.051 -10.813  -1.686  1.00  0.00     0.188 C 
ENDROOT
BRANCH   1   2
ATOM      2  C   UNL     1       6.326 -10.349  -2.421  1.00  0.00     0.188 C 
BRANCH   2   3
ATOM      3  O   UNL     1       7.468  -9.920  -1.699  1.00  0.00    -0.376 OA
BRANCH   3   4
ATOM      4  C   UNL     1       7.383  -9.009  -0.616  1.00  0.00     0.202 C 
BRANCH   4   5
ATOM      5  C   UNL     1       6.422  -7.802  -0.595  1.00  0.00     0.261 C 
BRANCH   5   6
ATOM      6  O   UNL     1       5.108  -8.004  -1.143  1.00  0.00    -0.462 OA
BRANCH   6   7
ATOM      7  C   UNL     1       4.969  -7.706  -2.462  1.00  0.00     0.325 C 
ATOM      8  O   UNL     1       5.858  -7.188  -3.137  1.00  0.00    -0.250 OA
BRANCH   7   9
ATOM      9  C   UNL     1       3.644  -8.227  -3.090  1.00  0.00     0.239 C 
BRANCH   9  10
ATOM     10  N   UNL     1       2.518  -8.540  -2.221  1.00  0.00    -0.340 N 
ATOM     11  C   UNL     1       1.512  -7.745  -1.730  1.00  0.00     0.264 C 
ATOM     12  O   UNL     1       0.588  -8.372  -1.200  1.00  0.00    -0.268 OA
ATOM     13  H   UNL     1       2.469  -9.482  -1.938  1.00  0.00     0.164 HD
BRANCH  11  14
ATOM     14  C   UNL     1       1.546  -6.288  -1.819  1.00  0.00     0.118 A 
ATOM     15  C   UNL     1       0.954  -1.635  -1.518  1.00  0.00     0.045 A 
ATOM     16  N   UNL     1       0.268  -2.759  -1.202  1.00  0.00    -0.242 NA
ATOM     17  C   UNL     1       2.228  -1.605  -2.116  1.00  0.00    -0.017 A 
ATOM     18  C   UNL     1       0.890  -3.905  -1.509  1.00  0.00     0.127 A 
ATOM     19  C   UNL     1       2.851  -2.825  -2.429  1.00  0.00     0.073 A 
ATOM     20  C   UNL     1       2.960  -0.324  -2.413  1.00  0.00     0.047 C 
ATOM     21  S   UNL     1       0.193  -5.418  -1.166  1.00  0.00    -0.108 S 
ATOM     22  C   UNL     1       2.126  -4.006  -2.107  1.00  0.00     0.048 A 
ATOM     23  C   UNL     1       2.454  -5.369  -2.304  1.00  0.00     0.066 A 
BRANCH  15  24
ATOM     24  C   UNL     1       0.257  -0.369  -1.094  1.00  0.00     0.053 C 
ATOM     25  C   UNL     1       0.824   0.123   0.228  1.00  0.00     0.011 C 
ENDBRANCH  15  24
BRANCH  19  26
ATOM     26  C   UNL     1       4.229  -2.926  -3.058  1.00  0.00     0.417 C 
ATOM     27  F   UNL     1       5.097  -3.651  -2.285  1.00  0.00    -0.166 F 
ATOM     28  F   UNL     1       4.202  -3.559  -4.271  1.00  0.00    -0.166 F 
ATOM     29  F   UNL     1       4.880  -1.757  -3.296  1.00  0.00    -0.166 F 
ENDBRANCH  19  26
BRANCH  23  30
ATOM     30  N   UNL     1       3.610  -5.625  -2.924  1.00  0.00    -0.397 N 
ATOM     31  H   UNL     1       3.886  -6.556  -3.086  1.00  0.00     0.156 HD
ATOM     32  H   UNL     1       4.186  -4.883  -3.218  1.00  0.00     0.156 HD
ENDBRANCH  23  30
ENDBRANCH  11  14
ENDBRANCH   9  10
ENDBRANCH   7   9
ENDBRANCH   6   7
ENDBRANCH   5   6
ENDBRANCH   4   5
ENDBRANCH   3   4
ENDBRANCH   2   3
ENDBRANCH   1   2
BRANCH   1  33
ATOM     33  O   UNL     1       4.973 -10.489  -0.322  1.00  0.00    -0.377 OA
BRANCH  33  34
ATOM     34  C   UNL     1       5.486 -11.454   0.581  1.00  0.00     0.188 C 
BRANCH  34  35
ATOM     35  C   UNL     1       6.607 -12.434   0.130  1.00  0.00     0.188 C 
BRANCH  35  36
ATOM     36  O   UNL     1       6.705 -12.757  -1.250  1.00  0.00    -0.376 OA
BRANCH  36  37
ATOM     37  C   UNL     1       6.115 -13.855  -1.934  1.00  0.00     0.202 C 
BRANCH  37  38
ATOM     38  C   UNL     1       4.645 -14.252  -1.761  1.00  0.00     0.261 C 
BRANCH  38  39
ATOM     39  O   UNL     1       4.112 -13.896  -0.510  1.00  0.00    -0.460 OA
BRANCH  39  40
ATOM     40  C   UNL     1       4.606 -14.615   0.501  1.00  0.00     0.338 C 
ATOM     41  O   UNL     1       5.517 -15.446   0.454  1.00  0.00    -0.246 OA
BRANCH  40  42
ATOM     42  C   UNL     1       3.820 -14.321   1.688  1.00  0.00     0.060 A 
ATOM     43  C   UNL     1       4.297 -14.862   2.877  1.00  0.00     0.016 A 
ATOM     44  C   UNL     1       2.482 -13.948   1.496  1.00  0.00     0.016 A 
ATOM     45  C   UNL     1       3.365 -15.440   3.693  1.00  0.00     0.010 A 
ATOM     46  C   UNL     1       1.558 -14.492   2.334  1.00  0.00     0.010 A 
ATOM     47  C   UNL     1       2.022 -15.373   3.301  1.00  0.00    -0.014 A 
BRANCH  47  48
ATOM     48  C   UNL     1       1.051 -16.178   3.992  1.00  0.00     0.031 A 
ATOM     49  C   UNL     1       0.754 -15.579   5.301  1.00  0.00     0.074 A 
ATOM     50  C   UNL     1       0.481 -17.267   3.436  1.00  0.00     0.049 A 
ATOM     51  N   UNL     1       1.199 -15.988   6.440  1.00  0.00    -0.248 NA
ATOM     52  C   UNL     1       0.165 -14.229   5.329  1.00  0.00     0.031 C 
ATOM     53  C   UNL     1       0.609 -17.802   2.077  1.00  0.00     0.029 A 
ATOM     54  N   UNL     1      -0.420 -18.116   4.006  1.00  0.00    -0.354 N 
ATOM     55  C   UNL     1       0.716 -15.069   7.357  1.00  0.00     0.074 A 
ATOM     56  C   UNL     1       0.341 -13.901   6.609  1.00  0.00     0.031 C 
ATOM     57  C   UNL     1      -0.357 -18.730   1.861  1.00  0.00     0.029 A 
ATOM     58  C   UNL     1      -1.074 -18.957   3.101  1.00  0.00     0.049 A 
ATOM     59  H   UNL     1      -0.595 -18.136   4.975  1.00  0.00     0.167 HD
ATOM     60  C   UNL     1       0.332 -15.490   8.589  1.00  0.00     0.037 A 
ATOM     61  C   UNL     1      -2.163 -19.719   3.398  1.00  0.00     0.037 A 
ATOM     62  C   UNL     1       0.908 -16.777   8.895  1.00  0.00     0.049 A 
ATOM     63  C   UNL     1      -2.151 -19.904   4.878  1.00  0.00     0.074 A 
ATOM     64  C   UNL     1       2.198 -17.250   9.037  1.00  0.00     0.029 A 
ATOM     65  N   UNL     1       0.123 -17.880   8.669  1.00  0.00    -0.354 N 
ATOM     66  N   UNL     1      -1.222 -20.577   5.502  1.00  0.00    -0.248 NA
ATOM     67  C   UNL     1      -2.845 -18.899   5.671  1.00  0.00     0.031 C 
ATOM     68  C   UNL     1       2.189 -18.547   8.445  1.00  0.00     0.029 A 
ATOM     69  C   UNL     1       0.883 -18.840   8.052  1.00  0.00     0.049 A 
ATOM     70  H   UNL     1      -0.828 -17.968   8.911  1.00  0.00     0.167 HD
ATOM     71  C   UNL     1      -0.910 -19.797   6.607  1.00  0.00     0.074 A 
ATOM     72  C   UNL     1      -1.968 -18.788   6.673  1.00  0.00     0.031 C 
ATOM     73  C   UNL     1       0.332 -19.845   7.171  1.00  0.00     0.037 A 
BRANCH  60  74
ATOM     74  C   UNL     1      -0.895 -14.961   9.281  1.00  0.00     0.064 A 
ATOM     75  C   UNL     1      -1.126 -15.329  10.617  1.00  0.00     0.173 A 
ATOM     76  C   UNL     1      -1.988 -14.356   8.616  1.00  0.00     0.173 A 
ATOM     77  F   UNL     1      -0.171 -15.947  11.327  1.00  0.00    -0.203 F 
ATOM     78  C   UNL     1      -2.373 -15.153  11.221  1.00  0.00     0.198 A 
ATOM     79  C   UNL     1      -3.209 -14.127   9.240  1.00  0.00     0.198 A 
ATOM     80  F   UNL     1      -1.971 -14.069   7.310  1.00  0.00    -0.203 F 
ATOM     81  F   UNL     1      -2.584 -15.629  12.454  1.00  0.00    -0.200 F 
ATOM     82  C   UNL     1      -3.412 -14.552  10.533  1.00  0.00     0.200 A 
ATOM     83  F   UNL     1      -4.210 -13.571   8.542  1.00  0.00    -0.200 F 
ATOM     84  F   UNL     1      -4.622 -14.430  11.093  1.00  0.00    -0.200 F 
ENDBRANCH  60  74
BRANCH  61  85
ATOM     85  C   UNL     1      -3.413 -19.890   2.605  1.00  0.00     0.064 A 
ATOM     86  C   UNL     1      -4.383 -20.842   2.974  1.00  0.00     0.173 A 
ATOM     87  C   UNL     1      -3.824 -18.920   1.671  1.00  0.00     0.173 A 
ATOM     88  F   UNL     1      -4.096 -21.774   3.894  1.00  0.00    -0.203 F 
ATOM     89  C   UNL     1      -5.689 -20.803   2.466  1.00  0.00     0.198 A 
ATOM     90  C   UNL     1      -5.127 -18.882   1.165  1.00  0.00     0.198 A 
ATOM     91  F   UNL     1      -3.000 -17.928   1.304  1.00  0.00    -0.203 F 
ATOM     92  F   UNL     1      -6.602 -21.689   2.891  1.00  0.00    -0.200 F 
ATOM     93  C   UNL     1      -6.063 -19.814   1.573  1.00  0.00     0.200 A 
ATOM     94  F   UNL     1      -5.487 -17.895   0.332  1.00  0.00    -0.200 F 
ATOM     95  F   UNL     1      -7.329 -19.733   1.139  1.00  0.00    -0.200 F 
ENDBRANCH  61  85
BRANCH  73  96
ATOM     96  C   UNL     1       1.274 -20.924   6.710  1.00  0.00     0.064 A 
ATOM     97  C   UNL     1       1.830 -20.996   5.419  1.00  0.00     0.173 A 
ATOM     98  C   UNL     1       1.760 -21.820   7.669  1.00  0.00     0.173 A 
ATOM     99  F   UNL     1       1.482 -20.118   4.470  1.00  0.00    -0.203 F 
ATOM    100  C   UNL     1       2.811 -21.940   5.105  1.00  0.00     0.198 A 
ATOM    101  C   UNL     1       2.761 -22.738   7.364  1.00  0.00     0.198 A 
ATOM    102  F   UNL     1       1.302 -21.763   8.929  1.00  0.00    -0.203 F 
ATOM    103  F   UNL     1       3.330 -21.988   3.869  1.00  0.00    -0.200 F 
ATOM    104  C   UNL     1       3.281 -22.802   6.082  1.00  0.00     0.200 A 
ATOM    105  F   UNL     1       3.246 -23.535   8.325  1.00  0.00    -0.200 F 
ATOM    106  F   UNL     1       4.256 -23.677   5.797  1.00  0.00    -0.200 F 
ENDBRANCH  73  96
ENDBRANCH  47  48
ENDBRANCH  40  42
ENDBRANCH  39  40
ENDBRANCH  38  39
ENDBRANCH  37  38
ENDBRANCH  36  37
ENDBRANCH  35  36
ENDBRANCH  34  35
ENDBRANCH  33  34
ENDBRANCH   1  33
TORSDOF 25
