REMARK SMILES Cc1cc(OCC(C)(C)C(=O)OCCOCCOCCOCCOC(=O)c2ccc(-c3c4nc(c(-c5c(F)c(F)c(F)c(F)c5F)c5ccc([nH]5)c(-c5c(F)c(F)c(F)c(F)c5F)c5nc(c(-c6c(F)c(F)c(F)c(F)c6F)c6ccc3[nH]6)C=C5)C=C4)cc2)cc(C(C)C)c1
REMARK SMILES IDX 17 1 16 2 15 3 14 4 13 5 12 6 10 7 11 8 7 9 8 10 9 11 6 12
REMARK SMILES IDX 5 13 4 14 1 15 2 16 3 17 95 18 91 19 90 20 92 21 93 22 94 23
REMARK SMILES IDX 18 24 19 25 20 26 21 27 22 28 23 29 24 30 25 31 26 32 27 33
REMARK SMILES IDX 28 34 89 35 29 36 88 37 30 38 31 39 32 40 82 41 33 42 87 43
REMARK SMILES IDX 81 44 83 45 34 46 86 47 80 48 79 49 35 51 67 52 47 53 66 54
REMARK SMILES IDX 48 55 51 56 65 57 84 58 49 59 50 60 64 62 85 63 52 64 36 65
REMARK SMILES IDX 37 66 45 67 38 68 39 69 43 70 46 71 40 72 41 73 44 74 42 75
REMARK SMILES IDX 68 76 69 77 77 78 70 79 71 80 75 81 78 82 72 83 73 84 76 85
REMARK SMILES IDX 74 86 53 87 54 88 62 89 55 90 56 91 60 92 63 93 57 94 58 95
REMARK SMILES IDX 61 96 59 97
REMARK H PARENT 83 50 51 61
REMARK Flexibility Score: inf
ROOT
ATOM      1  C   UNL     1      -5.773  -4.283   1.046  1.00  0.00     0.188 C 
ENDROOT
BRANCH   1   2
ATOM      2  C   UNL     1      -4.432  -4.936   0.679  1.00  0.00     0.188 C 
BRANCH   2   3
ATOM      3  O   UNL     1      -3.523  -5.410   1.653  1.00  0.00    -0.376 OA
BRANCH   3   4
ATOM      4  C   UNL     1      -2.905  -4.485   2.526  1.00  0.00     0.202 C 
BRANCH   4   5
ATOM      5  C   UNL     1      -1.856  -3.522   2.019  1.00  0.00     0.261 C 
BRANCH   5   6
ATOM      6  O   UNL     1      -2.491  -2.335   1.567  1.00  0.00    -0.463 OA
BRANCH   6   7
ATOM      7  C   UNL     1      -2.608  -2.322   0.228  1.00  0.00     0.315 C 
ATOM      8  O   UNL     1      -2.134  -3.184  -0.492  1.00  0.00    -0.251 OA
BRANCH   7   9
ATOM      9  C   UNL     1      -3.429  -1.145  -0.257  1.00  0.00     0.096 C 
ATOM     10  C   UNL     1      -3.104   0.105   0.572  1.00  0.00     0.027 C 
ATOM     11  C   UNL     1      -4.943  -1.284  -0.071  1.00  0.00     0.027 C 
BRANCH   9  12
ATOM     12  C   UNL     1      -3.149  -1.146  -1.788  1.00  0.00     0.247 C 
BRANCH  12  13
ATOM     13  O   UNL     1      -1.766  -1.221  -2.209  1.00  0.00    -0.492 OA
BRANCH  13  14
ATOM     14  C   UNL     1      -0.968  -0.231  -1.722  1.00  0.00     0.119 A 
ATOM     15  C   UNL     1       2.456   0.185  -0.149  1.00  0.00     0.044 C 
ATOM     16  C   UNL     1       1.050   0.452  -0.604  1.00  0.00    -0.047 A 
ATOM     17  C   UNL     1       0.294  -0.546  -1.232  1.00  0.00     0.049 A 
ATOM     18  C   UNL     1       0.458   1.706  -0.357  1.00  0.00     0.007 A 
ATOM     19  C   UNL     1      -0.811   2.023  -0.864  1.00  0.00    -0.042 A 
ATOM     20  C   UNL     1      -1.445   1.068  -1.652  1.00  0.00     0.050 A 
BRANCH  19  21
ATOM     21  C   UNL     1      -1.517   3.324  -0.514  1.00  0.00     0.013 C 
ATOM     22  C   UNL     1      -2.684   3.658  -1.461  1.00  0.00     0.012 C 
ATOM     23  C   UNL     1      -2.046   3.331   0.932  1.00  0.00     0.012 C 
ENDBRANCH  19  21
ENDBRANCH  13  14
ENDBRANCH  12  13
ENDBRANCH   9  12
ENDBRANCH   7   9
ENDBRANCH   6   7
ENDBRANCH   5   6
ENDBRANCH   4   5
ENDBRANCH   3   4
ENDBRANCH   2   3
ENDBRANCH   1   2
BRANCH   1  24
ATOM     24  O   UNL     1      -5.815  -3.294   2.058  1.00  0.00    -0.377 OA
BRANCH  24  25
ATOM     25  C   UNL     1      -6.300  -3.658   3.349  1.00  0.00     0.188 C 
BRANCH  25  26
ATOM     26  C   UNL     1      -7.176  -4.896   3.460  1.00  0.00     0.188 C 
BRANCH  26  27
ATOM     27  O   UNL     1      -6.351  -6.019   3.155  1.00  0.00    -0.376 OA
BRANCH  27  28
ATOM     28  C   UNL     1      -7.003  -7.137   2.564  1.00  0.00     0.202 C 
BRANCH  28  29
ATOM     29  C   UNL     1      -8.022  -7.775   3.503  1.00  0.00     0.261 C 
BRANCH  29  30
ATOM     30  O   UNL     1      -7.313  -8.349   4.621  1.00  0.00    -0.460 OA
BRANCH  30  31
ATOM     31  C   UNL     1      -7.402  -7.648   5.778  1.00  0.00     0.338 C 
ATOM     32  O   UNL     1      -8.460  -7.357   6.337  1.00  0.00    -0.246 OA
BRANCH  31  33
ATOM     33  C   UNL     1      -6.083  -7.065   6.154  1.00  0.00     0.060 A 
ATOM     34  C   UNL     1      -5.990  -6.114   7.183  1.00  0.00     0.016 A 
ATOM     35  C   UNL     1      -5.004  -7.232   5.299  1.00  0.00     0.016 A 
ATOM     36  C   UNL     1      -4.904  -5.220   7.236  1.00  0.00     0.010 A 
ATOM     37  C   UNL     1      -4.007  -6.272   5.289  1.00  0.00     0.010 A 
ATOM     38  C   UNL     1      -3.952  -5.221   6.220  1.00  0.00    -0.014 A 
BRANCH  38  39
ATOM     39  C   UNL     1      -2.994  -4.116   5.934  1.00  0.00     0.031 A 
ATOM     40  C   UNL     1      -1.561  -4.445   5.590  1.00  0.00     0.074 A 
ATOM     41  C   UNL     1      -3.506  -2.891   5.627  1.00  0.00     0.049 A 
ATOM     42  N   UNL     1      -0.653  -3.606   5.211  1.00  0.00    -0.248 NA
ATOM     43  C   UNL     1      -1.038  -5.810   5.610  1.00  0.00     0.031 C 
ATOM     44  C   UNL     1      -2.958  -1.911   4.684  1.00  0.00     0.029 A 
ATOM     45  N   UNL     1      -4.705  -2.285   6.022  1.00  0.00    -0.354 N 
ATOM     46  C   UNL     1       0.404  -4.308   4.635  1.00  0.00     0.074 A 
ATOM     47  C   UNL     1       0.132  -5.679   4.976  1.00  0.00     0.031 C 
ATOM     48  C   UNL     1      -3.748  -0.831   4.596  1.00  0.00     0.029 A 
ATOM     49  C   UNL     1      -4.645  -0.907   5.714  1.00  0.00     0.049 A 
ATOM     50  H   UNL     1      -5.466  -2.744   6.446  1.00  0.00     0.167 HD
ATOM     51  C   UNL     1       1.294  -3.643   3.823  1.00  0.00     0.037 A 
ATOM     52  C   UNL     1      -4.599   0.018   6.724  1.00  0.00     0.037 A 
ATOM     53  C   UNL     1       1.008  -2.194   3.845  1.00  0.00     0.049 A 
ATOM     54  C   UNL     1      -3.209   0.630   6.882  1.00  0.00     0.074 A 
ATOM     55  C   UNL     1       0.588  -1.281   2.891  1.00  0.00     0.029 A 
ATOM     56  N   UNL     1       0.894  -1.539   5.071  1.00  0.00    -0.354 N 
ATOM     57  N   UNL     1      -2.124   0.059   6.414  1.00  0.00    -0.248 NA
ATOM     58  C   UNL     1      -2.918   1.949   7.442  1.00  0.00     0.031 C 
ATOM     59  C   UNL     1       0.110  -0.123   3.563  1.00  0.00     0.029 A 
ATOM     60  C   UNL     1       0.299  -0.302   4.924  1.00  0.00     0.049 A 
ATOM     61  H   UNL     1       1.199  -1.910   5.930  1.00  0.00     0.167 HD
ATOM     62  C   UNL     1      -1.053   0.895   6.534  1.00  0.00     0.074 A 
ATOM     63  C   UNL     1      -1.593   2.056   7.217  1.00  0.00     0.031 C 
ATOM     64  C   UNL     1       0.194   0.603   6.056  1.00  0.00     0.037 A 
BRANCH  51  65
ATOM     65  C   UNL     1       2.290  -4.255   2.809  1.00  0.00     0.064 A 
ATOM     66  C   UNL     1       2.981  -3.425   1.885  1.00  0.00     0.173 A 
ATOM     67  C   UNL     1       2.586  -5.623   2.636  1.00  0.00     0.173 A 
ATOM     68  F   UNL     1       2.935  -2.092   1.978  1.00  0.00    -0.203 F 
ATOM     69  C   UNL     1       3.785  -3.916   0.842  1.00  0.00     0.198 A 
ATOM     70  C   UNL     1       3.412  -6.117   1.609  1.00  0.00     0.198 A 
ATOM     71  F   UNL     1       2.131  -6.559   3.467  1.00  0.00    -0.203 F 
ATOM     72  F   UNL     1       4.363  -3.060  -0.013  1.00  0.00    -0.200 F 
ATOM     73  C   UNL     1       3.995  -5.267   0.698  1.00  0.00     0.200 A 
ATOM     74  F   UNL     1       3.643  -7.436   1.523  1.00  0.00    -0.200 F 
ATOM     75  F   UNL     1       4.777  -5.742  -0.282  1.00  0.00    -0.200 F 
ENDBRANCH  51  65
BRANCH  52  76
ATOM     76  C   UNL     1      -5.707  -0.254   7.700  1.00  0.00     0.064 A 
ATOM     77  C   UNL     1      -6.985  -0.154   7.094  1.00  0.00     0.173 A 
ATOM     78  C   UNL     1      -5.541  -1.260   8.666  1.00  0.00     0.173 A 
ATOM     79  F   UNL     1      -7.218   0.822   6.200  1.00  0.00    -0.203 F 
ATOM     80  C   UNL     1      -7.891  -1.212   7.162  1.00  0.00     0.198 A 
ATOM     81  C   UNL     1      -6.490  -2.285   8.783  1.00  0.00     0.198 A 
ATOM     82  F   UNL     1      -4.376  -1.384   9.317  1.00  0.00    -0.203 F 
ATOM     83  F   UNL     1      -8.941  -1.246   6.327  1.00  0.00    -0.200 F 
ATOM     84  C   UNL     1      -7.614  -2.303   7.966  1.00  0.00     0.200 A 
ATOM     85  F   UNL     1      -6.239  -3.343   9.569  1.00  0.00    -0.200 F 
ATOM     86  F   UNL     1      -8.372  -3.406   7.882  1.00  0.00    -0.200 F 
ENDBRANCH  52  76
BRANCH  64  87
ATOM     87  C   UNL     1       1.476   1.184   6.597  1.00  0.00     0.064 A 
ATOM     88  C   UNL     1       1.600   1.612   7.927  1.00  0.00     0.173 A 
ATOM     89  C   UNL     1       2.688   1.087   5.866  1.00  0.00     0.173 A 
ATOM     90  F   UNL     1       0.544   1.639   8.752  1.00  0.00    -0.203 F 
ATOM     91  C   UNL     1       2.835   1.960   8.475  1.00  0.00     0.198 A 
ATOM     92  C   UNL     1       3.925   1.371   6.438  1.00  0.00     0.198 A 
ATOM     93  F   UNL     1       2.715   0.669   4.592  1.00  0.00    -0.203 F 
ATOM     94  F   UNL     1       2.895   2.391   9.742  1.00  0.00    -0.200 F 
ATOM     95  C   UNL     1       3.997   1.821   7.738  1.00  0.00     0.200 A 
ATOM     96  F   UNL     1       5.047   1.171   5.731  1.00  0.00    -0.200 F 
ATOM     97  F   UNL     1       5.184   2.099   8.290  1.00  0.00    -0.200 F 
ENDBRANCH  64  87
ENDBRANCH  38  39
ENDBRANCH  31  33
ENDBRANCH  30  31
ENDBRANCH  29  30
ENDBRANCH  28  29
ENDBRANCH  27  28
ENDBRANCH  26  27
ENDBRANCH  25  26
ENDBRANCH  24  25
ENDBRANCH   1  24
TORSDOF 24
