REMARK SMILES O=C(OCCOCCOCCOCCOC(=O)c1cc2c(Cl)c(C(F)(F)F)cnc2n1S(=O)(=O)c1ccccc1)c1ccc(-c2c3nc(c(-c4c(F)c(F)c(F)c(F)c4F)c4ccc([nH]4)c(-c4c(F)c(F)c(F)c(F)c4F)c4nc(c(-c5c(F)c(F)c(F)c(F)c5F)c5ccc2[nH]5)C=C4)C=C3)cc1
REMARK SMILES IDX 9 1 8 2 7 3 6 4 5 5 4 6 3 7 2 8 1 9 41 10 42 11 103 12 43 13
REMARK SMILES IDX 102 14 44 15 45 16 46 17 96 18 47 19 101 20 95 21 97 22
REMARK SMILES IDX 48 23 100 24 94 25 93 26 49 28 81 29 61 30 80 31 62 32 65 33
REMARK SMILES IDX 79 34 98 35 63 36 64 37 78 39 99 40 66 41 50 42 51 43 59 44
REMARK SMILES IDX 52 45 53 46 57 47 60 48 54 49 55 50 58 51 56 52 82 53 83 54
REMARK SMILES IDX 91 55 84 56 85 57 89 58 92 59 86 60 87 61 90 62 88 63 67 64
REMARK SMILES IDX 68 65 76 66 69 67 70 68 74 69 77 70 71 71 72 72 75 73 73 74
REMARK SMILES IDX 10 75 11 76 12 77 13 78 14 79 15 80 16 81 17 82 18 83 19 84
REMARK SMILES IDX 31 85 20 86 30 87 21 88 29 89 22 90 23 91 28 92 32 93 33 94
REMARK SMILES IDX 34 95 35 96 36 97 40 98 37 99 39 100 38 101 24 102 25 103
REMARK SMILES IDX 26 104 27 105
REMARK H PARENT 97 27 65 38
REMARK Flexibility Score: inf
ROOT
ATOM      1  O   UNL     1       2.964   3.240   1.103  1.00  0.00    -0.377 OA
ENDROOT
BRANCH   1   2
ATOM      2  C   UNL     1       2.386   1.974   0.853  1.00  0.00     0.188 C 
BRANCH   2   3
ATOM      3  C   UNL     1       3.177   0.763   1.343  1.00  0.00     0.188 C 
BRANCH   3   4
ATOM      4  O   UNL     1       4.309   0.304   0.581  1.00  0.00    -0.376 OA
BRANCH   4   5
ATOM      5  C   UNL     1       4.569   0.802  -0.732  1.00  0.00     0.202 C 
BRANCH   5   6
ATOM      6  C   UNL     1       4.424  -0.193  -1.877  1.00  0.00     0.261 C 
BRANCH   6   7
ATOM      7  O   UNL     1       3.058  -0.520  -2.182  1.00  0.00    -0.460 OA
BRANCH   7   8
ATOM      8  C   UNL     1       2.154  -0.661  -1.186  1.00  0.00     0.338 C 
ATOM      9  O   UNL     1       1.123  -0.004  -1.126  1.00  0.00    -0.246 OA
BRANCH   8  10
ATOM     10  C   UNL     1       2.316  -1.896  -0.396  1.00  0.00     0.060 A 
ATOM     11  C   UNL     1       3.557  -2.472  -0.111  1.00  0.00     0.016 A 
ATOM     12  C   UNL     1       1.128  -2.551  -0.059  1.00  0.00     0.016 A 
ATOM     13  C   UNL     1       3.623  -3.805   0.166  1.00  0.00     0.010 A 
ATOM     14  C   UNL     1       1.182  -3.884   0.257  1.00  0.00     0.010 A 
ATOM     15  C   UNL     1       2.426  -4.501   0.228  1.00  0.00    -0.014 A 
BRANCH  15  16
ATOM     16  C   UNL     1       2.539  -5.931   0.249  1.00  0.00     0.031 A 
ATOM     17  C   UNL     1       2.992  -6.439   1.555  1.00  0.00     0.074 A 
ATOM     18  C   UNL     1       2.290  -6.619  -0.878  1.00  0.00     0.049 A 
ATOM     19  N   UNL     1       4.129  -6.986   1.829  1.00  0.00    -0.248 NA
ATOM     20  C   UNL     1       2.182  -6.096   2.734  1.00  0.00     0.031 C 
ATOM     21  C   UNL     1       1.698  -6.141  -2.132  1.00  0.00     0.029 A 
ATOM     22  N   UNL     1       2.451  -7.946  -1.100  1.00  0.00    -0.354 N 
ATOM     23  C   UNL     1       4.087  -7.248   3.191  1.00  0.00     0.074 A 
ATOM     24  C   UNL     1       2.970  -6.513   3.724  1.00  0.00     0.031 C 
ATOM     25  C   UNL     1       1.322  -7.204  -2.879  1.00  0.00     0.029 A 
ATOM     26  C   UNL     1       1.770  -8.415  -2.219  1.00  0.00     0.049 A 
ATOM     27  H   UNL     1       2.998  -8.525  -0.522  1.00  0.00     0.167 HD
ATOM     28  C   UNL     1       4.806  -8.270   3.722  1.00  0.00     0.037 A 
ATOM     29  C   UNL     1       1.511  -9.726  -2.449  1.00  0.00     0.037 A 
ATOM     30  C   UNL     1       5.883  -8.664   2.856  1.00  0.00     0.049 A 
ATOM     31  C   UNL     1       2.504 -10.499  -1.646  1.00  0.00     0.074 A 
ATOM     32  C   UNL     1       7.031  -8.041   2.409  1.00  0.00     0.029 A 
ATOM     33  N   UNL     1       5.659  -9.712   1.997  1.00  0.00    -0.354 N 
ATOM     34  N   UNL     1       3.788 -10.487  -1.892  1.00  0.00    -0.248 NA
ATOM     35  C   UNL     1       2.135 -10.854  -0.281  1.00  0.00     0.031 C 
ATOM     36  C   UNL     1       7.181  -8.460   1.056  1.00  0.00     0.029 A 
ATOM     37  C   UNL     1       6.161  -9.369   0.767  1.00  0.00     0.049 A 
ATOM     38  H   UNL     1       5.216 -10.562   2.224  1.00  0.00     0.167 HD
ATOM     39  C   UNL     1       4.391 -10.421  -0.642  1.00  0.00     0.074 A 
ATOM     40  C   UNL     1       3.323 -10.704   0.314  1.00  0.00     0.031 C 
ATOM     41  C   UNL     1       5.621  -9.851  -0.483  1.00  0.00     0.037 A 
BRANCH  28  42
ATOM     42  C   UNL     1       4.281  -9.137   4.828  1.00  0.00     0.064 A 
ATOM     43  C   UNL     1       5.151 -10.017   5.494  1.00  0.00     0.173 A 
ATOM     44  C   UNL     1       2.902  -9.336   5.067  1.00  0.00     0.173 A 
ATOM     45  F   UNL     1       6.476  -9.942   5.299  1.00  0.00    -0.203 F 
ATOM     46  C   UNL     1       4.669 -11.044   6.308  1.00  0.00     0.198 A 
ATOM     47  C   UNL     1       2.428 -10.321   5.926  1.00  0.00     0.198 A 
ATOM     48  F   UNL     1       1.958  -8.666   4.394  1.00  0.00    -0.203 F 
ATOM     49  F   UNL     1       5.524 -11.930   6.836  1.00  0.00    -0.200 F 
ATOM     50  C   UNL     1       3.309 -11.193   6.526  1.00  0.00     0.200 A 
ATOM     51  F   UNL     1       1.107 -10.464   6.098  1.00  0.00    -0.200 F 
ATOM     52  F   UNL     1       2.844 -12.206   7.268  1.00  0.00    -0.200 F 
ENDBRANCH  28  42
BRANCH  29  53
ATOM     53  C   UNL     1       0.230 -10.310  -2.917  1.00  0.00     0.064 A 
ATOM     54  C   UNL     1       0.159 -11.658  -3.302  1.00  0.00     0.173 A 
ATOM     55  C   UNL     1      -1.002  -9.649  -2.728  1.00  0.00     0.173 A 
ATOM     56  F   UNL     1       1.284 -12.371  -3.461  1.00  0.00    -0.203 F 
ATOM     57  C   UNL     1      -1.067 -12.315  -3.455  1.00  0.00     0.198 A 
ATOM     58  C   UNL     1      -2.224 -10.303  -2.888  1.00  0.00     0.198 A 
ATOM     59  F   UNL     1      -1.050  -8.383  -2.290  1.00  0.00    -0.203 F 
ATOM     60  F   UNL     1      -1.093 -13.620  -3.759  1.00  0.00    -0.200 F 
ATOM     61  C   UNL     1      -2.257 -11.640  -3.236  1.00  0.00     0.200 A 
ATOM     62  F   UNL     1      -3.366  -9.647  -2.637  1.00  0.00    -0.200 F 
ATOM     63  F   UNL     1      -3.429 -12.285  -3.317  1.00  0.00    -0.200 F 
ENDBRANCH  29  53
BRANCH  41  64
ATOM     64  C   UNL     1       6.391  -9.495  -1.726  1.00  0.00     0.064 A 
ATOM     65  C   UNL     1       5.995  -8.497  -2.634  1.00  0.00     0.173 A 
ATOM     66  C   UNL     1       7.661 -10.059  -1.903  1.00  0.00     0.173 A 
ATOM     67  F   UNL     1       4.838  -7.841  -2.473  1.00  0.00    -0.203 F 
ATOM     68  C   UNL     1       6.822  -8.106  -3.687  1.00  0.00     0.198 A 
ATOM     69  C   UNL     1       8.499  -9.642  -2.933  1.00  0.00     0.198 A 
ATOM     70  F   UNL     1       8.115 -10.973  -1.032  1.00  0.00    -0.203 F 
ATOM     71  F   UNL     1       6.424  -7.149  -4.538  1.00  0.00    -0.200 F 
ATOM     72  C   UNL     1       8.079  -8.672  -3.829  1.00  0.00     0.200 A 
ATOM     73  F   UNL     1       9.734 -10.154  -3.033  1.00  0.00    -0.200 F 
ATOM     74  F   UNL     1       8.897  -8.260  -4.807  1.00  0.00    -0.200 F 
ENDBRANCH  41  64
ENDBRANCH  15  16
ENDBRANCH   8  10
ENDBRANCH   7   8
ENDBRANCH   6   7
ENDBRANCH   5   6
ENDBRANCH   4   5
ENDBRANCH   3   4
ENDBRANCH   2   3
ENDBRANCH   1   2
BRANCH   1  75
ATOM     75  C   UNL     1       4.362   3.383   1.062  1.00  0.00     0.188 C 
BRANCH  75  76
ATOM     76  C   UNL     1       5.149   3.112   2.355  1.00  0.00     0.188 C 
BRANCH  76  77
ATOM     77  O   UNL     1       4.554   3.140   3.645  1.00  0.00    -0.376 OA
BRANCH  77  78
ATOM     78  C   UNL     1       3.238   3.628   3.834  1.00  0.00     0.202 C 
BRANCH  78  79
ATOM     79  C   UNL     1       3.022   5.140   3.682  1.00  0.00     0.261 C 
BRANCH  79  80
ATOM     80  O   UNL     1       3.531   5.715   2.469  1.00  0.00    -0.459 OA
BRANCH  80  81
ATOM     81  C   UNL     1       4.739   6.324   2.544  1.00  0.00     0.356 C 
ATOM     82  O   UNL     1       5.433   6.412   3.551  1.00  0.00    -0.244 OA
BRANCH  81  83
ATOM     83  C   UNL     1       5.203   6.683   1.224  1.00  0.00     0.145 A 
ATOM     84  C   UNL     1       6.339   6.201   0.582  1.00  0.00     0.048 A 
ATOM     85  N   UNL     1       4.598   7.547   0.336  1.00  0.00    -0.209 N 
ATOM     86  C   UNL     1       6.451   6.828  -0.684  1.00  0.00     0.040 A 
ATOM     87  C   UNL     1       5.385   7.719  -0.782  1.00  0.00     0.156 A 
ATOM     88  C   UNL     1       7.350   6.794  -1.766  1.00  0.00     0.065 A 
ATOM     89  N   UNL     1       5.210   8.601  -1.783  1.00  0.00    -0.237 NA
ATOM     90  Cl  UNL     1       8.528   5.556  -1.700  1.00  0.00    -0.083 Cl
ATOM     91  C   UNL     1       7.263   7.738  -2.779  1.00  0.00     0.093 A 
ATOM     92  C   UNL     1       6.185   8.606  -2.722  1.00  0.00     0.128 A 
BRANCH  85  93
ATOM     93  S   UNL     1       2.988   8.058   0.484  1.00  0.00     0.270 S 
ATOM     94  O   UNL     1       2.208   7.016  -0.156  1.00  0.00    -0.201 OA
ATOM     95  O   UNL     1       2.826   8.383   1.891  1.00  0.00    -0.201 OA
BRANCH  93  96
ATOM     96  C   UNL     1       2.796   9.556  -0.427  1.00  0.00     0.088 A 
ATOM     97  C   UNL     1       3.007  10.779   0.213  1.00  0.00     0.022 A 
ATOM     98  C   UNL     1       2.407   9.507  -1.771  1.00  0.00     0.022 A 
ATOM     99  C   UNL     1       2.890  11.960  -0.517  1.00  0.00     0.001 A 
ATOM    100  C   UNL     1       2.315  10.691  -2.499  1.00  0.00     0.001 A 
ATOM    101  C   UNL     1       2.562  11.914  -1.873  1.00  0.00     0.000 A 
ENDBRANCH  93  96
ENDBRANCH  85  93
BRANCH  91 102
ATOM    102  C   UNL     1       8.287   7.864  -3.856  1.00  0.00     0.419 C 
ATOM    103  F   UNL     1       9.559   7.920  -3.377  1.00  0.00    -0.166 F 
ATOM    104  F   UNL     1       8.255   6.836  -4.745  1.00  0.00    -0.166 F 
ATOM    105  F   UNL     1       8.137   8.997  -4.601  1.00  0.00    -0.166 F 
ENDBRANCH  91 102
ENDBRANCH  81  83
ENDBRANCH  80  81
ENDBRANCH  79  80
ENDBRANCH  78  79
ENDBRANCH  77  78
ENDBRANCH  76  77
ENDBRANCH  75  76
ENDBRANCH   1  75
TORSDOF 23
