REMARK SMILES COc1cc([C@@H]2Oc3c(OC)cc(/C=C/C(=O)OCCOCCOCCOCCOC(=O)c4ccc(-c5c6nc(c(-c7c(F)c(F)c(F)c(F)c7F)c7ccc([nH]7)c(-c7c(F)c(F)c(F)c(F)c7F)c7nc(c(-c8c(F)c(F)c(F)c(F)c8F)c8ccc5[nH]8)C=C7)C=C6)cc4)cc3[C@@H]2CO)ccc1O
REMARK SMILES IDX 23 1 22 2 21 3 20 4 19 5 18 6 16 7 17 8 15 9 14 10 13 11
REMARK SMILES IDX 6 12 7 13 98 14 8 15 97 16 9 17 96 18 12 19 5 20 3 21 4 22
REMARK SMILES IDX 103 23 102 24 101 25 2 26 1 27 104 28 99 30 100 31 10 33
REMARK SMILES IDX 11 34 24 35 25 36 26 37 27 38 28 39 29 40 30 41 31 42 32 43
REMARK SMILES IDX 33 44 34 45 95 46 35 47 94 48 36 49 37 50 38 51 88 52 39 53
REMARK SMILES IDX 93 54 87 55 89 56 40 57 92 58 86 59 85 60 41 62 73 63 53 64
REMARK SMILES IDX 72 65 54 66 57 67 71 68 90 69 55 70 56 71 70 73 91 74 58 75
REMARK SMILES IDX 42 76 43 77 51 78 44 79 45 80 49 81 52 82 46 83 47 84 50 85
REMARK SMILES IDX 48 86 74 87 75 88 83 89 76 90 77 91 81 92 84 93 78 94 79 95
REMARK SMILES IDX 82 96 80 97 59 98 60 99 68 100 61 101 62 102 66 103 69 104
REMARK SMILES IDX 63 105 64 106 67 107 65 108
REMARK H PARENT 104 29 100 32 89 61 57 72
REMARK Flexibility Score: inf
ROOT
ATOM      1  C   UNL     1      -6.832  -2.001   4.141  1.00  0.00     0.188 C 
ENDROOT
BRANCH   1   2
ATOM      2  C   UNL     1      -7.624  -2.675   3.003  1.00  0.00     0.188 C 
BRANCH   2   3
ATOM      3  O   UNL     1      -7.317  -4.047   2.827  1.00  0.00    -0.376 OA
BRANCH   3   4
ATOM      4  C   UNL     1      -6.524  -4.440   1.723  1.00  0.00     0.202 C 
BRANCH   4   5
ATOM      5  C   UNL     1      -5.136  -3.807   1.555  1.00  0.00     0.261 C 
BRANCH   5   6
ATOM      6  O   UNL     1      -5.093  -2.373   1.591  1.00  0.00    -0.460 OA
BRANCH   6   7
ATOM      7  C   UNL     1      -5.651  -1.710   0.552  1.00  0.00     0.330 C 
ATOM      8  O   UNL     1      -6.173  -2.217  -0.427  1.00  0.00    -0.247 OA
BRANCH   7   9
ATOM      9  C   UNL     1      -5.697  -0.254   0.825  1.00  0.00     0.094 C 
ATOM     10  C   UNL     1      -4.780   0.357   1.586  1.00  0.00     0.016 C 
BRANCH  10  11
ATOM     11  C   UNL     1      -4.810   1.768   1.989  1.00  0.00    -0.021 A 
ATOM     12  C   UNL     1      -2.094   3.565   4.312  1.00  0.00     0.214 C 
ATOM     13  O   UNL     1      -3.521   3.569   4.806  1.00  0.00    -0.481 OA
ATOM     14  C   UNL     1      -2.243   4.422   3.040  1.00  0.00     0.094 C 
ATOM     15  C   UNL     1      -4.328   3.829   3.638  1.00  0.00     0.165 A 
ATOM     16  C   UNL     1      -3.478   3.717   2.559  1.00  0.00     0.008 A 
ATOM     17  C   UNL     1      -5.630   3.377   3.552  1.00  0.00     0.161 A 
ATOM     18  C   UNL     1      -3.663   2.574   1.780  1.00  0.00     0.016 A 
ATOM     19  C   UNL     1      -5.862   2.250   2.779  1.00  0.00     0.058 A 
BRANCH  12  20
ATOM     20  C   UNL     1      -1.499   2.162   4.050  1.00  0.00    -0.003 A 
ATOM     21  C   UNL     1       0.024   0.845   2.616  1.00  0.00     0.160 A 
ATOM     22  C   UNL     1      -0.342   2.041   3.253  1.00  0.00     0.058 A 
ATOM     23  C   UNL     1      -0.684  -0.304   2.938  1.00  0.00     0.157 A 
ATOM     24  C   UNL     1      -1.689  -0.254   3.910  1.00  0.00     0.050 A 
ATOM     25  C   UNL     1      -2.112   0.973   4.450  1.00  0.00     0.011 A 
BRANCH  21  26
ATOM     26  O   UNL     1       1.088   0.993   1.771  1.00  0.00    -0.493 OA
ATOM     27  C   UNL     1       1.182   0.176   0.616  1.00  0.00     0.278 C 
ENDBRANCH  21  26
BRANCH  23  28
ATOM     28  O   UNL     1      -0.466  -1.522   2.363  1.00  0.00    -0.504 OA
ATOM     29  H   UNL     1       0.194  -1.618   1.706  1.00  0.00     0.293 HD
ENDBRANCH  23  28
ENDBRANCH  12  20
BRANCH  14  30
ATOM     30  C   UNL     1      -1.129   4.886   2.116  1.00  0.00     0.168 C 
BRANCH  30  31
ATOM     31  O   UNL     1      -0.666   3.970   1.145  1.00  0.00    -0.396 OA
ATOM     32  H   UNL     1      -0.261   3.208   1.587  1.00  0.00     0.210 HD
ENDBRANCH  30  31
ENDBRANCH  14  30
BRANCH  17  33
ATOM     33  O   UNL     1      -6.705   4.181   3.847  1.00  0.00    -0.493 OA
ATOM     34  C   UNL     1      -6.584   5.465   3.199  1.00  0.00     0.278 C 
ENDBRANCH  17  33
ENDBRANCH  10  11
ENDBRANCH   7   9
ENDBRANCH   6   7
ENDBRANCH   5   6
ENDBRANCH   4   5
ENDBRANCH   3   4
ENDBRANCH   2   3
ENDBRANCH   1   2
BRANCH   1  35
ATOM     35  O   UNL     1      -5.740  -2.707   4.714  1.00  0.00    -0.377 OA
BRANCH  35  36
ATOM     36  C   UNL     1      -5.911  -4.041   5.189  1.00  0.00     0.188 C 
BRANCH  36  37
ATOM     37  C   UNL     1      -7.299  -4.652   5.498  1.00  0.00     0.188 C 
BRANCH  37  38
ATOM     38  O   UNL     1      -8.358  -3.713   5.539  1.00  0.00    -0.376 OA
BRANCH  38  39
ATOM     39  C   UNL     1      -8.947  -3.439   6.795  1.00  0.00     0.202 C 
BRANCH  39  40
ATOM     40  C   UNL     1      -8.049  -2.748   7.829  1.00  0.00     0.261 C 
BRANCH  40  41
ATOM     41  O   UNL     1      -6.785  -3.381   8.088  1.00  0.00    -0.460 OA
BRANCH  41  42
ATOM     42  C   UNL     1      -6.806  -4.574   8.716  1.00  0.00     0.338 C 
ATOM     43  O   UNL     1      -7.788  -5.194   9.097  1.00  0.00    -0.246 OA
BRANCH  42  44
ATOM     44  C   UNL     1      -5.429  -5.105   8.713  1.00  0.00     0.060 A 
ATOM     45  C   UNL     1      -5.162  -6.314   8.056  1.00  0.00     0.016 A 
ATOM     46  C   UNL     1      -4.402  -4.401   9.345  1.00  0.00     0.016 A 
ATOM     47  C   UNL     1      -3.868  -6.838   8.059  1.00  0.00     0.010 A 
ATOM     48  C   UNL     1      -3.112  -4.935   9.364  1.00  0.00     0.010 A 
ATOM     49  C   UNL     1      -2.846  -6.172   8.749  1.00  0.00    -0.014 A 
BRANCH  49  50
ATOM     50  C   UNL     1      -1.550  -6.853   8.988  1.00  0.00     0.031 A 
ATOM     51  C   UNL     1      -1.326  -7.517  10.319  1.00  0.00     0.074 A 
ATOM     52  C   UNL     1      -0.595  -6.894   8.044  1.00  0.00     0.049 A 
ATOM     53  N   UNL     1      -0.265  -8.129  10.779  1.00  0.00    -0.248 NA
ATOM     54  C   UNL     1      -2.455  -7.477  11.261  1.00  0.00     0.031 C 
ATOM     55  C   UNL     1      -0.705  -6.319   6.707  1.00  0.00     0.029 A 
ATOM     56  N   UNL     1       0.666  -7.438   8.078  1.00  0.00    -0.354 N 
ATOM     57  C   UNL     1      -0.595  -8.537  12.065  1.00  0.00     0.074 A 
ATOM     58  C   UNL     1      -1.941  -8.073  12.325  1.00  0.00     0.031 C 
ATOM     59  C   UNL     1       0.449  -6.527   6.049  1.00  0.00     0.029 A 
ATOM     60  C   UNL     1       1.388  -7.219   6.931  1.00  0.00     0.049 A 
ATOM     61  H   UNL     1       1.018  -7.936   8.850  1.00  0.00     0.167 HD
ATOM     62  C   UNL     1       0.154  -9.242  12.946  1.00  0.00     0.037 A 
ATOM     63  C   UNL     1       2.669  -7.521   6.641  1.00  0.00     0.037 A 
ATOM     64  C   UNL     1       1.496  -9.693  12.685  1.00  0.00     0.049 A 
ATOM     65  C   UNL     1       3.510  -8.241   7.665  1.00  0.00     0.074 A 
ATOM     66  C   UNL     1       2.330 -10.436  13.500  1.00  0.00     0.029 A 
ATOM     67  N   UNL     1       2.206  -9.427  11.522  1.00  0.00    -0.354 N 
ATOM     68  N   UNL     1       3.183  -8.658   8.864  1.00  0.00    -0.248 NA
ATOM     69  C   UNL     1       4.901  -8.536   7.291  1.00  0.00     0.031 C 
ATOM     70  C   UNL     1       3.568 -10.560  12.861  1.00  0.00     0.029 A 
ATOM     71  C   UNL     1       3.482  -9.960  11.615  1.00  0.00     0.049 A 
ATOM     72  H   UNL     1       1.855  -8.933  10.746  1.00  0.00     0.167 HD
ATOM     73  C   UNL     1       4.312  -9.287   9.376  1.00  0.00     0.074 A 
ATOM     74  C   UNL     1       5.330  -9.210   8.348  1.00  0.00     0.031 C 
ATOM     75  C   UNL     1       4.489  -9.877  10.585  1.00  0.00     0.037 A 
BRANCH  62  76
ATOM     76  C   UNL     1      -0.451  -9.528  14.291  1.00  0.00     0.064 A 
ATOM     77  C   UNL     1      -1.541 -10.399  14.447  1.00  0.00     0.173 A 
ATOM     78  C   UNL     1       0.074  -8.927  15.445  1.00  0.00     0.173 A 
ATOM     79  F   UNL     1      -2.092 -10.991  13.376  1.00  0.00    -0.203 F 
ATOM     80  C   UNL     1      -2.107 -10.624  15.700  1.00  0.00     0.198 A 
ATOM     81  C   UNL     1      -0.470  -9.183  16.701  1.00  0.00     0.198 A 
ATOM     82  F   UNL     1       1.118  -8.089  15.357  1.00  0.00    -0.203 F 
ATOM     83  F   UNL     1      -3.187 -11.409  15.814  1.00  0.00    -0.200 F 
ATOM     84  C   UNL     1      -1.567 -10.022  16.826  1.00  0.00     0.200 A 
ATOM     85  F   UNL     1       0.063  -8.612  17.790  1.00  0.00    -0.200 F 
ATOM     86  F   UNL     1      -2.110 -10.241  18.031  1.00  0.00    -0.200 F 
ENDBRANCH  62  76
BRANCH  63  87
ATOM     87  C   UNL     1       3.238  -7.135   5.322  1.00  0.00     0.064 A 
ATOM     88  C   UNL     1       3.590  -8.103   4.373  1.00  0.00     0.173 A 
ATOM     89  C   UNL     1       3.446  -5.788   4.987  1.00  0.00     0.173 A 
ATOM     90  F   UNL     1       3.439  -9.405   4.656  1.00  0.00    -0.203 F 
ATOM     91  C   UNL     1       4.139  -7.741   3.144  1.00  0.00     0.198 A 
ATOM     92  C   UNL     1       3.965  -5.426   3.746  1.00  0.00     0.198 A 
ATOM     93  F   UNL     1       3.134  -4.822   5.864  1.00  0.00    -0.203 F 
ATOM     94  F   UNL     1       4.508  -8.689   2.272  1.00  0.00    -0.200 F 
ATOM     95  C   UNL     1       4.317  -6.403   2.828  1.00  0.00     0.200 A 
ATOM     96  F   UNL     1       4.127  -4.131   3.441  1.00  0.00    -0.200 F 
ATOM     97  F   UNL     1       4.836  -6.055   1.642  1.00  0.00    -0.200 F 
ENDBRANCH  63  87
BRANCH  75  98
ATOM     98  C   UNL     1       5.820 -10.523  10.854  1.00  0.00     0.064 A 
ATOM     99  C   UNL     1       6.989  -9.768  11.030  1.00  0.00     0.173 A 
ATOM    100  C   UNL     1       5.918 -11.918  10.980  1.00  0.00     0.173 A 
ATOM    101  F   UNL     1       6.956  -8.433  10.909  1.00  0.00    -0.203 F 
ATOM    102  C   UNL     1       8.210 -10.387  11.290  1.00  0.00     0.198 A 
ATOM    103  C   UNL     1       7.133 -12.531  11.277  1.00  0.00     0.198 A 
ATOM    104  F   UNL     1       4.830 -12.690  10.832  1.00  0.00    -0.203 F 
ATOM    105  F   UNL     1       9.324  -9.649  11.399  1.00  0.00    -0.200 F 
ATOM    106  C   UNL     1       8.279 -11.766  11.422  1.00  0.00     0.200 A 
ATOM    107  F   UNL     1       7.193 -13.862  11.422  1.00  0.00    -0.200 F 
ATOM    108  F   UNL     1       9.453 -12.358  11.681  1.00  0.00    -0.200 F 
ENDBRANCH  75  98
ENDBRANCH  49  50
ENDBRANCH  42  44
ENDBRANCH  41  42
ENDBRANCH  40  41
ENDBRANCH  39  40
ENDBRANCH  38  39
ENDBRANCH  37  38
ENDBRANCH  36  37
ENDBRANCH  35  36
ENDBRANCH   1  35
TORSDOF 27
