REMARK SMILES O=C(Cc1cc(=O)nc(SCc2cccc(Cl)c2)[nH]1)OCCOCCOCCOCCOC(=O)c1ccc(-c2c3nc(c(-c4c(F)c(F)c(F)c(F)c4F)c4ccc([nH]4)c(-c4c(F)c(F)c(F)c(F)c4F)c4nc(c(-c5c(F)c(F)c(F)c(F)c5F)c5ccc2[nH]5)C=C4)C=C3)cc1
REMARK SMILES IDX 25 1 24 2 23 3 22 4 21 5 20 6 2 7 1 8 3 9 4 10 5 11 19 12
REMARK SMILES IDX 6 13 9 14 7 16 8 17 10 18 11 19 12 20 13 21 18 22 14 23
REMARK SMILES IDX 16 24 15 25 17 26 26 27 27 28 28 29 29 30 30 31 31 32 32 33
REMARK SMILES IDX 33 34 34 35 35 36 36 37 97 38 37 39 96 40 38 41 39 42 40 43
REMARK SMILES IDX 90 44 41 45 95 46 89 47 91 48 42 49 94 50 88 51 87 52 43 54
REMARK SMILES IDX 75 55 55 56 74 57 56 58 59 59 73 60 92 61 57 62 58 63 72 65
REMARK SMILES IDX 93 66 60 67 44 68 45 69 53 70 46 71 47 72 51 73 54 74 48 75
REMARK SMILES IDX 49 76 52 77 50 78 76 79 77 80 85 81 78 82 79 83 83 84 86 85
REMARK SMILES IDX 80 86 81 87 84 88 82 89 61 90 62 91 70 92 63 93 64 94 68 95
REMARK SMILES IDX 71 96 65 97 66 98 69 99 67 100
REMARK H PARENT 19 15 91 53 59 64
REMARK Flexibility Score: inf
ROOT
ATOM      1  C   UNL     1       1.981   2.347   0.711  1.00  0.00     0.188 C 
ENDROOT
BRANCH   1   2
ATOM      2  C   UNL     1       2.614   1.179   1.459  1.00  0.00     0.188 C 
BRANCH   2   3
ATOM      3  O   UNL     1       4.005   0.951   1.302  1.00  0.00    -0.376 OA
BRANCH   3   4
ATOM      4  C   UNL     1       4.683   0.676   0.091  1.00  0.00     0.202 C 
BRANCH   4   5
ATOM      5  C   UNL     1       3.981   0.271  -1.204  1.00  0.00     0.261 C 
BRANCH   5   6
ATOM      6  O   UNL     1       2.614  -0.135  -1.121  1.00  0.00    -0.463 OA
BRANCH   6   7
ATOM      7  C   UNL     1       2.252  -1.369  -0.711  1.00  0.00     0.311 C 
ATOM      8  O   UNL     1       1.221  -1.893  -1.123  1.00  0.00    -0.252 OA
BRANCH   7   9
ATOM      9  C   UNL     1       3.068  -2.014   0.380  1.00  0.00     0.176 C 
BRANCH   9  10
ATOM     10  C   UNL     1       3.943  -3.118  -0.098  1.00  0.00     0.034 A 
ATOM     11  C   UNL     1       5.271  -3.004  -0.246  1.00  0.00     0.095 A 
ATOM     12  N   UNL     1       3.389  -4.366  -0.195  1.00  0.00    -0.337 N 
ATOM     13  C   UNL     1       6.028  -4.228  -0.621  1.00  0.00     0.273 A 
ATOM     14  C   UNL     1       4.188  -5.464  -0.094  1.00  0.00     0.169 A 
ATOM     15  H   UNL     1       2.421  -4.468  -0.336  1.00  0.00     0.168 HD
ATOM     16  O   UNL     1       7.125  -4.087  -1.151  1.00  0.00    -0.267 OA
ATOM     17  N   UNL     1       5.469  -5.440  -0.280  1.00  0.00    -0.185 NA
BRANCH  14  18
ATOM     18  S   UNL     1       3.447  -6.972   0.368  1.00  0.00    -0.083 SA
BRANCH  18  19
ATOM     19  C   UNL     1       2.116  -6.464   1.489  1.00  0.00     0.113 C 
BRANCH  19  20
ATOM     20  C   UNL     1       2.524  -5.712   2.736  1.00  0.00    -0.036 A 
ATOM     21  C   UNL     1       1.988  -4.442   3.013  1.00  0.00     0.005 A 
ATOM     22  C   UNL     1       3.360  -6.302   3.696  1.00  0.00     0.025 A 
ATOM     23  C   UNL     1       2.307  -3.763   4.193  1.00  0.00     0.002 A 
ATOM     24  C   UNL     1       3.653  -5.633   4.888  1.00  0.00     0.041 A 
ATOM     25  C   UNL     1       3.137  -4.363   5.136  1.00  0.00     0.020 A 
ATOM     26  Cl  UNL     1       4.632  -6.398   6.078  1.00  0.00    -0.084 Cl
ENDBRANCH  19  20
ENDBRANCH  18  19
ENDBRANCH  14  18
ENDBRANCH   9  10
ENDBRANCH   7   9
ENDBRANCH   6   7
ENDBRANCH   5   6
ENDBRANCH   4   5
ENDBRANCH   3   4
ENDBRANCH   2   3
ENDBRANCH   1   2
BRANCH   1  27
ATOM     27  O   UNL     1       2.523   3.611   1.062  1.00  0.00    -0.377 OA
BRANCH  27  28
ATOM     28  C   UNL     1       3.874   3.781   0.675  1.00  0.00     0.188 C 
BRANCH  28  29
ATOM     29  C   UNL     1       4.932   3.674   1.799  1.00  0.00     0.188 C 
BRANCH  29  30
ATOM     30  O   UNL     1       4.572   3.394   3.142  1.00  0.00    -0.376 OA
BRANCH  30  31
ATOM     31  C   UNL     1       3.417   3.987   3.711  1.00  0.00     0.202 C 
BRANCH  31  32
ATOM     32  C   UNL     1       3.260   5.514   3.701  1.00  0.00     0.261 C 
BRANCH  32  33
ATOM     33  O   UNL     1       3.449   6.134   2.420  1.00  0.00    -0.460 OA
BRANCH  33  34
ATOM     34  C   UNL     1       4.606   6.818   2.242  1.00  0.00     0.338 C 
ATOM     35  O   UNL     1       5.483   7.019   3.066  1.00  0.00    -0.246 OA
BRANCH  34  36
ATOM     36  C   UNL     1       4.767   7.081   0.793  1.00  0.00     0.060 A 
ATOM     37  C   UNL     1       3.718   7.606   0.034  1.00  0.00     0.016 A 
ATOM     38  C   UNL     1       5.958   6.675   0.167  1.00  0.00     0.016 A 
ATOM     39  C   UNL     1       3.870   7.743  -1.348  1.00  0.00     0.010 A 
ATOM     40  C   UNL     1       6.096   6.783  -1.218  1.00  0.00     0.010 A 
ATOM     41  C   UNL     1       5.062   7.345  -1.980  1.00  0.00    -0.014 A 
BRANCH  41  42
ATOM     42  C   UNL     1       5.317   7.751  -3.382  1.00  0.00     0.031 A 
ATOM     43  C   UNL     1       5.079   6.849  -4.550  1.00  0.00     0.074 A 
ATOM     44  C   UNL     1       5.774   9.001  -3.572  1.00  0.00     0.049 A 
ATOM     45  N   UNL     1       5.163   7.125  -5.828  1.00  0.00    -0.248 NA
ATOM     46  C   UNL     1       4.703   5.461  -4.255  1.00  0.00     0.031 C 
ATOM     47  C   UNL     1       6.054   9.955  -2.498  1.00  0.00     0.029 A 
ATOM     48  N   UNL     1       6.065   9.689  -4.720  1.00  0.00    -0.354 N 
ATOM     49  C   UNL     1       4.815   5.960  -6.495  1.00  0.00     0.074 A 
ATOM     50  C   UNL     1       4.576   4.955  -5.477  1.00  0.00     0.031 C 
ATOM     51  C   UNL     1       6.441  11.118  -3.038  1.00  0.00     0.029 A 
ATOM     52  C   UNL     1       6.456  10.983  -4.490  1.00  0.00     0.049 A 
ATOM     53  H   UNL     1       6.000   9.294  -5.619  1.00  0.00     0.167 HD
ATOM     54  C   UNL     1       4.688   5.763  -7.832  1.00  0.00     0.037 A 
ATOM     55  C   UNL     1       6.774  11.963  -5.354  1.00  0.00     0.037 A 
ATOM     56  C   UNL     1       4.971   6.763  -8.836  1.00  0.00     0.049 A 
ATOM     57  C   UNL     1       6.694  11.695  -6.827  1.00  0.00     0.074 A 
ATOM     58  C   UNL     1       4.863   6.661 -10.213  1.00  0.00     0.029 A 
ATOM     59  N   UNL     1       5.433   8.046  -8.572  1.00  0.00    -0.354 N 
ATOM     60  N   UNL     1       6.306  10.609  -7.449  1.00  0.00    -0.248 NA
ATOM     61  C   UNL     1       7.089  12.793  -7.717  1.00  0.00     0.031 C 
ATOM     62  C   UNL     1       5.310   7.859 -10.783  1.00  0.00     0.029 A 
ATOM     63  C   UNL     1       5.643   8.733  -9.761  1.00  0.00     0.049 A 
ATOM     64  H   UNL     1       5.590   8.415  -7.673  1.00  0.00     0.167 HD
ATOM     65  C   UNL     1       6.391  10.896  -8.804  1.00  0.00     0.074 A 
ATOM     66  C   UNL     1       6.848  12.268  -8.910  1.00  0.00     0.031 C 
ATOM     67  C   UNL     1       6.116  10.093  -9.861  1.00  0.00     0.037 A 
BRANCH  54  68
ATOM     68  C   UNL     1       4.211   4.415  -8.296  1.00  0.00     0.064 A 
ATOM     69  C   UNL     1       2.890   3.995  -8.075  1.00  0.00     0.173 A 
ATOM     70  C   UNL     1       5.053   3.561  -9.025  1.00  0.00     0.173 A 
ATOM     71  F   UNL     1       2.043   4.771  -7.381  1.00  0.00    -0.203 F 
ATOM     72  C   UNL     1       2.437   2.764  -8.544  1.00  0.00     0.198 A 
ATOM     73  C   UNL     1       4.589   2.342  -9.518  1.00  0.00     0.198 A 
ATOM     74  F   UNL     1       6.322   3.914  -9.276  1.00  0.00    -0.203 F 
ATOM     75  F   UNL     1       1.183   2.370  -8.284  1.00  0.00    -0.200 F 
ATOM     76  C   UNL     1       3.284   1.942  -9.271  1.00  0.00     0.200 A 
ATOM     77  F   UNL     1       5.404   1.556 -10.234  1.00  0.00    -0.200 F 
ATOM     78  F   UNL     1       2.845   0.762  -9.730  1.00  0.00    -0.200 F 
ENDBRANCH  54  68
BRANCH  55  79
ATOM     79  C   UNL     1       7.126  13.302  -4.825  1.00  0.00     0.064 A 
ATOM     80  C   UNL     1       6.235  14.375  -4.954  1.00  0.00     0.173 A 
ATOM     81  C   UNL     1       8.319  13.519  -4.120  1.00  0.00     0.173 A 
ATOM     82  F   UNL     1       5.087  14.213  -5.629  1.00  0.00    -0.203 F 
ATOM     83  C   UNL     1       6.524  15.618  -4.398  1.00  0.00     0.198 A 
ATOM     84  C   UNL     1       8.595  14.755  -3.542  1.00  0.00     0.198 A 
ATOM     85  F   UNL     1       9.196  12.517  -3.960  1.00  0.00    -0.203 F 
ATOM     86  F   UNL     1       5.664  16.633  -4.551  1.00  0.00    -0.200 F 
ATOM     87  C   UNL     1       7.699  15.804  -3.684  1.00  0.00     0.200 A 
ATOM     88  F   UNL     1       9.720  14.926  -2.835  1.00  0.00    -0.200 F 
ATOM     89  F   UNL     1       7.965  16.994  -3.130  1.00  0.00    -0.200 F 
ENDBRANCH  55  79
BRANCH  67  90
ATOM     90  C   UNL     1       6.299  10.680 -11.232  1.00  0.00     0.064 A 
ATOM     91  C   UNL     1       7.574  10.961 -11.746  1.00  0.00     0.173 A 
ATOM     92  C   UNL     1       5.191  10.941 -12.053  1.00  0.00     0.173 A 
ATOM     93  F   UNL     1       8.666  10.747 -10.996  1.00  0.00    -0.203 F 
ATOM     94  C   UNL     1       7.732  11.505 -13.019  1.00  0.00     0.198 A 
ATOM     95  C   UNL     1       5.354  11.455 -13.337  1.00  0.00     0.198 A 
ATOM     96  F   UNL     1       3.949  10.688 -11.614  1.00  0.00    -0.203 F 
ATOM     97  F   UNL     1       8.957  11.813 -13.467  1.00  0.00    -0.200 F 
ATOM     98  C   UNL     1       6.622  11.744 -13.816  1.00  0.00     0.200 A 
ATOM     99  F   UNL     1       4.281  11.673 -14.111  1.00  0.00    -0.200 F 
ATOM    100  F   UNL     1       6.776  12.262 -15.042  1.00  0.00    -0.200 F 
ENDBRANCH  67  90
ENDBRANCH  41  42
ENDBRANCH  34  36
ENDBRANCH  33  34
ENDBRANCH  32  33
ENDBRANCH  31  32
ENDBRANCH  30  31
ENDBRANCH  29  30
ENDBRANCH  28  29
ENDBRANCH  27  28
ENDBRANCH   1  27
TORSDOF 24
