REMARK SMILES C[C@@H](C(=O)OCCOCCOCCOCCOC(=O)c1ccc(-c2c3nc(c(-c4c(F)c(F)c(F)c(F)c4F)c4ccc([nH]4)c(-c4c(F)c(F)c(F)c(F)c4F)c4nc(c(-c5c(F)c(F)c(F)c(F)c5F)c5ccc2[nH]5)C=C4)C=C3)cc1)c1ccc(NC2CCCC2)cc1F
REMARK SMILES IDX 10 1 9 2 8 3 7 4 6 5 5 6 3 7 4 8 2 9 1 10 83 11 84 12 94 13
REMARK SMILES IDX 85 14 93 15 95 16 86 17 87 18 88 20 89 21 92 22 90 23 91 24
REMARK SMILES IDX 11 25 12 26 13 27 14 28 15 29 16 30 17 31 18 32 19 33 20 34
REMARK SMILES IDX 21 35 82 36 22 37 81 38 23 39 24 40 25 41 75 42 26 43 80 44
REMARK SMILES IDX 74 45 76 46 27 47 79 48 73 49 72 50 28 52 60 53 40 54 59 55
REMARK SMILES IDX 41 56 44 57 58 58 77 59 42 60 43 61 57 63 78 64 45 65 29 66
REMARK SMILES IDX 30 67 38 68 31 69 32 70 36 71 39 72 33 73 34 74 37 75 35 76
REMARK SMILES IDX 61 77 62 78 70 79 63 80 64 81 68 82 71 83 65 84 66 85 69 86
REMARK SMILES IDX 67 87 46 88 47 89 55 90 48 91 49 92 53 93 56 94 50 95 51 96
REMARK SMILES IDX 54 97 52 98
REMARK H PARENT 87 19 76 51 44 62
REMARK Flexibility Score: inf
ROOT
ATOM      1  C   UNL     1       1.249   2.252   1.546  1.00  0.00     0.188 C 
ENDROOT
BRANCH   1   2
ATOM      2  C   UNL     1       0.367   2.217   2.810  1.00  0.00     0.188 C 
BRANCH   2   3
ATOM      3  O   UNL     1       0.957   2.445   4.078  1.00  0.00    -0.376 OA
BRANCH   3   4
ATOM      4  C   UNL     1       2.164   1.782   4.419  1.00  0.00     0.202 C 
BRANCH   4   5
ATOM      5  C   UNL     1       2.460   0.315   4.025  1.00  0.00     0.261 C 
BRANCH   5   6
ATOM      6  O   UNL     1       1.995  -0.155   2.744  1.00  0.00    -0.463 OA
BRANCH   6   7
ATOM      7  C   UNL     1       0.969  -1.047   2.754  1.00  0.00     0.313 C 
ATOM      8  O   UNL     1       0.447  -1.459   3.786  1.00  0.00    -0.252 OA
BRANCH   7   9
ATOM      9  C   UNL     1       0.485  -1.481   1.352  1.00  0.00     0.129 C 
ATOM     10  C   UNL     1       1.281  -1.018   0.123  1.00  0.00     0.025 C 
BRANCH   9  11
ATOM     11  C   UNL     1      -1.014  -1.232   1.220  1.00  0.00     0.002 A 
ATOM     12  C   UNL     1      -1.558   0.036   0.992  1.00  0.00     0.010 A 
ATOM     13  C   UNL     1      -1.915  -2.265   1.460  1.00  0.00     0.129 A 
ATOM     14  C   UNL     1      -2.934   0.275   1.113  1.00  0.00     0.026 A 
ATOM     15  C   UNL     1      -3.293  -2.038   1.522  1.00  0.00     0.065 A 
ATOM     16  F   UNL     1      -1.462  -3.513   1.645  1.00  0.00    -0.207 F 
ATOM     17  C   UNL     1      -3.834  -0.752   1.382  1.00  0.00     0.037 A 
BRANCH  17  18
ATOM     18  N   UNL     1      -5.198  -0.585   1.490  1.00  0.00    -0.382 N 
ATOM     19  H   UNL     1      -5.709  -1.416   1.619  1.00  0.00     0.160 HD
BRANCH  18  20
ATOM     20  C   UNL     1      -6.002   0.628   1.445  1.00  0.00     0.079 C 
ATOM     21  C   UNL     1      -5.727   1.609   2.577  1.00  0.00     0.025 C 
ATOM     22  C   UNL     1      -5.895   1.435   0.154  1.00  0.00     0.025 C 
ATOM     23  C   UNL     1      -6.343   2.906   2.071  1.00  0.00     0.002 C 
ATOM     24  C   UNL     1      -6.149   2.889   0.557  1.00  0.00     0.002 C 
ENDBRANCH  18  20
ENDBRANCH  17  18
ENDBRANCH   9  11
ENDBRANCH   7   9
ENDBRANCH   6   7
ENDBRANCH   5   6
ENDBRANCH   4   5
ENDBRANCH   3   4
ENDBRANCH   2   3
ENDBRANCH   1   2
BRANCH   1  25
ATOM     25  O   UNL     1       2.629   2.418   1.800  1.00  0.00    -0.377 OA
BRANCH  25  26
ATOM     26  C   UNL     1       3.116   3.748   1.744  1.00  0.00     0.188 C 
BRANCH  26  27
ATOM     27  C   UNL     1       2.201   4.882   2.247  1.00  0.00     0.188 C 
BRANCH  27  28
ATOM     28  O   UNL     1       0.898   4.876   1.672  1.00  0.00    -0.376 OA
BRANCH  28  29
ATOM     29  C   UNL     1       0.618   5.761   0.597  1.00  0.00     0.202 C 
BRANCH  29  30
ATOM     30  C   UNL     1       1.264   5.438  -0.760  1.00  0.00     0.261 C 
BRANCH  30  31
ATOM     31  O   UNL     1       2.698   5.371  -0.783  1.00  0.00    -0.460 OA
BRANCH  31  32
ATOM     32  C   UNL     1       3.387   6.465  -0.402  1.00  0.00     0.338 C 
ATOM     33  O   UNL     1       2.932   7.554  -0.095  1.00  0.00    -0.246 OA
BRANCH  32  34
ATOM     34  C   UNL     1       4.797   6.064  -0.212  1.00  0.00     0.060 A 
ATOM     35  C   UNL     1       5.383   6.234   1.050  1.00  0.00     0.016 A 
ATOM     36  C   UNL     1       5.527   5.500  -1.261  1.00  0.00     0.016 A 
ATOM     37  C   UNL     1       6.713   5.868   1.258  1.00  0.00     0.010 A 
ATOM     38  C   UNL     1       6.868   5.161  -1.059  1.00  0.00     0.010 A 
ATOM     39  C   UNL     1       7.475   5.377   0.191  1.00  0.00    -0.014 A 
BRANCH  39  40
ATOM     40  C   UNL     1       8.951   5.303   0.321  1.00  0.00     0.031 A 
ATOM     41  C   UNL     1       9.762   6.453  -0.210  1.00  0.00     0.074 A 
ATOM     42  C   UNL     1       9.558   4.262   0.914  1.00  0.00     0.049 A 
ATOM     43  N   UNL     1      11.060   6.605  -0.263  1.00  0.00    -0.248 NA
ATOM     44  C   UNL     1       9.001   7.588  -0.759  1.00  0.00     0.031 C 
ATOM     45  C   UNL     1       8.879   3.115   1.512  1.00  0.00     0.029 A 
ATOM     46  N   UNL     1      10.893   4.001   1.102  1.00  0.00    -0.354 N 
ATOM     47  C   UNL     1      11.269   7.842  -0.860  1.00  0.00     0.074 A 
ATOM     48  C   UNL     1       9.968   8.388  -1.178  1.00  0.00     0.031 C 
ATOM     49  C   UNL     1       9.805   2.265   1.993  1.00  0.00     0.029 A 
ATOM     50  C   UNL     1      11.138   2.791   1.702  1.00  0.00     0.049 A 
ATOM     51  H   UNL     1      11.607   4.623   0.832  1.00  0.00     0.167 HD
ATOM     52  C   UNL     1      12.441   8.470  -1.113  1.00  0.00     0.037 A 
ATOM     53  C   UNL     1      12.308   2.172   1.961  1.00  0.00     0.037 A 
ATOM     54  C   UNL     1      13.733   7.923  -0.795  1.00  0.00     0.049 A 
ATOM     55  C   UNL     1      13.602   2.856   1.589  1.00  0.00     0.074 A 
ATOM     56  C   UNL     1      14.981   8.487  -0.992  1.00  0.00     0.029 A 
ATOM     57  N   UNL     1      13.943   6.676  -0.224  1.00  0.00    -0.354 N 
ATOM     58  N   UNL     1      13.794   4.036   1.052  1.00  0.00    -0.248 NA
ATOM     59  C   UNL     1      14.844   2.118   1.865  1.00  0.00     0.031 C 
ATOM     60  C   UNL     1      15.947   7.555  -0.603  1.00  0.00     0.029 A 
ATOM     61  C   UNL     1      15.302   6.439  -0.094  1.00  0.00     0.049 A 
ATOM     62  H   UNL     1      13.232   6.052   0.048  1.00  0.00     0.167 HD
ATOM     63  C   UNL     1      15.172   4.197   0.959  1.00  0.00     0.074 A 
ATOM     64  C   UNL     1      15.768   2.998   1.508  1.00  0.00     0.031 C 
ATOM     65  C   UNL     1      15.880   5.244   0.467  1.00  0.00     0.037 A 
BRANCH  52  66
ATOM     66  C   UNL     1      12.381   9.803  -1.802  1.00  0.00     0.064 A 
ATOM     67  C   UNL     1      11.884  10.948  -1.163  1.00  0.00     0.173 A 
ATOM     68  C   UNL     1      12.857   9.940  -3.115  1.00  0.00     0.173 A 
ATOM     69  F   UNL     1      11.400  10.869   0.086  1.00  0.00    -0.203 F 
ATOM     70  C   UNL     1      11.840  12.174  -1.822  1.00  0.00     0.198 A 
ATOM     71  C   UNL     1      12.844  11.174  -3.759  1.00  0.00     0.198 A 
ATOM     72  F   UNL     1      13.344   8.877  -3.773  1.00  0.00    -0.203 F 
ATOM     73  F   UNL     1      11.311  13.244  -1.210  1.00  0.00    -0.200 F 
ATOM     74  C   UNL     1      12.328  12.288  -3.115  1.00  0.00     0.200 A 
ATOM     75  F   UNL     1      13.328  11.283  -5.003  1.00  0.00    -0.200 F 
ATOM     76  F   UNL     1      12.293  13.470  -3.745  1.00  0.00    -0.200 F 
ENDBRANCH  52  66
BRANCH  53  77
ATOM     77  C   UNL     1      12.320   0.824   2.591  1.00  0.00     0.064 A 
ATOM     78  C   UNL     1      12.852   0.628   3.873  1.00  0.00     0.173 A 
ATOM     79  C   UNL     1      11.835  -0.303   1.910  1.00  0.00     0.173 A 
ATOM     80  F   UNL     1      13.355   1.668   4.555  1.00  0.00    -0.203 F 
ATOM     81  C   UNL     1      12.922  -0.643   4.440  1.00  0.00     0.198 A 
ATOM     82  C   UNL     1      11.874  -1.569   2.491  1.00  0.00     0.198 A 
ATOM     83  F   UNL     1      11.321  -0.174   0.678  1.00  0.00    -0.203 F 
ATOM     84  F   UNL     1      13.489  -0.808   5.642  1.00  0.00    -0.200 F 
ATOM     85  C   UNL     1      12.427  -1.740   3.751  1.00  0.00     0.200 A 
ATOM     86  F   UNL     1      11.385  -2.624   1.825  1.00  0.00    -0.200 F 
ATOM     87  F   UNL     1      12.495  -2.963   4.295  1.00  0.00    -0.200 F 
ENDBRANCH  53  77
BRANCH  65  88
ATOM     88  C   UNL     1      17.380   5.168   0.545  1.00  0.00     0.064 A 
ATOM     89  C   UNL     1      18.121   4.279  -0.248  1.00  0.00     0.173 A 
ATOM     90  C   UNL     1      18.089   6.033   1.394  1.00  0.00     0.173 A 
ATOM     91  F   UNL     1      17.494   3.423  -1.069  1.00  0.00    -0.203 F 
ATOM     92  C   UNL     1      19.511   4.239  -0.172  1.00  0.00     0.198 A 
ATOM     93  C   UNL     1      19.480   6.016   1.441  1.00  0.00     0.198 A 
ATOM     94  F   UNL     1      17.431   6.911   2.167  1.00  0.00    -0.203 F 
ATOM     95  F   UNL     1      20.194   3.344  -0.899  1.00  0.00    -0.200 F 
ATOM     96  C   UNL     1      20.189   5.112   0.665  1.00  0.00     0.200 A 
ATOM     97  F   UNL     1      20.133   6.875   2.235  1.00  0.00    -0.200 F 
ATOM     98  F   UNL     1      21.527   5.079   0.730  1.00  0.00    -0.200 F 
ENDBRANCH  65  88
ENDBRANCH  39  40
ENDBRANCH  32  34
ENDBRANCH  31  32
ENDBRANCH  30  31
ENDBRANCH  29  30
ENDBRANCH  28  29
ENDBRANCH  27  28
ENDBRANCH  26  27
ENDBRANCH  25  26
ENDBRANCH   1  25
TORSDOF 23
