REMARK SMILES C/C(=N\NC(N)=S)c1nnn(-c2ccc(C(=O)OCCOCCOCCOCCOC(=O)c3ccc(-c4c5nc(c(-c6c(F)c(F)c(F)c(F)c6F)c6ccc([nH]6)c(-c6c(F)c(F)c(F)c(F)c6F)c6nc(c(-c7c(F)c(F)c(F)c(F)c7F)c7ccc4[nH]7)C=C6)C=C5)cc3)cc2)c1C
REMARK SMILES IDX 22 1 21 2 20 3 19 4 18 5 16 6 17 7 15 8 12 9 13 10 97 11
REMARK SMILES IDX 14 12 96 13 11 14 8 15 9 16 98 17 10 18 99 19 2 20 1 21 3 22
REMARK SMILES IDX 4 23 5 25 7 26 6 27 23 30 24 31 25 32 26 33 27 34 28 35
REMARK SMILES IDX 29 36 30 37 31 38 32 39 33 40 34 41 95 42 35 43 94 44 36 45
REMARK SMILES IDX 37 46 38 47 88 48 39 49 93 50 87 51 89 52 40 53 92 54 86 55
REMARK SMILES IDX 85 56 41 58 73 59 53 60 72 61 54 62 57 63 71 64 90 65 55 66
REMARK SMILES IDX 56 67 70 69 91 70 58 71 42 72 43 73 51 74 44 75 45 76 49 77
REMARK SMILES IDX 52 78 46 79 47 80 50 81 48 82 74 83 75 84 83 85 76 86 77 87
REMARK SMILES IDX 81 88 84 89 78 90 79 91 82 92 80 93 59 94 60 95 68 96 61 97
REMARK SMILES IDX 62 98 66 99 69 100 63 101 64 102 67 103 65 104
REMARK H PARENT 4 24 6 28 6 29 89 57 57 68
REMARK Flexibility Score: inf
ROOT
ATOM      1  C   UNL     1       7.475  -8.487  -2.014  1.00  0.00     0.188 C 
ENDROOT
BRANCH   1   2
ATOM      2  O   UNL     1       8.894  -8.514  -2.113  1.00  0.00    -0.376 OA
BRANCH   2   3
ATOM      3  C   UNL     1       9.507  -7.351  -2.645  1.00  0.00     0.202 C 
BRANCH   3   4
ATOM      4  C   UNL     1       9.584  -6.195  -1.643  1.00  0.00     0.261 C 
BRANCH   4   5
ATOM      5  O   UNL     1       8.312  -5.764  -1.142  1.00  0.00    -0.460 OA
BRANCH   5   6
ATOM      6  C   UNL     1       7.435  -5.269  -2.042  1.00  0.00     0.338 C 
ATOM      7  O   UNL     1       7.623  -5.084  -3.230  1.00  0.00    -0.246 OA
BRANCH   6   8
ATOM      8  C   UNL     1       6.122  -5.131  -1.375  1.00  0.00     0.060 A 
ATOM      9  C   UNL     1       3.655  -4.614  -0.249  1.00  0.00     0.067 A 
ATOM     10  C   UNL     1       3.706  -5.179  -1.527  1.00  0.00     0.029 A 
ATOM     11  C   UNL     1       4.811  -4.451   0.523  1.00  0.00     0.029 A 
ATOM     12  C   UNL     1       4.955  -5.411  -2.102  1.00  0.00     0.018 A 
ATOM     13  C   UNL     1       6.050  -4.719  -0.041  1.00  0.00     0.018 A 
BRANCH   9  14
ATOM     14  N   UNL     1       2.480  -3.942   0.141  1.00  0.00    -0.217 N 
ATOM     15  C   UNL     1       1.032  -2.350   0.455  1.00  0.00     0.132 A 
ATOM     16  N   UNL     1       0.356  -3.519   0.223  1.00  0.00    -0.128 NA
ATOM     17  C   UNL     1       2.390  -2.581   0.384  1.00  0.00     0.071 A 
ATOM     18  N   UNL     1       1.248  -4.467  -0.035  1.00  0.00    -0.061 NA
ATOM     19  C   UNL     1       3.534  -1.636   0.334  1.00  0.00     0.069 C 
BRANCH  15  20
ATOM     20  C   UNL     1       0.378  -1.061   0.521  1.00  0.00     0.087 C 
ATOM     21  C   UNL     1       0.162  -0.347  -0.791  1.00  0.00     0.071 C 
ATOM     22  N   UNL     1       0.059  -0.641   1.710  1.00  0.00    -0.176 NA
BRANCH  22  23
ATOM     23  N   UNL     1      -0.541   0.577   1.842  1.00  0.00    -0.254 N 
ATOM     24  H   UNL     1      -1.508   0.586   2.027  1.00  0.00     0.193 HD
BRANCH  23  25
ATOM     25  C   UNL     1       0.093   1.799   1.737  1.00  0.00     0.184 C 
ATOM     26  S   UNL     1       1.672   2.123   1.323  1.00  0.00    -0.040 S 
BRANCH  25  27
ATOM     27  N   UNL     1      -0.741   2.846   2.005  1.00  0.00    -0.375 N 
ATOM     28  H   UNL     1      -1.679   2.677   2.251  1.00  0.00     0.159 HD
ATOM     29  H   UNL     1      -0.405   3.770   1.951  1.00  0.00     0.159 HD
ENDBRANCH  25  27
ENDBRANCH  23  25
ENDBRANCH  22  23
ENDBRANCH  15  20
ENDBRANCH   9  14
ENDBRANCH   6   8
ENDBRANCH   5   6
ENDBRANCH   4   5
ENDBRANCH   3   4
ENDBRANCH   2   3
ENDBRANCH   1   2
BRANCH   1  30
ATOM     30  C   UNL     1       6.947  -8.590  -0.567  1.00  0.00     0.188 C 
BRANCH  30  31
ATOM     31  O   UNL     1       7.869  -8.685   0.508  1.00  0.00    -0.377 OA
BRANCH  31  32
ATOM     32  C   UNL     1       8.975  -9.575   0.418  1.00  0.00     0.188 C 
BRANCH  32  33
ATOM     33  C   UNL     1       8.965 -10.833  -0.488  1.00  0.00     0.188 C 
BRANCH  33  34
ATOM     34  O   UNL     1       7.760 -11.077  -1.203  1.00  0.00    -0.376 OA
BRANCH  34  35
ATOM     35  C   UNL     1       7.080 -12.298  -0.967  1.00  0.00     0.202 C 
BRANCH  35  36
ATOM     36  C   UNL     1       6.159 -12.214   0.246  1.00  0.00     0.261 C 
BRANCH  36  37
ATOM     37  O   UNL     1       6.838 -11.781   1.418  1.00  0.00    -0.460 OA
BRANCH  37  38
ATOM     38  C   UNL     1       7.828 -12.595   1.832  1.00  0.00     0.338 C 
ATOM     39  O   UNL     1       8.215 -13.620   1.300  1.00  0.00    -0.246 OA
BRANCH  38  40
ATOM     40  C   UNL     1       8.331 -12.115   3.121  1.00  0.00     0.060 A 
ATOM     41  C   UNL     1       9.364 -12.869   3.679  1.00  0.00     0.016 A 
ATOM     42  C   UNL     1       7.558 -11.218   3.873  1.00  0.00     0.016 A 
ATOM     43  C   UNL     1       9.412 -12.965   5.046  1.00  0.00     0.010 A 
ATOM     44  C   UNL     1       7.597 -11.327   5.240  1.00  0.00     0.010 A 
ATOM     45  C   UNL     1       8.439 -12.291   5.788  1.00  0.00    -0.014 A 
BRANCH  45  46
ATOM     46  C   UNL     1       8.228 -12.752   7.140  1.00  0.00     0.031 A 
ATOM     47  C   UNL     1       9.160 -12.222   8.146  1.00  0.00     0.074 A 
ATOM     48  C   UNL     1       7.210 -13.582   7.435  1.00  0.00     0.049 A 
ATOM     49  N   UNL     1       9.956 -12.881   8.920  1.00  0.00    -0.248 NA
ATOM     50  C   UNL     1       9.268 -10.762   8.249  1.00  0.00     0.031 C 
ATOM     51  C   UNL     1       6.064 -13.944   6.593  1.00  0.00     0.029 A 
ATOM     52  N   UNL     1       6.945 -14.204   8.614  1.00  0.00    -0.354 N 
ATOM     53  C   UNL     1      10.561 -11.926   9.725  1.00  0.00     0.074 A 
ATOM     54  C   UNL     1      10.195 -10.637   9.195  1.00  0.00     0.031 C 
ATOM     55  C   UNL     1       5.133 -14.553   7.359  1.00  0.00     0.029 A 
ATOM     56  C   UNL     1       5.667 -14.726   8.700  1.00  0.00     0.049 A 
ATOM     57  H   UNL     1       7.604 -14.277   9.342  1.00  0.00     0.167 HD
ATOM     58  C   UNL     1      11.151 -12.260  10.900  1.00  0.00     0.037 A 
ATOM     59  C   UNL     1       5.069 -15.183   9.824  1.00  0.00     0.037 A 
ATOM     60  C   UNL     1      11.526 -13.648  10.940  1.00  0.00     0.049 A 
ATOM     61  C   UNL     1       6.131 -15.475  10.819  1.00  0.00     0.074 A 
ATOM     62  C   UNL     1      12.378 -14.439  10.194  1.00  0.00     0.029 A 
ATOM     63  N   UNL     1      10.756 -14.519  11.668  1.00  0.00    -0.354 N 
ATOM     64  N   UNL     1       6.983 -16.458  10.726  1.00  0.00    -0.248 NA
ATOM     65  C   UNL     1       6.498 -14.424  11.758  1.00  0.00     0.031 C 
ATOM     66  C   UNL     1      11.779 -15.732  10.175  1.00  0.00     0.029 A 
ATOM     67  C   UNL     1      10.598 -15.653  10.912  1.00  0.00     0.049 A 
ATOM     68  H   UNL     1      10.386 -14.360  12.566  1.00  0.00     0.167 HD
ATOM     69  C   UNL     1       8.158 -15.965  11.274  1.00  0.00     0.074 A 
ATOM     70  C   UNL     1       7.766 -14.764  11.998  1.00  0.00     0.031 C 
ATOM     71  C   UNL     1       9.375 -16.421  10.857  1.00  0.00     0.037 A 
BRANCH  58  72
ATOM     72  C   UNL     1      11.100 -11.381  12.118  1.00  0.00     0.064 A 
ATOM     73  C   UNL     1      11.908 -11.683  13.228  1.00  0.00     0.173 A 
ATOM     74  C   UNL     1      10.093 -10.413  12.339  1.00  0.00     0.173 A 
ATOM     75  F   UNL     1      12.868 -12.616  13.139  1.00  0.00    -0.203 F 
ATOM     76  C   UNL     1      11.692 -11.095  14.476  1.00  0.00     0.198 A 
ATOM     77  C   UNL     1       9.920  -9.784  13.569  1.00  0.00     0.198 A 
ATOM     78  F   UNL     1       9.173 -10.119  11.411  1.00  0.00    -0.203 F 
ATOM     79  F   UNL     1      12.411 -11.498  15.533  1.00  0.00    -0.200 F 
ATOM     80  C   UNL     1      10.700 -10.146  14.645  1.00  0.00     0.200 A 
ATOM     81  F   UNL     1       8.939  -8.883  13.716  1.00  0.00    -0.200 F 
ATOM     82  F   UNL     1      10.461  -9.618  15.852  1.00  0.00    -0.200 F 
ENDBRANCH  58  72
BRANCH  59  83
ATOM     83  C   UNL     1       3.634 -15.112  10.174  1.00  0.00     0.064 A 
ATOM     84  C   UNL     1       3.093 -15.919  11.185  1.00  0.00     0.173 A 
ATOM     85  C   UNL     1       2.811 -14.075   9.690  1.00  0.00     0.173 A 
ATOM     86  F   UNL     1       3.830 -16.894  11.737  1.00  0.00    -0.203 F 
ATOM     87  C   UNL     1       1.807 -15.696  11.689  1.00  0.00     0.198 A 
ATOM     88  C   UNL     1       1.524 -13.863  10.182  1.00  0.00     0.198 A 
ATOM     89  F   UNL     1       3.271 -13.188   8.796  1.00  0.00    -0.203 F 
ATOM     90  F   UNL     1       1.345 -16.450  12.696  1.00  0.00    -0.200 F 
ATOM     91  C   UNL     1       1.026 -14.666  11.190  1.00  0.00     0.200 A 
ATOM     92  F   UNL     1       0.794 -12.841   9.713  1.00  0.00    -0.200 F 
ATOM     93  F   UNL     1      -0.186 -14.422  11.706  1.00  0.00    -0.200 F 
ENDBRANCH  59  83
BRANCH  71  94
ATOM     94  C   UNL     1       9.393 -17.671  10.025  1.00  0.00     0.064 A 
ATOM     95  C   UNL     1       8.831 -17.749   8.739  1.00  0.00     0.173 A 
ATOM     96  C   UNL     1      10.110 -18.782  10.486  1.00  0.00     0.173 A 
ATOM     97  F   UNL     1       8.225 -16.689   8.188  1.00  0.00    -0.203 F 
ATOM     98  C   UNL     1       8.935 -18.909   7.975  1.00  0.00     0.198 A 
ATOM     99  C   UNL     1      10.244 -19.927   9.706  1.00  0.00     0.198 A 
ATOM    100  F   UNL     1      10.723 -18.739  11.680  1.00  0.00    -0.203 F 
ATOM    101  F   UNL     1       8.376 -18.965   6.757  1.00  0.00    -0.200 F 
ATOM    102  C   UNL     1       9.646 -19.996   8.457  1.00  0.00     0.200 A 
ATOM    103  F   UNL     1      10.976 -20.958  10.154  1.00  0.00    -0.200 F 
ATOM    104  F   UNL     1       9.780 -21.099   7.707  1.00  0.00    -0.200 F 
ENDBRANCH  71  94
ENDBRANCH  45  46
ENDBRANCH  38  40
ENDBRANCH  37  38
ENDBRANCH  36  37
ENDBRANCH  35  36
ENDBRANCH  34  35
ENDBRANCH  33  34
ENDBRANCH  32  33
ENDBRANCH  31  32
ENDBRANCH  30  31
ENDBRANCH   1  30
TORSDOF 25
