REMARK SMILES CC(C)[C@H](C)CNC(=O)N[C@H]1C=C[C@@H](C(=O)OCCOCCOCCOCCOC(=O)c2ccc(-c3c4nc(c(-c5c(F)c(F)c(F)c(F)c5F)c5ccc([nH]5)c(-c5c(F)c(F)c(F)c(F)c5F)c5nc(c(-c6c(F)c(F)c(F)c(F)c6F)c6ccc3[nH]6)C=C5)C=C4)cc2)C1
REMARK SMILES IDX 22 1 21 2 20 3 19 4 18 5 17 6 15 7 16 8 14 9 11 10 12 11
REMARK SMILES IDX 95 12 13 13 10 14 7 15 8 16 9 18 6 20 4 21 5 22 2 23 1 24
REMARK SMILES IDX 3 25 23 26 24 27 25 28 26 29 27 30 28 31 29 32 30 33 31 34
REMARK SMILES IDX 32 35 33 36 94 37 34 38 93 39 35 40 36 41 37 42 87 43 38 44
REMARK SMILES IDX 92 45 86 46 88 47 39 48 91 49 85 50 84 51 40 53 72 54 52 55
REMARK SMILES IDX 71 56 53 57 56 58 70 59 89 60 54 61 55 62 69 64 90 65 57 66
REMARK SMILES IDX 41 67 42 68 50 69 43 70 44 71 48 72 51 73 45 74 46 75 49 76
REMARK SMILES IDX 47 77 73 78 74 79 82 80 75 81 76 82 80 83 83 84 77 85 78 86
REMARK SMILES IDX 81 87 79 88 58 89 59 90 67 91 60 92 61 93 65 94 68 95 62 96
REMARK SMILES IDX 63 97 66 98 64 99
REMARK H PARENT 7 17 10 19 88 52 56 63
REMARK Flexibility Score: inf
ROOT
ATOM      1  C   UNL     1      -0.031   4.341   3.251  1.00  0.00     0.188 C 
ENDROOT
BRANCH   1   2
ATOM      2  C   UNL     1       0.860   3.163   3.666  1.00  0.00     0.188 C 
BRANCH   2   3
ATOM      3  O   UNL     1       1.997   3.044   2.838  1.00  0.00    -0.376 OA
BRANCH   3   4
ATOM      4  C   UNL     1       2.064   1.945   1.952  1.00  0.00     0.202 C 
BRANCH   4   5
ATOM      5  C   UNL     1       0.974   1.624   0.894  1.00  0.00     0.261 C 
BRANCH   5   6
ATOM      6  O   UNL     1      -0.123   2.518   0.584  1.00  0.00    -0.463 OA
BRANCH   6   7
ATOM      7  C   UNL     1      -1.243   2.392   1.355  1.00  0.00     0.312 C 
ATOM      8  O   UNL     1      -1.245   1.662   2.345  1.00  0.00    -0.252 OA
BRANCH   7   9
ATOM      9  C   UNL     1      -2.519   3.247   0.948  1.00  0.00     0.124 C 
ATOM     10  C   UNL     1      -3.312   4.022  -1.274  1.00  0.00     0.107 C 
ATOM     11  C   UNL     1      -4.202   2.970  -0.746  1.00  0.00    -0.006 C 
ATOM     12  C   UNL     1      -2.328   4.321  -0.132  1.00  0.00     0.048 C 
ATOM     13  C   UNL     1      -3.806   2.574   0.472  1.00  0.00    -0.014 C 
BRANCH  10  14
ATOM     14  N   UNL     1      -2.720   3.729  -2.566  1.00  0.00    -0.332 N 
ATOM     15  N   UNL     1      -1.495   1.690  -2.544  1.00  0.00    -0.338 N 
ATOM     16  C   UNL     1      -1.795   2.896  -3.063  1.00  0.00     0.315 C 
ATOM     17  H   UNL     1      -0.708   1.248  -2.937  1.00  0.00     0.165 HD
ATOM     18  O   UNL     1      -1.200   3.261  -4.081  1.00  0.00    -0.249 OA
ATOM     19  H   UNL     1      -3.103   4.299  -3.272  1.00  0.00     0.165 HD
BRANCH  15  20
ATOM     20  C   UNL     1      -2.162   0.945  -1.491  1.00  0.00     0.121 C 
BRANCH  20  21
ATOM     21  C   UNL     1      -1.689  -0.459  -1.090  1.00  0.00     0.008 C 
ATOM     22  C   UNL     1      -0.170  -0.636  -1.296  1.00  0.00     0.010 C 
BRANCH  21  23
ATOM     23  C   UNL     1      -2.146  -1.079   0.324  1.00  0.00    -0.013 C 
ATOM     24  C   UNL     1      -2.984  -0.416   1.429  1.00  0.00     0.008 C 
ATOM     25  C   UNL     1      -2.966  -2.340   0.043  1.00  0.00     0.008 C 
ENDBRANCH  21  23
ENDBRANCH  20  21
ENDBRANCH  15  20
ENDBRANCH  10  14
ENDBRANCH   7   9
ENDBRANCH   6   7
ENDBRANCH   5   6
ENDBRANCH   4   5
ENDBRANCH   3   4
ENDBRANCH   2   3
ENDBRANCH   1   2
BRANCH   1  26
ATOM     26  O   UNL     1      -0.003   4.740   1.881  1.00  0.00    -0.377 OA
BRANCH  26  27
ATOM     27  C   UNL     1       1.245   5.146   1.311  1.00  0.00     0.188 C 
BRANCH  27  28
ATOM     28  C   UNL     1       2.195   5.912   2.237  1.00  0.00     0.188 C 
BRANCH  28  29
ATOM     29  O   UNL     1       1.660   7.003   2.980  1.00  0.00    -0.376 OA
BRANCH  29  30
ATOM     30  C   UNL     1       0.513   7.668   2.470  1.00  0.00     0.202 C 
BRANCH  30  31
ATOM     31  C   UNL     1       0.766   8.649   1.328  1.00  0.00     0.261 C 
BRANCH  31  32
ATOM     32  O   UNL     1       1.356   8.050   0.163  1.00  0.00    -0.460 OA
BRANCH  32  33
ATOM     33  C   UNL     1       2.696   8.153   0.073  1.00  0.00     0.338 C 
ATOM     34  O   UNL     1       3.462   8.702   0.869  1.00  0.00    -0.246 OA
BRANCH  33  35
ATOM     35  C   UNL     1       3.182   7.420  -1.103  1.00  0.00     0.060 A 
ATOM     36  C   UNL     1       4.205   6.472  -0.953  1.00  0.00     0.016 A 
ATOM     37  C   UNL     1       2.726   7.783  -2.372  1.00  0.00     0.016 A 
ATOM     38  C   UNL     1       4.831   5.940  -2.078  1.00  0.00     0.010 A 
ATOM     39  C   UNL     1       3.363   7.263  -3.496  1.00  0.00     0.010 A 
ATOM     40  C   UNL     1       4.454   6.387  -3.349  1.00  0.00    -0.014 A 
BRANCH  40  41
ATOM     41  C   UNL     1       5.336   6.142  -4.511  1.00  0.00     0.031 A 
ATOM     42  C   UNL     1       6.267   7.243  -4.937  1.00  0.00     0.074 A 
ATOM     43  C   UNL     1       5.295   4.979  -5.180  1.00  0.00     0.049 A 
ATOM     44  N   UNL     1       7.036   7.325  -5.992  1.00  0.00    -0.248 NA
ATOM     45  C   UNL     1       6.328   8.422  -4.056  1.00  0.00     0.031 C 
ATOM     46  C   UNL     1       4.461   3.833  -4.827  1.00  0.00     0.029 A 
ATOM     47  N   UNL     1       5.955   4.586  -6.315  1.00  0.00    -0.354 N 
ATOM     48  C   UNL     1       7.652   8.568  -5.912  1.00  0.00     0.074 A 
ATOM     49  C   UNL     1       7.150   9.218  -4.722  1.00  0.00     0.031 C 
ATOM     50  C   UNL     1       4.640   2.869  -5.747  1.00  0.00     0.029 A 
ATOM     51  C   UNL     1       5.566   3.352  -6.770  1.00  0.00     0.049 A 
ATOM     52  H   UNL     1       6.641   5.135  -6.759  1.00  0.00     0.167 HD
ATOM     53  C   UNL     1       8.558   9.114  -6.757  1.00  0.00     0.037 A 
ATOM     54  C   UNL     1       5.895   2.708  -7.907  1.00  0.00     0.037 A 
ATOM     55  C   UNL     1       9.047   8.454  -7.938  1.00  0.00     0.049 A 
ATOM     56  C   UNL     1       6.853   3.365  -8.868  1.00  0.00     0.074 A 
ATOM     57  C   UNL     1       9.984   8.900  -8.852  1.00  0.00     0.029 A 
ATOM     58  N   UNL     1       8.625   7.205  -8.374  1.00  0.00    -0.354 N 
ATOM     59  N   UNL     1       7.455   4.527  -8.779  1.00  0.00    -0.248 NA
ATOM     60  C   UNL     1       7.179   2.617 -10.090  1.00  0.00     0.031 C 
ATOM     61  C   UNL     1      10.082   7.951  -9.874  1.00  0.00     0.029 A 
ATOM     62  C   UNL     1       9.260   6.879  -9.561  1.00  0.00     0.049 A 
ATOM     63  H   UNL     1       7.971   6.636  -7.908  1.00  0.00     0.167 HD
ATOM     64  C   UNL     1       8.253   4.635  -9.910  1.00  0.00     0.074 A 
ATOM     65  C   UNL     1       8.069   3.413 -10.665  1.00  0.00     0.031 C 
ATOM     66  C   UNL     1       9.068   5.651 -10.291  1.00  0.00     0.037 A 
BRANCH  53  67
ATOM     67  C   UNL     1       9.046  10.502  -6.455  1.00  0.00     0.064 A 
ATOM     68  C   UNL     1       9.867  10.777  -5.350  1.00  0.00     0.173 A 
ATOM     69  C   UNL     1       8.709  11.570  -7.301  1.00  0.00     0.173 A 
ATOM     70  F   UNL     1      10.209   9.796  -4.501  1.00  0.00    -0.203 F 
ATOM     71  C   UNL     1      10.306  12.073  -5.088  1.00  0.00     0.198 A 
ATOM     72  C   UNL     1       9.178  12.858  -7.054  1.00  0.00     0.198 A 
ATOM     73  F   UNL     1       7.929  11.364  -8.373  1.00  0.00    -0.203 F 
ATOM     74  F   UNL     1      11.045  12.320  -3.997  1.00  0.00    -0.200 F 
ATOM     75  C   UNL     1       9.968  13.110  -5.944  1.00  0.00     0.200 A 
ATOM     76  F   UNL     1       8.862  13.855  -7.892  1.00  0.00    -0.200 F 
ATOM     77  F   UNL     1      10.399  14.354  -5.695  1.00  0.00    -0.200 F 
ENDBRANCH  53  67
BRANCH  54  78
ATOM     78  C   UNL     1       5.303   1.378  -8.204  1.00  0.00     0.064 A 
ATOM     79  C   UNL     1       6.098   0.224  -8.230  1.00  0.00     0.173 A 
ATOM     80  C   UNL     1       3.935   1.233  -8.480  1.00  0.00     0.173 A 
ATOM     81  F   UNL     1       7.415   0.313  -7.996  1.00  0.00    -0.203 F 
ATOM     82  C   UNL     1       5.551  -1.020  -8.539  1.00  0.00     0.198 A 
ATOM     83  C   UNL     1       3.384  -0.016  -8.757  1.00  0.00     0.198 A 
ATOM     84  F   UNL     1       3.130   2.306  -8.471  1.00  0.00    -0.203 F 
ATOM     85  F   UNL     1       6.344  -2.098  -8.606  1.00  0.00    -0.200 F 
ATOM     86  C   UNL     1       4.194  -1.140  -8.795  1.00  0.00     0.200 A 
ATOM     87  F   UNL     1       2.069  -0.130  -8.990  1.00  0.00    -0.200 F 
ATOM     88  F   UNL     1       3.669  -2.338  -9.088  1.00  0.00    -0.200 F 
ENDBRANCH  54  78
BRANCH  66  89
ATOM     89  C   UNL     1       9.859   5.466 -11.555  1.00  0.00     0.064 A 
ATOM     90  C   UNL     1       9.251   5.468 -12.819  1.00  0.00     0.173 A 
ATOM     91  C   UNL     1      11.256   5.329 -11.501  1.00  0.00     0.173 A 
ATOM     92  F   UNL     1       7.918   5.583 -12.927  1.00  0.00    -0.203 F 
ATOM     93  C   UNL     1      10.006   5.309 -13.978  1.00  0.00     0.198 A 
ATOM     94  C   UNL     1      12.011   5.208 -12.663  1.00  0.00     0.198 A 
ATOM     95  F   UNL     1      11.890   5.330 -10.318  1.00  0.00    -0.203 F 
ATOM     96  F   UNL     1       9.398   5.259 -15.171  1.00  0.00    -0.200 F 
ATOM     97  C   UNL     1      11.386   5.188 -13.899  1.00  0.00     0.200 A 
ATOM     98  F   UNL     1      13.346   5.111 -12.585  1.00  0.00    -0.200 F 
ATOM     99  F   UNL     1      12.112   5.046 -15.016  1.00  0.00    -0.200 F 
ENDBRANCH  66  89
ENDBRANCH  40  41
ENDBRANCH  33  35
ENDBRANCH  32  33
ENDBRANCH  31  32
ENDBRANCH  30  31
ENDBRANCH  29  30
ENDBRANCH  28  29
ENDBRANCH  27  28
ENDBRANCH  26  27
ENDBRANCH   1  26
TORSDOF 24
