REMARK SMILES O=C(OCCOCCOCCOCCOC(=O)c1cnc(Nc2ccccc2)nc1)c1ccc(-c2c3nc(c(-c4c(F)c(F)c(F)c(F)c4F)c4ccc([nH]4)c(-c4c(F)c(F)c(F)c(F)c4F)c4nc(c(-c5c(F)c(F)c(F)c(F)c5F)c5ccc2[nH]5)C=C4)C=C3)cc1
REMARK SMILES IDX 9 1 8 2 7 3 6 4 5 5 4 6 3 7 2 8 1 9 31 10 32 11 93 12 33 13
REMARK SMILES IDX 92 14 34 15 35 16 36 17 86 18 37 19 91 20 85 21 87 22 38 23
REMARK SMILES IDX 90 24 84 25 83 26 39 28 71 29 51 30 70 31 52 32 55 33 69 34
REMARK SMILES IDX 88 35 53 36 54 37 68 39 89 40 56 41 40 42 41 43 49 44 42 45
REMARK SMILES IDX 43 46 47 47 50 48 44 49 45 50 48 51 46 52 72 53 73 54 81 55
REMARK SMILES IDX 74 56 75 57 79 58 82 59 76 60 77 61 80 62 78 63 57 64 58 65
REMARK SMILES IDX 66 66 59 67 60 68 64 69 67 70 61 71 62 72 65 73 63 74 10 75
REMARK SMILES IDX 11 76 12 77 13 78 14 79 15 80 16 81 17 82 18 83 19 84 30 85
REMARK SMILES IDX 20 86 29 87 21 88 22 89 23 91 24 92 28 93 25 94 27 95 26 96
REMARK H PARENT 87 27 55 38 22 90
REMARK Flexibility Score: inf
ROOT
ATOM      1  O   UNL     1       2.567   3.559  -1.811  1.00  0.00    -0.377 OA
ENDROOT
BRANCH   1   2
ATOM      2  C   UNL     1       1.874   2.625  -0.983  1.00  0.00     0.188 C 
BRANCH   2   3
ATOM      3  C   UNL     1       2.283   1.163  -1.168  1.00  0.00     0.188 C 
BRANCH   3   4
ATOM      4  O   UNL     1       3.614   0.949  -0.684  1.00  0.00    -0.376 OA
BRANCH   4   5
ATOM      5  C   UNL     1       4.388   0.025  -1.450  1.00  0.00     0.202 C 
BRANCH   5   6
ATOM      6  C   UNL     1       4.233  -1.430  -1.004  1.00  0.00     0.261 C 
BRANCH   6   7
ATOM      7  O   UNL     1       2.879  -1.736  -0.642  1.00  0.00    -0.460 OA
BRANCH   7   8
ATOM      8  C   UNL     1       2.306  -1.662   0.585  1.00  0.00     0.338 C 
ATOM      9  O   UNL     1       1.123  -1.985   0.691  1.00  0.00    -0.246 OA
BRANCH   8  10
ATOM     10  C   UNL     1       3.024  -1.247   1.835  1.00  0.00     0.060 A 
ATOM     11  C   UNL     1       4.173  -0.456   1.899  1.00  0.00     0.016 A 
ATOM     12  C   UNL     1       2.451  -1.660   3.052  1.00  0.00     0.016 A 
ATOM     13  C   UNL     1       4.790  -0.160   3.109  1.00  0.00     0.010 A 
ATOM     14  C   UNL     1       3.045  -1.344   4.278  1.00  0.00     0.010 A 
ATOM     15  C   UNL     1       4.243  -0.625   4.301  1.00  0.00    -0.014 A 
BRANCH  15  16
ATOM     16  C   UNL     1       5.054  -0.506   5.525  1.00  0.00     0.031 A 
ATOM     17  C   UNL     1       5.816  -1.716   5.974  1.00  0.00     0.074 A 
ATOM     18  C   UNL     1       5.211   0.688   6.120  1.00  0.00     0.049 A 
ATOM     19  N   UNL     1       6.569  -1.883   7.026  1.00  0.00    -0.248 NA
ATOM     20  C   UNL     1       5.730  -2.900   5.100  1.00  0.00     0.031 C 
ATOM     21  C   UNL     1       4.615   1.943   5.662  1.00  0.00     0.029 A 
ATOM     22  N   UNL     1       5.944   1.045   7.221  1.00  0.00    -0.354 N 
ATOM     23  C   UNL     1       7.024  -3.193   6.954  1.00  0.00     0.074 A 
ATOM     24  C   UNL     1       6.464  -3.781   5.760  1.00  0.00     0.031 C 
ATOM     25  C   UNL     1       5.017   2.938   6.470  1.00  0.00     0.029 A 
ATOM     26  C   UNL     1       5.846   2.379   7.533  1.00  0.00     0.049 A 
ATOM     27  H   UNL     1       6.488   0.408   7.737  1.00  0.00     0.167 HD
ATOM     28  C   UNL     1       7.833  -3.843   7.821  1.00  0.00     0.037 A 
ATOM     29  C   UNL     1       6.347   3.051   8.587  1.00  0.00     0.037 A 
ATOM     30  C   UNL     1       8.370  -3.231   9.004  1.00  0.00     0.049 A 
ATOM     31  C   UNL     1       7.161   2.279   9.594  1.00  0.00     0.074 A 
ATOM     32  C   UNL     1       9.135  -3.796  10.006  1.00  0.00     0.029 A 
ATOM     33  N   UNL     1       8.189  -1.894   9.338  1.00  0.00    -0.354 N 
ATOM     34  N   UNL     1       7.526   1.018   9.570  1.00  0.00    -0.248 NA
ATOM     35  C   UNL     1       7.617   3.013  10.780  1.00  0.00     0.031 C 
ATOM     36  C   UNL     1       9.383  -2.809  10.967  1.00  0.00     0.029 A 
ATOM     37  C   UNL     1       8.814  -1.617  10.539  1.00  0.00     0.049 A 
ATOM     38  H   UNL     1       7.689  -1.240   8.798  1.00  0.00     0.167 HD
ATOM     39  C   UNL     1       8.264   0.809  10.726  1.00  0.00     0.074 A 
ATOM     40  C   UNL     1       8.313   2.083  11.418  1.00  0.00     0.031 C 
ATOM     41  C   UNL     1       8.843  -0.328  11.184  1.00  0.00     0.037 A 
BRANCH  28  42
ATOM     42  C   UNL     1       8.101  -5.292   7.545  1.00  0.00     0.064 A 
ATOM     43  C   UNL     1       8.924  -5.708   6.487  1.00  0.00     0.173 A 
ATOM     44  C   UNL     1       7.480  -6.282   8.321  1.00  0.00     0.173 A 
ATOM     45  F   UNL     1       9.514  -4.802   5.693  1.00  0.00    -0.203 F 
ATOM     46  C   UNL     1       9.087  -7.062   6.197  1.00  0.00     0.198 A 
ATOM     47  C   UNL     1       7.667  -7.634   8.045  1.00  0.00     0.198 A 
ATOM     48  F   UNL     1       6.676  -5.938   9.338  1.00  0.00    -0.203 F 
ATOM     49  F   UNL     1       9.824  -7.435   5.141  1.00  0.00    -0.200 F 
ATOM     50  C   UNL     1       8.461  -8.022   6.977  1.00  0.00     0.200 A 
ATOM     51  F   UNL     1       7.061  -8.560   8.800  1.00  0.00    -0.200 F 
ATOM     52  F   UNL     1       8.609  -9.323   6.688  1.00  0.00    -0.200 F 
ENDBRANCH  28  42
BRANCH  29  53
ATOM     53  C   UNL     1       6.054   4.498   8.766  1.00  0.00     0.064 A 
ATOM     54  C   UNL     1       7.072   5.461   8.725  1.00  0.00     0.173 A 
ATOM     55  C   UNL     1       4.745   4.951   8.997  1.00  0.00     0.173 A 
ATOM     56  F   UNL     1       8.344   5.082   8.531  1.00  0.00    -0.203 F 
ATOM     57  C   UNL     1       6.796   6.814   8.921  1.00  0.00     0.198 A 
ATOM     58  C   UNL     1       4.465   6.306   9.162  1.00  0.00     0.198 A 
ATOM     59  F   UNL     1       3.731   4.076   9.054  1.00  0.00    -0.203 F 
ATOM     60  F   UNL     1       7.795   7.707   8.922  1.00  0.00    -0.200 F 
ATOM     61  C   UNL     1       5.492   7.236   9.132  1.00  0.00     0.200 A 
ATOM     62  F   UNL     1       3.201   6.709   9.353  1.00  0.00    -0.200 F 
ATOM     63  F   UNL     1       5.226   8.537   9.317  1.00  0.00    -0.200 F 
ENDBRANCH  29  53
BRANCH  41  64
ATOM     64  C   UNL     1       9.599  -0.231  12.474  1.00  0.00     0.064 A 
ATOM     65  C   UNL     1       8.935  -0.125  13.704  1.00  0.00     0.173 A 
ATOM     66  C   UNL     1      10.999  -0.304  12.479  1.00  0.00     0.173 A 
ATOM     67  F   UNL     1       7.597  -0.037  13.745  1.00  0.00    -0.203 F 
ATOM     68  C   UNL     1       9.651  -0.075  14.896  1.00  0.00     0.198 A 
ATOM     69  C   UNL     1      11.709  -0.283  13.675  1.00  0.00     0.198 A 
ATOM     70  F   UNL     1      11.675  -0.415  11.326  1.00  0.00    -0.203 F 
ATOM     71  F   UNL     1       9.001   0.067  16.060  1.00  0.00    -0.200 F 
ATOM     72  C   UNL     1      11.036  -0.163  14.881  1.00  0.00     0.200 A 
ATOM     73  F   UNL     1      13.046  -0.383  13.660  1.00  0.00    -0.200 F 
ATOM     74  F   UNL     1      11.722  -0.127  16.031  1.00  0.00    -0.200 F 
ENDBRANCH  41  64
ENDBRANCH  15  16
ENDBRANCH   8  10
ENDBRANCH   7   8
ENDBRANCH   6   7
ENDBRANCH   5   6
ENDBRANCH   4   5
ENDBRANCH   3   4
ENDBRANCH   2   3
ENDBRANCH   1   2
BRANCH   1  75
ATOM     75  C   UNL     1       3.987   3.479  -1.817  1.00  0.00     0.188 C 
BRANCH  75  76
ATOM     76  C   UNL     1       4.740   3.699  -0.487  1.00  0.00     0.188 C 
BRANCH  76  77
ATOM     77  O   UNL     1       3.915   3.954   0.643  1.00  0.00    -0.376 OA
BRANCH  77  78
ATOM     78  C   UNL     1       3.902   5.301   1.109  1.00  0.00     0.202 C 
BRANCH  78  79
ATOM     79  C   UNL     1       3.061   6.257   0.256  1.00  0.00     0.261 C 
BRANCH  79  80
ATOM     80  O   UNL     1       3.544   6.456  -1.083  1.00  0.00    -0.460 OA
BRANCH  80  81
ATOM     81  C   UNL     1       4.787   6.953  -1.261  1.00  0.00     0.341 C 
ATOM     82  O   UNL     1       5.564   7.340  -0.408  1.00  0.00    -0.246 OA
BRANCH  81  83
ATOM     83  C   UNL     1       5.135   6.716  -2.661  1.00  0.00     0.096 A 
ATOM     84  C   UNL     1       4.244   6.919  -3.681  1.00  0.00     0.132 A 
ATOM     85  C   UNL     1       6.306   6.079  -3.008  1.00  0.00     0.132 A 
ATOM     86  N   UNL     1       4.500   6.553  -4.948  1.00  0.00    -0.220 NA
ATOM     87  N   UNL     1       6.571   5.630  -4.259  1.00  0.00    -0.220 NA
ATOM     88  C   UNL     1       5.655   5.909  -5.203  1.00  0.00     0.227 A 
BRANCH  88  89
ATOM     89  N   UNL     1       5.918   5.523  -6.512  1.00  0.00    -0.324 N 
ATOM     90  H   UNL     1       6.435   4.696  -6.645  1.00  0.00     0.170 HD
BRANCH  89  91
ATOM     91  C   UNL     1       5.508   6.216  -7.658  1.00  0.00     0.041 A 
ATOM     92  C   UNL     1       5.070   5.533  -8.794  1.00  0.00     0.026 A 
ATOM     93  C   UNL     1       5.486   7.620  -7.669  1.00  0.00     0.026 A 
ATOM     94  C   UNL     1       4.580   6.242  -9.897  1.00  0.00     0.002 A 
ATOM     95  C   UNL     1       5.017   8.329  -8.771  1.00  0.00     0.002 A 
ATOM     96  C   UNL     1       4.552   7.637  -9.883  1.00  0.00     0.000 A 
ENDBRANCH  89  91
ENDBRANCH  88  89
ENDBRANCH  81  83
ENDBRANCH  80  81
ENDBRANCH  79  80
ENDBRANCH  78  79
ENDBRANCH  77  78
ENDBRANCH  76  77
ENDBRANCH  75  76
ENDBRANCH   1  75
TORSDOF 22
