REMARK SMILES CC[C@@H]1CCCC[C@@]1(O)[C@H](F)C(=O)OCCOCCOCCOCCOC(=O)c1ccc(-c2c3nc(c(-c4c(F)c(F)c(F)c(F)c4F)c4ccc([nH]4)c(-c4c(F)c(F)c(F)c(F)c4F)c4nc(c(-c5c(F)c(F)c(F)c(F)c5F)c5ccc2[nH]5)C=C4)C=C3)cc1
REMARK SMILES IDX 20 1 19 2 18 3 17 4 16 5 15 6 14 7 12 8 13 9 10 10 11 11
REMARK SMILES IDX 8 12 3 13 4 14 5 15 7 16 6 17 2 18 1 19 9 20 21 22 22 23
REMARK SMILES IDX 23 24 24 25 25 26 26 27 27 28 28 29 29 30 30 31 91 32 31 33
REMARK SMILES IDX 90 34 32 35 33 36 34 37 84 38 35 39 89 40 83 41 85 42 36 43
REMARK SMILES IDX 88 44 82 45 81 46 37 48 69 49 49 50 68 51 50 52 53 53 67 54
REMARK SMILES IDX 86 55 51 56 52 57 66 59 87 60 54 61 38 62 39 63 47 64 40 65
REMARK SMILES IDX 41 66 45 67 48 68 42 69 43 70 46 71 44 72 70 73 71 74 79 75
REMARK SMILES IDX 72 76 73 77 77 78 80 79 74 80 75 81 78 82 76 83 55 84 56 85
REMARK SMILES IDX 64 86 57 87 58 88 62 89 65 90 59 91 60 92 63 93 61 94
REMARK H PARENT 9 21 85 47 53 58
REMARK Flexibility Score: inf
ROOT
ATOM      1  O   UNL     1      -0.219   2.055  -1.595  1.00  0.00    -0.377 OA
ENDROOT
BRANCH   1   2
ATOM      2  C   UNL     1      -0.608   2.076  -2.956  1.00  0.00     0.188 C 
BRANCH   2   3
ATOM      3  C   UNL     1      -2.105   2.381  -3.172  1.00  0.00     0.188 C 
BRANCH   3   4
ATOM      4  O   UNL     1      -2.882   3.062  -2.188  1.00  0.00    -0.376 OA
BRANCH   4   5
ATOM      5  C   UNL     1      -2.871   2.688  -0.818  1.00  0.00     0.202 C 
BRANCH   5   6
ATOM      6  C   UNL     1      -2.983   1.230  -0.375  1.00  0.00     0.261 C 
BRANCH   6   7
ATOM      7  O   UNL     1      -2.305   0.317  -1.227  1.00  0.00    -0.461 OA
BRANCH   7   8
ATOM      8  C   UNL     1      -3.073  -0.472  -2.021  1.00  0.00     0.343 C 
ATOM      9  O   UNL     1      -4.295  -0.443  -2.077  1.00  0.00    -0.249 OA
BRANCH   8  10
ATOM     10  C   UNL     1      -2.192  -1.402  -2.833  1.00  0.00     0.307 C 
ATOM     11  F   UNL     1      -1.053  -0.799  -3.268  1.00  0.00    -0.232 F 
BRANCH  10  12
ATOM     12  C   UNL     1      -1.832  -2.687  -2.052  1.00  0.00     0.110 C 
ATOM     13  C   UNL     1      -0.681  -3.460  -2.784  1.00  0.00     0.024 C 
ATOM     14  C   UNL     1       0.725  -2.868  -2.512  1.00  0.00     0.007 C 
ATOM     15  C   UNL     1       1.018  -2.594  -1.044  1.00  0.00     0.001 C 
ATOM     16  C   UNL     1      -1.446  -2.422  -0.576  1.00  0.00     0.039 C 
ATOM     17  C   UNL     1      -0.080  -1.763  -0.401  1.00  0.00     0.003 C 
BRANCH  13  18
ATOM     18  C   UNL     1      -0.690  -5.004  -2.620  1.00  0.00     0.003 C 
ATOM     19  C   UNL     1      -1.051  -5.592  -1.265  1.00  0.00     0.004 C 
ENDBRANCH  13  18
BRANCH  12  20
ATOM     20  O   UNL     1      -3.022  -3.495  -2.059  1.00  0.00    -0.386 OA
ATOM     21  H   UNL     1      -2.855  -4.321  -1.580  1.00  0.00     0.211 HD
ENDBRANCH  12  20
ENDBRANCH  10  12
ENDBRANCH   8  10
ENDBRANCH   7   8
ENDBRANCH   6   7
ENDBRANCH   5   6
ENDBRANCH   4   5
ENDBRANCH   3   4
ENDBRANCH   2   3
ENDBRANCH   1   2
BRANCH   1  22
ATOM     22  C   UNL     1       0.458   3.221  -1.136  1.00  0.00     0.188 C 
BRANCH  22  23
ATOM     23  C   UNL     1      -0.086   4.603  -1.576  1.00  0.00     0.188 C 
BRANCH  23  24
ATOM     24  O   UNL     1      -0.380   4.706  -2.961  1.00  0.00    -0.376 OA
BRANCH  24  25
ATOM     25  C   UNL     1       0.525   5.391  -3.811  1.00  0.00     0.202 C 
BRANCH  25  26
ATOM     26  C   UNL     1       1.923   4.781  -4.004  1.00  0.00     0.261 C 
BRANCH  26  27
ATOM     27  O   UNL     1       2.661   4.512  -2.804  1.00  0.00    -0.460 OA
BRANCH  27  28
ATOM     28  C   UNL     1       2.993   5.570  -2.038  1.00  0.00     0.338 C 
ATOM     29  O   UNL     1       2.772   6.749  -2.270  1.00  0.00    -0.246 OA
BRANCH  28  30
ATOM     30  C   UNL     1       3.504   5.057  -0.753  1.00  0.00     0.060 A 
ATOM     31  C   UNL     1       2.833   5.401   0.429  1.00  0.00     0.016 A 
ATOM     32  C   UNL     1       4.642   4.249  -0.713  1.00  0.00     0.016 A 
ATOM     33  C   UNL     1       3.324   4.973   1.660  1.00  0.00     0.010 A 
ATOM     34  C   UNL     1       5.150   3.844   0.523  1.00  0.00     0.010 A 
ATOM     35  C   UNL     1       4.515   4.238   1.715  1.00  0.00    -0.014 A 
BRANCH  35  36
ATOM     36  C   UNL     1       5.210   4.078   3.014  1.00  0.00     0.031 A 
ATOM     37  C   UNL     1       6.324   5.033   3.342  1.00  0.00     0.074 A 
ATOM     38  C   UNL     1       4.846   3.129   3.892  1.00  0.00     0.049 A 
ATOM     39  N   UNL     1       7.119   5.063   4.381  1.00  0.00    -0.248 NA
ATOM     40  C   UNL     1       6.580   6.099   2.358  1.00  0.00     0.031 C 
ATOM     41  C   UNL     1       3.752   2.180   3.707  1.00  0.00     0.029 A 
ATOM     42  N   UNL     1       5.374   2.804   5.117  1.00  0.00    -0.354 N 
ATOM     43  C   UNL     1       7.973   6.137   4.168  1.00  0.00     0.074 A 
ATOM     44  C   UNL     1       7.621   6.718   2.892  1.00  0.00     0.031 C 
ATOM     45  C   UNL     1       3.701   1.362   4.773  1.00  0.00     0.029 A 
ATOM     46  C   UNL     1       4.782   1.709   5.696  1.00  0.00     0.049 A 
ATOM     47  H   UNL     1       6.106   3.308   5.540  1.00  0.00     0.167 HD
ATOM     48  C   UNL     1       8.960   6.599   4.971  1.00  0.00     0.037 A 
ATOM     49  C   UNL     1       5.101   1.047   6.826  1.00  0.00     0.037 A 
ATOM     50  C   UNL     1       9.303   6.018   6.242  1.00  0.00     0.049 A 
ATOM     51  C   UNL     1       6.253   1.539   7.668  1.00  0.00     0.074 A 
ATOM     52  C   UNL     1      10.268   6.428   7.144  1.00  0.00     0.029 A 
ATOM     53  N   UNL     1       8.699   4.893   6.784  1.00  0.00    -0.354 N 
ATOM     54  N   UNL     1       7.039   2.572   7.479  1.00  0.00    -0.248 NA
ATOM     55  C   UNL     1       6.560   0.773   8.884  1.00  0.00     0.031 C 
ATOM     56  C   UNL     1      10.295   5.511   8.199  1.00  0.00     0.029 A 
ATOM     57  C   UNL     1       9.296   4.573   7.992  1.00  0.00     0.049 A 
ATOM     58  H   UNL     1       7.956   4.396   6.371  1.00  0.00     0.167 HD
ATOM     59  C   UNL     1       7.907   2.599   8.564  1.00  0.00     0.074 A 
ATOM     60  C   UNL     1       7.541   1.487   9.416  1.00  0.00     0.031 C 
ATOM     61  C   UNL     1       8.914   3.467   8.834  1.00  0.00     0.037 A 
BRANCH  48  62
ATOM     62  C   UNL     1       9.768   7.766   4.481  1.00  0.00     0.064 A 
ATOM     63  C   UNL     1       9.227   9.056   4.381  1.00  0.00     0.173 A 
ATOM     64  C   UNL     1      11.119   7.594   4.142  1.00  0.00     0.173 A 
ATOM     65  F   UNL     1       7.937   9.273   4.677  1.00  0.00    -0.203 F 
ATOM     66  C   UNL     1      10.002  10.125   3.936  1.00  0.00     0.198 A 
ATOM     67  C   UNL     1      11.899   8.670   3.730  1.00  0.00     0.198 A 
ATOM     68  F   UNL     1      11.687   6.381   4.220  1.00  0.00    -0.203 F 
ATOM     69  F   UNL     1       9.451  11.339   3.801  1.00  0.00    -0.200 F 
ATOM     70  C   UNL     1      11.339   9.933   3.620  1.00  0.00     0.200 A 
ATOM     71  F   UNL     1      13.194   8.485   3.440  1.00  0.00    -0.200 F 
ATOM     72  F   UNL     1      12.085  10.965   3.204  1.00  0.00    -0.200 F 
ENDBRANCH  48  62
BRANCH  49  73
ATOM     73  C   UNL     1       4.340  -0.169   7.218  1.00  0.00     0.064 A 
ATOM     74  C   UNL     1       3.555  -0.194   8.380  1.00  0.00     0.173 A 
ATOM     75  C   UNL     1       4.410  -1.346   6.457  1.00  0.00     0.173 A 
ATOM     76  F   UNL     1       3.476   0.896   9.158  1.00  0.00    -0.203 F 
ATOM     77  C   UNL     1       2.892  -1.354   8.777  1.00  0.00     0.198 A 
ATOM     78  C   UNL     1       3.719  -2.494   6.836  1.00  0.00     0.198 A 
ATOM     79  F   UNL     1       5.149  -1.379   5.338  1.00  0.00    -0.203 F 
ATOM     80  F   UNL     1       2.198  -1.366   9.924  1.00  0.00    -0.200 F 
ATOM     81  C   UNL     1       2.969  -2.501   8.002  1.00  0.00     0.200 A 
ATOM     82  F   UNL     1       3.786  -3.596   6.077  1.00  0.00    -0.200 F 
ATOM     83  F   UNL     1       2.332  -3.615   8.385  1.00  0.00    -0.200 F 
ENDBRANCH  49  73
BRANCH  61  84
ATOM     84  C   UNL     1       9.664   3.282  10.124  1.00  0.00     0.064 A 
ATOM     85  C   UNL     1      10.524   2.194  10.333  1.00  0.00     0.173 A 
ATOM     86  C   UNL     1       9.554   4.236  11.149  1.00  0.00     0.173 A 
ATOM     87  F   UNL     1      10.659   1.248   9.392  1.00  0.00    -0.203 F 
ATOM     88  C   UNL     1      11.220   2.051  11.532  1.00  0.00     0.198 A 
ATOM     89  C   UNL     1      10.280   4.109  12.330  1.00  0.00     0.198 A 
ATOM     90  F   UNL     1       8.754   5.303  10.998  1.00  0.00    -0.203 F 
ATOM     91  F   UNL     1      11.993   0.974  11.731  1.00  0.00    -0.200 F 
ATOM     92  C   UNL     1      11.104   3.012  12.524  1.00  0.00     0.200 A 
ATOM     93  F   UNL     1      10.181   5.050  13.279  1.00  0.00    -0.200 F 
ATOM     94  F   UNL     1      11.782   2.878  13.672  1.00  0.00    -0.200 F 
ENDBRANCH  61  84
ENDBRANCH  35  36
ENDBRANCH  28  30
ENDBRANCH  27  28
ENDBRANCH  26  27
ENDBRANCH  25  26
ENDBRANCH  24  25
ENDBRANCH  23  24
ENDBRANCH  22  23
ENDBRANCH   1  22
TORSDOF 23
