REMARK SMILES CC[C@@H](C)[C@H](NC(=O)Cn1ccc(C(F)(F)F)n1)C(=O)OCCOCCOCCOCCOC(=O)c1ccc(-c2c3nc(c(-c4c(F)c(F)c(F)c(F)c4F)c4ccc([nH]4)c(-c4c(F)c(F)c(F)c(F)c4F)c4nc(c(-c5c(F)c(F)c(F)c(F)c5F)c5ccc2[nH]5)C=C4)C=C3)cc1
REMARK SMILES IDX 26 1 25 2 24 3 23 4 22 5 21 6 19 7 20 8 5 9 3 10 4 11 2 12
REMARK SMILES IDX 1 13 6 14 7 15 8 17 9 18 10 19 11 20 18 21 12 22 13 23 14 24
REMARK SMILES IDX 15 25 16 26 17 27 27 28 28 29 29 30 30 31 31 32 32 33 33 34
REMARK SMILES IDX 34 35 35 36 36 37 37 38 98 39 38 40 97 41 39 42 40 43 41 44
REMARK SMILES IDX 91 45 42 46 96 47 90 48 92 49 43 50 95 51 89 52 88 53 44 55
REMARK SMILES IDX 76 56 56 57 75 58 57 59 60 60 74 61 93 62 58 63 59 64 73 66
REMARK SMILES IDX 94 67 61 68 45 69 46 70 54 71 47 72 48 73 52 74 55 75 49 76
REMARK SMILES IDX 50 77 53 78 51 79 77 80 78 81 86 82 79 83 80 84 84 85 87 86
REMARK SMILES IDX 81 87 82 88 85 89 83 90 62 91 63 92 71 93 64 94 65 95 69 96
REMARK SMILES IDX 72 97 66 98 67 99 70 100 68 101
REMARK H PARENT 6 16 92 54 60 65
REMARK Flexibility Score: inf
ROOT
ATOM      1  C   UNL     1       1.250  -4.844   1.584  1.00  0.00     0.188 C 
ENDROOT
BRANCH   1   2
ATOM      2  C   UNL     1       0.217  -5.923   1.177  1.00  0.00     0.188 C 
BRANCH   2   3
ATOM      3  O   UNL     1       0.623  -7.243   0.835  1.00  0.00    -0.376 OA
BRANCH   3   4
ATOM      4  C   UNL     1       1.926  -7.475   0.331  1.00  0.00     0.202 C 
BRANCH   4   5
ATOM      5  C   UNL     1       2.341  -6.757  -0.963  1.00  0.00     0.261 C 
BRANCH   5   6
ATOM      6  O   UNL     1       1.985  -5.362  -1.052  1.00  0.00    -0.462 OA
BRANCH   6   7
ATOM      7  C   UNL     1       0.867  -5.082  -1.768  1.00  0.00     0.328 C 
ATOM      8  O   UNL     1       0.209  -5.919  -2.378  1.00  0.00    -0.250 OA
BRANCH   7   9
ATOM      9  C   UNL     1       0.561  -3.564  -1.885  1.00  0.00     0.195 C 
BRANCH   9  10
ATOM     10  C   UNL     1       1.118  -3.164  -3.281  1.00  0.00     0.019 C 
ATOM     11  C   UNL     1       2.643  -2.950  -3.261  1.00  0.00     0.010 C 
BRANCH  10  12
ATOM     12  C   UNL     1       0.377  -1.938  -3.829  1.00  0.00     0.002 C 
ATOM     13  C   UNL     1       0.697  -1.668  -5.288  1.00  0.00     0.004 C 
ENDBRANCH  10  12
ENDBRANCH   9  10
BRANCH   9  14
ATOM     14  N   UNL     1       1.016  -2.580  -0.876  1.00  0.00    -0.341 N 
ATOM     15  C   UNL     1       0.346  -1.889   0.095  1.00  0.00     0.242 C 
ATOM     16  H   UNL     1       1.981  -2.388  -0.911  1.00  0.00     0.164 HD
ATOM     17  O   UNL     1       0.968  -1.001   0.687  1.00  0.00    -0.273 OA
BRANCH  15  18
ATOM     18  C   UNL     1      -1.051  -2.257   0.532  1.00  0.00     0.243 C 
BRANCH  18  19
ATOM     19  N   UNL     1      -2.130  -1.859  -0.350  1.00  0.00    -0.263 N 
ATOM     20  C   UNL     1      -2.093  -1.053  -1.444  1.00  0.00     0.110 A 
ATOM     21  N   UNL     1      -3.359  -2.360  -0.105  1.00  0.00    -0.168 NA
ATOM     22  C   UNL     1      -3.344  -1.115  -2.007  1.00  0.00     0.055 A 
ATOM     23  C   UNL     1      -4.123  -1.901  -1.117  1.00  0.00     0.166 A 
BRANCH  23  24
ATOM     24  C   UNL     1      -5.593  -2.205  -1.254  1.00  0.00     0.435 C 
ATOM     25  F   UNL     1      -6.288  -1.108  -1.666  1.00  0.00    -0.164 F 
ATOM     26  F   UNL     1      -5.823  -3.172  -2.182  1.00  0.00    -0.164 F 
ATOM     27  F   UNL     1      -6.176  -2.617  -0.098  1.00  0.00    -0.164 F 
ENDBRANCH  23  24
ENDBRANCH  18  19
ENDBRANCH  15  18
ENDBRANCH   9  14
ENDBRANCH   7   9
ENDBRANCH   6   7
ENDBRANCH   5   6
ENDBRANCH   4   5
ENDBRANCH   3   4
ENDBRANCH   2   3
ENDBRANCH   1   2
BRANCH   1  28
ATOM     28  O   UNL     1       2.590  -5.268   1.735  1.00  0.00    -0.377 OA
BRANCH  28  29
ATOM     29  C   UNL     1       3.021  -5.480   3.069  1.00  0.00     0.188 C 
BRANCH  29  30
ATOM     30  C   UNL     1       2.083  -6.314   3.967  1.00  0.00     0.188 C 
BRANCH  30  31
ATOM     31  O   UNL     1       0.705  -5.970   3.865  1.00  0.00    -0.376 OA
BRANCH  31  32
ATOM     32  C   UNL     1       0.034  -5.209   4.856  1.00  0.00     0.202 C 
BRANCH  32  33
ATOM     33  C   UNL     1       0.350  -3.716   4.934  1.00  0.00     0.261 C 
BRANCH  33  34
ATOM     34  O   UNL     1       1.729  -3.418   4.848  1.00  0.00    -0.460 OA
BRANCH  34  35
ATOM     35  C   UNL     1       2.470  -3.896   5.852  1.00  0.00     0.338 C 
ATOM     36  O   UNL     1       2.117  -4.675   6.743  1.00  0.00    -0.246 OA
BRANCH  35  37
ATOM     37  C   UNL     1       3.773  -3.252   5.819  1.00  0.00     0.060 A 
ATOM     38  C   UNL     1       4.716  -3.745   6.718  1.00  0.00     0.016 A 
ATOM     39  C   UNL     1       3.850  -1.971   5.250  1.00  0.00     0.016 A 
ATOM     40  C   UNL     1       5.553  -2.836   7.303  1.00  0.00     0.010 A 
ATOM     41  C   UNL     1       4.670  -1.060   5.853  1.00  0.00     0.010 A 
ATOM     42  C   UNL     1       5.420  -1.490   6.942  1.00  0.00    -0.014 A 
BRANCH  42  43
ATOM     43  C   UNL     1       6.164  -0.525   7.706  1.00  0.00     0.031 A 
ATOM     44  C   UNL     1       7.597  -0.547   7.360  1.00  0.00     0.074 A 
ATOM     45  C   UNL     1       5.555   0.324   8.552  1.00  0.00     0.049 A 
ATOM     46  N   UNL     1       8.583  -0.892   8.116  1.00  0.00    -0.248 NA
ATOM     47  C   UNL     1       7.953  -0.360   5.942  1.00  0.00     0.031 C 
ATOM     48  C   UNL     1       4.120   0.569   8.722  1.00  0.00     0.029 A 
ATOM     49  N   UNL     1       6.118   1.243   9.376  1.00  0.00    -0.354 N 
ATOM     50  C   UNL     1       9.712  -0.754   7.319  1.00  0.00     0.074 A 
ATOM     51  C   UNL     1       9.254  -0.642   5.962  1.00  0.00     0.031 C 
ATOM     52  C   UNL     1       3.946   1.725   9.405  1.00  0.00     0.029 A 
ATOM     53  C   UNL     1       5.245   2.227   9.818  1.00  0.00     0.049 A 
ATOM     54  H   UNL     1       7.066   1.213   9.639  1.00  0.00     0.167 HD
ATOM     55  C   UNL     1      10.904  -0.423   7.879  1.00  0.00     0.037 A 
ATOM     56  C   UNL     1       5.621   3.409  10.370  1.00  0.00     0.037 A 
ATOM     57  C   UNL     1      10.935  -0.774   9.278  1.00  0.00     0.049 A 
ATOM     58  C   UNL     1       7.038   3.261  10.807  1.00  0.00     0.074 A 
ATOM     59  C   UNL     1      10.762  -1.955   9.976  1.00  0.00     0.029 A 
ATOM     60  N   UNL     1      10.782   0.228  10.205  1.00  0.00    -0.354 N 
ATOM     61  N   UNL     1       7.416   2.507  11.802  1.00  0.00    -0.248 NA
ATOM     62  C   UNL     1       8.075   3.574   9.832  1.00  0.00     0.031 C 
ATOM     63  C   UNL     1      10.038  -1.591  11.150  1.00  0.00     0.029 A 
ATOM     64  C   UNL     1       9.872  -0.207  11.135  1.00  0.00     0.049 A 
ATOM     65  H   UNL     1      11.242   1.099  10.203  1.00  0.00     0.167 HD
ATOM     66  C   UNL     1       8.585   1.903  11.361  1.00  0.00     0.074 A 
ATOM     67  C   UNL     1       8.978   2.650  10.169  1.00  0.00     0.031 C 
ATOM     68  C   UNL     1       8.963   0.676  11.825  1.00  0.00     0.037 A 
BRANCH  55  69
ATOM     69  C   UNL     1      11.833   0.593   7.261  1.00  0.00     0.064 A 
ATOM     70  C   UNL     1      13.088   0.807   7.857  1.00  0.00     0.173 A 
ATOM     71  C   UNL     1      11.436   1.566   6.313  1.00  0.00     0.173 A 
ATOM     72  F   UNL     1      13.556  -0.043   8.784  1.00  0.00    -0.203 F 
ATOM     73  C   UNL     1      13.843   1.951   7.591  1.00  0.00     0.198 A 
ATOM     74  C   UNL     1      12.218   2.675   6.008  1.00  0.00     0.198 A 
ATOM     75  F   UNL     1      10.235   1.559   5.726  1.00  0.00    -0.203 F 
ATOM     76  F   UNL     1      14.965   2.179   8.285  1.00  0.00    -0.200 F 
ATOM     77  C   UNL     1      13.405   2.887   6.672  1.00  0.00     0.200 A 
ATOM     78  F   UNL     1      11.763   3.578   5.127  1.00  0.00    -0.200 F 
ATOM     79  F   UNL     1      14.094   4.016   6.465  1.00  0.00    -0.200 F 
ENDBRANCH  55  69
BRANCH  56  80
ATOM     80  C   UNL     1       4.992   4.743  10.205  1.00  0.00     0.064 A 
ATOM     81  C   UNL     1       5.370   5.817  11.029  1.00  0.00     0.173 A 
ATOM     82  C   UNL     1       4.234   5.071   9.063  1.00  0.00     0.173 A 
ATOM     83  F   UNL     1       6.128   5.598  12.114  1.00  0.00    -0.203 F 
ATOM     84  C   UNL     1       5.044   7.139  10.711  1.00  0.00     0.198 A 
ATOM     85  C   UNL     1       3.901   6.390   8.752  1.00  0.00     0.198 A 
ATOM     86  F   UNL     1       3.887   4.134   8.171  1.00  0.00    -0.203 F 
ATOM     87  F   UNL     1       5.486   8.141  11.484  1.00  0.00    -0.200 F 
ATOM     88  C   UNL     1       4.320   7.426   9.566  1.00  0.00     0.200 A 
ATOM     89  F   UNL     1       3.230   6.656   7.622  1.00  0.00    -0.200 F 
ATOM     90  F   UNL     1       4.064   8.696   9.224  1.00  0.00    -0.200 F 
ENDBRANCH  56  80
BRANCH  68  91
ATOM     91  C   UNL     1       8.225   0.116  13.009  1.00  0.00     0.064 A 
ATOM     92  C   UNL     1       6.843  -0.147  13.030  1.00  0.00     0.173 A 
ATOM     93  C   UNL     1       8.971  -0.278  14.128  1.00  0.00     0.173 A 
ATOM     94  F   UNL     1       6.078   0.096  11.958  1.00  0.00    -0.203 F 
ATOM     95  C   UNL     1       6.234  -0.719  14.146  1.00  0.00     0.198 A 
ATOM     96  C   UNL     1       8.367  -0.888  15.223  1.00  0.00     0.198 A 
ATOM     97  F   UNL     1      10.303  -0.107  14.142  1.00  0.00    -0.203 F 
ATOM     98  F   UNL     1       4.910  -0.936  14.153  1.00  0.00    -0.200 F 
ATOM     99  C   UNL     1       6.997  -1.094  15.239  1.00  0.00     0.200 A 
ATOM    100  F   UNL     1       9.118  -1.296  16.255  1.00  0.00    -0.200 F 
ATOM    101  F   UNL     1       6.418  -1.676  16.299  1.00  0.00    -0.200 F 
ENDBRANCH  68  91
ENDBRANCH  42  43
ENDBRANCH  35  37
ENDBRANCH  34  35
ENDBRANCH  33  34
ENDBRANCH  32  33
ENDBRANCH  31  32
ENDBRANCH  30  31
ENDBRANCH  29  30
ENDBRANCH  28  29
ENDBRANCH   1  28
TORSDOF 26
