REMARK SMILES C[NH+]1CCC2(CC1)OC[C@H](C(=O)OCCOCCOCCOCCOC(=O)c1ccc(-c3c4nc(c(-c5c(F)c(F)c(F)c(F)c5F)c5ccc([nH]5)c(-c5c(F)c(F)c(F)c(F)c5F)c5nc(c(-c6c(F)c(F)c(F)c(F)c6F)c6ccc3[nH]6)C=C5)C=C4)cc1)N2C(=O)c1cc(C(F)(F)F)cc(C(F)(F)F)c1
REMARK SMILES IDX 18 1 17 2 16 3 15 4 14 5 13 6 11 7 12 8 10 9 1 10 2 11 3 12
REMARK SMILES IDX 7 13 4 15 6 16 5 17 8 18 91 19 9 20 92 21 93 22 94 23 95 24
REMARK SMILES IDX 107 25 96 26 102 27 101 28 97 29 98 30 99 31 100 32 103 33
REMARK SMILES IDX 104 34 105 35 106 36 19 37 20 38 21 39 22 40 23 41 24 42
REMARK SMILES IDX 25 43 26 44 27 45 28 46 29 47 90 48 30 49 89 50 31 51 32 52
REMARK SMILES IDX 33 53 83 54 34 55 88 56 82 57 84 58 35 59 87 60 81 61 80 62
REMARK SMILES IDX 36 64 68 65 48 66 67 67 49 68 52 69 66 70 85 71 50 72 51 73
REMARK SMILES IDX 65 75 86 76 53 77 37 78 38 79 46 80 39 81 40 82 44 83 47 84
REMARK SMILES IDX 41 85 42 86 45 87 43 88 69 89 70 90 78 91 71 92 72 93 76 94
REMARK SMILES IDX 79 95 73 96 74 97 77 98 75 99 54 100 55 101 63 102 56 103
REMARK SMILES IDX 57 104 61 105 64 106 58 107 59 108 62 109 60 110
REMARK H PARENT 2 14 84 63 52 74
REMARK Flexibility Score: inf
ROOT
ATOM      1  C   UNL     1      -7.067  -0.343  -1.600  1.00  0.00     0.188 C 
ENDROOT
BRANCH   1   2
ATOM      2  C   UNL     1      -7.085  -1.619  -2.456  1.00  0.00     0.188 C 
BRANCH   2   3
ATOM      3  O   UNL     1      -7.310  -2.887  -1.857  1.00  0.00    -0.376 OA
BRANCH   3   4
ATOM      4  C   UNL     1      -6.518  -3.349  -0.768  1.00  0.00     0.202 C 
BRANCH   4   5
ATOM      5  C   UNL     1      -5.007  -3.094  -0.701  1.00  0.00     0.261 C 
BRANCH   5   6
ATOM      6  O   UNL     1      -4.656  -1.720  -0.899  1.00  0.00    -0.462 OA
BRANCH   6   7
ATOM      7  C   UNL     1      -3.816  -1.456  -1.922  1.00  0.00     0.331 C 
ATOM      8  O   UNL     1      -3.219  -2.329  -2.545  1.00  0.00    -0.250 OA
BRANCH   7   9
ATOM      9  C   UNL     1      -3.705   0.050  -2.245  1.00  0.00     0.224 C 
ATOM     10  C   UNL     1       1.530   0.230   0.923  1.00  0.00     0.332 C 
ATOM     11  N   UNL     1       0.976  -0.094  -0.386  1.00  0.00    -0.337 N 
ATOM     12  C   UNL     1      -0.176  -0.985  -0.271  1.00  0.00     0.267 C 
ATOM     13  C   UNL     1       0.789   1.111  -1.203  1.00  0.00     0.267 C 
ATOM     14  H   UNL     1       1.654  -0.641  -0.917  1.00  0.00     0.347 HD
ATOM     15  C   UNL     1      -1.484  -0.270  -0.078  1.00  0.00     0.120 C 
ATOM     16  C   UNL     1      -0.583   1.767  -1.200  1.00  0.00     0.120 C 
ATOM     17  C   UNL     1      -1.736   0.777  -1.173  1.00  0.00     0.155 C 
ATOM     18  O   UNL     1      -2.840   1.550  -0.621  1.00  0.00    -0.352 OA
ATOM     19  N   UNL     1      -2.298   0.291  -2.452  1.00  0.00    -0.293 N 
ATOM     20  C   UNL     1      -4.061   1.083  -1.201  1.00  0.00     0.200 C 
BRANCH  19  21
ATOM     21  C   UNL     1      -1.854  -0.008  -3.733  1.00  0.00     0.256 C 
ATOM     22  O   UNL     1      -2.623  -0.161  -4.684  1.00  0.00    -0.269 OA
BRANCH  21  23
ATOM     23  C   UNL     1      -0.442  -0.172  -4.048  1.00  0.00     0.041 A 
ATOM     24  C   UNL     1       0.174   0.748  -4.893  1.00  0.00     0.027 A 
ATOM     25  C   UNL     1       0.257  -1.276  -3.568  1.00  0.00     0.027 A 
ATOM     26  C   UNL     1       1.549   0.652  -5.137  1.00  0.00     0.057 A 
ATOM     27  C   UNL     1       1.651  -1.313  -3.674  1.00  0.00     0.057 A 
ATOM     28  C   UNL     1       2.288  -0.352  -4.481  1.00  0.00     0.026 A 
BRANCH  26  29
ATOM     29  C   UNL     1       2.205   1.639  -6.069  1.00  0.00     0.416 C 
ATOM     30  F   UNL     1       1.825   1.459  -7.362  1.00  0.00    -0.166 F 
ATOM     31  F   UNL     1       1.894   2.927  -5.759  1.00  0.00    -0.166 F 
ATOM     32  F   UNL     1       3.564   1.568  -6.061  1.00  0.00    -0.166 F 
ENDBRANCH  26  29
BRANCH  27  33
ATOM     33  C   UNL     1       2.462  -2.274  -2.833  1.00  0.00     0.416 C 
ATOM     34  F   UNL     1       3.219  -3.117  -3.585  1.00  0.00    -0.166 F 
ATOM     35  F   UNL     1       3.336  -1.625  -2.013  1.00  0.00    -0.166 F 
ATOM     36  F   UNL     1       1.707  -3.067  -2.022  1.00  0.00    -0.166 F 
ENDBRANCH  27  33
ENDBRANCH  21  23
ENDBRANCH  19  21
ENDBRANCH   7   9
ENDBRANCH   6   7
ENDBRANCH   5   6
ENDBRANCH   4   5
ENDBRANCH   3   4
ENDBRANCH   2   3
ENDBRANCH   1   2
BRANCH   1  37
ATOM     37  O   UNL     1      -6.784  -0.545  -0.231  1.00  0.00    -0.377 OA
BRANCH  37  38
ATOM     38  C   UNL     1      -7.868  -0.659   0.677  1.00  0.00     0.188 C 
BRANCH  38  39
ATOM     39  C   UNL     1      -9.239  -1.121   0.152  1.00  0.00     0.188 C 
BRANCH  39  40
ATOM     40  O   UNL     1      -9.661  -0.471  -1.035  1.00  0.00    -0.376 OA
BRANCH  40  41
ATOM     41  C   UNL     1     -10.429   0.721  -0.959  1.00  0.00     0.202 C 
BRANCH  41  42
ATOM     42  C   UNL     1      -9.865   1.953  -0.230  1.00  0.00     0.261 C 
BRANCH  42  43
ATOM     43  O   UNL     1      -9.482   1.803   1.146  1.00  0.00    -0.460 OA
BRANCH  43  44
ATOM     44  C   UNL     1     -10.368   1.292   2.021  1.00  0.00     0.338 C 
ATOM     45  O   UNL     1     -11.527   0.975   1.805  1.00  0.00    -0.246 OA
BRANCH  44  46
ATOM     46  C   UNL     1      -9.638   1.002   3.273  1.00  0.00     0.060 A 
ATOM     47  C   UNL     1      -9.595  -0.313   3.762  1.00  0.00     0.016 A 
ATOM     48  C   UNL     1      -9.002   2.033   3.966  1.00  0.00     0.016 A 
ATOM     49  C   UNL     1      -8.960  -0.590   4.975  1.00  0.00     0.010 A 
ATOM     50  C   UNL     1      -8.388   1.760   5.190  1.00  0.00     0.010 A 
ATOM     51  C   UNL     1      -8.403   0.456   5.720  1.00  0.00    -0.014 A 
BRANCH  51  52
ATOM     52  C   UNL     1      -8.064   0.268   7.152  1.00  0.00     0.031 A 
ATOM     53  C   UNL     1      -9.082   0.708   8.170  1.00  0.00     0.074 A 
ATOM     54  C   UNL     1      -6.888  -0.248   7.548  1.00  0.00     0.049 A 
ATOM     55  N   UNL     1      -8.971   0.828   9.467  1.00  0.00    -0.248 NA
ATOM     56  C   UNL     1     -10.409   1.076   7.644  1.00  0.00     0.031 C 
ATOM     57  C   UNL     1      -5.850  -0.773   6.666  1.00  0.00     0.029 A 
ATOM     58  N   UNL     1      -6.362  -0.390   8.810  1.00  0.00    -0.354 N 
ATOM     59  C   UNL     1     -10.203   1.294   9.907  1.00  0.00     0.074 A 
ATOM     60  C   UNL     1     -11.038   1.467   8.741  1.00  0.00     0.031 C 
ATOM     61  C   UNL     1      -4.797  -1.155   7.412  1.00  0.00     0.029 A 
ATOM     62  C   UNL     1      -5.070  -0.856   8.817  1.00  0.00     0.049 A 
ATOM     63  H   UNL     1      -6.864  -0.178   9.630  1.00  0.00     0.167 HD
ATOM     64  C   UNL     1     -10.603   1.550  11.174  1.00  0.00     0.037 A 
ATOM     65  C   UNL     1      -4.200  -0.983   9.840  1.00  0.00     0.037 A 
ATOM     66  C   UNL     1      -9.766   1.383  12.331  1.00  0.00     0.049 A 
ATOM     67  C   UNL     1      -4.637  -0.586  11.233  1.00  0.00     0.074 A 
ATOM     68  C   UNL     1     -10.067   1.633  13.657  1.00  0.00     0.029 A 
ATOM     69  N   UNL     1      -8.459   0.922  12.294  1.00  0.00    -0.354 N 
ATOM     70  N   UNL     1      -5.799  -0.139  11.645  1.00  0.00    -0.248 NA
ATOM     71  C   UNL     1      -3.636  -0.710  12.305  1.00  0.00     0.031 C 
ATOM     72  C   UNL     1      -8.925   1.371  14.419  1.00  0.00     0.029 A 
ATOM     73  C   UNL     1      -7.937   0.891  13.576  1.00  0.00     0.049 A 
ATOM     74  H   UNL     1      -7.974   0.657  11.479  1.00  0.00     0.167 HD
ATOM     75  C   UNL     1      -5.686   0.014  13.023  1.00  0.00     0.074 A 
ATOM     76  C   UNL     1      -4.341  -0.384  13.378  1.00  0.00     0.031 C 
ATOM     77  C   UNL     1      -6.612   0.442  13.915  1.00  0.00     0.037 A 
BRANCH  64  78
ATOM     78  C   UNL     1     -12.002   2.053  11.378  1.00  0.00     0.064 A 
ATOM     79  C   UNL     1     -13.116   1.222  11.187  1.00  0.00     0.173 A 
ATOM     80  C   UNL     1     -12.229   3.364  11.820  1.00  0.00     0.173 A 
ATOM     81  F   UNL     1     -12.954  -0.035  10.747  1.00  0.00    -0.203 F 
ATOM     82  C   UNL     1     -14.407   1.691  11.417  1.00  0.00     0.198 A 
ATOM     83  C   UNL     1     -13.518   3.820  12.081  1.00  0.00     0.198 A 
ATOM     84  F   UNL     1     -11.198   4.200  12.019  1.00  0.00    -0.203 F 
ATOM     85  F   UNL     1     -15.458   0.892  11.189  1.00  0.00    -0.200 F 
ATOM     86  C   UNL     1     -14.606   2.985  11.874  1.00  0.00     0.200 A 
ATOM     87  F   UNL     1     -13.707   5.066  12.536  1.00  0.00    -0.200 F 
ATOM     88  F   UNL     1     -15.848   3.430  12.111  1.00  0.00    -0.200 F 
ENDBRANCH  64  78
BRANCH  65  89
ATOM     89  C   UNL     1      -2.815  -1.477   9.606  1.00  0.00     0.064 A 
ATOM     90  C   UNL     1      -2.370  -2.676  10.184  1.00  0.00     0.173 A 
ATOM     91  C   UNL     1      -1.886  -0.730   8.867  1.00  0.00     0.173 A 
ATOM     92  F   UNL     1      -3.211  -3.415  10.922  1.00  0.00    -0.203 F 
ATOM     93  C   UNL     1      -1.042  -3.084  10.068  1.00  0.00     0.198 A 
ATOM     94  C   UNL     1      -0.568  -1.159   8.719  1.00  0.00     0.198 A 
ATOM     95  F   UNL     1      -2.254   0.425   8.293  1.00  0.00    -0.203 F 
ATOM     96  F   UNL     1      -0.628  -4.193  10.696  1.00  0.00    -0.200 F 
ATOM     97  C   UNL     1      -0.143  -2.327   9.333  1.00  0.00     0.200 A 
ATOM     98  F   UNL     1       0.294  -0.431   7.997  1.00  0.00    -0.200 F 
ATOM     99  F   UNL     1       1.136  -2.714   9.232  1.00  0.00    -0.200 F 
ENDBRANCH  65  89
BRANCH  77 100
ATOM    100  C   UNL     1      -6.252   0.410  15.374  1.00  0.00     0.064 A 
ATOM    101  C   UNL     1      -5.338   1.310  15.938  1.00  0.00     0.173 A 
ATOM    102  C   UNL     1      -6.899  -0.495  16.233  1.00  0.00     0.173 A 
ATOM    103  F   UNL     1      -4.686   2.187  15.161  1.00  0.00    -0.203 F 
ATOM    104  C   UNL     1      -5.070   1.293  17.305  1.00  0.00     0.198 A 
ATOM    105  C   UNL     1      -6.654  -0.485  17.602  1.00  0.00     0.198 A 
ATOM    106  F   UNL     1      -7.790  -1.371  15.745  1.00  0.00    -0.203 F 
ATOM    107  F   UNL     1      -4.162   2.135  17.818  1.00  0.00    -0.200 F 
ATOM    108  C   UNL     1      -5.736   0.404  18.137  1.00  0.00     0.200 A 
ATOM    109  F   UNL     1      -7.314  -1.332  18.405  1.00  0.00    -0.200 F 
ATOM    110  F   UNL     1      -5.489   0.403  19.454  1.00  0.00    -0.200 F 
ENDBRANCH  77 100
ENDBRANCH  51  52
ENDBRANCH  44  46
ENDBRANCH  43  44
ENDBRANCH  42  43
ENDBRANCH  41  42
ENDBRANCH  40  41
ENDBRANCH  39  40
ENDBRANCH  38  39
ENDBRANCH  37  38
ENDBRANCH   1  37
TORSDOF 24
