REMARK SMILES CS(=O)(=O)c1ccc(/C=C(/C(=O)OCCOCCOCCOCCOC(=O)c2ccc(-c3c4nc(c(-c5c(F)c(F)c(F)c(F)c5F)c5ccc([nH]5)c(-c5c(F)c(F)c(F)c(F)c5F)c5nc(c(-c6c(F)c(F)c(F)c(F)c6F)c6ccc3[nH]6)C=C5)C=C4)cc2)c2cccc(Br)c2)cc1
REMARK SMILES IDX 19 1 18 2 17 3 16 4 15 5 14 6 13 7 11 8 12 9 10 10 9 11 8 12
REMARK SMILES IDX 5 13 6 14 99 15 7 16 98 17 2 18 1 19 3 20 4 21 91 22 92 23
REMARK SMILES IDX 97 24 93 25 95 26 94 27 96 28 20 29 21 30 22 31 23 32 24 33
REMARK SMILES IDX 25 34 26 35 27 36 28 37 29 38 90 39 30 40 89 41 31 42 32 43
REMARK SMILES IDX 33 44 83 45 34 46 88 47 82 48 84 49 35 50 87 51 81 52 80 53
REMARK SMILES IDX 36 55 68 56 48 57 67 58 49 59 52 60 66 61 85 62 50 63 51 64
REMARK SMILES IDX 65 66 86 67 53 68 37 69 38 70 46 71 39 72 40 73 44 74 47 75
REMARK SMILES IDX 41 76 42 77 45 78 43 79 69 80 70 81 78 82 71 83 72 84 76 85
REMARK SMILES IDX 79 86 73 87 74 88 77 89 75 90 54 91 55 92 63 93 56 94 57 95
REMARK SMILES IDX 61 96 64 97 58 98 59 99 62 100 60 101
REMARK H PARENT 84 54 52 65
REMARK Flexibility Score: inf
ROOT
ATOM      1  O   UNL     1       3.636  -9.756   2.951  1.00  0.00    -0.377 OA
ENDROOT
BRANCH   1   2
ATOM      2  C   UNL     1       2.243  -9.733   2.690  1.00  0.00     0.188 C 
BRANCH   2   3
ATOM      3  C   UNL     1       1.638 -10.830   1.788  1.00  0.00     0.188 C 
BRANCH   3   4
ATOM      4  O   UNL     1       2.595 -11.746   1.273  1.00  0.00    -0.376 OA
BRANCH   4   5
ATOM      5  C   UNL     1       2.878 -11.637  -0.113  1.00  0.00     0.202 C 
BRANCH   5   6
ATOM      6  C   UNL     1       3.655 -10.380  -0.529  1.00  0.00     0.261 C 
BRANCH   6   7
ATOM      7  O   UNL     1       3.069  -9.132  -0.120  1.00  0.00    -0.460 OA
BRANCH   7   8
ATOM      8  C   UNL     1       1.913  -8.761  -0.721  1.00  0.00     0.338 C 
ATOM      9  O   UNL     1       1.362  -9.374  -1.623  1.00  0.00    -0.246 OA
BRANCH   8  10
ATOM     10  C   UNL     1       1.318  -7.561  -0.037  1.00  0.00     0.067 C 
ATOM     11  C   UNL     1       2.147  -6.586   0.413  1.00  0.00     0.024 C 
BRANCH  11  12
ATOM     12  C   UNL     1       1.814  -5.241   0.945  1.00  0.00    -0.025 A 
ATOM     13  C   UNL     1       1.134  -2.565   1.462  1.00  0.00     0.067 A 
ATOM     14  C   UNL     1       0.249  -3.582   1.804  1.00  0.00     0.021 A 
ATOM     15  C   UNL     1       2.409  -2.873   0.988  1.00  0.00     0.021 A 
ATOM     16  C   UNL     1       0.612  -4.912   1.585  1.00  0.00     0.009 A 
ATOM     17  C   UNL     1       2.740  -4.207   0.728  1.00  0.00     0.009 A 
BRANCH  13  18
ATOM     18  S   UNL     1       0.592  -0.876   1.552  1.00  0.00     0.175 S 
ATOM     19  C   UNL     1       1.070  -0.165  -0.003  1.00  0.00     0.163 C 
ATOM     20  O   UNL     1       1.358  -0.244   2.607  1.00  0.00    -0.224 OA
ATOM     21  O   UNL     1      -0.860  -0.889   1.579  1.00  0.00    -0.224 OA
ENDBRANCH  13  18
ENDBRANCH  11  12
BRANCH  10  22
ATOM     22  C   UNL     1      -0.153  -7.497   0.083  1.00  0.00    -0.010 A 
ATOM     23  C   UNL     1      -0.800  -8.147   1.151  1.00  0.00     0.009 A 
ATOM     24  C   UNL     1      -0.909  -6.696  -0.777  1.00  0.00     0.024 A 
ATOM     25  C   UNL     1      -2.169  -7.992   1.366  1.00  0.00     0.002 A 
ATOM     26  C   UNL     1      -2.275  -6.528  -0.544  1.00  0.00     0.018 A 
ATOM     27  C   UNL     1      -2.908  -7.172   0.520  1.00  0.00     0.016 A 
ATOM     28  Br  UNL     1      -3.271  -5.364  -1.650  1.00  0.00    -0.051 Br
ENDBRANCH  10  22
ENDBRANCH   8  10
ENDBRANCH   7   8
ENDBRANCH   6   7
ENDBRANCH   5   6
ENDBRANCH   4   5
ENDBRANCH   3   4
ENDBRANCH   2   3
ENDBRANCH   1   2
BRANCH   1  29
ATOM     29  C   UNL     1       4.254 -10.986   3.304  1.00  0.00     0.188 C 
BRANCH  29  30
ATOM     30  C   UNL     1       3.448 -12.108   3.997  1.00  0.00     0.188 C 
BRANCH  30  31
ATOM     31  O   UNL     1       2.176 -11.715   4.493  1.00  0.00    -0.376 OA
BRANCH  31  32
ATOM     32  C   UNL     1       2.043 -11.585   5.899  1.00  0.00     0.202 C 
BRANCH  32  33
ATOM     33  C   UNL     1       2.774 -10.386   6.514  1.00  0.00     0.261 C 
BRANCH  33  34
ATOM     34  O   UNL     1       4.197 -10.366   6.319  1.00  0.00    -0.460 OA
BRANCH  34  35
ATOM     35  C   UNL     1       4.908 -11.393   6.836  1.00  0.00     0.338 C 
ATOM     36  O   UNL     1       4.494 -12.334   7.481  1.00  0.00    -0.246 OA
BRANCH  35  37
ATOM     37  C   UNL     1       6.284 -11.276   6.313  1.00  0.00     0.060 A 
ATOM     38  C   UNL     1       6.816 -12.326   5.552  1.00  0.00     0.016 A 
ATOM     39  C   UNL     1       7.029 -10.120   6.551  1.00  0.00     0.016 A 
ATOM     40  C   UNL     1       8.114 -12.232   5.051  1.00  0.00     0.010 A 
ATOM     41  C   UNL     1       8.336 -10.037   6.069  1.00  0.00     0.010 A 
ATOM     42  C   UNL     1       8.893 -11.106   5.346  1.00  0.00    -0.014 A 
BRANCH  42  43
ATOM     43  C   UNL     1      10.352 -11.135   5.095  1.00  0.00     0.031 A 
ATOM     44  C   UNL     1      11.254 -11.531   6.230  1.00  0.00     0.074 A 
ATOM     45  C   UNL     1      10.868 -10.823   3.894  1.00  0.00     0.049 A 
ATOM     46  N   UNL     1      12.560 -11.585   6.280  1.00  0.00    -0.248 NA
ATOM     47  C   UNL     1      10.586 -11.915   7.485  1.00  0.00     0.031 C 
ATOM     48  C   UNL     1      10.094 -10.464   2.709  1.00  0.00     0.029 A 
ATOM     49  N   UNL     1      12.175 -10.752   3.482  1.00  0.00    -0.354 N 
ATOM     50  C   UNL     1      12.868 -11.998   7.569  1.00  0.00     0.074 A 
ATOM     51  C   UNL     1      11.617 -12.150   8.279  1.00  0.00     0.031 C 
ATOM     52  C   UNL     1      10.944 -10.201   1.701  1.00  0.00     0.029 A 
ATOM     53  C   UNL     1      12.319 -10.341   2.181  1.00  0.00     0.049 A 
ATOM     54  H   UNL     1      12.937 -10.974   4.065  1.00  0.00     0.167 HD
ATOM     55  C   UNL     1      14.086 -12.234   8.111  1.00  0.00     0.037 A 
ATOM     56  C   UNL     1      13.437 -10.089   1.472  1.00  0.00     0.037 A 
ATOM     57  C   UNL     1      15.327 -12.074   7.403  1.00  0.00     0.049 A 
ATOM     58  C   UNL     1      14.784 -10.280   2.122  1.00  0.00     0.074 A 
ATOM     59  C   UNL     1      16.614 -12.312   7.851  1.00  0.00     0.029 A 
ATOM     60  N   UNL     1      15.436 -11.617   6.097  1.00  0.00    -0.354 N 
ATOM     61  N   UNL     1      15.072 -10.705   3.329  1.00  0.00    -0.248 NA
ATOM     62  C   UNL     1      15.964  -9.957   1.306  1.00  0.00     0.031 C 
ATOM     63  C   UNL     1      17.504 -11.940   6.838  1.00  0.00     0.029 A 
ATOM     64  C   UNL     1      16.771 -11.533   5.735  1.00  0.00     0.049 A 
ATOM     65  H   UNL     1      14.677 -11.387   5.514  1.00  0.00     0.167 HD
ATOM     66  C   UNL     1      16.459 -10.732   3.407  1.00  0.00     0.074 A 
ATOM     67  C   UNL     1      16.956 -10.290   2.121  1.00  0.00     0.031 C 
ATOM     68  C   UNL     1      17.250 -11.095   4.447  1.00  0.00     0.037 A 
BRANCH  55  69
ATOM     69  C   UNL     1      14.128 -12.650   9.553  1.00  0.00     0.064 A 
ATOM     70  C   UNL     1      13.660 -13.903   9.978  1.00  0.00     0.173 A 
ATOM     71  C   UNL     1      14.647 -11.781  10.524  1.00  0.00     0.173 A 
ATOM     72  F   UNL     1      13.137 -14.765   9.092  1.00  0.00    -0.203 F 
ATOM     73  C   UNL     1      13.678 -14.255  11.325  1.00  0.00     0.198 A 
ATOM     74  C   UNL     1      14.695 -12.149  11.865  1.00  0.00     0.198 A 
ATOM     75  F   UNL     1      15.109 -10.571  10.172  1.00  0.00    -0.203 F 
ATOM     76  F   UNL     1      13.170 -15.432  11.715  1.00  0.00    -0.200 F 
ATOM     77  C   UNL     1      14.201 -13.381  12.266  1.00  0.00     0.200 A 
ATOM     78  F   UNL     1      15.211 -11.308  12.771  1.00  0.00    -0.200 F 
ATOM     79  F   UNL     1      14.219 -13.721  13.562  1.00  0.00    -0.200 F 
ENDBRANCH  55  69
BRANCH  56  80
ATOM     80  C   UNL     1      13.333  -9.626   0.063  1.00  0.00     0.064 A 
ATOM     81  C   UNL     1      13.750 -10.443  -0.998  1.00  0.00     0.173 A 
ATOM     82  C   UNL     1      12.828  -8.356  -0.253  1.00  0.00     0.173 A 
ATOM     83  F   UNL     1      14.266 -11.655  -0.745  1.00  0.00    -0.203 F 
ATOM     84  C   UNL     1      13.678 -10.002  -2.318  1.00  0.00     0.198 A 
ATOM     85  C   UNL     1      12.730  -7.928  -1.576  1.00  0.00     0.198 A 
ATOM     86  F   UNL     1      12.420  -7.532   0.724  1.00  0.00    -0.203 F 
ATOM     87  F   UNL     1      14.124 -10.787  -3.308  1.00  0.00    -0.200 F 
ATOM     88  C   UNL     1      13.162  -8.748  -2.607  1.00  0.00     0.200 A 
ATOM     89  F   UNL     1      12.220  -6.719  -1.851  1.00  0.00    -0.200 F 
ATOM     90  F   UNL     1      13.087  -8.328  -3.877  1.00  0.00    -0.200 F 
ENDBRANCH  56  80
BRANCH  68  91
ATOM     91  C   UNL     1      18.737 -11.072   4.231  1.00  0.00     0.064 A 
ATOM     92  C   UNL     1      19.450  -9.870   4.112  1.00  0.00     0.173 A 
ATOM     93  C   UNL     1      19.465 -12.272   4.190  1.00  0.00     0.173 A 
ATOM     94  F   UNL     1      18.801  -8.696   4.131  1.00  0.00    -0.203 F 
ATOM     95  C   UNL     1      20.831  -9.871   3.933  1.00  0.00     0.198 A 
ATOM     96  C   UNL     1      20.850 -12.268   4.046  1.00  0.00     0.198 A 
ATOM     97  F   UNL     1      18.834 -13.450   4.308  1.00  0.00    -0.203 F 
ATOM     98  F   UNL     1      21.485  -8.712   3.772  1.00  0.00    -0.200 F 
ATOM     99  C   UNL     1      21.531 -11.068   3.910  1.00  0.00     0.200 A 
ATOM    100  F   UNL     1      21.525 -13.426   4.040  1.00  0.00    -0.200 F 
ATOM    101  F   UNL     1      22.861 -11.066   3.748  1.00  0.00    -0.200 F 
ENDBRANCH  68  91
ENDBRANCH  42  43
ENDBRANCH  35  37
ENDBRANCH  34  35
ENDBRANCH  33  34
ENDBRANCH  32  33
ENDBRANCH  31  32
ENDBRANCH  30  31
ENDBRANCH  29  30
ENDBRANCH   1  29
TORSDOF 23
