REMARK SMILES O=C(OCCOCCOCCOCCOC(=O)[C@@H]1[C@H](C(=O)Nc2ccc(Cn3cncn3)cc2)[C@@H]2C=C[C@H]1CC2)c1ccc(-c2c3nc(c(-c4c(F)c(F)c(F)c(F)c4F)c4ccc([nH]4)c(-c4c(F)c(F)c(F)c(F)c4F)c4nc(c(-c5c(F)c(F)c(F)c(F)c5F)c5ccc2[nH]5)C=C4)C=C3)cc1
REMARK SMILES IDX 10 1 9 2 8 3 7 4 6 5 5 6 4 7 3 8 2 9 1 10 41 11 42 12 103 13
REMARK SMILES IDX 43 14 102 15 44 16 45 17 46 18 96 19 47 20 101 21 95 22
REMARK SMILES IDX 97 23 48 24 100 25 94 26 93 27 49 29 81 30 61 31 80 32 62 33
REMARK SMILES IDX 65 34 79 35 98 36 63 37 64 38 78 40 99 41 66 42 50 43 51 44
REMARK SMILES IDX 59 45 52 46 53 47 57 48 60 49 54 50 55 51 58 52 56 53 82 54
REMARK SMILES IDX 83 55 91 56 84 57 85 58 89 59 92 60 86 61 87 62 90 63 88 64
REMARK SMILES IDX 67 65 68 66 76 67 69 68 70 69 74 70 77 71 71 72 72 73 75 74
REMARK SMILES IDX 73 75 11 76 12 77 13 78 14 79 15 80 16 81 17 82 18 83 19 84
REMARK SMILES IDX 38 85 35 86 37 87 39 88 36 89 40 90 20 91 21 92 22 93 23 95
REMARK SMILES IDX 24 96 34 97 25 98 33 99 26 100 27 101 28 102 29 103 32 104
REMARK SMILES IDX 30 105 31 106
REMARK H PARENT 97 28 65 39 22 94
REMARK Flexibility Score: inf
ROOT
ATOM      1  C   UNL     1       3.086   2.874  -1.422  1.00  0.00     0.188 C 
ENDROOT
BRANCH   1   2
ATOM      2  O   UNL     1       1.761   2.896  -0.965  1.00  0.00    -0.377 OA
BRANCH   2   3
ATOM      3  C   UNL     1       1.473   1.874  -0.027  1.00  0.00     0.188 C 
BRANCH   3   4
ATOM      4  C   UNL     1       2.526   1.401   1.016  1.00  0.00     0.188 C 
BRANCH   4   5
ATOM      5  O   UNL     1       3.657   0.539   0.853  1.00  0.00    -0.376 OA
BRANCH   5   6
ATOM      6  C   UNL     1       4.607   0.376  -0.183  1.00  0.00     0.202 C 
BRANCH   6   7
ATOM      7  C   UNL     1       4.331  -0.685  -1.257  1.00  0.00     0.261 C 
BRANCH   7   8
ATOM      8  O   UNL     1       2.979  -0.728  -1.702  1.00  0.00    -0.460 OA
BRANCH   8   9
ATOM      9  C   UNL     1       1.949  -1.273  -1.034  1.00  0.00     0.338 C 
ATOM     10  O   UNL     1       0.842  -1.337  -1.587  1.00  0.00    -0.246 OA
BRANCH   9  11
ATOM     11  C   UNL     1       2.029  -1.712   0.382  1.00  0.00     0.060 A 
ATOM     12  C   UNL     1       3.188  -2.144   1.047  1.00  0.00     0.016 A 
ATOM     13  C   UNL     1       0.806  -1.684   1.080  1.00  0.00     0.016 A 
ATOM     14  C   UNL     1       3.127  -2.649   2.315  1.00  0.00     0.010 A 
ATOM     15  C   UNL     1       0.724  -2.201   2.351  1.00  0.00     0.010 A 
ATOM     16  C   UNL     1       1.872  -2.787   2.873  1.00  0.00    -0.014 A 
BRANCH  16  17
ATOM     17  C   UNL     1       1.775  -3.837   3.853  1.00  0.00     0.031 A 
ATOM     18  C   UNL     1       2.383  -3.513   5.161  1.00  0.00     0.074 A 
ATOM     19  C   UNL     1       1.196  -4.974   3.417  1.00  0.00     0.049 A 
ATOM     20  N   UNL     1       3.281  -4.177   5.814  1.00  0.00    -0.248 NA
ATOM     21  C   UNL     1       2.080  -2.189   5.734  1.00  0.00     0.031 C 
ATOM     22  C   UNL     1       0.537  -5.217   2.120  1.00  0.00     0.029 A 
ATOM     23  N   UNL     1       0.948  -6.117   4.098  1.00  0.00    -0.354 N 
ATOM     24  C   UNL     1       3.482  -3.461   6.990  1.00  0.00     0.074 A 
ATOM     25  C   UNL     1       2.864  -2.175   6.810  1.00  0.00     0.031 C 
ATOM     26  C   UNL     1      -0.274  -6.287   2.221  1.00  0.00     0.029 A 
ATOM     27  C   UNL     1      -0.076  -6.872   3.526  1.00  0.00     0.049 A 
ATOM     28  H   UNL     1       1.436  -6.387   4.909  1.00  0.00     0.167 HD
ATOM     29  C   UNL     1       3.864  -4.093   8.130  1.00  0.00     0.037 A 
ATOM     30  C   UNL     1      -0.810  -7.772   4.220  1.00  0.00     0.037 A 
ATOM     31  C   UNL     1       4.583  -5.306   7.850  1.00  0.00     0.049 A 
ATOM     32  C   UNL     1       0.017  -8.147   5.406  1.00  0.00     0.074 A 
ATOM     33  C   UNL     1       5.782  -5.580   7.220  1.00  0.00     0.029 A 
ATOM     34  N   UNL     1       3.900  -6.497   7.885  1.00  0.00    -0.354 N 
ATOM     35  N   UNL     1       1.169  -8.762   5.302  1.00  0.00    -0.248 NA
ATOM     36  C   UNL     1      -0.163  -7.364   6.624  1.00  0.00     0.031 C 
ATOM     37  C   UNL     1       5.550  -6.780   6.487  1.00  0.00     0.029 A 
ATOM     38  C   UNL     1       4.250  -7.206   6.762  1.00  0.00     0.049 A 
ATOM     39  H   UNL     1       3.273  -6.788   8.587  1.00  0.00     0.167 HD
ATOM     40  C   UNL     1       1.997  -8.136   6.230  1.00  0.00     0.074 A 
ATOM     41  C   UNL     1       1.105  -7.313   7.044  1.00  0.00     0.031 C 
ATOM     42  C   UNL     1       3.354  -8.106   6.072  1.00  0.00     0.037 A 
BRANCH  29  43
ATOM     43  C   UNL     1       3.211  -3.802   9.454  1.00  0.00     0.064 A 
ATOM     44  C   UNL     1       3.762  -4.330  10.633  1.00  0.00     0.173 A 
ATOM     45  C   UNL     1       1.904  -3.272   9.572  1.00  0.00     0.173 A 
ATOM     46  F   UNL     1       4.984  -4.884  10.624  1.00  0.00    -0.203 F 
ATOM     47  C   UNL     1       3.033  -4.378  11.825  1.00  0.00     0.198 A 
ATOM     48  C   UNL     1       1.202  -3.271  10.772  1.00  0.00     0.198 A 
ATOM     49  F   UNL     1       1.208  -2.842   8.512  1.00  0.00    -0.203 F 
ATOM     50  F   UNL     1       3.550  -4.995  12.896  1.00  0.00    -0.200 F 
ATOM     51  C   UNL     1       1.754  -3.852  11.892  1.00  0.00     0.200 A 
ATOM     52  F   UNL     1      -0.043  -2.776  10.806  1.00  0.00    -0.200 F 
ATOM     53  F   UNL     1       1.032  -3.952  13.016  1.00  0.00    -0.200 F 
ENDBRANCH  29  43
BRANCH  30  54
ATOM     54  C   UNL     1      -2.285  -7.888   4.142  1.00  0.00     0.064 A 
ATOM     55  C   UNL     1      -2.946  -9.035   4.597  1.00  0.00     0.173 A 
ATOM     56  C   UNL     1      -3.103  -6.786   3.805  1.00  0.00     0.173 A 
ATOM     57  F   UNL     1      -2.239 -10.104   4.988  1.00  0.00    -0.203 F 
ATOM     58  C   UNL     1      -4.341  -9.080   4.703  1.00  0.00     0.198 A 
ATOM     59  C   UNL     1      -4.493  -6.836   3.897  1.00  0.00     0.198 A 
ATOM     60  F   UNL     1      -2.570  -5.606   3.456  1.00  0.00    -0.203 F 
ATOM     61  F   UNL     1      -4.938 -10.179   5.184  1.00  0.00    -0.200 F 
ATOM     62  C   UNL     1      -5.112  -7.981   4.355  1.00  0.00     0.200 A 
ATOM     63  F   UNL     1      -5.221  -5.753   3.589  1.00  0.00    -0.200 F 
ATOM     64  F   UNL     1      -6.445  -8.012   4.496  1.00  0.00    -0.200 F 
ENDBRANCH  30  54
BRANCH  42  65
ATOM     65  C   UNL     1       3.942  -8.895   4.931  1.00  0.00     0.064 A 
ATOM     66  C   UNL     1       3.750  -8.555   3.580  1.00  0.00     0.173 A 
ATOM     67  C   UNL     1       4.866  -9.907   5.210  1.00  0.00     0.173 A 
ATOM     68  F   UNL     1       2.977  -7.518   3.239  1.00  0.00    -0.203 F 
ATOM     69  C   UNL     1       4.415  -9.228   2.555  1.00  0.00     0.198 A 
ATOM     70  C   UNL     1       5.556 -10.556   4.187  1.00  0.00     0.198 A 
ATOM     71  F   UNL     1       5.149 -10.223   6.482  1.00  0.00    -0.203 F 
ATOM     72  F   UNL     1       4.210  -8.879   1.276  1.00  0.00    -0.200 F 
ATOM     73  C   UNL     1       5.323 -10.225   2.861  1.00  0.00     0.200 A 
ATOM     74  F   UNL     1       6.479 -11.480   4.490  1.00  0.00    -0.200 F 
ATOM     75  F   UNL     1       6.000 -10.842   1.883  1.00  0.00    -0.200 F 
ENDBRANCH  42  65
ENDBRANCH  16  17
ENDBRANCH   9  11
ENDBRANCH   8   9
ENDBRANCH   7   8
ENDBRANCH   6   7
ENDBRANCH   5   6
ENDBRANCH   4   5
ENDBRANCH   3   4
ENDBRANCH   2   3
ENDBRANCH   1   2
BRANCH   1  76
ATOM     76  C   UNL     1       4.013   3.610  -0.439  1.00  0.00     0.188 C 
BRANCH  76  77
ATOM     77  O   UNL     1       3.372   4.374   0.553  1.00  0.00    -0.376 OA
BRANCH  77  78
ATOM     78  C   UNL     1       2.713   5.562   0.175  1.00  0.00     0.202 C 
BRANCH  78  79
ATOM     79  C   UNL     1       2.636   6.106  -1.274  1.00  0.00     0.261 C 
BRANCH  79  80
ATOM     80  O   UNL     1       3.416   5.479  -2.321  1.00  0.00    -0.463 OA
BRANCH  80  81
ATOM     81  C   UNL     1       4.552   6.074  -2.752  1.00  0.00     0.310 C 
ATOM     82  O   UNL     1       4.970   7.131  -2.282  1.00  0.00    -0.252 OA
BRANCH  81  83
ATOM     83  C   UNL     1       5.214   5.336  -3.936  1.00  0.00     0.119 C 
ATOM     84  C   UNL     1       5.662   3.826  -4.019  1.00  0.00     0.100 C 
ATOM     85  C   UNL     1       6.362   6.210  -4.561  1.00  0.00     0.026 C 
ATOM     86  C   UNL     1       6.910   3.706  -4.967  1.00  0.00     0.025 C 
ATOM     87  C   UNL     1       7.727   5.762  -4.067  1.00  0.00    -0.027 C 
ATOM     88  C   UNL     1       6.381   5.917  -6.079  1.00  0.00     0.009 C 
ATOM     89  C   UNL     1       8.028   4.478  -4.314  1.00  0.00    -0.027 C 
ATOM     90  C   UNL     1       6.616   4.406  -6.311  1.00  0.00     0.009 C 
BRANCH  84  91
ATOM     91  C   UNL     1       5.883   2.727  -2.959  1.00  0.00     0.228 C 
ATOM     92  O   UNL     1       5.322   1.637  -3.175  1.00  0.00    -0.274 OA
ATOM     93  N   UNL     1       6.788   2.672  -1.944  1.00  0.00    -0.326 N 
ATOM     94  H   UNL     1       6.971   1.751  -1.650  1.00  0.00     0.169 HD
BRANCH  93  95
ATOM     95  C   UNL     1       7.518   3.620  -1.223  1.00  0.00     0.041 A 
ATOM     96  C   UNL     1       8.645   3.234  -0.505  1.00  0.00     0.026 A 
ATOM     97  C   UNL     1       7.145   4.943  -1.165  1.00  0.00     0.026 A 
ATOM     98  C   UNL     1       9.478   4.215   0.054  1.00  0.00     0.008 A 
ATOM     99  C   UNL     1       7.923   5.924  -0.587  1.00  0.00     0.008 A 
ATOM    100  C   UNL     1       9.156   5.576  -0.064  1.00  0.00    -0.026 A 
BRANCH 100 101
ATOM    101  C   UNL     1      10.112   6.683   0.273  1.00  0.00     0.181 C 
BRANCH 101 102
ATOM    102  N   UNL     1       9.998   7.120   1.643  1.00  0.00    -0.249 N 
ATOM    103  C   UNL     1      10.346   6.430   2.761  1.00  0.00     0.220 A 
ATOM    104  N   UNL     1       9.646   8.385   1.942  1.00  0.00    -0.160 NA
ATOM    105  N   UNL     1      10.226   7.209   3.810  1.00  0.00    -0.224 NA
ATOM    106  C   UNL     1       9.794   8.387   3.269  1.00  0.00     0.246 A 
ENDBRANCH 101 102
ENDBRANCH 100 101
ENDBRANCH  93  95
ENDBRANCH  84  91
ENDBRANCH  81  83
ENDBRANCH  80  81
ENDBRANCH  79  80
ENDBRANCH  78  79
ENDBRANCH  77  78
ENDBRANCH  76  77
ENDBRANCH   1  76
TORSDOF 24
