REMARK SMILES O=C(OCCOCCOCCOCCOC(=O)[C@@H]1CC[C@@H](CS(=O)(=O)c2cccc(F)c2)O1)c1ccc(-c2c3nc(c(-c4c(F)c(F)c(F)c(F)c4F)c4ccc([nH]4)c(-c4c(F)c(F)c(F)c(F)c4F)c4nc(c(-c5c(F)c(F)c(F)c(F)c5F)c5ccc2[nH]5)C=C4)C=C3)cc1
REMARK SMILES IDX 10 1 9 2 8 3 7 4 6 5 5 6 4 7 3 8 2 9 1 10 34 11 35 12 96 13
REMARK SMILES IDX 36 14 95 15 37 16 38 17 39 18 89 19 40 20 94 21 88 22 90 23
REMARK SMILES IDX 41 24 93 25 87 26 86 27 42 29 74 30 54 31 73 32 55 33 58 34
REMARK SMILES IDX 72 35 91 36 56 37 57 38 71 40 92 41 59 42 43 43 44 44 52 45
REMARK SMILES IDX 45 46 46 47 50 48 53 49 47 50 48 51 51 52 49 53 75 54 76 55
REMARK SMILES IDX 84 56 77 57 78 58 82 59 85 60 79 61 80 62 83 63 81 64 60 65
REMARK SMILES IDX 61 66 69 67 62 68 63 69 67 70 70 71 64 72 65 73 68 74 66 75
REMARK SMILES IDX 11 76 12 77 13 78 14 79 15 80 16 81 17 82 18 83 19 84 33 85
REMARK SMILES IDX 20 86 21 87 22 88 23 89 24 90 25 91 26 92 27 93 32 94 28 95
REMARK SMILES IDX 30 96 29 97 31 98
REMARK H PARENT 90 28 58 39
REMARK Flexibility Score: inf
ROOT
ATOM      1  C   UNL     1       4.574   2.571   2.650  1.00  0.00     0.188 C 
ENDROOT
BRANCH   1   2
ATOM      2  O   UNL     1       3.203   2.946   2.707  1.00  0.00    -0.377 OA
BRANCH   2   3
ATOM      3  C   UNL     1       2.250   2.080   2.097  1.00  0.00     0.188 C 
BRANCH   3   4
ATOM      4  C   UNL     1       2.493   1.782   0.623  1.00  0.00     0.188 C 
BRANCH   4   5
ATOM      5  O   UNL     1       3.664   0.975   0.517  1.00  0.00    -0.376 OA
BRANCH   5   6
ATOM      6  C   UNL     1       4.489   1.277  -0.604  1.00  0.00     0.202 C 
BRANCH   6   7
ATOM      7  C   UNL     1       4.135   0.433  -1.825  1.00  0.00     0.261 C 
BRANCH   7   8
ATOM      8  O   UNL     1       2.748   0.053  -1.842  1.00  0.00    -0.460 OA
BRANCH   8   9
ATOM      9  C   UNL     1       2.190  -1.069  -1.321  1.00  0.00     0.338 C 
ATOM     10  O   UNL     1       0.983  -1.255  -1.471  1.00  0.00    -0.246 OA
BRANCH   9  11
ATOM     11  C   UNL     1       2.969  -2.140  -0.625  1.00  0.00     0.060 A 
ATOM     12  C   UNL     1       4.093  -1.925   0.171  1.00  0.00     0.016 A 
ATOM     13  C   UNL     1       2.476  -3.454  -0.714  1.00  0.00     0.016 A 
ATOM     14  C   UNL     1       4.758  -2.966   0.797  1.00  0.00     0.010 A 
ATOM     15  C   UNL     1       3.118  -4.512  -0.059  1.00  0.00     0.010 A 
ATOM     16  C   UNL     1       4.280  -4.267   0.680  1.00  0.00    -0.014 A 
BRANCH  16  17
ATOM     17  C   UNL     1       5.131  -5.346   1.212  1.00  0.00     0.031 A 
ATOM     18  C   UNL     1       5.950  -6.132   0.236  1.00  0.00     0.074 A 
ATOM     19  C   UNL     1       5.305  -5.468   2.540  1.00  0.00     0.049 A 
ATOM     20  N   UNL     1       6.755  -7.136   0.448  1.00  0.00    -0.248 NA
ATOM     21  C   UNL     1       5.873  -5.711  -1.176  1.00  0.00     0.031 C 
ATOM     22  C   UNL     1       4.671  -4.619   3.553  1.00  0.00     0.029 A 
ATOM     23  N   UNL     1       6.103  -6.311   3.266  1.00  0.00    -0.354 N 
ATOM     24  C   UNL     1       7.253  -7.484  -0.799  1.00  0.00     0.074 A 
ATOM     25  C   UNL     1       6.669  -6.587  -1.768  1.00  0.00     0.031 C 
ATOM     26  C   UNL     1       5.136  -4.961   4.765  1.00  0.00     0.029 A 
ATOM     27  C   UNL     1       6.034  -6.101   4.622  1.00  0.00     0.049 A 
ATOM     28  H   UNL     1       6.671  -7.002   2.856  1.00  0.00     0.167 HD
ATOM     29  C   UNL     1       8.120  -8.477  -1.097  1.00  0.00     0.037 A 
ATOM     30  C   UNL     1       6.612  -6.785   5.628  1.00  0.00     0.037 A 
ATOM     31  C   UNL     1       8.690  -9.343  -0.104  1.00  0.00     0.049 A 
ATOM     32  C   UNL     1       7.478  -7.963   5.264  1.00  0.00     0.074 A 
ATOM     33  C   UNL     1       9.501 -10.447  -0.279  1.00  0.00     0.029 A 
ATOM     34  N   UNL     1       8.508  -9.182   1.264  1.00  0.00    -0.354 N 
ATOM     35  N   UNL     1       7.854  -8.374   4.076  1.00  0.00    -0.248 NA
ATOM     36  C   UNL     1       7.972  -8.792   6.370  1.00  0.00     0.031 C 
ATOM     37  C   UNL     1       9.780 -10.977   0.985  1.00  0.00     0.029 A 
ATOM     38  C   UNL     1       9.181 -10.177   1.948  1.00  0.00     0.049 A 
ATOM     39  H   UNL     1       7.979  -8.466   1.683  1.00  0.00     0.167 HD
ATOM     40  C   UNL     1       8.628  -9.504   4.287  1.00  0.00     0.074 A 
ATOM     41  C   UNL     1       8.692  -9.698   5.723  1.00  0.00     0.031 C 
ATOM     42  C   UNL     1       9.220 -10.321   3.381  1.00  0.00     0.037 A 
BRANCH  29  43
ATOM     43  C   UNL     1       8.434  -8.709  -2.543  1.00  0.00     0.064 A 
ATOM     44  C   UNL     1       7.874  -9.805  -3.216  1.00  0.00     0.173 A 
ATOM     45  C   UNL     1       9.278  -7.855  -3.266  1.00  0.00     0.173 A 
ATOM     46  F   UNL     1       7.049 -10.644  -2.571  1.00  0.00    -0.203 F 
ATOM     47  C   UNL     1       8.155 -10.043  -4.558  1.00  0.00     0.198 A 
ATOM     48  C   UNL     1       9.541  -8.084  -4.615  1.00  0.00     0.198 A 
ATOM     49  F   UNL     1       9.811  -6.774  -2.677  1.00  0.00    -0.203 F 
ATOM     50  F   UNL     1       7.617 -11.104  -5.177  1.00  0.00    -0.200 F 
ATOM     51  C   UNL     1       8.985  -9.181  -5.258  1.00  0.00     0.200 A 
ATOM     52  F   UNL     1      10.317  -7.232  -5.299  1.00  0.00    -0.200 F 
ATOM     53  F   UNL     1       9.241  -9.400  -6.555  1.00  0.00    -0.200 F 
ENDBRANCH  29  43
BRANCH  30  54
ATOM     54  C   UNL     1       6.342  -6.420   7.046  1.00  0.00     0.064 A 
ATOM     55  C   UNL     1       5.049  -6.511   7.588  1.00  0.00     0.173 A 
ATOM     56  C   UNL     1       7.366  -5.977   7.895  1.00  0.00     0.173 A 
ATOM     57  F   UNL     1       4.030  -6.939   6.828  1.00  0.00    -0.203 F 
ATOM     58  C   UNL     1       4.787  -6.151   8.909  1.00  0.00     0.198 A 
ATOM     59  C   UNL     1       7.109  -5.648   9.227  1.00  0.00     0.198 A 
ATOM     60  F   UNL     1       8.625  -5.896   7.440  1.00  0.00    -0.203 F 
ATOM     61  F   UNL     1       3.536  -6.218   9.384  1.00  0.00    -0.200 F 
ATOM     62  C   UNL     1       5.819  -5.727   9.730  1.00  0.00     0.200 A 
ATOM     63  F   UNL     1       8.115  -5.268  10.026  1.00  0.00    -0.200 F 
ATOM     64  F   UNL     1       5.572  -5.403  11.006  1.00  0.00    -0.200 F 
ENDBRANCH  30  54
BRANCH  42  65
ATOM     65  C   UNL     1       9.990 -11.488   3.917  1.00  0.00     0.064 A 
ATOM     66  C   UNL     1      11.390 -11.506   3.842  1.00  0.00     0.173 A 
ATOM     67  C   UNL     1       9.335 -12.621   4.417  1.00  0.00     0.173 A 
ATOM     68  F   UNL     1      12.056 -10.446   3.360  1.00  0.00    -0.203 F 
ATOM     69  C   UNL     1      12.107 -12.631   4.232  1.00  0.00     0.198 A 
ATOM     70  C   UNL     1      10.058 -13.733   4.833  1.00  0.00     0.198 A 
ATOM     71  F   UNL     1       7.997 -12.639   4.517  1.00  0.00    -0.203 F 
ATOM     72  F   UNL     1      13.442 -12.645   4.116  1.00  0.00    -0.200 F 
ATOM     73  C   UNL     1      11.441 -13.742   4.729  1.00  0.00     0.200 A 
ATOM     74  F   UNL     1       9.416 -14.798   5.333  1.00  0.00    -0.200 F 
ATOM     75  F   UNL     1      12.135 -14.823   5.110  1.00  0.00    -0.200 F 
ENDBRANCH  42  65
ENDBRANCH  16  17
ENDBRANCH   9  11
ENDBRANCH   8   9
ENDBRANCH   7   8
ENDBRANCH   6   7
ENDBRANCH   5   6
ENDBRANCH   4   5
ENDBRANCH   3   4
ENDBRANCH   2   3
ENDBRANCH   1   2
BRANCH   1  76
ATOM     76  C   UNL     1       5.106   1.520   3.634  1.00  0.00     0.188 C 
BRANCH  76  77
ATOM     77  O   UNL     1       4.263   0.435   3.965  1.00  0.00    -0.376 OA
BRANCH  77  78
ATOM     78  C   UNL     1       3.292   0.604   4.998  1.00  0.00     0.202 C 
BRANCH  78  79
ATOM     79  C   UNL     1       3.295   1.808   5.963  1.00  0.00     0.261 C 
BRANCH  79  80
ATOM     80  O   UNL     1       3.510   3.083   5.335  1.00  0.00    -0.461 OA
BRANCH  80  81
ATOM     81  C   UNL     1       4.295   3.954   6.020  1.00  0.00     0.335 C 
ATOM     82  O   UNL     1       4.643   3.793   7.188  1.00  0.00    -0.249 OA
BRANCH  81  83
ATOM     83  C   UNL     1       4.814   5.140   5.173  1.00  0.00     0.228 C 
ATOM     84  C   UNL     1       4.516   6.448   5.882  1.00  0.00     0.047 C 
ATOM     85  O   UNL     1       4.459   5.346   3.809  1.00  0.00    -0.362 OA
ATOM     86  C   UNL     1       4.658   7.473   4.785  1.00  0.00     0.036 C 
ATOM     87  C   UNL     1       4.191   6.717   3.546  1.00  0.00     0.135 C 
BRANCH  87  88
ATOM     88  C   UNL     1       4.780   7.274   2.250  1.00  0.00     0.174 C 
BRANCH  88  89
ATOM     89  S   UNL     1       5.644   6.232   1.114  1.00  0.00     0.181 S 
ATOM     90  O   UNL     1       4.797   5.114   0.740  1.00  0.00    -0.224 OA
ATOM     91  O   UNL     1       6.149   7.112   0.073  1.00  0.00    -0.224 OA
BRANCH  89  92
ATOM     92  C   UNL     1       7.114   5.551   1.845  1.00  0.00     0.070 A 
ATOM     93  C   UNL     1       7.765   4.517   1.152  1.00  0.00     0.020 A 
ATOM     94  C   UNL     1       7.662   6.052   3.019  1.00  0.00     0.059 A 
ATOM     95  C   UNL     1       8.954   3.976   1.650  1.00  0.00     0.004 A 
ATOM     96  C   UNL     1       8.832   5.485   3.517  1.00  0.00     0.124 A 
ATOM     97  C   UNL     1       9.484   4.456   2.846  1.00  0.00     0.039 A 
ATOM     98  F   UNL     1       9.345   5.951   4.663  1.00  0.00    -0.207 F 
ENDBRANCH  89  92
ENDBRANCH  88  89
ENDBRANCH  87  88
ENDBRANCH  81  83
ENDBRANCH  80  81
ENDBRANCH  79  80
ENDBRANCH  78  79
ENDBRANCH  77  78
ENDBRANCH  76  77
ENDBRANCH   1  76
TORSDOF 23
