REMARK SMILES O=C(OCCOCCOCCOCCOC(=O)c1cccc(Nc2ccnc3ccc(F)cc23)c1)c1ccc(-c2c3nc(c(-c4c(F)c(F)c(F)c(F)c4F)c4ccc([nH]4)c(-c4c(F)c(F)c(F)c(F)c4F)c4nc(c(-c5c(F)c(F)c(F)c(F)c5F)c5ccc2[nH]5)C=C4)C=C3)cc1
REMARK SMILES IDX 9 1 8 2 7 3 6 4 5 5 4 6 3 7 2 8 1 9 36 10 37 11 98 12 38 13
REMARK SMILES IDX 97 14 39 15 40 16 41 17 91 18 42 19 96 20 90 21 92 22 43 23
REMARK SMILES IDX 95 24 89 25 88 26 44 28 76 29 56 30 75 31 57 32 60 33 74 34
REMARK SMILES IDX 93 35 58 36 59 37 73 39 94 40 61 41 45 42 46 43 54 44 47 45
REMARK SMILES IDX 48 46 52 47 55 48 49 49 50 50 53 51 51 52 77 53 78 54 86 55
REMARK SMILES IDX 79 56 80 57 84 58 87 59 81 60 82 61 85 62 83 63 62 64 63 65
REMARK SMILES IDX 71 66 64 67 65 68 69 69 72 70 66 71 67 72 70 73 68 74 10 75
REMARK SMILES IDX 11 76 12 77 13 78 14 79 15 80 16 81 17 82 18 83 19 84 35 85
REMARK SMILES IDX 20 86 22 87 21 88 23 89 24 91 25 92 34 93 26 94 28 95 33 96
REMARK SMILES IDX 27 97 29 98 31 99 30 100 32 101
REMARK H PARENT 92 27 60 38 23 90
REMARK Flexibility Score: inf
ROOT
ATOM      1  O   UNL     1       2.288  -1.809  -3.249  1.00  0.00    -0.377 OA
ENDROOT
BRANCH   1   2
ATOM      2  C   UNL     1       1.653  -0.818  -2.460  1.00  0.00     0.188 C 
BRANCH   2   3
ATOM      3  C   UNL     1       2.109  -0.750  -1.007  1.00  0.00     0.188 C 
BRANCH   3   4
ATOM      4  O   UNL     1       3.510  -0.492  -0.874  1.00  0.00    -0.376 OA
BRANCH   4   5
ATOM      5  C   UNL     1       4.218  -1.445  -0.076  1.00  0.00     0.202 C 
BRANCH   5   6
ATOM      6  C   UNL     1       4.161  -1.171   1.429  1.00  0.00     0.261 C 
BRANCH   6   7
ATOM      7  O   UNL     1       2.845  -0.798   1.862  1.00  0.00    -0.460 OA
BRANCH   7   8
ATOM      8  C   UNL     1       2.286   0.435   1.904  1.00  0.00     0.338 C 
ATOM      9  O   UNL     1       1.125   0.522   2.304  1.00  0.00    -0.246 OA
BRANCH   8  10
ATOM     10  C   UNL     1       2.973   1.708   1.494  1.00  0.00     0.060 A 
ATOM     11  C   UNL     1       4.157   1.812   0.759  1.00  0.00     0.016 A 
ATOM     12  C   UNL     1       2.331   2.908   1.859  1.00  0.00     0.016 A 
ATOM     13  C   UNL     1       4.723   3.041   0.449  1.00  0.00     0.010 A 
ATOM     14  C   UNL     1       2.889   4.154   1.553  1.00  0.00     0.010 A 
ATOM     15  C   UNL     1       4.111   4.212   0.879  1.00  0.00    -0.014 A 
BRANCH  15  16
ATOM     16  C   UNL     1       4.907   5.446   0.813  1.00  0.00     0.031 A 
ATOM     17  C   UNL     1       5.672   5.833   2.042  1.00  0.00     0.074 A 
ATOM     18  C   UNL     1       5.075   6.080  -0.358  1.00  0.00     0.049 A 
ATOM     19  N   UNL     1       6.449   6.860   2.251  1.00  0.00    -0.248 NA
ATOM     20  C   UNL     1       5.565   4.914   3.190  1.00  0.00     0.031 C 
ATOM     21  C   UNL     1       4.490   5.663  -1.632  1.00  0.00     0.029 A 
ATOM     22  N   UNL     1       5.814   7.188  -0.670  1.00  0.00    -0.354 N 
ATOM     23  C   UNL     1       6.903   6.721   3.555  1.00  0.00     0.074 A 
ATOM     24  C   UNL     1       6.321   5.515   4.093  1.00  0.00     0.031 C 
ATOM     25  C   UNL     1       4.902   6.505  -2.595  1.00  0.00     0.029 A 
ATOM     26  C   UNL     1       5.728   7.546  -1.992  1.00  0.00     0.049 A 
ATOM     27  H   UNL     1       6.355   7.680  -0.011  1.00  0.00     0.167 HD
ATOM     28  C   UNL     1       7.728   7.544   4.240  1.00  0.00     0.037 A 
ATOM     29  C   UNL     1       6.239   8.622  -2.619  1.00  0.00     0.037 A 
ATOM     30  C   UNL     1       8.277   8.746   3.678  1.00  0.00     0.049 A 
ATOM     31  C   UNL     1       7.053   9.591  -1.802  1.00  0.00     0.074 A 
ATOM     32  C   UNL     1       9.054   9.714   4.283  1.00  0.00     0.029 A 
ATOM     33  N   UNL     1       8.090   9.142   2.358  1.00  0.00    -0.354 N 
ATOM     34  N   UNL     1       7.419   9.509  -0.543  1.00  0.00    -0.248 NA
ATOM     35  C   UNL     1       7.509  10.809  -2.481  1.00  0.00     0.031 C 
ATOM     36  C   UNL     1       9.299  10.719   3.340  1.00  0.00     0.029 A 
ATOM     37  C   UNL     1       8.719  10.352   2.134  1.00  0.00     0.049 A 
ATOM     38  H   UNL     1       7.584   8.634   1.683  1.00  0.00     0.167 HD
ATOM     39  C   UNL     1       8.158  10.654  -0.281  1.00  0.00     0.074 A 
ATOM     40  C   UNL     1       8.205  11.405  -1.522  1.00  0.00     0.031 C 
ATOM     41  C   UNL     1       8.741  11.057   0.876  1.00  0.00     0.037 A 
BRANCH  28  42
ATOM     42  C   UNL     1       7.986   7.201   5.677  1.00  0.00     0.064 A 
ATOM     43  C   UNL     1       8.777   6.103   6.051  1.00  0.00     0.173 A 
ATOM     44  C   UNL     1       7.369   7.941   6.696  1.00  0.00     0.173 A 
ATOM     45  F   UNL     1       9.359   5.340   5.114  1.00  0.00    -0.203 F 
ATOM     46  C   UNL     1       8.908   5.739   7.390  1.00  0.00     0.198 A 
ATOM     47  C   UNL     1       7.524   7.590   8.034  1.00  0.00     0.198 A 
ATOM     48  F   UNL     1       6.592   8.992   6.392  1.00  0.00    -0.203 F 
ATOM     49  F   UNL     1       9.609   4.644   7.719  1.00  0.00    -0.200 F 
ATOM     50  C   UNL     1       8.284   6.483   8.380  1.00  0.00     0.200 A 
ATOM     51  F   UNL     1       6.919   8.310   8.989  1.00  0.00    -0.200 F 
ATOM     52  F   UNL     1       8.397   6.121   9.665  1.00  0.00    -0.200 F 
ENDBRANCH  28  42
BRANCH  29  53
ATOM     53  C   UNL     1       5.954   8.857  -4.059  1.00  0.00     0.064 A 
ATOM     54  C   UNL     1       6.975   8.840  -5.019  1.00  0.00     0.173 A 
ATOM     55  C   UNL     1       4.648   9.111  -4.508  1.00  0.00     0.173 A 
ATOM     56  F   UNL     1       8.245   8.627  -4.642  1.00  0.00    -0.203 F 
ATOM     57  C   UNL     1       6.704   9.078  -6.366  1.00  0.00     0.198 A 
ATOM     58  C   UNL     1       4.373   9.319  -5.858  1.00  0.00     0.198 A 
ATOM     59  F   UNL     1       3.632   9.146  -3.634  1.00  0.00    -0.203 F 
ATOM     60  F   UNL     1       7.705   9.098  -7.256  1.00  0.00    -0.200 F 
ATOM     61  C   UNL     1       5.402   9.310  -6.786  1.00  0.00     0.200 A 
ATOM     62  F   UNL     1       3.111   9.530  -6.258  1.00  0.00    -0.200 F 
ATOM     63  F   UNL     1       5.141   9.533  -8.081  1.00  0.00    -0.200 F 
ENDBRANCH  29  53
BRANCH  41  64
ATOM     64  C   UNL     1       9.495  12.351   0.838  1.00  0.00     0.064 A 
ATOM     65  C   UNL     1       8.831  13.584   0.786  1.00  0.00     0.173 A 
ATOM     66  C   UNL     1      10.895  12.354   0.915  1.00  0.00     0.173 A 
ATOM     67  F   UNL     1       7.493  13.628   0.697  1.00  0.00    -0.203 F 
ATOM     68  C   UNL     1       9.545  14.778   0.793  1.00  0.00     0.198 A 
ATOM     69  C   UNL     1      11.604  13.550   0.952  1.00  0.00     0.198 A 
ATOM     70  F   UNL     1      11.572  11.198   0.975  1.00  0.00    -0.203 F 
ATOM     71  F   UNL     1       8.895  15.946   0.702  1.00  0.00    -0.200 F 
ATOM     72  C   UNL     1      10.930  14.760   0.885  1.00  0.00     0.200 A 
ATOM     73  F   UNL     1      12.940  13.532   1.056  1.00  0.00    -0.200 F 
ATOM     74  F   UNL     1      11.615  15.911   0.905  1.00  0.00    -0.200 F 
ENDBRANCH  41  64
ENDBRANCH  15  16
ENDBRANCH   8  10
ENDBRANCH   7   8
ENDBRANCH   6   7
ENDBRANCH   5   6
ENDBRANCH   4   5
ENDBRANCH   3   4
ENDBRANCH   2   3
ENDBRANCH   1   2
BRANCH   1  75
ATOM     75  C   UNL     1       3.702  -1.744  -3.364  1.00  0.00     0.188 C 
BRANCH  75  76
ATOM     76  C   UNL     1       4.393  -0.403  -3.697  1.00  0.00     0.188 C 
BRANCH  76  77
ATOM     77  O   UNL     1       3.532   0.625  -4.168  1.00  0.00    -0.376 OA
BRANCH  77  78
ATOM     78  C   UNL     1       3.567   0.863  -5.572  1.00  0.00     0.202 C 
BRANCH  78  79
ATOM     79  C   UNL     1       2.831  -0.194  -6.408  1.00  0.00     0.261 C 
BRANCH  79  80
ATOM     80  O   UNL     1       3.404  -1.512  -6.324  1.00  0.00    -0.460 OA
BRANCH  80  81
ATOM     81  C   UNL     1       4.640  -1.686  -6.853  1.00  0.00     0.338 C 
ATOM     82  O   UNL     1       5.255  -0.908  -7.545  1.00  0.00    -0.246 OA
BRANCH  81  83
ATOM     83  C   UNL     1       5.229  -2.869  -6.175  1.00  0.00     0.062 A 
ATOM     84  C   UNL     1       6.427  -2.675  -5.471  1.00  0.00     0.016 A 
ATOM     85  C   UNL     1       4.567  -4.103  -6.119  1.00  0.00     0.041 A 
ATOM     86  C   UNL     1       6.918  -3.678  -4.639  1.00  0.00     0.003 A 
ATOM     87  C   UNL     1       5.145  -5.160  -5.396  1.00  0.00     0.039 A 
ATOM     88  C   UNL     1       6.280  -4.915  -4.604  1.00  0.00     0.026 A 
BRANCH  87  89
ATOM     89  N   UNL     1       4.901  -6.515  -5.800  1.00  0.00    -0.355 N 
ATOM     90  H   UNL     1       4.147  -7.045  -5.454  1.00  0.00     0.167 HD
BRANCH  89  91
ATOM     91  C   UNL     1       5.843  -7.039  -6.748  1.00  0.00     0.050 A 
ATOM     92  C   UNL     1       6.019  -6.330  -7.944  1.00  0.00     0.047 A 
ATOM     93  C   UNL     1       6.713  -8.110  -6.448  1.00  0.00     0.027 A 
ATOM     94  C   UNL     1       7.141  -6.573  -8.697  1.00  0.00     0.114 A 
ATOM     95  C   UNL     1       7.809  -8.296  -7.326  1.00  0.00     0.072 A 
ATOM     96  C   UNL     1       6.562  -8.984  -5.347  1.00  0.00     0.051 A 
ATOM     97  N   UNL     1       8.039  -7.526  -8.399  1.00  0.00    -0.256 NA
ATOM     98  C   UNL     1       8.709  -9.320  -7.082  1.00  0.00     0.032 A 
ATOM     99  C   UNL     1       7.458 -10.033  -5.165  1.00  0.00     0.124 A 
ATOM    100  C   UNL     1       8.534 -10.207  -6.021  1.00  0.00     0.041 A 
ATOM    101  F   UNL     1       7.277 -10.897  -4.158  1.00  0.00    -0.207 F 
ENDBRANCH  89  91
ENDBRANCH  87  89
ENDBRANCH  81  83
ENDBRANCH  80  81
ENDBRANCH  79  80
ENDBRANCH  78  79
ENDBRANCH  77  78
ENDBRANCH  76  77
ENDBRANCH  75  76
ENDBRANCH   1  75
TORSDOF 22
