REMARK SMILES O=C(OCCOCCOCCOCCOC(=O)c1ccc(S(=O)(=O)Cc2ncccn2)c(F)c1)c1ccc(-c2c3nc(c(-c4c(F)c(F)c(F)c(F)c4F)c4ccc([nH]4)c(-c4c(F)c(F)c(F)c(F)c4F)c4nc(c(-c5c(F)c(F)c(F)c(F)c5F)c5ccc2[nH]5)C=C4)C=C3)cc1
REMARK SMILES IDX 10 1 9 2 8 3 7 4 6 5 5 6 4 7 3 8 2 9 1 10 35 11 36 12 97 13
REMARK SMILES IDX 37 14 96 15 38 16 39 17 40 18 90 19 41 20 95 21 89 22 91 23
REMARK SMILES IDX 42 24 94 25 88 26 87 27 43 29 75 30 55 31 74 32 56 33 59 34
REMARK SMILES IDX 73 35 92 36 57 37 58 38 72 40 93 41 60 42 44 43 45 44 53 45
REMARK SMILES IDX 46 46 47 47 51 48 54 49 48 50 49 51 52 52 50 53 76 54 77 55
REMARK SMILES IDX 85 56 78 57 79 58 83 59 86 60 80 61 81 62 84 63 82 64 61 65
REMARK SMILES IDX 62 66 70 67 63 68 64 69 68 70 71 71 65 72 66 73 69 74 67 75
REMARK SMILES IDX 11 76 12 77 13 78 14 79 15 80 16 81 17 82 18 83 19 84 34 85
REMARK SMILES IDX 20 86 32 87 21 88 33 89 22 90 23 91 24 92 25 93 26 94 27 95
REMARK SMILES IDX 31 96 28 97 30 98 29 99
REMARK H PARENT 91 28 59 39
REMARK Flexibility Score: inf
ROOT
ATOM      1  C   UNL     1       3.610  -0.077  -3.795  1.00  0.00     0.188 C 
ENDROOT
BRANCH   1   2
ATOM      2  O   UNL     1       2.193   0.031  -3.753  1.00  0.00    -0.377 OA
BRANCH   2   3
ATOM      3  C   UNL     1       1.623   0.414  -2.505  1.00  0.00     0.188 C 
BRANCH   3   4
ATOM      4  C   UNL     1       2.126  -0.382  -1.303  1.00  0.00     0.188 C 
BRANCH   4   5
ATOM      5  O   UNL     1       3.483  -0.047  -0.984  1.00  0.00    -0.376 OA
BRANCH   5   6
ATOM      6  C   UNL     1       4.306  -1.155  -0.611  1.00  0.00     0.202 C 
BRANCH   6   7
ATOM      7  C   UNL     1       4.167  -1.588   0.850  1.00  0.00     0.261 C 
BRANCH   7   8
ATOM      8  O   UNL     1       2.827  -1.453   1.341  1.00  0.00    -0.460 OA
BRANCH   8   9
ATOM      9  C   UNL     1       2.236  -0.363   1.892  1.00  0.00     0.338 C 
ATOM     10  O   UNL     1       1.066  -0.469   2.259  1.00  0.00    -0.246 OA
BRANCH   9  11
ATOM     11  C   UNL     1       2.907   0.965   2.096  1.00  0.00     0.060 A 
ATOM     12  C   UNL     1       4.099   1.385   1.504  1.00  0.00     0.016 A 
ATOM     13  C   UNL     1       2.259   1.869   2.960  1.00  0.00     0.016 A 
ATOM     14  C   UNL     1       4.692   2.594   1.832  1.00  0.00     0.010 A 
ATOM     15  C   UNL     1       2.839   3.098   3.293  1.00  0.00     0.010 A 
ATOM     16  C   UNL     1       4.092   3.425   2.770  1.00  0.00    -0.014 A 
BRANCH  16  17
ATOM     17  C   UNL     1       4.952   4.452   3.380  1.00  0.00     0.031 A 
ATOM     18  C   UNL     1       5.610   4.101   4.683  1.00  0.00     0.074 A 
ATOM     19  C   UNL     1       5.301   5.543   2.679  1.00  0.00     0.049 A 
ATOM     20  N   UNL     1       6.431   4.800   5.416  1.00  0.00    -0.248 NA
ATOM     21  C   UNL     1       5.323   2.757   5.219  1.00  0.00     0.031 C 
ATOM     22  C   UNL     1       4.839   5.854   1.326  1.00  0.00     0.029 A 
ATOM     23  N   UNL     1       6.163   6.560   2.985  1.00  0.00    -0.354 N 
ATOM     24  C   UNL     1       6.735   3.993   6.505  1.00  0.00     0.074 A 
ATOM     25  C   UNL     1       6.012   2.755   6.347  1.00  0.00     0.031 C 
ATOM     26  C   UNL     1       5.446   6.976   0.907  1.00  0.00     0.029 A 
ATOM     27  C   UNL     1       6.285   7.492   1.985  1.00  0.00     0.049 A 
ATOM     28  H   UNL     1       6.650   6.617   3.839  1.00  0.00     0.167 HD
ATOM     29  C   UNL     1       7.550   4.273   7.546  1.00  0.00     0.037 A 
ATOM     30  C   UNL     1       6.981   8.644   1.969  1.00  0.00     0.037 A 
ATOM     31  C   UNL     1       8.253   5.519   7.668  1.00  0.00     0.049 A 
ATOM     32  C   UNL     1       7.790   8.992   3.191  1.00  0.00     0.074 A 
ATOM     33  C   UNL     1       9.020   5.984   8.717  1.00  0.00     0.029 A 
ATOM     34  N   UNL     1       8.269   6.500   6.684  1.00  0.00    -0.354 N 
ATOM     35  N   UNL     1       7.983   8.284   4.280  1.00  0.00    -0.248 NA
ATOM     36  C   UNL     1       8.465  10.294   3.193  1.00  0.00     0.031 C 
ATOM     37  C   UNL     1       9.465   7.267   8.384  1.00  0.00     0.029 A 
ATOM     38  C   UNL     1       9.028   7.576   7.103  1.00  0.00     0.049 A 
ATOM     39  H   UNL     1       7.808   6.438   5.816  1.00  0.00     0.167 HD
ATOM     40  C   UNL     1       8.812   9.043   5.092  1.00  0.00     0.074 A 
ATOM     41  C   UNL     1       9.097  10.264   4.360  1.00  0.00     0.031 C 
ATOM     42  C   UNL     1       9.294   8.764   6.329  1.00  0.00     0.037 A 
BRANCH  29  43
ATOM     43  C   UNL     1       7.639   3.252   8.641  1.00  0.00     0.064 A 
ATOM     44  C   UNL     1       7.011   3.488   9.874  1.00  0.00     0.173 A 
ATOM     45  C   UNL     1       8.297   2.025   8.466  1.00  0.00     0.173 A 
ATOM     46  F   UNL     1       6.356   4.638  10.090  1.00  0.00    -0.203 F 
ATOM     47  C   UNL     1       7.040   2.535  10.889  1.00  0.00     0.198 A 
ATOM     48  C   UNL     1       8.299   1.062   9.473  1.00  0.00     0.198 A 
ATOM     49  F   UNL     1       8.882   1.734   7.293  1.00  0.00    -0.203 F 
ATOM     50  F   UNL     1       6.436   2.786  12.059  1.00  0.00    -0.200 F 
ATOM     51  C   UNL     1       7.675   1.319  10.684  1.00  0.00     0.200 A 
ATOM     52  F   UNL     1       8.879  -0.127   9.260  1.00  0.00    -0.200 F 
ATOM     53  F   UNL     1       7.671   0.389  11.649  1.00  0.00    -0.200 F 
ENDBRANCH  29  43
BRANCH  30  54
ATOM     54  C   UNL     1       6.908   9.536   0.782  1.00  0.00     0.064 A 
ATOM     55  C   UNL     1       5.700  10.149   0.410  1.00  0.00     0.173 A 
ATOM     56  C   UNL     1       8.025   9.765  -0.032  1.00  0.00     0.173 A 
ATOM     57  F   UNL     1       4.598   9.968   1.155  1.00  0.00    -0.203 F 
ATOM     58  C   UNL     1       5.604  10.925  -0.743  1.00  0.00     0.198 A 
ATOM     59  C   UNL     1       7.936  10.567  -1.170  1.00  0.00     0.198 A 
ATOM     60  F   UNL     1       9.209   9.222   0.287  1.00  0.00    -0.203 F 
ATOM     61  F   UNL     1       4.426  11.459  -1.093  1.00  0.00    -0.200 F 
ATOM     62  C   UNL     1       6.724  11.137  -1.531  1.00  0.00     0.200 A 
ATOM     63  F   UNL     1       9.026  10.789  -1.918  1.00  0.00    -0.200 F 
ATOM     64  F   UNL     1       6.635  11.889  -2.636  1.00  0.00    -0.200 F 
ENDBRANCH  30  54
BRANCH  42  65
ATOM     65  C   UNL     1      10.208   9.774   6.954  1.00  0.00     0.064 A 
ATOM     66  C   UNL     1      11.570   9.479   7.118  1.00  0.00     0.173 A 
ATOM     67  C   UNL     1       9.721  10.977   7.479  1.00  0.00     0.173 A 
ATOM     68  F   UNL     1      12.076   8.332   6.641  1.00  0.00    -0.203 F 
ATOM     69  C   UNL     1      12.408  10.348   7.807  1.00  0.00     0.198 A 
ATOM     70  C   UNL     1      10.570  11.858   8.142  1.00  0.00     0.198 A 
ATOM     71  F   UNL     1       8.427  11.302   7.337  1.00  0.00    -0.203 F 
ATOM     72  F   UNL     1      13.696  10.027   7.990  1.00  0.00    -0.200 F 
ATOM     73  C   UNL     1      11.909  11.537   8.315  1.00  0.00     0.200 A 
ATOM     74  F   UNL     1      10.092  13.017   8.614  1.00  0.00    -0.200 F 
ATOM     75  F   UNL     1      12.719  12.376   8.975  1.00  0.00    -0.200 F 
ENDBRANCH  42  65
ENDBRANCH  16  17
ENDBRANCH   9  11
ENDBRANCH   8   9
ENDBRANCH   7   8
ENDBRANCH   6   7
ENDBRANCH   5   6
ENDBRANCH   4   5
ENDBRANCH   3   4
ENDBRANCH   2   3
ENDBRANCH   1   2
BRANCH   1  76
ATOM     76  C   UNL     1       4.440   1.181  -3.456  1.00  0.00     0.188 C 
BRANCH  76  77
ATOM     77  O   UNL     1       3.647   2.319  -3.176  1.00  0.00    -0.376 OA
BRANCH  77  78
ATOM     78  C   UNL     1       3.529   3.279  -4.216  1.00  0.00     0.202 C 
BRANCH  78  79
ATOM     79  C   UNL     1       3.011   2.843  -5.602  1.00  0.00     0.261 C 
BRANCH  79  80
ATOM     80  O   UNL     1       3.538   1.620  -6.150  1.00  0.00    -0.460 OA
BRANCH  80  81
ATOM     81  C   UNL     1       4.745   1.631  -6.766  1.00  0.00     0.338 C 
ATOM     82  O   UNL     1       5.481   2.573  -6.929  1.00  0.00    -0.246 OA
BRANCH  81  83
ATOM     83  C   UNL     1       5.116   0.205  -6.977  1.00  0.00     0.063 A 
ATOM     84  C   UNL     1       4.446  -0.608  -7.896  1.00  0.00     0.017 A 
ATOM     85  C   UNL     1       6.032  -0.362  -6.085  1.00  0.00     0.056 A 
ATOM     86  C   UNL     1       4.764  -1.973  -7.968  1.00  0.00     0.024 A 
ATOM     87  C   UNL     1       6.204  -1.740  -6.056  1.00  0.00     0.142 A 
ATOM     88  C   UNL     1       5.670  -2.534  -7.052  1.00  0.00     0.103 A 
ATOM     89  F   UNL     1       6.841  -2.265  -5.001  1.00  0.00    -0.206 F 
BRANCH  88  90
ATOM     90  S   UNL     1       6.145  -4.224  -7.262  1.00  0.00     0.188 S 
ATOM     91  O   UNL     1       4.955  -4.976  -6.887  1.00  0.00    -0.223 OA
ATOM     92  O   UNL     1       6.647  -4.339  -8.621  1.00  0.00    -0.223 OA
BRANCH  90  93
ATOM     93  C   UNL     1       7.407  -4.728  -6.150  1.00  0.00     0.219 C 
BRANCH  93  94
ATOM     94  C   UNL     1       8.717  -4.029  -6.343  1.00  0.00     0.143 A 
ATOM     95  N   UNL     1       8.748  -2.717  -6.637  1.00  0.00    -0.240 NA
ATOM     96  N   UNL     1       9.803  -4.706  -5.913  1.00  0.00    -0.240 NA
ATOM     97  C   UNL     1       9.905  -2.056  -6.438  1.00  0.00     0.115 A 
ATOM     98  C   UNL     1      10.949  -4.009  -5.768  1.00  0.00     0.115 A 
ATOM     99  C   UNL     1      11.050  -2.659  -5.991  1.00  0.00     0.040 A 
ENDBRANCH  93  94
ENDBRANCH  90  93
ENDBRANCH  88  90
ENDBRANCH  81  83
ENDBRANCH  80  81
ENDBRANCH  79  80
ENDBRANCH  78  79
ENDBRANCH  77  78
ENDBRANCH  76  77
ENDBRANCH   1  76
TORSDOF 23
