REMARK SMILES Cc1n[nH]c(C(=O)N[C@@H](CC(C)C)C(=O)OCCOCCOCCOCCOC(=O)c2ccc(-c3c4nc(c(-c5c(F)c(F)c(F)c(F)c5F)c5ccc([nH]5)c(-c5c(F)c(F)c(F)c(F)c5F)c5nc(c(-c6c(F)c(F)c(F)c(F)c6F)c6ccc3[nH]6)C=C5)C=C4)cc2)n1
REMARK SMILES IDX 22 1 21 2 20 3 19 4 18 5 17 6 16 7 14 8 15 9 9 10 8 11 6 12
REMARK SMILES IDX 7 13 5 15 1 16 2 17 3 18 94 19 4 20 10 22 11 23 12 24 13 25
REMARK SMILES IDX 23 26 24 27 25 28 26 29 27 30 28 31 29 32 30 33 31 34 32 35
REMARK SMILES IDX 93 36 33 37 92 38 34 39 35 40 36 41 86 42 37 43 91 44 85 45
REMARK SMILES IDX 87 46 38 47 90 48 84 49 83 50 39 52 71 53 51 54 70 55 52 56
REMARK SMILES IDX 55 57 69 58 88 59 53 60 54 61 68 63 89 64 56 65 40 66 41 67
REMARK SMILES IDX 49 68 42 69 43 70 47 71 50 72 44 73 45 74 48 75 46 76 72 77
REMARK SMILES IDX 73 78 81 79 74 80 75 81 79 82 82 83 76 84 77 85 80 86 78 87
REMARK SMILES IDX 57 88 58 89 66 90 59 91 60 92 64 93 67 94 61 95 62 96 65 97
REMARK SMILES IDX 63 98
REMARK H PARENT 8 14 4 21 87 51 55 62
REMARK Flexibility Score: inf
ROOT
ATOM      1  O   UNL     1      -1.338   7.510  -2.599  1.00  0.00    -0.377 OA
ENDROOT
BRANCH   1   2
ATOM      2  C   UNL     1      -1.147   6.122  -2.392  1.00  0.00     0.188 C 
BRANCH   2   3
ATOM      3  C   UNL     1      -2.427   5.255  -2.416  1.00  0.00     0.188 C 
BRANCH   3   4
ATOM      4  O   UNL     1      -3.675   5.793  -2.842  1.00  0.00    -0.376 OA
BRANCH   4   5
ATOM      5  C   UNL     1      -4.022   7.126  -2.500  1.00  0.00     0.202 C 
BRANCH   5   6
ATOM      6  C   UNL     1      -3.947   7.545  -1.029  1.00  0.00     0.261 C 
BRANCH   6   7
ATOM      7  O   UNL     1      -2.792   7.053  -0.320  1.00  0.00    -0.462 OA
BRANCH   7   8
ATOM      8  C   UNL     1      -3.013   6.187   0.694  1.00  0.00     0.328 C 
ATOM      9  O   UNL     1      -4.118   5.776   1.031  1.00  0.00    -0.250 OA
BRANCH   8  10
ATOM     10  C   UNL     1      -1.738   5.847   1.500  1.00  0.00     0.192 C 
BRANCH  10  11
ATOM     11  N   UNL     1      -0.417   5.914   0.875  1.00  0.00    -0.336 N 
ATOM     12  C   UNL     1       0.519   4.965   0.509  1.00  0.00     0.289 C 
ATOM     13  O   UNL     1       1.606   5.435   0.159  1.00  0.00    -0.266 OA
ATOM     14  H   UNL     1      -0.133   6.834   0.670  1.00  0.00     0.164 HD
BRANCH  12  15
ATOM     15  C   UNL     1       0.248   3.535   0.469  1.00  0.00     0.214 A 
ATOM     16  C   UNL     1       1.195   0.140  -0.038  1.00  0.00     0.092 C 
ATOM     17  C   UNL     1       0.524   1.436   0.202  1.00  0.00     0.148 A 
ATOM     18  N   UNL     1      -0.801   1.548   0.328  1.00  0.00    -0.159 NA
ATOM     19  N   UNL     1       1.196   2.625   0.281  1.00  0.00    -0.207 NA
ATOM     20  N   UNL     1      -0.947   2.874   0.478  1.00  0.00    -0.255 N 
ATOM     21  H   UNL     1      -1.819   3.321   0.583  1.00  0.00     0.192 HD
ENDBRANCH  12  15
ENDBRANCH  10  11
BRANCH  10  22
ATOM     22  C   UNL     1      -1.754   6.684   2.788  1.00  0.00     0.040 C 
BRANCH  22  23
ATOM     23  C   UNL     1      -1.306   8.166   2.728  1.00  0.00    -0.015 C 
ATOM     24  C   UNL     1      -2.027   9.044   1.706  1.00  0.00     0.007 C 
ATOM     25  C   UNL     1      -1.506   8.767   4.122  1.00  0.00     0.007 C 
ENDBRANCH  22  23
ENDBRANCH  10  22
ENDBRANCH   8  10
ENDBRANCH   7   8
ENDBRANCH   6   7
ENDBRANCH   5   6
ENDBRANCH   4   5
ENDBRANCH   3   4
ENDBRANCH   2   3
ENDBRANCH   1   2
BRANCH   1  26
ATOM     26  C   UNL     1      -0.992   7.967  -3.900  1.00  0.00     0.188 C 
BRANCH  26  27
ATOM     27  C   UNL     1      -1.550   7.161  -5.100  1.00  0.00     0.188 C 
BRANCH  27  28
ATOM     28  O   UNL     1      -1.490   5.745  -4.945  1.00  0.00    -0.376 OA
BRANCH  28  29
ATOM     29  C   UNL     1      -0.534   4.941  -5.621  1.00  0.00     0.202 C 
BRANCH  29  30
ATOM     30  C   UNL     1       0.930   5.044  -5.181  1.00  0.00     0.261 C 
BRANCH  30  31
ATOM     31  O   UNL     1       1.358   6.377  -4.989  1.00  0.00    -0.460 OA
BRANCH  31  32
ATOM     32  C   UNL     1       1.321   7.139  -6.089  1.00  0.00     0.338 C 
ATOM     33  O   UNL     1       0.948   6.812  -7.212  1.00  0.00    -0.246 OA
BRANCH  32  34
ATOM     34  C   UNL     1       1.867   8.453  -5.760  1.00  0.00     0.060 A 
ATOM     35  C   UNL     1       1.845   9.376  -6.801  1.00  0.00     0.016 A 
ATOM     36  C   UNL     1       2.747   8.543  -4.669  1.00  0.00     0.016 A 
ATOM     37  C   UNL     1       2.970  10.130  -6.967  1.00  0.00     0.010 A 
ATOM     38  C   UNL     1       3.871   9.295  -4.836  1.00  0.00     0.010 A 
ATOM     39  C   UNL     1       4.014   9.948  -6.053  1.00  0.00    -0.014 A 
BRANCH  39  40
ATOM     40  C   UNL     1       5.310  10.434  -6.437  1.00  0.00     0.031 A 
ATOM     41  C   UNL     1       5.418  11.887  -6.264  1.00  0.00     0.074 A 
ATOM     42  C   UNL     1       6.273   9.591  -6.849  1.00  0.00     0.049 A 
ATOM     43  N   UNL     1       5.465  12.790  -7.184  1.00  0.00    -0.248 NA
ATOM     44  C   UNL     1       5.221  12.406  -4.902  1.00  0.00     0.031 C 
ATOM     45  C   UNL     1       6.307   8.125  -6.776  1.00  0.00     0.029 A 
ATOM     46  N   UNL     1       7.493   9.899  -7.352  1.00  0.00    -0.354 N 
ATOM     47  C   UNL     1       5.522  13.993  -6.494  1.00  0.00     0.074 A 
ATOM     48  C   UNL     1       5.139  13.714  -5.136  1.00  0.00     0.031 C 
ATOM     49  C   UNL     1       7.572   7.698  -7.000  1.00  0.00     0.029 A 
ATOM     50  C   UNL     1       8.389   8.840  -7.367  1.00  0.00     0.049 A 
ATOM     51  H   UNL     1       7.724  10.798  -7.679  1.00  0.00     0.167 HD
ATOM     52  C   UNL     1       6.189  15.053  -7.017  1.00  0.00     0.037 A 
ATOM     53  C   UNL     1       9.725   8.967  -7.557  1.00  0.00     0.037 A 
ATOM     54  C   UNL     1       6.345  14.922  -8.443  1.00  0.00     0.049 A 
ATOM     55  C   UNL     1       9.948  10.293  -8.199  1.00  0.00     0.074 A 
ATOM     56  C   UNL     1       5.473  14.851  -9.511  1.00  0.00     0.029 A 
ATOM     57  N   UNL     1       7.549  14.456  -8.910  1.00  0.00    -0.354 N 
ATOM     58  N   UNL     1       9.541  10.596  -9.403  1.00  0.00    -0.248 NA
ATOM     59  C   UNL     1      10.204  11.430  -7.326  1.00  0.00     0.031 C 
ATOM     60  C   UNL     1       6.073  13.938 -10.428  1.00  0.00     0.029 A 
ATOM     61  C   UNL     1       7.299  13.535  -9.894  1.00  0.00     0.049 A 
ATOM     62  H   UNL     1       8.438  14.735  -8.593  1.00  0.00     0.167 HD
ATOM     63  C   UNL     1       9.106  11.912  -9.315  1.00  0.00     0.074 A 
ATOM     64  C   UNL     1       9.610  12.395  -8.033  1.00  0.00     0.031 C 
ATOM     65  C   UNL     1       8.141  12.389 -10.156  1.00  0.00     0.037 A 
BRANCH  52  66
ATOM     66  C   UNL     1       7.050  15.961  -6.178  1.00  0.00     0.064 A 
ATOM     67  C   UNL     1       7.583  17.120  -6.767  1.00  0.00     0.173 A 
ATOM     68  C   UNL     1       7.607  15.600  -4.929  1.00  0.00     0.173 A 
ATOM     69  F   UNL     1       7.146  17.538  -7.965  1.00  0.00    -0.203 F 
ATOM     70  C   UNL     1       8.641  17.820  -6.183  1.00  0.00     0.198 A 
ATOM     71  C   UNL     1       8.620  16.335  -4.321  1.00  0.00     0.198 A 
ATOM     72  F   UNL     1       7.288  14.466  -4.295  1.00  0.00    -0.203 F 
ATOM     73  F   UNL     1       9.203  18.841  -6.842  1.00  0.00    -0.200 F 
ATOM     74  C   UNL     1       9.160  17.425  -4.963  1.00  0.00     0.200 A 
ATOM     75  F   UNL     1       9.120  15.920  -3.148  1.00  0.00    -0.200 F 
ATOM     76  F   UNL     1      10.213  18.058  -4.432  1.00  0.00    -0.200 F 
ENDBRANCH  52  66
BRANCH  53  77
ATOM     77  C   UNL     1      10.797   8.249  -6.825  1.00  0.00     0.064 A 
ATOM     78  C   UNL     1      12.116   8.242  -7.304  1.00  0.00     0.173 A 
ATOM     79  C   UNL     1      10.608   7.799  -5.503  1.00  0.00     0.173 A 
ATOM     80  F   UNL     1      12.388   8.706  -8.533  1.00  0.00    -0.203 F 
ATOM     81  C   UNL     1      13.185   7.825  -6.502  1.00  0.00     0.198 A 
ATOM     82  C   UNL     1      11.673   7.379  -4.706  1.00  0.00     0.198 A 
ATOM     83  F   UNL     1       9.400   7.852  -4.923  1.00  0.00    -0.203 F 
ATOM     84  F   UNL     1      14.439   7.889  -6.972  1.00  0.00    -0.200 F 
ATOM     85  C   UNL     1      12.963   7.403  -5.201  1.00  0.00     0.200 A 
ATOM     86  F   UNL     1      11.449   7.013  -3.436  1.00  0.00    -0.200 F 
ATOM     87  F   UNL     1      13.992   7.063  -4.412  1.00  0.00    -0.200 F 
ENDBRANCH  53  77
BRANCH  65  88
ATOM     88  C   UNL     1       7.766  11.536 -11.336  1.00  0.00     0.064 A 
ATOM     89  C   UNL     1       7.120  10.291 -11.231  1.00  0.00     0.173 A 
ATOM     90  C   UNL     1       7.924  12.074 -12.620  1.00  0.00     0.173 A 
ATOM     91  F   UNL     1       6.850   9.757 -10.033  1.00  0.00    -0.203 F 
ATOM     92  C   UNL     1       6.684   9.605 -12.364  1.00  0.00     0.198 A 
ATOM     93  C   UNL     1       7.457  11.404 -13.747  1.00  0.00     0.198 A 
ATOM     94  F   UNL     1       8.485  13.283 -12.775  1.00  0.00    -0.203 F 
ATOM     95  F   UNL     1       6.073   8.418 -12.239  1.00  0.00    -0.200 F 
ATOM     96  C   UNL     1       6.844  10.167 -13.620  1.00  0.00     0.200 A 
ATOM     97  F   UNL     1       7.570  11.974 -14.954  1.00  0.00    -0.200 F 
ATOM     98  F   UNL     1       6.382   9.532 -14.707  1.00  0.00    -0.200 F 
ENDBRANCH  65  88
ENDBRANCH  39  40
ENDBRANCH  32  34
ENDBRANCH  31  32
ENDBRANCH  30  31
ENDBRANCH  29  30
ENDBRANCH  28  29
ENDBRANCH  27  28
ENDBRANCH  26  27
ENDBRANCH   1  26
TORSDOF 24
