REMARK SMILES CC(C)[C@H](NC(=O)Cn1ccc2c(Br)cccc21)C(=O)OCCOCCOCCOCCOC(=O)c1ccc(-c2c3nc(c(-c4c(F)c(F)c(F)c(F)c4F)c4ccc([nH]4)c(-c4c(F)c(F)c(F)c(F)c4F)c4nc(c(-c5c(F)c(F)c(F)c(F)c5F)c5ccc2[nH]5)C=C4)C=C3)cc1
REMARK SMILES IDX 26 1 25 2 24 3 23 4 22 5 21 6 19 7 20 8 4 9 2 10 1 11 3 12
REMARK SMILES IDX 5 13 6 14 7 16 8 17 9 18 10 19 18 20 11 21 12 22 17 23 13 24
REMARK SMILES IDX 16 25 14 26 15 27 27 28 28 29 29 30 30 31 31 32 32 33 33 34
REMARK SMILES IDX 34 35 35 36 36 37 37 38 98 39 38 40 97 41 39 42 40 43 41 44
REMARK SMILES IDX 91 45 42 46 96 47 90 48 92 49 43 50 95 51 89 52 88 53 44 55
REMARK SMILES IDX 76 56 56 57 75 58 57 59 60 60 74 61 93 62 58 63 59 64 73 66
REMARK SMILES IDX 94 67 61 68 45 69 46 70 54 71 47 72 48 73 52 74 55 75 49 76
REMARK SMILES IDX 50 77 53 78 51 79 77 80 78 81 86 82 79 83 80 84 84 85 87 86
REMARK SMILES IDX 81 87 82 88 85 89 83 90 62 91 63 92 71 93 64 94 65 95 69 96
REMARK SMILES IDX 72 97 66 98 67 99 70 100 68 101
REMARK H PARENT 5 15 92 54 60 65
REMARK Flexibility Score: inf
ROOT
ATOM      1  C   UNL     1      -0.132   4.113  -1.002  1.00  0.00     0.188 C 
ENDROOT
BRANCH   1   2
ATOM      2  C   UNL     1      -1.538   4.464  -1.524  1.00  0.00     0.188 C 
BRANCH   2   3
ATOM      3  O   UNL     1      -2.336   5.477  -0.927  1.00  0.00    -0.376 OA
BRANCH   3   4
ATOM      4  C   UNL     1      -2.441   5.651   0.475  1.00  0.00     0.202 C 
BRANCH   4   5
ATOM      5  C   UNL     1      -2.695   4.483   1.431  1.00  0.00     0.261 C 
BRANCH   5   6
ATOM      6  O   UNL     1      -1.923   3.303   1.207  1.00  0.00    -0.462 OA
BRANCH   6   7
ATOM      7  C   UNL     1      -2.542   2.328   0.493  1.00  0.00     0.328 C 
ATOM      8  O   UNL     1      -3.649   2.439  -0.024  1.00  0.00    -0.250 OA
BRANCH   7   9
ATOM      9  C   UNL     1      -1.740   1.010   0.494  1.00  0.00     0.194 C 
BRANCH   9  10
ATOM     10  C   UNL     1      -2.533  -0.045   1.292  1.00  0.00     0.017 C 
ATOM     11  C   UNL     1      -3.571   0.518   2.274  1.00  0.00     0.010 C 
ATOM     12  C   UNL     1      -3.188  -1.039   0.335  1.00  0.00     0.010 C 
ENDBRANCH   9  10
BRANCH   9  13
ATOM     13  N   UNL     1      -0.322   1.209   0.871  1.00  0.00    -0.341 N 
ATOM     14  C   UNL     1       0.734   0.359   1.036  1.00  0.00     0.240 C 
ATOM     15  H   UNL     1      -0.091   2.152   1.038  1.00  0.00     0.164 HD
ATOM     16  O   UNL     1       1.813   0.661   0.517  1.00  0.00    -0.273 OA
BRANCH  14  17
ATOM     17  C   UNL     1       0.643  -0.830   1.969  1.00  0.00     0.222 C 
BRANCH  17  18
ATOM     18  N   UNL     1       0.144  -0.493   3.309  1.00  0.00    -0.338 N 
ATOM     19  C   UNL     1      -0.606  -1.372   4.058  1.00  0.00     0.087 A 
ATOM     20  C   UNL     1       0.079   0.771   3.877  1.00  0.00     0.050 A 
ATOM     21  C   UNL     1      -1.348  -0.628   4.948  1.00  0.00     0.029 A 
ATOM     22  C   UNL     1      -0.973   0.738   4.801  1.00  0.00     0.014 A 
ATOM     23  C   UNL     1       0.759   1.968   3.578  1.00  0.00     0.027 A 
ATOM     24  C   UNL     1      -1.432   1.963   5.336  1.00  0.00     0.027 A 
ATOM     25  C   UNL     1       0.267   3.164   4.102  1.00  0.00     0.003 A 
ATOM     26  Br  UNL     1      -2.927   2.013   6.496  1.00  0.00    -0.050 Br
ATOM     27  C   UNL     1      -0.828   3.168   4.957  1.00  0.00     0.016 A 
ENDBRANCH  17  18
ENDBRANCH  14  17
ENDBRANCH   9  13
ENDBRANCH   7   9
ENDBRANCH   6   7
ENDBRANCH   5   6
ENDBRANCH   4   5
ENDBRANCH   3   4
ENDBRANCH   2   3
ENDBRANCH   1   2
BRANCH   1  28
ATOM     28  O   UNL     1       0.184   4.625   0.278  1.00  0.00    -0.377 OA
BRANCH  28  29
ATOM     29  C   UNL     1       0.883   5.872   0.294  1.00  0.00     0.188 C 
BRANCH  29  30
ATOM     30  C   UNL     1       0.528   6.949  -0.770  1.00  0.00     0.188 C 
BRANCH  30  31
ATOM     31  O   UNL     1       0.281   6.458  -2.082  1.00  0.00    -0.376 OA
BRANCH  31  32
ATOM     32  C   UNL     1       1.255   6.455  -3.115  1.00  0.00     0.202 C 
BRANCH  32  33
ATOM     33  C   UNL     1       2.542   5.649  -2.911  1.00  0.00     0.261 C 
BRANCH  33  34
ATOM     34  O   UNL     1       3.145   5.870  -1.651  1.00  0.00    -0.460 OA
BRANCH  34  35
ATOM     35  C   UNL     1       3.474   7.143  -1.420  1.00  0.00     0.338 C 
ATOM     36  O   UNL     1       3.317   8.112  -2.171  1.00  0.00    -0.246 OA
BRANCH  35  37
ATOM     37  C   UNL     1       4.119   7.239  -0.118  1.00  0.00     0.060 A 
ATOM     38  C   UNL     1       4.269   8.544   0.352  1.00  0.00     0.016 A 
ATOM     39  C   UNL     1       5.018   6.205   0.165  1.00  0.00     0.016 A 
ATOM     40  C   UNL     1       5.526   8.907   0.745  1.00  0.00     0.010 A 
ATOM     41  C   UNL     1       6.282   6.577   0.514  1.00  0.00     0.010 A 
ATOM     42  C   UNL     1       6.530   7.937   0.681  1.00  0.00    -0.014 A 
BRANCH  42  43
ATOM     43  C   UNL     1       7.885   8.386   0.822  1.00  0.00     0.031 A 
ATOM     44  C   UNL     1       8.274   8.523   2.232  1.00  0.00     0.074 A 
ATOM     45  C   UNL     1       8.684   8.581  -0.240  1.00  0.00     0.049 A 
ATOM     46  N   UNL     1       8.461   9.618   2.885  1.00  0.00    -0.248 NA
ATOM     47  C   UNL     1       8.236   7.310   3.064  1.00  0.00     0.031 C 
ATOM     48  C   UNL     1       8.477   8.197  -1.638  1.00  0.00     0.029 A 
ATOM     49  N   UNL     1       9.935   9.098  -0.245  1.00  0.00    -0.354 N 
ATOM     50  C   UNL     1       8.764   9.216   4.177  1.00  0.00     0.074 A 
ATOM     51  C   UNL     1       8.393   7.830   4.280  1.00  0.00     0.031 C 
ATOM     52  C   UNL     1       9.660   8.280  -2.295  1.00  0.00     0.029 A 
ATOM     53  C   UNL     1      10.658   8.836  -1.397  1.00  0.00     0.049 A 
ATOM     54  H   UNL     1      10.301   9.618   0.508  1.00  0.00     0.167 HD
ATOM     55  C   UNL     1       9.561   9.975   4.971  1.00  0.00     0.037 A 
ATOM     56  C   UNL     1      12.006   8.957  -1.492  1.00  0.00     0.037 A 
ATOM     57  C   UNL     1       9.637  11.333   4.498  1.00  0.00     0.049 A 
ATOM     58  C   UNL     1      12.446   9.849  -0.377  1.00  0.00     0.074 A 
ATOM     59  C   UNL     1       8.696  12.321   4.271  1.00  0.00     0.029 A 
ATOM     60  N   UNL     1      10.754  11.717   3.796  1.00  0.00    -0.354 N 
ATOM     61  N   UNL     1      12.159  11.122  -0.309  1.00  0.00    -0.248 NA
ATOM     62  C   UNL     1      12.775   9.218   0.897  1.00  0.00     0.031 C 
ATOM     63  C   UNL     1       9.118  12.967   3.072  1.00  0.00     0.029 A 
ATOM     64  C   UNL     1      10.321  12.382   2.676  1.00  0.00     0.049 A 
ATOM     65  H   UNL     1      11.691  11.546   4.049  1.00  0.00     0.167 HD
ATOM     66  C   UNL     1      11.866  11.352   1.028  1.00  0.00     0.074 A 
ATOM     67  C   UNL     1      12.320  10.156   1.733  1.00  0.00     0.031 C 
ATOM     68  C   UNL     1      11.015  12.350   1.410  1.00  0.00     0.037 A 
BRANCH  55  69
ATOM     69  C   UNL     1      10.544   9.380   5.938  1.00  0.00     0.064 A 
ATOM     70  C   UNL     1      11.170  10.216   6.876  1.00  0.00     0.173 A 
ATOM     71  C   UNL     1      11.094   8.084   5.806  1.00  0.00     0.173 A 
ATOM     72  F   UNL     1      10.752  11.479   7.049  1.00  0.00    -0.203 F 
ATOM     73  C   UNL     1      12.294   9.800   7.592  1.00  0.00     0.198 A 
ATOM     74  C   UNL     1      12.172   7.650   6.570  1.00  0.00     0.198 A 
ATOM     75  F   UNL     1      10.693   7.226   4.860  1.00  0.00    -0.203 F 
ATOM     76  F   UNL     1      12.932  10.669   8.386  1.00  0.00    -0.200 F 
ATOM     77  C   UNL     1      12.792   8.518   7.441  1.00  0.00     0.200 A 
ATOM     78  F   UNL     1      12.651   6.411   6.388  1.00  0.00    -0.200 F 
ATOM     79  F   UNL     1      13.898   8.135   8.090  1.00  0.00    -0.200 F 
ENDBRANCH  55  69
BRANCH  56  80
ATOM     80  C   UNL     1      12.940   8.033  -2.184  1.00  0.00     0.064 A 
ATOM     81  C   UNL     1      14.282   8.393  -2.388  1.00  0.00     0.173 A 
ATOM     82  C   UNL     1      12.618   6.678  -2.405  1.00  0.00     0.173 A 
ATOM     83  F   UNL     1      14.684   9.651  -2.154  1.00  0.00    -0.203 F 
ATOM     84  C   UNL     1      15.247   7.451  -2.762  1.00  0.00     0.198 A 
ATOM     85  C   UNL     1      13.579   5.742  -2.788  1.00  0.00     0.198 A 
ATOM     86  F   UNL     1      11.386   6.210  -2.162  1.00  0.00    -0.203 F 
ATOM     87  F   UNL     1      16.530   7.819  -2.882  1.00  0.00    -0.200 F 
ATOM     88  C   UNL     1      14.896   6.124  -2.951  1.00  0.00     0.200 A 
ATOM     89  F   UNL     1      13.231   4.455  -2.932  1.00  0.00    -0.200 F 
ATOM     90  F   UNL     1      15.829   5.210  -3.248  1.00  0.00    -0.200 F 
ENDBRANCH  56  80
BRANCH  68  91
ATOM     91  C   UNL     1      10.578  13.349   0.375  1.00  0.00     0.064 A 
ATOM     92  C   UNL     1       9.849  13.016  -0.781  1.00  0.00     0.173 A 
ATOM     93  C   UNL     1      10.758  14.712   0.651  1.00  0.00     0.173 A 
ATOM     94  F   UNL     1       9.541  11.743  -1.058  1.00  0.00    -0.203 F 
ATOM     95  C   UNL     1       9.363  14.002  -1.639  1.00  0.00     0.198 A 
ATOM     96  C   UNL     1      10.237  15.695  -0.186  1.00  0.00     0.198 A 
ATOM     97  F   UNL     1      11.395  15.092   1.769  1.00  0.00    -0.203 F 
ATOM     98  F   UNL     1       8.677  13.658  -2.739  1.00  0.00    -0.200 F 
ATOM     99  C   UNL     1       9.549  15.341  -1.335  1.00  0.00     0.200 A 
ATOM    100  F   UNL     1      10.374  16.987   0.141  1.00  0.00    -0.200 F 
ATOM    101  F   UNL     1       9.040  16.290  -2.133  1.00  0.00    -0.200 F 
ENDBRANCH  68  91
ENDBRANCH  42  43
ENDBRANCH  35  37
ENDBRANCH  34  35
ENDBRANCH  33  34
ENDBRANCH  32  33
ENDBRANCH  31  32
ENDBRANCH  30  31
ENDBRANCH  29  30
ENDBRANCH  28  29
ENDBRANCH   1  28
TORSDOF 24
