REMARK SMILES C[NH2+]C[C@@H](C)C(=O)N1CCC([N@@H+]2CCC[C@@H]2C(=O)OCCOCCOCCOCCOC(=O)c2ccc(-c3c4nc(c(-c5c(F)c(F)c(F)c(F)c5F)c5ccc([nH]5)c(-c5c(F)c(F)c(F)c(F)c5F)c5nc(c(-c6c(F)c(F)c(F)c(F)c6F)c6ccc3[nH]6)C=C5)C=C4)cc2)CC1
REMARK SMILES IDX 24 1 23 2 22 3 21 4 20 5 19 6 17 7 18 8 16 9 12 10 13 11
REMARK SMILES IDX 14 13 15 14 11 15 6 16 7 17 8 18 9 19 98 20 10 21 97 22 4 23
REMARK SMILES IDX 5 24 3 25 2 26 1 27 25 30 26 31 27 32 28 33 29 34 30 35
REMARK SMILES IDX 31 36 32 37 33 38 34 39 35 40 96 41 36 42 95 43 37 44 38 45
REMARK SMILES IDX 39 46 89 47 40 48 94 49 88 50 90 51 41 52 93 53 87 54 86 55
REMARK SMILES IDX 42 57 74 58 54 59 73 60 55 61 58 62 72 63 91 64 56 65 57 66
REMARK SMILES IDX 71 68 92 69 59 70 43 71 44 72 52 73 45 74 46 75 50 76 53 77
REMARK SMILES IDX 47 78 48 79 51 80 49 81 75 82 76 83 84 84 77 85 78 86 82 87
REMARK SMILES IDX 85 88 79 89 80 90 83 91 81 92 60 93 61 94 69 95 62 96 63 97
REMARK SMILES IDX 67 98 70 99 64 100 65 101 68 102 66 103
REMARK H PARENT 12 12 2 28 2 29 90 56 58 67
REMARK Flexibility Score: inf
ROOT
ATOM      1  C   UNL     1      -7.420   1.133   1.352  1.00  0.00     0.188 C 
ENDROOT
BRANCH   1   2
ATOM      2  C   UNL     1      -6.534   1.882   2.351  1.00  0.00     0.188 C 
BRANCH   2   3
ATOM      3  O   UNL     1      -5.206   2.210   1.974  1.00  0.00    -0.376 OA
BRANCH   3   4
ATOM      4  C   UNL     1      -4.318   1.232   1.456  1.00  0.00     0.202 C 
BRANCH   4   5
ATOM      5  C   UNL     1      -4.258  -0.163   2.076  1.00  0.00     0.261 C 
BRANCH   5   6
ATOM      6  O   UNL     1      -5.453  -0.947   1.911  1.00  0.00    -0.459 OA
BRANCH   6   7
ATOM      7  C   UNL     1      -6.044  -1.416   3.043  1.00  0.00     0.365 C 
ATOM      8  O   UNL     1      -5.704  -1.077   4.172  1.00  0.00    -0.245 OA
BRANCH   7   9
ATOM      9  C   UNL     1      -7.153  -2.439   2.787  1.00  0.00     0.295 C 
ATOM     10  N   UNL     1      -6.735  -3.824   2.419  1.00  0.00    -0.321 N 
ATOM     11  C   UNL     1      -8.023  -4.465   2.079  1.00  0.00     0.263 C 
ATOM     12  H   UNL     1      -6.220  -4.226   3.202  1.00  0.00     0.349 HD
ATOM     13  C   UNL     1      -8.884  -3.406   1.404  1.00  0.00     0.068 C 
ATOM     14  C   UNL     1      -8.309  -2.073   1.862  1.00  0.00     0.083 C 
BRANCH  10  15
ATOM     15  C   UNL     1      -5.689  -4.042   1.388  1.00  0.00     0.188 C 
ATOM     16  C   UNL     1      -2.833  -2.051  -0.884  1.00  0.00     0.231 C 
ATOM     17  O   UNL     1      -3.455  -1.273  -1.621  1.00  0.00    -0.274 OA
ATOM     18  N   UNL     1      -3.490  -3.119  -0.292  1.00  0.00    -0.342 N 
ATOM     19  C   UNL     1      -4.723  -3.590  -0.907  1.00  0.00     0.125 C 
ATOM     20  C   UNL     1      -3.136  -3.848   0.921  1.00  0.00     0.125 C 
ATOM     21  C   UNL     1      -5.917  -3.393   0.012  1.00  0.00     0.086 C 
ATOM     22  C   UNL     1      -4.266  -3.821   1.962  1.00  0.00     0.086 C 
BRANCH  16  23
ATOM     23  C   UNL     1      -1.307  -1.866  -0.782  1.00  0.00     0.130 C 
ATOM     24  C   UNL     1      -0.595  -3.097  -1.339  1.00  0.00     0.024 C 
BRANCH  23  25
ATOM     25  C   UNL     1      -0.762  -1.367   0.564  1.00  0.00     0.273 C 
BRANCH  25  26
ATOM     26  N   UNL     1       0.669  -1.038   0.604  1.00  0.00    -0.348 N 
ATOM     27  C   UNL     1       1.013   0.170  -0.129  1.00  0.00     0.330 C 
ATOM     28  H   UNL     1       0.944  -0.912   1.579  1.00  0.00     0.346 HD
ATOM     29  H   UNL     1       1.165  -1.809   0.157  1.00  0.00     0.346 HD
ENDBRANCH  25  26
ENDBRANCH  23  25
ENDBRANCH  16  23
ENDBRANCH  10  15
ENDBRANCH   7   9
ENDBRANCH   6   7
ENDBRANCH   5   6
ENDBRANCH   4   5
ENDBRANCH   3   4
ENDBRANCH   2   3
ENDBRANCH   1   2
BRANCH   1  30
ATOM     30  O   UNL     1      -7.867   1.834   0.211  1.00  0.00    -0.377 OA
BRANCH  30  31
ATOM     31  C   UNL     1      -6.866   2.090  -0.758  1.00  0.00     0.188 C 
BRANCH  31  32
ATOM     32  C   UNL     1      -6.302   3.516  -0.694  1.00  0.00     0.188 C 
BRANCH  32  33
ATOM     33  O   UNL     1      -7.122   4.643  -0.385  1.00  0.00    -0.376 OA
BRANCH  33  34
ATOM     34  C   UNL     1      -8.436   4.463   0.114  1.00  0.00     0.202 C 
BRANCH  34  35
ATOM     35  C   UNL     1      -9.513   4.152  -0.941  1.00  0.00     0.261 C 
BRANCH  35  36
ATOM     36  O   UNL     1      -9.073   3.419  -2.092  1.00  0.00    -0.460 OA
BRANCH  36  37
ATOM     37  C   UNL     1      -8.467   4.141  -3.064  1.00  0.00     0.338 C 
ATOM     38  O   UNL     1      -8.299   5.348  -3.109  1.00  0.00    -0.246 OA
BRANCH  37  39
ATOM     39  C   UNL     1      -7.934   3.201  -4.073  1.00  0.00     0.060 A 
ATOM     40  C   UNL     1      -6.572   3.243  -4.395  1.00  0.00     0.016 A 
ATOM     41  C   UNL     1      -8.785   2.296  -4.712  1.00  0.00     0.016 A 
ATOM     42  C   UNL     1      -6.056   2.384  -5.367  1.00  0.00     0.010 A 
ATOM     43  C   UNL     1      -8.277   1.462  -5.710  1.00  0.00     0.010 A 
ATOM     44  C   UNL     1      -6.916   1.521  -6.058  1.00  0.00    -0.014 A 
BRANCH  44  45
ATOM     45  C   UNL     1      -6.452   0.837  -7.288  1.00  0.00     0.031 A 
ATOM     46  C   UNL     1      -6.694   1.520  -8.605  1.00  0.00     0.074 A 
ATOM     47  C   UNL     1      -5.841  -0.359  -7.240  1.00  0.00     0.049 A 
ATOM     48  N   UNL     1      -6.508   1.076  -9.821  1.00  0.00    -0.248 NA
ATOM     49  C   UNL     1      -7.216   2.896  -8.539  1.00  0.00     0.031 C 
ATOM     50  C   UNL     1      -5.487  -1.082  -6.022  1.00  0.00     0.029 A 
ATOM     51  N   UNL     1      -5.427  -1.183  -8.257  1.00  0.00    -0.354 N 
ATOM     52  C   UNL     1      -6.882   2.117 -10.660  1.00  0.00     0.074 A 
ATOM     53  C   UNL     1      -7.336   3.204  -9.821  1.00  0.00     0.031 C 
ATOM     54  C   UNL     1      -4.934  -2.261  -6.362  1.00  0.00     0.029 A 
ATOM     55  C   UNL     1      -4.935  -2.389  -7.819  1.00  0.00     0.049 A 
ATOM     56  H   UNL     1      -5.477  -0.934  -9.208  1.00  0.00     0.167 HD
ATOM     57  C   UNL     1      -6.842   2.164 -12.012  1.00  0.00     0.037 A 
ATOM     58  C   UNL     1      -4.570  -3.479  -8.522  1.00  0.00     0.037 A 
ATOM     59  C   UNL     1      -6.410   1.074 -12.843  1.00  0.00     0.049 A 
ATOM     60  C   UNL     1      -4.665  -3.450 -10.029  1.00  0.00     0.074 A 
ATOM     61  C   UNL     1      -6.355   1.009 -14.223  1.00  0.00     0.029 A 
ATOM     62  N   UNL     1      -5.964  -0.148 -12.364  1.00  0.00    -0.354 N 
ATOM     63  N   UNL     1      -5.018  -2.465 -10.820  1.00  0.00    -0.248 NA
ATOM     64  C   UNL     1      -4.319  -4.690 -10.741  1.00  0.00     0.031 C 
ATOM     65  C   UNL     1      -5.917  -0.270 -14.582  1.00  0.00     0.029 A 
ATOM     66  C   UNL     1      -5.654  -0.984 -13.424  1.00  0.00     0.049 A 
ATOM     67  H   UNL     1      -5.880  -0.387 -11.412  1.00  0.00     0.167 HD
ATOM     68  C   UNL     1      -4.905  -2.954 -12.116  1.00  0.00     0.074 A 
ATOM     69  C   UNL     1      -4.438  -4.319 -12.008  1.00  0.00     0.031 C 
ATOM     70  C   UNL     1      -5.168  -2.333 -13.292  1.00  0.00     0.037 A 
BRANCH  57  71
ATOM     71  C   UNL     1      -7.292   3.430 -12.675  1.00  0.00     0.064 A 
ATOM     72  C   UNL     1      -6.511   4.594 -12.634  1.00  0.00     0.173 A 
ATOM     73  C   UNL     1      -8.494   3.469 -13.397  1.00  0.00     0.173 A 
ATOM     74  F   UNL     1      -5.362   4.612 -11.942  1.00  0.00    -0.203 F 
ATOM     75  C   UNL     1      -6.924   5.756 -13.280  1.00  0.00     0.198 A 
ATOM     76  C   UNL     1      -8.891   4.625 -14.064  1.00  0.00     0.198 A 
ATOM     77  F   UNL     1      -9.277   2.382 -13.467  1.00  0.00    -0.203 F 
ATOM     78  F   UNL     1      -6.179   6.867 -13.199  1.00  0.00    -0.200 F 
ATOM     79  C   UNL     1      -8.108   5.768 -14.002  1.00  0.00     0.200 A 
ATOM     80  F   UNL     1     -10.030   4.631 -14.770  1.00  0.00    -0.200 F 
ATOM     81  F   UNL     1      -8.498   6.883 -14.635  1.00  0.00    -0.200 F 
ENDBRANCH  57  71
BRANCH  58  82
ATOM     82  C   UNL     1      -4.126  -4.716  -7.824  1.00  0.00     0.064 A 
ATOM     83  C   UNL     1      -2.820  -5.204  -7.975  1.00  0.00     0.173 A 
ATOM     84  C   UNL     1      -5.016  -5.473  -7.046  1.00  0.00     0.173 A 
ATOM     85  F   UNL     1      -1.939  -4.535  -8.733  1.00  0.00    -0.203 F 
ATOM     86  C   UNL     1      -2.432  -6.415  -7.403  1.00  0.00     0.198 A 
ATOM     87  C   UNL     1      -4.617  -6.666  -6.447  1.00  0.00     0.198 A 
ATOM     88  F   UNL     1      -6.279  -5.058  -6.873  1.00  0.00    -0.203 F 
ATOM     89  F   UNL     1      -1.197  -6.889  -7.620  1.00  0.00    -0.200 F 
ATOM     90  C   UNL     1      -3.329  -7.143  -6.638  1.00  0.00     0.200 A 
ATOM     91  F   UNL     1      -5.484  -7.361  -5.699  1.00  0.00    -0.200 F 
ATOM     92  F   UNL     1      -2.958  -8.310  -6.095  1.00  0.00    -0.200 F 
ENDBRANCH  58  82
BRANCH  70  93
ATOM     93  C   UNL     1      -4.918  -3.102 -14.556  1.00  0.00     0.064 A 
ATOM     94  C   UNL     1      -5.763  -4.145 -14.960  1.00  0.00     0.173 A 
ATOM     95  C   UNL     1      -3.859  -2.747 -15.405  1.00  0.00     0.173 A 
ATOM     96  F   UNL     1      -6.781  -4.532 -14.176  1.00  0.00    -0.203 F 
ATOM     97  C   UNL     1      -5.546  -4.816 -16.160  1.00  0.00     0.198 A 
ATOM     98  C   UNL     1      -3.663  -3.400 -16.618  1.00  0.00     0.198 A 
ATOM     99  F   UNL     1      -3.027  -1.750 -15.068  1.00  0.00    -0.203 F 
ATOM    100  F   UNL     1      -6.343  -5.836 -16.508  1.00  0.00    -0.200 F 
ATOM    101  C   UNL     1      -4.503  -4.437 -16.992  1.00  0.00     0.200 A 
ATOM    102  F   UNL     1      -2.664  -3.022 -17.428  1.00  0.00    -0.200 F 
ATOM    103  F   UNL     1      -4.305  -5.075 -18.154  1.00  0.00    -0.200 F 
ENDBRANCH  70  93
ENDBRANCH  44  45
ENDBRANCH  37  39
ENDBRANCH  36  37
ENDBRANCH  35  36
ENDBRANCH  34  35
ENDBRANCH  33  34
ENDBRANCH  32  33
ENDBRANCH  31  32
ENDBRANCH  30  31
ENDBRANCH   1  30
TORSDOF 24
