REMARK SMILES Cc1c(C(=O)OCCOCCOCCOCCOC(=O)c2ccc(-c3c4nc(c(-c5c(F)c(F)c(F)c(F)c5F)c5ccc([nH]5)c(-c5c(F)c(F)c(F)c(F)c5F)c5nc(c(-c6c(F)c(F)c(F)c(F)c6F)c6ccc3[nH]6)C=C5)C=C4)cc2)cccc1-n1c(C)cc(/C=C2/C(=O)NC(=S)N=C2O)c1C
REMARK SMILES IDX 11 1 10 2 9 3 8 4 7 5 6 6 4 7 5 8 3 9 1 10 2 11 87 12 84 13
REMARK SMILES IDX 86 14 85 15 88 16 89 17 103 18 90 19 91 20 92 21 104 22
REMARK SMILES IDX 93 23 94 24 95 25 101 26 96 27 97 28 100 29 98 30 99 32
REMARK SMILES IDX 102 33 12 35 13 36 14 37 15 38 16 39 17 40 18 41 19 42 20 43
REMARK SMILES IDX 21 44 22 45 83 46 23 47 82 48 24 49 25 50 26 51 76 52 27 53
REMARK SMILES IDX 81 54 75 55 77 56 28 57 80 58 74 59 73 60 29 62 61 63 41 64
REMARK SMILES IDX 60 65 42 66 45 67 59 68 78 69 43 70 44 71 58 73 79 74 46 75
REMARK SMILES IDX 30 76 31 77 39 78 32 79 33 80 37 81 40 82 34 83 35 84 38 85
REMARK SMILES IDX 36 86 62 87 63 88 71 89 64 90 65 91 69 92 72 93 66 94 67 95
REMARK SMILES IDX 70 96 68 97 47 98 48 99 56 100 49 101 50 102 54 103 57 104
REMARK SMILES IDX 51 105 52 106 55 107 53 108
REMARK H PARENT 97 31 102 34 77 61 45 72
REMARK Flexibility Score: inf
ROOT
ATOM      1  C   UNL     1      -0.302  -1.445   3.119  1.00  0.00     0.188 C 
ENDROOT
BRANCH   1   2
ATOM      2  C   UNL     1      -1.180  -2.334   2.226  1.00  0.00     0.188 C 
BRANCH   2   3
ATOM      3  O   UNL     1      -0.882  -3.716   2.101  1.00  0.00    -0.376 OA
BRANCH   3   4
ATOM      4  C   UNL     1       0.011  -4.067   1.053  1.00  0.00     0.202 C 
BRANCH   4   5
ATOM      5  C   UNL     1      -0.492  -3.879  -0.365  1.00  0.00     0.261 C 
BRANCH   5   6
ATOM      6  O   UNL     1      -0.340  -2.508  -0.719  1.00  0.00    -0.460 OA
BRANCH   6   7
ATOM      7  C   UNL     1      -1.432  -1.938  -1.245  1.00  0.00     0.338 C 
ATOM      8  O   UNL     1      -2.366  -2.528  -1.744  1.00  0.00    -0.246 OA
BRANCH   7   9
ATOM      9  C   UNL     1      -1.468  -0.488  -0.893  1.00  0.00     0.065 A 
ATOM     10  C   UNL     1       0.992  -0.046  -0.182  1.00  0.00     0.047 C 
ATOM     11  C   UNL     1      -0.394   0.377  -0.588  1.00  0.00    -0.012 A 
ATOM     12  C   UNL     1      -0.700   1.741  -0.430  1.00  0.00     0.049 A 
ATOM     13  C   UNL     1      -2.791  -0.027  -0.743  1.00  0.00     0.016 A 
ATOM     14  C   UNL     1      -2.022   2.190  -0.304  1.00  0.00     0.027 A 
ATOM     15  C   UNL     1      -3.068   1.289  -0.406  1.00  0.00     0.003 A 
BRANCH  12  16
ATOM     16  N   UNL     1       0.324   2.689  -0.202  1.00  0.00    -0.318 N 
ATOM     17  C   UNL     1       1.251   3.162  -1.117  1.00  0.00     0.020 A 
ATOM     18  C   UNL     1       0.547   3.301   1.024  1.00  0.00     0.027 A 
ATOM     19  C   UNL     1       1.478   2.605  -2.482  1.00  0.00     0.065 C 
ATOM     20  C   UNL     1       1.813   4.288  -0.544  1.00  0.00     0.031 A 
ATOM     21  C   UNL     1       1.277   4.445   0.765  1.00  0.00    -0.003 A 
ATOM     22  C   UNL     1       0.047   2.672   2.284  1.00  0.00     0.065 C 
BRANCH  21  23
ATOM     23  C   UNL     1       1.610   5.536   1.624  1.00  0.00     0.029 C 
ATOM     24  C   UNL     1       0.960   6.098   2.661  1.00  0.00     0.102 C 
ATOM     25  C   UNL     1       1.674   7.202   3.352  1.00  0.00     0.262 C 
ATOM     26  C   UNL     1      -0.324   5.770   3.285  1.00  0.00     0.226 C 
ATOM     27  O   UNL     1       2.613   7.827   2.872  1.00  0.00    -0.269 OA
ATOM     28  N   UNL     1       1.208   7.458   4.614  1.00  0.00    -0.297 N 
ATOM     29  N   UNL     1      -0.708   6.090   4.466  1.00  0.00    -0.184 NA
ATOM     30  C   UNL     1       0.123   6.874   5.218  1.00  0.00     0.203 C 
ATOM     31  H   UNL     1       1.701   8.129   5.141  1.00  0.00     0.172 HD
ATOM     32  S   UNL     1      -0.160   7.232   6.830  1.00  0.00    -0.038 S 
BRANCH  26  33
ATOM     33  O   UNL     1      -1.226   5.149   2.525  1.00  0.00    -0.493 OA
ATOM     34  H   UNL     1      -1.005   4.890   1.652  1.00  0.00     0.295 HD
ENDBRANCH  26  33
ENDBRANCH  21  23
ENDBRANCH  12  16
ENDBRANCH   7   9
ENDBRANCH   6   7
ENDBRANCH   5   6
ENDBRANCH   4   5
ENDBRANCH   3   4
ENDBRANCH   2   3
ENDBRANCH   1   2
BRANCH   1  35
ATOM     35  O   UNL     1       1.028  -1.162   2.722  1.00  0.00    -0.377 OA
BRANCH  35  36
ATOM     36  C   UNL     1       2.071  -2.034   3.115  1.00  0.00     0.188 C 
BRANCH  36  37
ATOM     37  C   UNL     1       1.991  -2.813   4.412  1.00  0.00     0.188 C 
BRANCH  37  38
ATOM     38  O   UNL     1       0.922  -3.749   4.386  1.00  0.00    -0.376 OA
BRANCH  38  39
ATOM     39  C   UNL     1       0.279  -3.965   5.643  1.00  0.00     0.202 C 
BRANCH  39  40
ATOM     40  C   UNL     1       1.235  -4.343   6.784  1.00  0.00     0.261 C 
BRANCH  40  41
ATOM     41  O   UNL     1       1.930  -5.558   6.436  1.00  0.00    -0.460 OA
BRANCH  41  42
ATOM     42  C   UNL     1       3.244  -5.419   6.098  1.00  0.00     0.338 C 
ATOM     43  O   UNL     1       4.054  -4.727   6.691  1.00  0.00    -0.246 OA
BRANCH  42  44
ATOM     44  C   UNL     1       3.464  -5.943   4.712  1.00  0.00     0.060 A 
ATOM     45  C   UNL     1       4.649  -5.633   4.021  1.00  0.00     0.016 A 
ATOM     46  C   UNL     1       2.360  -6.370   3.991  1.00  0.00     0.016 A 
ATOM     47  C   UNL     1       4.654  -5.548   2.613  1.00  0.00     0.010 A 
ATOM     48  C   UNL     1       2.356  -6.192   2.619  1.00  0.00     0.010 A 
ATOM     49  C   UNL     1       3.470  -5.718   1.903  1.00  0.00    -0.014 A 
BRANCH  49  50
ATOM     50  C   UNL     1       3.233  -5.320   0.488  1.00  0.00     0.031 A 
ATOM     51  C   UNL     1       2.451  -6.245  -0.409  1.00  0.00     0.074 A 
ATOM     52  C   UNL     1       3.380  -4.021   0.105  1.00  0.00     0.049 A 
ATOM     53  N   UNL     1       2.018  -5.963  -1.592  1.00  0.00    -0.248 NA
ATOM     54  C   UNL     1       2.025  -7.577  -0.006  1.00  0.00     0.031 C 
ATOM     55  C   UNL     1       2.652  -3.355  -0.973  1.00  0.00     0.029 A 
ATOM     56  N   UNL     1       4.168  -2.979   0.611  1.00  0.00    -0.354 N 
ATOM     57  C   UNL     1       0.982  -6.820  -1.920  1.00  0.00     0.074 A 
ATOM     58  C   UNL     1       1.090  -7.856  -0.921  1.00  0.00     0.031 C 
ATOM     59  C   UNL     1       3.066  -2.099  -1.150  1.00  0.00     0.029 A 
ATOM     60  C   UNL     1       4.268  -1.980  -0.388  1.00  0.00     0.049 A 
ATOM     61  H   UNL     1       4.579  -2.946   1.504  1.00  0.00     0.167 HD
ATOM     62  C   UNL     1       0.098  -6.449  -2.911  1.00  0.00     0.037 A 
ATOM     63  C   UNL     1       5.466  -1.690  -0.969  1.00  0.00     0.037 A 
ATOM     64  C   UNL     1       0.526  -5.173  -3.563  1.00  0.00     0.049 A 
ATOM     65  C   UNL     1       5.445  -2.127  -2.437  1.00  0.00     0.074 A 
ATOM     66  C   UNL     1      -0.057  -3.939  -3.820  1.00  0.00     0.029 A 
ATOM     67  N   UNL     1       1.875  -4.992  -3.895  1.00  0.00    -0.354 N 
ATOM     68  N   UNL     1       4.567  -2.991  -2.909  1.00  0.00    -0.248 NA
ATOM     69  C   UNL     1       6.234  -1.553  -3.516  1.00  0.00     0.031 C 
ATOM     70  C   UNL     1       0.948  -3.039  -4.294  1.00  0.00     0.029 A 
ATOM     71  C   UNL     1       2.152  -3.722  -4.361  1.00  0.00     0.049 A 
ATOM     72  H   UNL     1       2.555  -5.698  -3.805  1.00  0.00     0.167 HD
ATOM     73  C   UNL     1       4.488  -2.916  -4.270  1.00  0.00     0.074 A 
ATOM     74  C   UNL     1       5.668  -2.125  -4.603  1.00  0.00     0.031 C 
ATOM     75  C   UNL     1       3.437  -3.428  -5.001  1.00  0.00     0.037 A 
BRANCH  62  76
ATOM     76  C   UNL     1      -1.275  -7.115  -3.204  1.00  0.00     0.064 A 
ATOM     77  C   UNL     1      -2.217  -6.533  -4.094  1.00  0.00     0.173 A 
ATOM     78  C   UNL     1      -1.747  -8.322  -2.640  1.00  0.00     0.173 A 
ATOM     79  F   UNL     1      -1.923  -5.449  -4.820  1.00  0.00    -0.203 F 
ATOM     80  C   UNL     1      -3.504  -7.058  -4.323  1.00  0.00     0.198 A 
ATOM     81  C   UNL     1      -3.030  -8.851  -2.867  1.00  0.00     0.198 A 
ATOM     82  F   UNL     1      -0.983  -9.101  -1.879  1.00  0.00    -0.203 F 
ATOM     83  F   UNL     1      -4.337  -6.437  -5.170  1.00  0.00    -0.200 F 
ATOM     84  C   UNL     1      -3.915  -8.214  -3.701  1.00  0.00     0.200 A 
ATOM     85  F   UNL     1      -3.383 -10.003  -2.276  1.00  0.00    -0.200 F 
ATOM     86  F   UNL     1      -5.130  -8.730  -3.931  1.00  0.00    -0.200 F 
ENDBRANCH  62  76
BRANCH  63  87
ATOM     87  C   UNL     1       6.498  -1.581   0.118  1.00  0.00     0.064 A 
ATOM     88  C   UNL     1       6.218  -0.547   1.058  1.00  0.00     0.173 A 
ATOM     89  C   UNL     1       7.086  -2.747   0.636  1.00  0.00     0.173 A 
ATOM     90  F   UNL     1       5.675   0.606   0.632  1.00  0.00    -0.203 F 
ATOM     91  C   UNL     1       6.227  -0.789   2.435  1.00  0.00     0.198 A 
ATOM     92  C   UNL     1       7.147  -2.959   2.025  1.00  0.00     0.198 A 
ATOM     93  F   UNL     1       7.383  -3.767  -0.180  1.00  0.00    -0.203 F 
ATOM     94  F   UNL     1       5.695   0.108   3.280  1.00  0.00    -0.200 F 
ATOM     95  C   UNL     1       6.641  -2.018   2.913  1.00  0.00     0.200 A 
ATOM     96  F   UNL     1       7.561  -4.143   2.502  1.00  0.00    -0.200 F 
ATOM     97  F   UNL     1       6.476  -2.326   4.208  1.00  0.00    -0.200 F 
ENDBRANCH  63  87
BRANCH  75  98
ATOM     98  C   UNL     1       3.512  -3.780  -6.467  1.00  0.00     0.064 A 
ATOM     99  C   UNL     1       4.237  -3.068  -7.418  1.00  0.00     0.173 A 
ATOM    100  C   UNL     1       2.864  -4.951  -6.948  1.00  0.00     0.173 A 
ATOM    101  F   UNL     1       4.659  -1.821  -7.174  1.00  0.00    -0.203 F 
ATOM    102  C   UNL     1       4.507  -3.610  -8.675  1.00  0.00     0.198 A 
ATOM    103  C   UNL     1       3.075  -5.455  -8.222  1.00  0.00     0.198 A 
ATOM    104  F   UNL     1       2.021  -5.675  -6.202  1.00  0.00    -0.203 F 
ATOM    105  F   UNL     1       5.328  -2.959  -9.509  1.00  0.00    -0.200 F 
ATOM    106  C   UNL     1       3.952  -4.817  -9.065  1.00  0.00     0.200 A 
ATOM    107  F   UNL     1       2.453  -6.581  -8.601  1.00  0.00    -0.200 F 
ATOM    108  F   UNL     1       4.248  -5.356 -10.253  1.00  0.00    -0.200 F 
ENDBRANCH  75  98
ENDBRANCH  49  50
ENDBRANCH  42  44
ENDBRANCH  41  42
ENDBRANCH  40  41
ENDBRANCH  39  40
ENDBRANCH  38  39
ENDBRANCH  37  38
ENDBRANCH  36  37
ENDBRANCH  35  36
ENDBRANCH   1  35
TORSDOF 23
