REMARK SMILES Cc1cccc(C[N@H+]2CC[C@@](C)(C(=O)OCCOCCOCCOCCOC(=O)c3ccc(-c4c5nc(c(-c6c(F)c(F)c(F)c(F)c6F)c6ccc([nH]6)c(-c6c(F)c(F)c(F)c(F)c6F)c6nc(c(-c7c(F)c(F)c(F)c(F)c7F)c7ccc4[nH]7)C=C6)C=C5)cc3)C2)n1
REMARK SMILES IDX 21 1 20 2 19 3 18 4 17 5 16 6 15 7 13 8 14 9 11 10 8 11 9 12
REMARK SMILES IDX 93 13 10 15 12 16 7 17 6 18 1 19 2 20 3 21 94 22 4 23 5 24
REMARK SMILES IDX 22 25 23 26 24 27 25 28 26 29 27 30 28 31 29 32 30 33 31 34
REMARK SMILES IDX 92 35 32 36 91 37 33 38 34 39 35 40 85 41 36 42 90 43 84 44
REMARK SMILES IDX 86 45 37 46 89 47 83 48 82 49 38 51 70 52 50 53 69 54 51 55
REMARK SMILES IDX 54 56 68 57 87 58 52 59 53 60 67 62 88 63 55 64 39 65 40 66
REMARK SMILES IDX 48 67 41 68 42 69 46 70 49 71 43 72 44 73 47 74 45 75 71 76
REMARK SMILES IDX 72 77 80 78 73 79 74 80 78 81 81 82 75 83 76 84 79 85 77 86
REMARK SMILES IDX 56 87 57 88 65 89 58 90 59 91 63 92 66 93 60 94 61 95 64 96
REMARK SMILES IDX 62 97
REMARK H PARENT 8 14 86 50 54 61
REMARK Flexibility Score: inf
ROOT
ATOM      1  O   UNL     1       4.016   2.245   0.051  1.00  0.00    -0.377 OA
ENDROOT
BRANCH   1   2
ATOM      2  C   UNL     1       3.324   2.351   1.276  1.00  0.00     0.188 C 
BRANCH   2   3
ATOM      3  C   UNL     1       4.144   2.223   2.566  1.00  0.00     0.188 C 
BRANCH   3   4
ATOM      4  O   UNL     1       4.453   0.901   3.018  1.00  0.00    -0.376 OA
BRANCH   4   5
ATOM      5  C   UNL     1       3.449  -0.109   2.923  1.00  0.00     0.202 C 
BRANCH   5   6
ATOM      6  C   UNL     1       2.156   0.112   3.713  1.00  0.00     0.261 C 
BRANCH   6   7
ATOM      7  O   UNL     1       1.336   1.138   3.120  1.00  0.00    -0.463 OA
BRANCH   7   8
ATOM      8  C   UNL     1       0.913   2.140   3.926  1.00  0.00     0.317 C 
ATOM      9  O   UNL     1       1.160   2.191   5.128  1.00  0.00    -0.251 OA
BRANCH   8  10
ATOM     10  C   UNL     1       0.101   3.228   3.211  1.00  0.00     0.119 C 
ATOM     11  N   UNL     1      -1.540   2.991   1.478  1.00  0.00    -0.329 N 
ATOM     12  C   UNL     1      -2.091   2.391   2.683  1.00  0.00     0.263 C 
ATOM     13  C   UNL     1      -0.088   3.075   1.686  1.00  0.00     0.281 C 
ATOM     14  H   UNL     1      -1.934   3.922   1.345  1.00  0.00     0.348 HD
ATOM     15  C   UNL     1      -1.337   3.163   3.755  1.00  0.00     0.086 C 
ATOM     16  C   UNL     1       0.776   4.569   3.532  1.00  0.00     0.030 C 
BRANCH  11  17
ATOM     17  C   UNL     1      -1.948   2.357   0.212  1.00  0.00     0.319 C 
BRANCH  17  18
ATOM     18  C   UNL     1      -1.567   0.898   0.013  1.00  0.00     0.095 A 
ATOM     19  C   UNL     1       1.580  -0.870  -0.653  1.00  0.00     0.067 C 
ATOM     20  C   UNL     1       0.127  -0.653  -0.378  1.00  0.00     0.038 A 
ATOM     21  C   UNL     1      -0.750  -1.715  -0.212  1.00  0.00     0.023 A 
ATOM     22  N   UNL     1      -0.272   0.634  -0.295  1.00  0.00    -0.252 NA
ATOM     23  C   UNL     1      -2.085  -1.440   0.062  1.00  0.00     0.004 A 
ATOM     24  C   UNL     1      -2.502  -0.117   0.184  1.00  0.00     0.030 A 
ENDBRANCH  17  18
ENDBRANCH  11  17
ENDBRANCH   8  10
ENDBRANCH   7   8
ENDBRANCH   6   7
ENDBRANCH   5   6
ENDBRANCH   4   5
ENDBRANCH   3   4
ENDBRANCH   2   3
ENDBRANCH   1   2
BRANCH   1  25
ATOM     25  C   UNL     1       4.901   1.166  -0.128  1.00  0.00     0.188 C 
BRANCH  25  26
ATOM     26  C   UNL     1       6.296   1.636  -0.560  1.00  0.00     0.188 C 
BRANCH  26  27
ATOM     27  O   UNL     1       6.590   3.029  -0.579  1.00  0.00    -0.376 OA
BRANCH  27  28
ATOM     28  C   UNL     1       5.693   3.937  -1.215  1.00  0.00     0.202 C 
BRANCH  28  29
ATOM     29  C   UNL     1       5.279   3.681  -2.671  1.00  0.00     0.261 C 
BRANCH  29  30
ATOM     30  O   UNL     1       4.524   2.473  -2.894  1.00  0.00    -0.460 OA
BRANCH  30  31
ATOM     31  C   UNL     1       5.119   1.550  -3.674  1.00  0.00     0.338 C 
ATOM     32  O   UNL     1       6.253   1.601  -4.156  1.00  0.00    -0.246 OA
BRANCH  31  33
ATOM     33  C   UNL     1       4.277   0.356  -3.842  1.00  0.00     0.060 A 
ATOM     34  C   UNL     1       4.775  -0.878  -3.402  1.00  0.00     0.016 A 
ATOM     35  C   UNL     1       3.093   0.414  -4.582  1.00  0.00     0.016 A 
ATOM     36  C   UNL     1       4.115  -2.062  -3.738  1.00  0.00     0.010 A 
ATOM     37  C   UNL     1       2.443  -0.776  -4.935  1.00  0.00     0.010 A 
ATOM     38  C   UNL     1       2.973  -2.021  -4.550  1.00  0.00    -0.014 A 
BRANCH  38  39
ATOM     39  C   UNL     1       2.455  -3.276  -5.156  1.00  0.00     0.031 A 
ATOM     40  C   UNL     1       2.938  -3.670  -6.525  1.00  0.00     0.074 A 
ATOM     41  C   UNL     1       1.596  -4.074  -4.498  1.00  0.00     0.049 A 
ATOM     42  N   UNL     1       2.598  -4.695  -7.265  1.00  0.00    -0.248 NA
ATOM     43  C   UNL     1       3.947  -2.793  -7.140  1.00  0.00     0.031 C 
ATOM     44  C   UNL     1       1.095  -3.840  -3.149  1.00  0.00     0.029 A 
ATOM     45  N   UNL     1       0.989  -5.245  -4.882  1.00  0.00    -0.354 N 
ATOM     46  C   UNL     1       3.357  -4.593  -8.423  1.00  0.00     0.074 A 
ATOM     47  C   UNL     1       4.151  -3.389  -8.306  1.00  0.00     0.031 C 
ATOM     48  C   UNL     1       0.245  -4.828  -2.818  1.00  0.00     0.029 A 
ATOM     49  C   UNL     1       0.118  -5.747  -3.947  1.00  0.00     0.049 A 
ATOM     50  H   UNL     1       1.163  -5.683  -5.747  1.00  0.00     0.167 HD
ATOM     51  C   UNL     1       3.398  -5.433  -9.485  1.00  0.00     0.037 A 
ATOM     52  C   UNL     1      -0.705  -6.813  -4.006  1.00  0.00     0.037 A 
ATOM     53  C   UNL     1       2.595  -6.618  -9.619  1.00  0.00     0.049 A 
ATOM     54  C   UNL     1      -0.724  -7.665  -5.251  1.00  0.00     0.074 A 
ATOM     55  C   UNL     1       2.547  -7.515 -10.672  1.00  0.00     0.029 A 
ATOM     56  N   UNL     1       1.691  -7.068  -8.669  1.00  0.00    -0.354 N 
ATOM     57  N   UNL     1       0.005  -7.568  -6.335  1.00  0.00    -0.248 NA
ATOM     58  C   UNL     1      -1.685  -8.779  -5.277  1.00  0.00     0.031 C 
ATOM     59  C   UNL     1       1.585  -8.487 -10.377  1.00  0.00     0.029 A 
ATOM     60  C   UNL     1       1.069  -8.222  -9.119  1.00  0.00     0.049 A 
ATOM     61  H   UNL     1       1.516  -6.633  -7.803  1.00  0.00     0.167 HD
ATOM     62  C   UNL     1      -0.378  -8.625  -7.151  1.00  0.00     0.074 A 
ATOM     63  C   UNL     1      -1.399  -9.359  -6.434  1.00  0.00     0.031 C 
ATOM     64  C   UNL     1       0.075  -8.959  -8.384  1.00  0.00     0.037 A 
BRANCH  51  65
ATOM     65  C   UNL     1       4.341  -5.089 -10.599  1.00  0.00     0.064 A 
ATOM     66  C   UNL     1       5.727  -5.248 -10.456  1.00  0.00     0.173 A 
ATOM     67  C   UNL     1       3.853  -4.640 -11.835  1.00  0.00     0.173 A 
ATOM     68  F   UNL     1       6.242  -5.661  -9.288  1.00  0.00    -0.203 F 
ATOM     69  C   UNL     1       6.593  -4.954 -11.506  1.00  0.00     0.198 A 
ATOM     70  C   UNL     1       4.720  -4.371 -12.891  1.00  0.00     0.198 A 
ATOM     71  F   UNL     1       2.535  -4.476 -12.022  1.00  0.00    -0.203 F 
ATOM     72  F   UNL     1       7.916  -5.080 -11.336  1.00  0.00    -0.200 F 
ATOM     73  C   UNL     1       6.088  -4.524 -12.724  1.00  0.00     0.200 A 
ATOM     74  F   UNL     1       4.230  -3.967 -14.071  1.00  0.00    -0.200 F 
ATOM     75  F   UNL     1       6.922  -4.252 -13.738  1.00  0.00    -0.200 F 
ENDBRANCH  51  65
BRANCH  52  76
ATOM     76  C   UNL     1      -1.605  -7.138  -2.867  1.00  0.00     0.064 A 
ATOM     77  C   UNL     1      -1.439  -8.320  -2.131  1.00  0.00     0.173 A 
ATOM     78  C   UNL     1      -2.684  -6.308  -2.530  1.00  0.00     0.173 A 
ATOM     79  F   UNL     1      -0.437  -9.160  -2.430  1.00  0.00    -0.203 F 
ATOM     80  C   UNL     1      -2.337  -8.675  -1.125  1.00  0.00     0.198 A 
ATOM     81  C   UNL     1      -3.562  -6.649  -1.504  1.00  0.00     0.198 A 
ATOM     82  F   UNL     1      -2.889  -5.166  -3.202  1.00  0.00    -0.203 F 
ATOM     83  F   UNL     1      -2.190  -9.840  -0.480  1.00  0.00    -0.200 F 
ATOM     84  C   UNL     1      -3.396  -7.838  -0.811  1.00  0.00     0.200 A 
ATOM     85  F   UNL     1      -4.576  -5.829  -1.194  1.00  0.00    -0.200 F 
ATOM     86  F   UNL     1      -4.263  -8.182   0.151  1.00  0.00    -0.200 F 
ENDBRANCH  52  76
BRANCH  64  87
ATOM     87  C   UNL     1      -0.483 -10.201  -9.016  1.00  0.00     0.064 A 
ATOM     88  C   UNL     1      -1.793 -10.253  -9.513  1.00  0.00     0.173 A 
ATOM     89  C   UNL     1       0.322 -11.342  -9.164  1.00  0.00     0.173 A 
ATOM     90  F   UNL     1      -2.607  -9.195  -9.381  1.00  0.00    -0.203 F 
ATOM     91  C   UNL     1      -2.285 -11.409 -10.114  1.00  0.00     0.198 A 
ATOM     92  C   UNL     1      -0.164 -12.486  -9.791  1.00  0.00     0.198 A 
ATOM     93  F   UNL     1       1.584 -11.342  -8.711  1.00  0.00    -0.203 F 
ATOM     94  F   UNL     1      -3.555 -11.452 -10.540  1.00  0.00    -0.200 F 
ATOM     95  C   UNL     1      -1.468 -12.521 -10.259  1.00  0.00     0.200 A 
ATOM     96  F   UNL     1       0.631 -13.554  -9.943  1.00  0.00    -0.200 F 
ATOM     97  F   UNL     1      -1.942 -13.630 -10.845  1.00  0.00    -0.200 F 
ENDBRANCH  64  87
ENDBRANCH  38  39
ENDBRANCH  31  33
ENDBRANCH  30  31
ENDBRANCH  29  30
ENDBRANCH  28  29
ENDBRANCH  27  28
ENDBRANCH  26  27
ENDBRANCH  25  26
ENDBRANCH   1  25
TORSDOF 22
