REMARK SMILES O=C(OCCOCCOCCOCCOC(=O)c1cc(-c2ccc(Cl)cc2)nc2c3c(C4CC4)cc(C(F)(F)F)nc3nn12)c1ccc(-c2c3nc(c(-c4c(F)c(F)c(F)c(F)c4F)c4ccc([nH]4)c(-c4c(F)c(F)c(F)c(F)c4F)c4nc(c(-c5c(F)c(F)c(F)c(F)c5F)c5ccc2[nH]5)C=C4)C=C3)cc1
REMARK SMILES IDX 8 1 7 2 6 3 5 4 4 5 3 6 2 7 1 8 45 9 46 10 107 11 47 12
REMARK SMILES IDX 106 13 48 14 49 15 50 16 100 17 51 18 105 19 99 20 101 21
REMARK SMILES IDX 52 22 104 23 98 24 97 25 53 27 85 28 65 29 84 30 66 31 69 32
REMARK SMILES IDX 83 33 102 34 67 35 68 36 82 38 103 39 70 40 54 41 55 42
REMARK SMILES IDX 63 43 56 44 57 45 61 46 64 47 58 48 59 49 62 50 60 51 86 52
REMARK SMILES IDX 87 53 95 54 88 55 89 56 93 57 96 58 90 59 91 60 94 61 92 62
REMARK SMILES IDX 71 63 72 64 80 65 73 66 74 67 78 68 81 69 75 70 76 71 79 72
REMARK SMILES IDX 77 73 9 74 10 75 11 76 12 77 13 78 14 79 15 80 16 81 17 82
REMARK SMILES IDX 18 83 19 84 44 85 20 86 29 87 43 88 28 89 30 90 42 91 31 92
REMARK SMILES IDX 41 93 35 94 36 95 21 96 22 97 27 98 23 99 26 100 24 101
REMARK SMILES IDX 25 102 32 103 33 104 34 105 37 106 38 107 39 108 40 109
REMARK H PARENT 101 26 69 37
REMARK Flexibility Score: inf
ROOT
ATOM      1  C   UNL     1       1.892   2.798  -0.016  1.00  0.00     0.188 C 
ENDROOT
BRANCH   1   2
ATOM      2  C   UNL     1       2.123   1.332   0.323  1.00  0.00     0.188 C 
BRANCH   2   3
ATOM      3  O   UNL     1       3.503   0.969   0.374  1.00  0.00    -0.376 OA
BRANCH   3   4
ATOM      4  C   UNL     1       4.177   0.703  -0.853  1.00  0.00     0.202 C 
BRANCH   4   5
ATOM      5  C   UNL     1       3.968  -0.707  -1.399  1.00  0.00     0.261 C 
BRANCH   5   6
ATOM      6  O   UNL     1       2.758  -1.319  -0.922  1.00  0.00    -0.460 OA
BRANCH   6   7
ATOM      7  C   UNL     1       2.624  -1.699   0.379  1.00  0.00     0.338 C 
ATOM      8  O   UNL     1       1.538  -1.840   0.922  1.00  0.00    -0.246 OA
BRANCH   7   9
ATOM      9  C   UNL     1       3.855  -2.142   1.044  1.00  0.00     0.060 A 
ATOM     10  C   UNL     1       4.766  -1.256   1.637  1.00  0.00     0.016 A 
ATOM     11  C   UNL     1       4.077  -3.514   1.051  1.00  0.00     0.016 A 
ATOM     12  C   UNL     1       5.955  -1.722   2.150  1.00  0.00     0.010 A 
ATOM     13  C   UNL     1       5.242  -3.992   1.618  1.00  0.00     0.010 A 
ATOM     14  C   UNL     1       6.166  -3.093   2.175  1.00  0.00    -0.014 A 
BRANCH  14  15
ATOM     15  C   UNL     1       7.260  -3.530   3.035  1.00  0.00     0.031 A 
ATOM     16  C   UNL     1       6.768  -4.420   4.125  1.00  0.00     0.074 A 
ATOM     17  C   UNL     1       8.511  -3.609   2.553  1.00  0.00     0.049 A 
ATOM     18  N   UNL     1       6.484  -5.658   3.849  1.00  0.00    -0.248 NA
ATOM     19  C   UNL     1       6.142  -3.941   5.358  1.00  0.00     0.031 C 
ATOM     20  C   UNL     1       8.836  -3.844   1.142  1.00  0.00     0.029 A 
ATOM     21  N   UNL     1       9.709  -3.709   3.212  1.00  0.00    -0.354 N 
ATOM     22  C   UNL     1       5.543  -6.080   4.759  1.00  0.00     0.074 A 
ATOM     23  C   UNL     1       5.411  -5.011   5.723  1.00  0.00     0.031 C 
ATOM     24  C   UNL     1      10.115  -4.257   1.062  1.00  0.00     0.029 A 
ATOM     25  C   UNL     1      10.731  -4.180   2.384  1.00  0.00     0.049 A 
ATOM     26  H   UNL     1       9.835  -3.475   4.160  1.00  0.00     0.167 HD
ATOM     27  C   UNL     1       4.899  -7.265   4.599  1.00  0.00     0.037 A 
ATOM     28  C   UNL     1      11.665  -5.052   2.857  1.00  0.00     0.037 A 
ATOM     29  C   UNL     1       5.211  -7.976   3.390  1.00  0.00     0.049 A 
ATOM     30  C   UNL     1      10.825  -6.306   3.021  1.00  0.00     0.074 A 
ATOM     31  C   UNL     1       4.614  -8.220   2.173  1.00  0.00     0.029 A 
ATOM     32  N   UNL     1       6.466  -8.532   3.289  1.00  0.00    -0.354 N 
ATOM     33  N   UNL     1      10.406  -7.066   2.039  1.00  0.00    -0.248 NA
ATOM     34  C   UNL     1      10.111  -6.516   4.281  1.00  0.00     0.031 C 
ATOM     35  C   UNL     1       5.690  -8.515   1.272  1.00  0.00     0.029 A 
ATOM     36  C   UNL     1       6.882  -8.399   1.989  1.00  0.00     0.049 A 
ATOM     37  H   UNL     1       6.974  -8.952   4.020  1.00  0.00     0.167 HD
ATOM     38  C   UNL     1       9.203  -7.629   2.482  1.00  0.00     0.074 A 
ATOM     39  C   UNL     1       9.117  -7.303   3.888  1.00  0.00     0.031 C 
ATOM     40  C   UNL     1       8.265  -8.150   1.635  1.00  0.00     0.037 A 
BRANCH  27  41
ATOM     41  C   UNL     1       4.153  -7.944   5.667  1.00  0.00     0.064 A 
ATOM     42  C   UNL     1       4.888  -8.869   6.423  1.00  0.00     0.173 A 
ATOM     43  C   UNL     1       2.769  -7.895   5.832  1.00  0.00     0.173 A 
ATOM     44  F   UNL     1       6.220  -8.952   6.266  1.00  0.00    -0.203 F 
ATOM     45  C   UNL     1       4.260  -9.750   7.289  1.00  0.00     0.198 A 
ATOM     46  C   UNL     1       2.139  -8.774   6.718  1.00  0.00     0.198 A 
ATOM     47  F   UNL     1       2.024  -7.041   5.116  1.00  0.00    -0.203 F 
ATOM     48  F   UNL     1       4.987 -10.659   7.952  1.00  0.00    -0.200 F 
ATOM     49  C   UNL     1       2.884  -9.707   7.431  1.00  0.00     0.200 A 
ATOM     50  F   UNL     1       0.807  -8.743   6.860  1.00  0.00    -0.200 F 
ATOM     51  F   UNL     1       2.273 -10.579   8.246  1.00  0.00    -0.200 F 
ENDBRANCH  27  41
BRANCH  28  52
ATOM     52  C   UNL     1      12.518  -4.418   3.919  1.00  0.00     0.064 A 
ATOM     53  C   UNL     1      13.066  -3.142   3.642  1.00  0.00     0.173 A 
ATOM     54  C   UNL     1      12.756  -4.920   5.203  1.00  0.00     0.173 A 
ATOM     55  F   UNL     1      12.995  -2.631   2.402  1.00  0.00    -0.203 F 
ATOM     56  C   UNL     1      13.637  -2.349   4.634  1.00  0.00     0.198 A 
ATOM     57  C   UNL     1      13.314  -4.117   6.204  1.00  0.00     0.198 A 
ATOM     58  F   UNL     1      12.432  -6.178   5.527  1.00  0.00    -0.203 F 
ATOM     59  F   UNL     1      14.053  -1.109   4.340  1.00  0.00    -0.200 F 
ATOM     60  C   UNL     1      13.723  -2.823   5.927  1.00  0.00     0.200 A 
ATOM     61  F   UNL     1      13.414  -4.591   7.454  1.00  0.00    -0.200 F 
ATOM     62  F   UNL     1      14.192  -2.036   6.904  1.00  0.00    -0.200 F 
ENDBRANCH  28  52
BRANCH  40  63
ATOM     63  C   UNL     1       8.695  -8.244   0.208  1.00  0.00     0.064 A 
ATOM     64  C   UNL     1       9.723  -9.125  -0.155  1.00  0.00     0.173 A 
ATOM     65  C   UNL     1       8.093  -7.483  -0.806  1.00  0.00     0.173 A 
ATOM     66  F   UNL     1      10.324  -9.885   0.774  1.00  0.00    -0.203 F 
ATOM     67  C   UNL     1      10.130  -9.243  -1.480  1.00  0.00     0.198 A 
ATOM     68  C   UNL     1       8.478  -7.632  -2.136  1.00  0.00     0.198 A 
ATOM     69  F   UNL     1       7.123  -6.598  -0.522  1.00  0.00    -0.203 F 
ATOM     70  F   UNL     1      11.126 -10.081  -1.800  1.00  0.00    -0.200 F 
ATOM     71  C   UNL     1       9.497  -8.509  -2.471  1.00  0.00     0.200 A 
ATOM     72  F   UNL     1       7.853  -6.935  -3.096  1.00  0.00    -0.200 F 
ATOM     73  F   UNL     1       9.865  -8.653  -3.752  1.00  0.00    -0.200 F 
ENDBRANCH  40  63
ENDBRANCH  14  15
ENDBRANCH   7   9
ENDBRANCH   6   7
ENDBRANCH   5   6
ENDBRANCH   4   5
ENDBRANCH   3   4
ENDBRANCH   2   3
ENDBRANCH   1   2
BRANCH   1  74
ATOM     74  O   UNL     1       2.925   3.260  -0.870  1.00  0.00    -0.377 OA
BRANCH  74  75
ATOM     75  C   UNL     1       3.987   3.948  -0.216  1.00  0.00     0.188 C 
BRANCH  75  76
ATOM     76  C   UNL     1       4.579   3.459   1.137  1.00  0.00     0.188 C 
BRANCH  76  77
ATOM     77  O   UNL     1       3.593   3.239   2.137  1.00  0.00    -0.376 OA
BRANCH  77  78
ATOM     78  C   UNL     1       3.505   4.169   3.206  1.00  0.00     0.202 C 
BRANCH  78  79
ATOM     79  C   UNL     1       3.038   5.591   2.865  1.00  0.00     0.261 C 
BRANCH  79  80
ATOM     80  O   UNL     1       3.613   6.181   1.691  1.00  0.00    -0.459 OA
BRANCH  80  81
ATOM     81  C   UNL     1       4.898   6.592   1.674  1.00  0.00     0.357 C 
ATOM     82  O   UNL     1       5.687   6.523   2.609  1.00  0.00    -0.244 OA
BRANCH  81  83
ATOM     83  C   UNL     1       5.278   6.894   0.271  1.00  0.00     0.154 A 
ATOM     84  C   UNL     1       6.367   6.292  -0.243  1.00  0.00     0.065 A 
ATOM     85  N   UNL     1       4.485   7.705  -0.538  1.00  0.00    -0.205 N 
ATOM     86  C   UNL     1       6.579   6.494  -1.712  1.00  0.00     0.075 A 
ATOM     87  C   UNL     1       4.880   8.002  -1.859  1.00  0.00     0.166 A 
ATOM     88  N   UNL     1       3.330   8.320  -0.201  1.00  0.00    -0.145 NA
ATOM     89  N   UNL     1       5.906   7.316  -2.463  1.00  0.00    -0.228 NA
ATOM     90  C   UNL     1       4.083   9.069  -2.226  1.00  0.00     0.069 A 
ATOM     91  C   UNL     1       3.113   9.176  -1.187  1.00  0.00     0.184 A 
ATOM     92  C   UNL     1       4.195   9.905  -3.348  1.00  0.00    -0.028 A 
ATOM     93  N   UNL     1       2.133  10.104  -1.186  1.00  0.00    -0.222 NA
ATOM     94  C   UNL     1       3.180  10.889  -3.289  1.00  0.00     0.038 A 
ATOM     95  C   UNL     1       2.208  10.963  -2.247  1.00  0.00     0.147 A 
BRANCH  86  96
ATOM     96  C   UNL     1       7.651   5.661  -2.304  1.00  0.00     0.000 A 
ATOM     97  C   UNL     1       8.961   6.142  -2.283  1.00  0.00     0.012 A 
ATOM     98  C   UNL     1       7.361   4.408  -2.863  1.00  0.00     0.012 A 
ATOM     99  C   UNL     1       9.995   5.357  -2.801  1.00  0.00     0.021 A 
ATOM    100  C   UNL     1       8.402   3.624  -3.378  1.00  0.00     0.021 A 
ATOM    101  C   UNL     1       9.713   4.101  -3.340  1.00  0.00     0.041 A 
ATOM    102  Cl  UNL     1      10.995   3.134  -3.960  1.00  0.00    -0.084 Cl
ENDBRANCH  86  96
BRANCH  92 103
ATOM    103  C   UNL     1       5.303   9.804  -4.349  1.00  0.00     0.020 C 
ATOM    104  C   UNL     1       5.453  10.784  -5.492  1.00  0.00     0.009 C 
ATOM    105  C   UNL     1       6.392  10.857  -4.327  1.00  0.00     0.009 C 
ENDBRANCH  92 103
BRANCH  95 106
ATOM    106  C   UNL     1       1.195  12.101  -2.263  1.00  0.00     0.433 C 
ATOM    107  F   UNL     1      -0.085  11.673  -2.450  1.00  0.00    -0.165 F 
ATOM    108  F   UNL     1       1.189  12.821  -1.103  1.00  0.00    -0.165 F 
ATOM    109  F   UNL     1       1.423  13.016  -3.252  1.00  0.00    -0.165 F 
ENDBRANCH  95 106
ENDBRANCH  81  83
ENDBRANCH  80  81
ENDBRANCH  79  80
ENDBRANCH  78  79
ENDBRANCH  77  78
ENDBRANCH  76  77
ENDBRANCH  75  76
ENDBRANCH  74  75
ENDBRANCH   1  74
TORSDOF 23
