REMARK SMILES CC(C)(NC(=O)[C@]1(C)CCCO1)C(C)(C)C(=O)OCCOCCOCCOCCOC(=O)c1ccc(-c2c3nc(c(-c4c(F)c(F)c(F)c(F)c4F)c4ccc([nH]4)c(-c4c(F)c(F)c(F)c(F)c4F)c4nc(c(-c5c(F)c(F)c(F)c(F)c5F)c5ccc2[nH]5)C=C4)C=C3)cc1
REMARK SMILES IDX 23 1 22 2 21 3 20 4 19 5 18 6 16 7 17 8 13 9 14 10 15 11
REMARK SMILES IDX 2 12 1 13 3 14 4 15 5 16 6 18 7 19 9 20 12 21 8 22 10 23
REMARK SMILES IDX 11 24 24 25 25 26 26 27 27 28 28 29 29 30 30 31 31 32 32 33
REMARK SMILES IDX 33 34 34 35 95 36 35 37 94 38 36 39 37 40 38 41 88 42 39 43
REMARK SMILES IDX 93 44 87 45 89 46 40 47 92 48 86 49 85 50 41 52 73 53 53 54
REMARK SMILES IDX 72 55 54 56 57 57 71 58 90 59 55 60 56 61 70 63 91 64 58 65
REMARK SMILES IDX 42 66 43 67 51 68 44 69 45 70 49 71 52 72 46 73 47 74 50 75
REMARK SMILES IDX 48 76 74 77 75 78 83 79 76 80 77 81 81 82 84 83 78 84 79 85
REMARK SMILES IDX 82 86 80 87 59 88 60 89 68 90 61 91 62 92 66 93 69 94 63 95
REMARK SMILES IDX 64 96 67 97 65 98
REMARK H PARENT 4 17 89 51 57 62
REMARK Flexibility Score: inf
ROOT
ATOM      1  C   UNL     1       1.470  -6.023   4.943  1.00  0.00     0.188 C 
ENDROOT
BRANCH   1   2
ATOM      2  C   UNL     1       1.348  -4.578   5.531  1.00  0.00     0.188 C 
BRANCH   2   3
ATOM      3  O   UNL     1       0.033  -4.226   6.014  1.00  0.00    -0.376 OA
BRANCH   3   4
ATOM      4  C   UNL     1      -0.553  -2.937   5.746  1.00  0.00     0.202 C 
BRANCH   4   5
ATOM      5  C   UNL     1      -1.768  -2.765   4.587  1.00  0.00     0.261 C 
BRANCH   5   6
ATOM      6  O   UNL     1      -1.620  -3.357   2.910  1.00  0.00    -0.463 OA
BRANCH   6   7
ATOM      7  C   UNL     1      -0.579  -4.556   1.849  1.00  0.00     0.313 C 
ATOM      8  O   UNL     1       0.475  -5.102   2.290  1.00  0.00    -0.252 OA
BRANCH   7   9
ATOM      9  C   UNL     1      -0.721  -5.118   0.351  1.00  0.00     0.085 C 
ATOM     10  C   UNL     1      -1.832  -4.868  -0.686  1.00  0.00     0.026 C 
ATOM     11  C   UNL     1      -0.740  -6.694   0.552  1.00  0.00     0.026 C 
BRANCH   9  12
ATOM     12  C   UNL     1       0.723  -4.700  -0.286  1.00  0.00     0.050 C 
ATOM     13  C   UNL     1       0.892  -5.219  -1.737  1.00  0.00     0.035 C 
ATOM     14  C   UNL     1       2.035  -5.237   0.407  1.00  0.00     0.035 C 
BRANCH  12  15
ATOM     15  N   UNL     1       0.825  -3.232  -0.342  1.00  0.00    -0.348 N 
ATOM     16  C   UNL     1       0.253  -2.236   0.378  1.00  0.00     0.252 C 
ATOM     17  H   UNL     1       1.433  -2.908  -1.045  1.00  0.00     0.164 HD
ATOM     18  O   UNL     1       0.651  -1.098   0.092  1.00  0.00    -0.272 OA
BRANCH  16  19
ATOM     19  C   UNL     1      -0.767  -2.447   1.557  1.00  0.00     0.143 C 
ATOM     20  C   UNL     1       0.136  -3.197   3.183  1.00  0.00     0.048 C 
ATOM     21  O   UNL     1      -2.277  -3.487   1.226  1.00  0.00    -0.365 OA
ATOM     22  C   UNL     1      -1.473  -1.068   1.778  1.00  0.00     0.053 C 
ATOM     23  C   UNL     1      -1.051  -4.820   3.776  1.00  0.00     0.032 C 
ATOM     24  C   UNL     1      -2.600  -4.826   2.511  1.00  0.00     0.162 C 
ENDBRANCH  16  19
ENDBRANCH  12  15
ENDBRANCH   9  12
ENDBRANCH   7   9
ENDBRANCH   6   7
ENDBRANCH   5   6
ENDBRANCH   4   5
ENDBRANCH   3   4
ENDBRANCH   2   3
ENDBRANCH   1   2
BRANCH   1  25
ATOM     25  O   UNL     1       0.437  -6.967   5.240  1.00  0.00    -0.377 OA
BRANCH  25  26
ATOM     26  C   UNL     1      -0.094  -6.940   6.555  1.00  0.00     0.188 C 
BRANCH  26  27
ATOM     27  C   UNL     1       0.972  -6.870   7.651  1.00  0.00     0.188 C 
BRANCH  27  28
ATOM     28  O   UNL     1       2.264  -7.271   7.223  1.00  0.00    -0.376 OA
BRANCH  28  29
ATOM     29  C   UNL     1       2.578  -8.656   7.150  1.00  0.00     0.202 C 
BRANCH  29  30
ATOM     30  C   UNL     1       1.625  -9.649   6.457  1.00  0.00     0.261 C 
BRANCH  30  31
ATOM     31  O   UNL     1       0.294  -9.795   6.992  1.00  0.00    -0.460 OA
BRANCH  31  32
ATOM     32  C   UNL     1       0.113  -9.883   8.326  1.00  0.00     0.338 C 
ATOM     33  O   UNL     1       0.964 -10.005   9.186  1.00  0.00    -0.246 OA
BRANCH  32  34
ATOM     34  C   UNL     1      -1.307  -9.561   8.605  1.00  0.00     0.060 A 
ATOM     35  C   UNL     1      -1.599  -8.500   9.476  1.00  0.00     0.016 A 
ATOM     36  C   UNL     1      -2.341 -10.277   7.998  1.00  0.00     0.016 A 
ATOM     37  C   UNL     1      -2.920  -8.177   9.773  1.00  0.00     0.010 A 
ATOM     38  C   UNL     1      -3.667  -9.981   8.329  1.00  0.00     0.010 A 
ATOM     39  C   UNL     1      -3.956  -8.958   9.250  1.00  0.00    -0.014 A 
BRANCH  39  40
ATOM     40  C   UNL     1      -5.293  -8.873   9.882  1.00  0.00     0.031 A 
ATOM     41  C   UNL     1      -5.602  -9.840  10.992  1.00  0.00     0.074 A 
ATOM     42  C   UNL     1      -6.186  -7.934   9.529  1.00  0.00     0.049 A 
ATOM     43  N   UNL     1      -6.692  -9.979  11.701  1.00  0.00    -0.248 NA
ATOM     44  C   UNL     1      -4.527 -10.781  11.351  1.00  0.00     0.031 C 
ATOM     45  C   UNL     1      -5.979  -6.910   8.509  1.00  0.00     0.029 A 
ATOM     46  N   UNL     1      -7.454  -7.696   9.997  1.00  0.00    -0.354 N 
ATOM     47  C   UNL     1      -6.435 -11.022  12.582  1.00  0.00     0.074 A 
ATOM     48  C   UNL     1      -5.102 -11.502  12.299  1.00  0.00     0.031 C 
ATOM     49  C   UNL     1      -7.091  -6.159   8.417  1.00  0.00     0.029 A 
ATOM     50  C   UNL     1      -8.095  -6.670   9.350  1.00  0.00     0.049 A 
ATOM     51  H   UNL     1      -7.865  -8.213  10.728  1.00  0.00     0.167 HD
ATOM     52  C   UNL     1      -7.238 -11.528  13.546  1.00  0.00     0.037 A 
ATOM     53  C   UNL     1      -9.357  -6.215   9.484  1.00  0.00     0.037 A 
ATOM     54  C   UNL     1      -8.568 -11.051  13.817  1.00  0.00     0.049 A 
ATOM     55  C   UNL     1     -10.263  -6.850  10.511  1.00  0.00     0.074 A 
ATOM     56  C   UNL     1      -9.460 -11.485  14.781  1.00  0.00     0.029 A 
ATOM     57  N   UNL     1      -9.201 -10.039  13.110  1.00  0.00    -0.354 N 
ATOM     58  N   UNL     1     -10.008  -7.818  11.359  1.00  0.00    -0.248 NA
ATOM     59  C   UNL     1     -11.632  -6.322  10.602  1.00  0.00     0.031 C 
ATOM     60  C   UNL     1     -10.657 -10.781  14.613  1.00  0.00     0.029 A 
ATOM     61  C   UNL     1     -10.487  -9.858  13.593  1.00  0.00     0.049 A 
ATOM     62  H   UNL     1      -8.796  -9.526  12.374  1.00  0.00     0.167 HD
ATOM     63  C   UNL     1     -11.170  -7.997  12.099  1.00  0.00     0.074 A 
ATOM     64  C   UNL     1     -12.126  -7.023  11.612  1.00  0.00     0.031 C 
ATOM     65  C   UNL     1     -11.425  -8.884  13.094  1.00  0.00     0.037 A 
BRANCH  52  66
ATOM     66  C   UNL     1      -6.712 -12.687  14.344  1.00  0.00     0.064 A 
ATOM     67  C   UNL     1      -5.656 -12.543  15.257  1.00  0.00     0.173 A 
ATOM     68  C   UNL     1      -7.280 -13.961  14.195  1.00  0.00     0.173 A 
ATOM     69  F   UNL     1      -5.064 -11.351  15.423  1.00  0.00    -0.203 F 
ATOM     70  C   UNL     1      -5.169 -13.638  15.967  1.00  0.00     0.198 A 
ATOM     71  C   UNL     1      -6.814 -15.046  14.932  1.00  0.00     0.198 A 
ATOM     72  F   UNL     1      -8.291 -14.155  13.335  1.00  0.00    -0.203 F 
ATOM     73  F   UNL     1      -4.122 -13.489  16.790  1.00  0.00    -0.200 F 
ATOM     74  C   UNL     1      -5.753 -14.886  15.810  1.00  0.00     0.200 A 
ATOM     75  F   UNL     1      -7.388 -16.249  14.788  1.00  0.00    -0.200 F 
ATOM     76  F   UNL     1      -5.286 -15.938  16.498  1.00  0.00    -0.200 F 
ENDBRANCH  52  66
BRANCH  53  77
ATOM     77  C   UNL     1      -9.845  -5.112   8.615  1.00  0.00     0.064 A 
ATOM     78  C   UNL     1     -10.166  -3.855   9.144  1.00  0.00     0.173 A 
ATOM     79  C   UNL     1     -10.018  -5.300   7.235  1.00  0.00     0.173 A 
ATOM     80  F   UNL     1     -10.045  -3.632  10.461  1.00  0.00    -0.203 F 
ATOM     81  C   UNL     1     -10.655  -2.833   8.331  1.00  0.00     0.198 A 
ATOM     82  C   UNL     1     -10.477  -4.269   6.418  1.00  0.00     0.198 A 
ATOM     83  F   UNL     1      -9.731  -6.485   6.677  1.00  0.00    -0.203 F 
ATOM     84  F   UNL     1     -10.998  -1.656   8.871  1.00  0.00    -0.200 F 
ATOM     85  C   UNL     1     -10.803  -3.039   6.967  1.00  0.00     0.200 A 
ATOM     86  F   UNL     1     -10.605  -4.469   5.099  1.00  0.00    -0.200 F 
ATOM     87  F   UNL     1     -11.266  -2.055   6.185  1.00  0.00    -0.200 F 
ENDBRANCH  53  77
BRANCH  65  88
ATOM     88  C   UNL     1     -12.779  -8.823  13.745  1.00  0.00     0.064 A 
ATOM     89  C   UNL     1     -13.945  -9.212  13.069  1.00  0.00     0.173 A 
ATOM     90  C   UNL     1     -12.906  -8.402  15.079  1.00  0.00     0.173 A 
ATOM     91  F   UNL     1     -13.882  -9.612  11.790  1.00  0.00    -0.203 F 
ATOM     92  C   UNL     1     -15.189  -9.150  13.691  1.00  0.00     0.198 A 
ATOM     93  C   UNL     1     -14.147  -8.376  15.709  1.00  0.00     0.198 A 
ATOM     94  F   UNL     1     -11.823  -8.029  15.777  1.00  0.00    -0.203 F 
ATOM     95  F   UNL     1     -16.296  -9.471  13.006  1.00  0.00    -0.200 F 
ATOM     96  C   UNL     1     -15.288  -8.739  15.012  1.00  0.00     0.200 A 
ATOM     97  F   UNL     1     -14.237  -7.997  16.992  1.00  0.00    -0.200 F 
ATOM     98  F   UNL     1     -16.486  -8.685  15.611  1.00  0.00    -0.200 F 
ENDBRANCH  65  88
ENDBRANCH  39  40
ENDBRANCH  32  34
ENDBRANCH  31  32
ENDBRANCH  30  31
ENDBRANCH  29  30
ENDBRANCH  28  29
ENDBRANCH  27  28
ENDBRANCH  26  27
ENDBRANCH  25  26
ENDBRANCH   1  25
TORSDOF 23
