REMARK SMILES COC(=O)C[C@H](c1ccc(C(=O)OCCOCCOCCOCCOC(=O)c2ccc(-c3c4nc(c(-c5c(F)c(F)c(F)c(F)c5F)c5ccc([nH]5)c(-c5c(F)c(F)c(F)c(F)c5F)c5nc(c(-c6c(F)c(F)c(F)c(F)c6F)c6ccc3[nH]6)C=C5)C=C4)cc2)cc1)c1c(O)n[nH]c1C
REMARK SMILES IDX 18 1 17 2 16 3 15 4 14 5 13 6 11 7 12 8 10 9 7 10 8 11 92 12
REMARK SMILES IDX 9 13 91 14 6 15 5 16 3 17 4 18 2 19 1 20 93 21 94 22 98 23
REMARK SMILES IDX 96 24 97 25 99 26 95 28 19 30 20 31 21 32 22 33 23 34 24 35
REMARK SMILES IDX 25 36 26 37 27 38 28 39 29 40 90 41 30 42 89 43 31 44 32 45
REMARK SMILES IDX 33 46 83 47 34 48 88 49 82 50 84 51 35 52 87 53 81 54 80 55
REMARK SMILES IDX 36 57 68 58 48 59 67 60 49 61 52 62 66 63 85 64 50 65 51 66
REMARK SMILES IDX 65 68 86 69 53 70 37 71 38 72 46 73 39 74 40 75 44 76 47 77
REMARK SMILES IDX 41 78 42 79 45 80 43 81 69 82 70 83 78 84 71 85 72 86 76 87
REMARK SMILES IDX 79 88 73 89 74 90 77 91 75 92 54 93 55 94 63 95 56 96 57 97
REMARK SMILES IDX 61 98 64 99 58 100 59 101 62 102 60 103
REMARK H PARENT 97 27 95 29 84 56 52 67
REMARK Flexibility Score: inf
ROOT
ATOM      1  C   UNL     1      -0.648   1.002   6.361  1.00  0.00     0.188 C 
ENDROOT
BRANCH   1   2
ATOM      2  C   UNL     1      -1.885   0.132   6.050  1.00  0.00     0.188 C 
BRANCH   2   3
ATOM      3  O   UNL     1      -1.874  -1.134   6.691  1.00  0.00    -0.376 OA
BRANCH   3   4
ATOM      4  C   UNL     1      -1.699  -2.296   5.903  1.00  0.00     0.202 C 
BRANCH   4   5
ATOM      5  C   UNL     1      -0.369  -2.469   5.153  1.00  0.00     0.261 C 
BRANCH   5   6
ATOM      6  O   UNL     1       0.092  -1.315   4.442  1.00  0.00    -0.460 OA
BRANCH   6   7
ATOM      7  C   UNL     1      -0.596  -0.993   3.325  1.00  0.00     0.338 C 
ATOM      8  O   UNL     1      -1.517  -1.626   2.838  1.00  0.00    -0.246 OA
BRANCH   7   9
ATOM      9  C   UNL     1      -0.192   0.366   2.893  1.00  0.00     0.060 A 
ATOM     10  C   UNL     1       0.484   2.919   1.925  1.00  0.00    -0.040 A 
ATOM     11  C   UNL     1      -0.851   2.481   1.927  1.00  0.00     0.005 A 
ATOM     12  C   UNL     1       1.459   2.095   2.522  1.00  0.00     0.005 A 
ATOM     13  C   UNL     1      -1.186   1.213   2.397  1.00  0.00     0.016 A 
ATOM     14  C   UNL     1       1.125   0.825   3.001  1.00  0.00     0.016 A 
BRANCH  10  15
ATOM     15  C   UNL     1       0.937   4.072   1.035  1.00  0.00     0.068 C 
BRANCH  15  16
ATOM     16  C   UNL     1       0.480   3.837  -0.415  1.00  0.00     0.136 C 
BRANCH  16  17
ATOM     17  C   UNL     1       0.944   2.497  -0.930  1.00  0.00     0.306 C 
ATOM     18  O   UNL     1       0.198   1.643  -1.390  1.00  0.00    -0.252 OA
BRANCH  17  19
ATOM     19  O   UNL     1       2.299   2.386  -0.839  1.00  0.00    -0.469 OA
ATOM     20  C   UNL     1       2.801   1.103  -1.220  1.00  0.00     0.282 C 
ENDBRANCH  17  19
ENDBRANCH  16  17
ENDBRANCH  15  16
BRANCH  15  21
ATOM     21  C   UNL     1       0.510   5.417   1.562  1.00  0.00     0.044 A 
ATOM     22  C   UNL     1      -0.478   5.838   2.471  1.00  0.00     0.234 A 
ATOM     23  C   UNL     1       1.069   6.635   1.167  1.00  0.00     0.040 A 
ATOM     24  N   UNL     1      -0.569   7.148   2.642  1.00  0.00    -0.137 NA
ATOM     25  N   UNL     1       0.387   7.619   1.830  1.00  0.00    -0.279 N 
ATOM     26  C   UNL     1       2.167   6.957   0.221  1.00  0.00     0.066 C 
ATOM     27  H   UNL     1       0.580   8.579   1.722  1.00  0.00     0.190 HD
BRANCH  22  28
ATOM     28  O   UNL     1      -1.363   5.153   3.187  1.00  0.00    -0.492 OA
ATOM     29  H   UNL     1      -1.382   4.218   3.137  1.00  0.00     0.295 HD
ENDBRANCH  22  28
ENDBRANCH  15  21
ENDBRANCH  10  15
ENDBRANCH   7   9
ENDBRANCH   6   7
ENDBRANCH   5   6
ENDBRANCH   4   5
ENDBRANCH   3   4
ENDBRANCH   2   3
ENDBRANCH   1   2
BRANCH   1  30
ATOM     30  O   UNL     1       0.473   0.395   6.990  1.00  0.00    -0.377 OA
BRANCH  30  31
ATOM     31  C   UNL     1       0.287  -0.397   8.161  1.00  0.00     0.188 C 
BRANCH  31  32
ATOM     32  C   UNL     1      -0.943  -0.224   9.085  1.00  0.00     0.188 C 
BRANCH  32  33
ATOM     33  O   UNL     1      -1.742   0.909   8.803  1.00  0.00    -0.376 OA
BRANCH  33  34
ATOM     34  C   UNL     1      -1.682   1.999   9.704  1.00  0.00     0.202 C 
BRANCH  34  35
ATOM     35  C   UNL     1      -0.327   2.703   9.854  1.00  0.00     0.261 C 
BRANCH  35  36
ATOM     36  O   UNL     1       0.793   1.862  10.175  1.00  0.00    -0.460 OA
BRANCH  36  37
ATOM     37  C   UNL     1       0.800   1.262  11.384  1.00  0.00     0.338 C 
ATOM     38  O   UNL     1      -0.043   1.351  12.261  1.00  0.00    -0.246 OA
BRANCH  37  39
ATOM     39  C   UNL     1       1.934   0.314  11.399  1.00  0.00     0.060 A 
ATOM     40  C   UNL     1       1.684  -1.059  11.534  1.00  0.00     0.016 A 
ATOM     41  C   UNL     1       3.241   0.783  11.251  1.00  0.00     0.016 A 
ATOM     42  C   UNL     1       2.746  -1.965  11.538  1.00  0.00     0.010 A 
ATOM     43  C   UNL     1       4.303  -0.123  11.280  1.00  0.00     0.010 A 
ATOM     44  C   UNL     1       4.064  -1.498  11.447  1.00  0.00    -0.014 A 
BRANCH  44  45
ATOM     45  C   UNL     1       5.201  -2.418  11.689  1.00  0.00     0.031 A 
ATOM     46  C   UNL     1       5.839  -2.427  13.050  1.00  0.00     0.074 A 
ATOM     47  C   UNL     1       5.664  -3.228  10.721  1.00  0.00     0.049 A 
ATOM     48  N   UNL     1       6.894  -3.075  13.473  1.00  0.00    -0.248 NA
ATOM     49  C   UNL     1       5.199  -1.585  14.072  1.00  0.00     0.031 C 
ATOM     50  C   UNL     1       5.105  -3.343   9.377  1.00  0.00     0.029 A 
ATOM     51  N   UNL     1       6.728  -4.097  10.720  1.00  0.00    -0.354 N 
ATOM     52  C   UNL     1       7.048  -2.712  14.805  1.00  0.00     0.074 A 
ATOM     53  C   UNL     1       5.998  -1.766  15.112  1.00  0.00     0.031 C 
ATOM     54  C   UNL     1       5.841  -4.221   8.673  1.00  0.00     0.029 A 
ATOM     55  C   UNL     1       6.946  -4.697   9.505  1.00  0.00     0.049 A 
ATOM     56  H   UNL     1       7.280  -4.274  11.516  1.00  0.00     0.167 HD
ATOM     57  C   UNL     1       7.980  -3.136  15.692  1.00  0.00     0.037 A 
ATOM     58  C   UNL     1       7.944  -5.510   9.104  1.00  0.00     0.037 A 
ATOM     59  C   UNL     1       9.027  -4.072  15.379  1.00  0.00     0.049 A 
ATOM     60  C   UNL     1       9.022  -5.897  10.086  1.00  0.00     0.074 A 
ATOM     61  C   UNL     1      10.009  -4.579  16.212  1.00  0.00     0.029 A 
ATOM     62  N   UNL     1       9.238  -4.632  14.127  1.00  0.00    -0.354 N 
ATOM     63  N   UNL     1       9.149  -5.573  11.351  1.00  0.00    -0.248 NA
ATOM     64  C   UNL     1      10.097  -6.764   9.582  1.00  0.00     0.031 C 
ATOM     65  C   UNL     1      10.852  -5.393  15.449  1.00  0.00     0.029 A 
ATOM     66  C   UNL     1      10.356  -5.451  14.157  1.00  0.00     0.049 A 
ATOM     67  H   UNL     1       8.677  -4.471  13.334  1.00  0.00     0.167 HD
ATOM     68  C   UNL     1      10.295  -6.219  11.800  1.00  0.00     0.074 A 
ATOM     69  C   UNL     1      10.818  -6.967  10.676  1.00  0.00     0.031 C 
ATOM     70  C   UNL     1      10.864  -6.194  13.031  1.00  0.00     0.037 A 
BRANCH  57  71
ATOM     71  C   UNL     1       7.929  -2.562  17.079  1.00  0.00     0.064 A 
ATOM     72  C   UNL     1       6.898  -2.880  17.976  1.00  0.00     0.173 A 
ATOM     73  C   UNL     1       8.947  -1.706  17.528  1.00  0.00     0.173 A 
ATOM     74  F   UNL     1       5.893  -3.683  17.593  1.00  0.00    -0.203 F 
ATOM     75  C   UNL     1       6.873  -2.341  19.260  1.00  0.00     0.198 A 
ATOM     76  C   UNL     1       8.937  -1.196  18.823  1.00  0.00     0.198 A 
ATOM     77  F   UNL     1       9.958  -1.372  16.713  1.00  0.00    -0.203 F 
ATOM     78  F   UNL     1       5.851  -2.619  20.082  1.00  0.00    -0.200 F 
ATOM     79  C   UNL     1       7.896  -1.507  19.685  1.00  0.00     0.200 A 
ATOM     80  F   UNL     1       9.934  -0.403  19.237  1.00  0.00    -0.200 F 
ATOM     81  F   UNL     1       7.876  -0.997  20.924  1.00  0.00    -0.200 F 
ENDBRANCH  57  71
BRANCH  58  82
ATOM     82  C   UNL     1       7.989  -5.999   7.699  1.00  0.00     0.064 A 
ATOM     83  C   UNL     1       7.829  -7.359   7.399  1.00  0.00     0.173 A 
ATOM     84  C   UNL     1       8.224  -5.121   6.630  1.00  0.00     0.173 A 
ATOM     85  F   UNL     1       7.633  -8.244   8.388  1.00  0.00    -0.203 F 
ATOM     86  C   UNL     1       7.923  -7.825   6.089  1.00  0.00     0.198 A 
ATOM     87  C   UNL     1       8.284  -5.583   5.317  1.00  0.00     0.198 A 
ATOM     88  F   UNL     1       8.391  -3.810   6.860  1.00  0.00    -0.203 F 
ATOM     89  F   UNL     1       7.822  -9.137   5.838  1.00  0.00    -0.200 F 
ATOM     90  C   UNL     1       8.143  -6.936   5.048  1.00  0.00     0.200 A 
ATOM     91  F   UNL     1       8.485  -4.718   4.313  1.00  0.00    -0.200 F 
ATOM     92  F   UNL     1       8.231  -7.384   3.788  1.00  0.00    -0.200 F 
ENDBRANCH  58  82
BRANCH  70  93
ATOM     93  C   UNL     1      12.096  -7.030  13.243  1.00  0.00     0.064 A 
ATOM     94  C   UNL     1      13.325  -6.702  12.649  1.00  0.00     0.173 A 
ATOM     95  C   UNL     1      12.056  -8.153  14.085  1.00  0.00     0.173 A 
ATOM     96  F   UNL     1      13.417  -5.647  11.826  1.00  0.00    -0.203 F 
ATOM     97  C   UNL     1      14.457  -7.485  12.866  1.00  0.00     0.198 A 
ATOM     98  C   UNL     1      13.198  -8.911  14.328  1.00  0.00     0.198 A 
ATOM     99  F   UNL     1      10.910  -8.507  14.686  1.00  0.00    -0.203 F 
ATOM    100  F   UNL     1      15.605  -7.184  12.244  1.00  0.00    -0.200 F 
ATOM    101  C   UNL     1      14.395  -8.582  13.711  1.00  0.00     0.200 A 
ATOM    102  F   UNL     1      13.139  -9.960  15.160  1.00  0.00    -0.200 F 
ATOM    103  F   UNL     1      15.487  -9.328  13.925  1.00  0.00    -0.200 F 
ENDBRANCH  70  93
ENDBRANCH  44  45
ENDBRANCH  37  39
ENDBRANCH  36  37
ENDBRANCH  35  36
ENDBRANCH  34  35
ENDBRANCH  33  34
ENDBRANCH  32  33
ENDBRANCH  31  32
ENDBRANCH  30  31
ENDBRANCH   1  30
TORSDOF 26
