REMARK SMILES CN(C)S(=O)(=O)c1cccc(-c2cc(Cl)cc(C(=O)OCCOCCOCCOCCOC(=O)c3ccc(-c4c5nc(c(-c6c(F)c(F)c(F)c(F)c6F)c6ccc([nH]6)c(-c6c(F)c(F)c(F)c(F)c6F)c6nc(c(-c7c(F)c(F)c(F)c(F)c7F)c7ccc4[nH]7)C=C6)C=C5)cc3)c2)c1
REMARK SMILES IDX 25 1 24 2 23 3 22 4 21 5 20 6 18 7 19 8 17 9 12 10 13 11
REMARK SMILES IDX 98 12 14 13 15 14 16 15 11 16 7 17 8 18 99 19 9 20 10 21
REMARK SMILES IDX 4 22 5 23 6 24 2 25 1 26 3 27 26 28 27 29 28 30 29 31 30 32
REMARK SMILES IDX 31 33 32 34 33 35 34 36 35 37 36 38 97 39 37 40 96 41 38 42
REMARK SMILES IDX 39 43 40 44 90 45 41 46 95 47 89 48 91 49 42 50 94 51 88 52
REMARK SMILES IDX 87 53 43 55 75 56 55 57 74 58 56 59 59 60 73 61 92 62 57 63
REMARK SMILES IDX 58 64 72 66 93 67 60 68 44 69 45 70 53 71 46 72 47 73 51 74
REMARK SMILES IDX 54 75 48 76 49 77 52 78 50 79 76 80 77 81 85 82 78 83 79 84
REMARK SMILES IDX 83 85 86 86 80 87 81 88 84 89 82 90 61 91 62 92 70 93 63 94
REMARK SMILES IDX 64 95 68 96 71 97 65 98 66 99 69 100 67 101
REMARK H PARENT 91 54 59 65
REMARK Flexibility Score: inf
ROOT
ATOM      1  C   UNL     1      -5.683   6.895   3.388  1.00  0.00     0.188 C 
ENDROOT
BRANCH   1   2
ATOM      2  C   UNL     1      -7.138   6.438   3.187  1.00  0.00     0.188 C 
BRANCH   2   3
ATOM      3  O   UNL     1      -7.589   5.527   4.189  1.00  0.00    -0.376 OA
BRANCH   3   4
ATOM      4  C   UNL     1      -7.775   4.179   3.772  1.00  0.00     0.202 C 
BRANCH   4   5
ATOM      5  C   UNL     1      -6.479   3.377   3.620  1.00  0.00     0.261 C 
BRANCH   5   6
ATOM      6  O   UNL     1      -5.583   3.886   2.622  1.00  0.00    -0.460 OA
BRANCH   6   7
ATOM      7  C   UNL     1      -6.005   3.905   1.340  1.00  0.00     0.338 C 
ATOM      8  O   UNL     1      -7.042   3.448   0.897  1.00  0.00    -0.246 OA
BRANCH   7   9
ATOM      9  C   UNL     1      -5.064   4.760   0.580  1.00  0.00     0.062 A 
ATOM     10  C   UNL     1      -2.785   5.589   0.213  1.00  0.00    -0.016 A 
ATOM     11  C   UNL     1      -3.313   6.487  -0.729  1.00  0.00     0.029 A 
ATOM     12  C   UNL     1      -3.697   4.757   0.886  1.00  0.00     0.024 A 
ATOM     13  C   UNL     1      -4.684   6.512  -1.012  1.00  0.00     0.042 A 
ATOM     14  Cl  UNL     1      -5.293   7.645  -2.156  1.00  0.00    -0.084 Cl
ATOM     15  C   UNL     1      -5.563   5.636  -0.382  1.00  0.00     0.036 A 
BRANCH  10  16
ATOM     16  C   UNL     1      -1.329   5.439   0.434  1.00  0.00    -0.017 A 
ATOM     17  C   UNL     1       0.570   3.932   0.793  1.00  0.00     0.083 A 
ATOM     18  C   UNL     1       1.466   4.987   0.648  1.00  0.00     0.022 A 
ATOM     19  C   UNL     1      -0.803   4.170   0.731  1.00  0.00     0.030 A 
ATOM     20  C   UNL     1       0.970   6.272   0.421  1.00  0.00     0.002 A 
ATOM     21  C   UNL     1      -0.411   6.493   0.306  1.00  0.00     0.009 A 
BRANCH  17  22
ATOM     22  S   UNL     1       1.131   2.287   1.164  1.00  0.00     0.242 S 
ATOM     23  O   UNL     1       0.347   1.807   2.284  1.00  0.00    -0.207 OA
ATOM     24  O   UNL     1       2.577   2.325   1.233  1.00  0.00    -0.207 OA
BRANCH  22  25
ATOM     25  N   UNL     1       0.708   1.341  -0.213  1.00  0.00    -0.204 NA
ATOM     26  C   UNL     1       1.355   0.004  -0.176  1.00  0.00     0.124 C 
ATOM     27  C   UNL     1      -0.740   1.204  -0.505  1.00  0.00     0.124 C 
ENDBRANCH  22  25
ENDBRANCH  17  22
ENDBRANCH  10  16
ENDBRANCH   7   9
ENDBRANCH   6   7
ENDBRANCH   5   6
ENDBRANCH   4   5
ENDBRANCH   3   4
ENDBRANCH   2   3
ENDBRANCH   1   2
BRANCH   1  28
ATOM     28  O   UNL     1      -5.005   6.258   4.455  1.00  0.00    -0.377 OA
BRANCH  28  29
ATOM     29  C   UNL     1      -5.370   6.594   5.792  1.00  0.00     0.188 C 
BRANCH  29  30
ATOM     30  C   UNL     1      -6.577   7.501   6.119  1.00  0.00     0.188 C 
BRANCH  30  31
ATOM     31  O   UNL     1      -6.752   8.605   5.235  1.00  0.00    -0.376 OA
BRANCH  31  32
ATOM     32  C   UNL     1      -6.427   9.891   5.746  1.00  0.00     0.202 C 
BRANCH  32  33
ATOM     33  C   UNL     1      -4.920  10.174   5.757  1.00  0.00     0.261 C 
BRANCH  33  34
ATOM     34  O   UNL     1      -4.177   9.354   6.672  1.00  0.00    -0.460 OA
BRANCH  34  35
ATOM     35  C   UNL     1      -4.497   9.474   7.979  1.00  0.00     0.338 C 
ATOM     36  O   UNL     1      -5.289  10.250   8.480  1.00  0.00    -0.246 OA
BRANCH  35  37
ATOM     37  C   UNL     1      -3.854   8.367   8.708  1.00  0.00     0.060 A 
ATOM     38  C   UNL     1      -4.657   7.533   9.493  1.00  0.00     0.016 A 
ATOM     39  C   UNL     1      -2.473   8.166   8.632  1.00  0.00     0.016 A 
ATOM     40  C   UNL     1      -4.070   6.521  10.249  1.00  0.00     0.010 A 
ATOM     41  C   UNL     1      -1.884   7.160   9.399  1.00  0.00     0.010 A 
ATOM     42  C   UNL     1      -2.677   6.361  10.240  1.00  0.00    -0.014 A 
BRANCH  42  43
ATOM     43  C   UNL     1      -2.047   5.484  11.252  1.00  0.00     0.031 A 
ATOM     44  C   UNL     1      -1.568   6.099  12.536  1.00  0.00     0.074 A 
ATOM     45  C   UNL     1      -1.939   4.161  11.052  1.00  0.00     0.049 A 
ATOM     46  N   UNL     1      -1.043   5.527  13.589  1.00  0.00    -0.248 NA
ATOM     47  C   UNL     1      -1.699   7.561  12.646  1.00  0.00     0.031 C 
ATOM     48  C   UNL     1      -2.367   3.450   9.850  1.00  0.00     0.029 A 
ATOM     49  N   UNL     1      -1.429   3.180  11.864  1.00  0.00    -0.354 N 
ATOM     50  C   UNL     1      -0.800   6.553  14.491  1.00  0.00     0.074 A 
ATOM     51  C   UNL     1      -1.186   7.789  13.845  1.00  0.00     0.031 C 
ATOM     52  C   UNL     1      -2.092   2.143   9.998  1.00  0.00     0.029 A 
ATOM     53  C   UNL     1      -1.462   1.930  11.301  1.00  0.00     0.049 A 
ATOM     54  H   UNL     1      -1.074   3.357  12.765  1.00  0.00     0.167 HD
ATOM     55  C   UNL     1      -0.315   6.472  15.753  1.00  0.00     0.037 A 
ATOM     56  C   UNL     1      -1.027   0.751  11.786  1.00  0.00     0.037 A 
ATOM     57  C   UNL     1       0.097   5.248  16.386  1.00  0.00     0.049 A 
ATOM     58  C   UNL     1      -0.448   0.690  13.175  1.00  0.00     0.074 A 
ATOM     59  C   UNL     1       0.602   5.059  17.659  1.00  0.00     0.029 A 
ATOM     60  N   UNL     1       0.062   4.000  15.780  1.00  0.00    -0.354 N 
ATOM     61  N   UNL     1      -0.267   1.657  14.042  1.00  0.00    -0.248 NA
ATOM     62  C   UNL     1      -0.030  -0.633  13.658  1.00  0.00     0.031 C 
ATOM     63  C   UNL     1       0.914   3.702  17.809  1.00  0.00     0.029 A 
ATOM     64  C   UNL     1       0.556   3.038  16.646  1.00  0.00     0.049 A 
ATOM     65  H   UNL     1      -0.265   3.824  14.868  1.00  0.00     0.167 HD
ATOM     66  C   UNL     1       0.269   1.060  15.176  1.00  0.00     0.074 A 
ATOM     67  C   UNL     1       0.360  -0.358  14.895  1.00  0.00     0.031 C 
ATOM     68  C   UNL     1       0.651   1.632  16.346  1.00  0.00     0.037 A 
BRANCH  55  69
ATOM     69  C   UNL     1      -0.192   7.757  16.517  1.00  0.00     0.064 A 
ATOM     70  C   UNL     1      -1.325   8.448  16.975  1.00  0.00     0.173 A 
ATOM     71  C   UNL     1       1.068   8.308  16.791  1.00  0.00     0.173 A 
ATOM     72  F   UNL     1      -2.554   7.973  16.721  1.00  0.00    -0.203 F 
ATOM     73  C   UNL     1      -1.202   9.659  17.651  1.00  0.00     0.198 A 
ATOM     74  C   UNL     1       1.188   9.505  17.492  1.00  0.00     0.198 A 
ATOM     75  F   UNL     1       2.182   7.688  16.375  1.00  0.00    -0.203 F 
ATOM     76  F   UNL     1      -2.299  10.329  18.029  1.00  0.00    -0.200 F 
ATOM     77  C   UNL     1       0.055  10.184  17.913  1.00  0.00     0.200 A 
ATOM     78  F   UNL     1       2.403  10.008  17.752  1.00  0.00    -0.200 F 
ATOM     79  F   UNL     1       0.172  11.351  18.561  1.00  0.00    -0.200 F 
ENDBRANCH  55  69
BRANCH  56  80
ATOM     80  C   UNL     1      -1.133  -0.470  10.949  1.00  0.00     0.064 A 
ATOM     81  C   UNL     1      -2.047  -1.487  11.259  1.00  0.00     0.173 A 
ATOM     82  C   UNL     1      -0.317  -0.646   9.822  1.00  0.00     0.173 A 
ATOM     83  F   UNL     1      -2.830  -1.375  12.343  1.00  0.00    -0.203 F 
ATOM     84  C   UNL     1      -2.130  -2.640  10.482  1.00  0.00     0.198 A 
ATOM     85  C   UNL     1      -0.419  -1.787   9.030  1.00  0.00     0.198 A 
ATOM     86  F   UNL     1       0.575   0.298   9.486  1.00  0.00    -0.203 F 
ATOM     87  F   UNL     1      -2.983  -3.615  10.823  1.00  0.00    -0.200 F 
ATOM     88  C   UNL     1      -1.321  -2.786   9.364  1.00  0.00     0.200 A 
ATOM     89  F   UNL     1       0.358  -1.922   7.948  1.00  0.00    -0.200 F 
ATOM     90  F   UNL     1      -1.406  -3.893   8.614  1.00  0.00    -0.200 F 
ENDBRANCH  56  80
BRANCH  68  91
ATOM     91  C   UNL     1       1.188   0.719  17.411  1.00  0.00     0.064 A 
ATOM     92  C   UNL     1       2.445   0.107  17.290  1.00  0.00     0.173 A 
ATOM     93  C   UNL     1       0.444   0.466  18.573  1.00  0.00     0.173 A 
ATOM     94  F   UNL     1       3.190   0.306  16.192  1.00  0.00    -0.203 F 
ATOM     95  C   UNL     1       2.921  -0.752  18.277  1.00  0.00     0.198 A 
ATOM     96  C   UNL     1       0.937  -0.370  19.572  1.00  0.00     0.198 A 
ATOM     97  F   UNL     1      -0.760   1.032  18.743  1.00  0.00    -0.203 F 
ATOM     98  F   UNL     1       4.100  -1.369  18.114  1.00  0.00    -0.200 F 
ATOM     99  C   UNL     1       2.169  -0.986  19.419  1.00  0.00     0.200 A 
ATOM    100  F   UNL     1       0.215  -0.585  20.680  1.00  0.00    -0.200 F 
ATOM    101  F   UNL     1       2.629  -1.814  20.367  1.00  0.00    -0.200 F 
ENDBRANCH  68  91
ENDBRANCH  42  43
ENDBRANCH  35  37
ENDBRANCH  34  35
ENDBRANCH  33  34
ENDBRANCH  32  33
ENDBRANCH  31  32
ENDBRANCH  30  31
ENDBRANCH  29  30
ENDBRANCH  28  29
ENDBRANCH   1  28
TORSDOF 23
