REMARK SMILES Cc1c(Br)c(C)c2c(c1Br)O[C@H](C(F)(F)F)C(C(=O)OCCOCCOCCOCCOC(=O)c1ccc(-c3c4nc(c(-c5c(F)c(F)c(F)c(F)c5F)c5ccc([nH]5)c(-c5c(F)c(F)c(F)c(F)c5F)c5nc(c(-c6c(F)c(F)c(F)c(F)c6F)c6ccc3[nH]6)C=C5)C=C4)cc1)=C2
REMARK SMILES IDX 27 1 26 2 25 3 24 4 23 5 22 6 21 7 20 8 18 9 19 10 17 11
REMARK SMILES IDX 1 12 2 13 3 14 9 15 4 16 5 17 8 18 10 19 6 20 7 21 11 22
REMARK SMILES IDX 98 23 12 24 13 25 14 26 15 27 16 28 28 29 29 30 30 31 31 32
REMARK SMILES IDX 32 33 33 34 34 35 35 36 36 37 97 38 37 39 96 40 38 41 39 42
REMARK SMILES IDX 40 43 90 44 41 45 95 46 89 47 91 48 42 49 94 50 88 51 87 52
REMARK SMILES IDX 43 54 75 55 55 56 74 57 56 58 59 59 73 60 92 61 57 62 58 63
REMARK SMILES IDX 72 65 93 66 60 67 44 68 45 69 53 70 46 71 47 72 51 73 54 74
REMARK SMILES IDX 48 75 49 76 52 77 50 78 76 79 77 80 85 81 78 82 79 83 83 84
REMARK SMILES IDX 86 85 80 86 81 87 84 88 82 89 61 90 62 91 70 92 63 93 64 94
REMARK SMILES IDX 68 95 71 96 65 97 66 98 69 99 67 100
REMARK H PARENT 91 53 59 64
REMARK Flexibility Score: inf
ROOT
ATOM      1  C   UNL     1       0.664   1.085  10.294  1.00  0.00     0.188 C 
ENDROOT
BRANCH   1   2
ATOM      2  O   UNL     1       0.168   1.015   8.957  1.00  0.00    -0.377 OA
BRANCH   2   3
ATOM      3  C   UNL     1       0.628   1.975   8.022  1.00  0.00     0.188 C 
BRANCH   3   4
ATOM      4  C   UNL     1      -0.002   3.368   8.197  1.00  0.00     0.188 C 
BRANCH   4   5
ATOM      5  O   UNL     1      -0.742   3.507   9.408  1.00  0.00    -0.376 OA
BRANCH   5   6
ATOM      6  C   UNL     1      -2.161   3.507   9.295  1.00  0.00     0.202 C 
BRANCH   6   7
ATOM      7  C   UNL     1      -2.803   2.146   8.995  1.00  0.00     0.261 C 
BRANCH   7   8
ATOM      8  O   UNL     1      -2.368   1.535   7.771  1.00  0.00    -0.460 OA
BRANCH   8   9
ATOM      9  C   UNL     1      -2.672   2.165   6.620  1.00  0.00     0.338 C 
ATOM     10  O   UNL     1      -3.344   3.174   6.495  1.00  0.00    -0.246 OA
BRANCH   9  11
ATOM     11  C   UNL     1      -1.914   1.515   5.531  1.00  0.00     0.087 C 
ATOM     12  C   UNL     1       1.198  -0.140   0.037  1.00  0.00     0.047 C 
ATOM     13  C   UNL     1       0.674   0.486   1.309  1.00  0.00    -0.019 A 
ATOM     14  C   UNL     1       0.797   1.882   1.522  1.00  0.00     0.025 A 
ATOM     15  C   UNL     1       0.071  -0.286   2.320  1.00  0.00     0.064 A 
ATOM     16  Br  UNL     1       1.748   2.929   0.220  1.00  0.00    -0.050 Br
ATOM     17  C   UNL     1       0.236   2.511   2.662  1.00  0.00    -0.026 A 
ATOM     18  C   UNL     1      -0.519   0.326   3.442  1.00  0.00     0.142 A 
ATOM     19  Br  UNL     1       0.025  -2.200   2.213  1.00  0.00    -0.046 Br
ATOM     20  C   UNL     1       0.406   3.990   2.938  1.00  0.00     0.046 C 
ATOM     21  C   UNL     1      -0.495   1.719   3.583  1.00  0.00     0.022 A 
ATOM     22  O   UNL     1      -1.104  -0.507   4.358  1.00  0.00    -0.474 OA
ATOM     23  C   UNL     1      -1.274   2.317   4.670  1.00  0.00     0.027 C 
ATOM     24  C   UNL     1      -1.830   0.019   5.492  1.00  0.00     0.316 C 
BRANCH  24  25
ATOM     25  C   UNL     1      -3.212  -0.651   5.518  1.00  0.00     0.430 C 
ATOM     26  F   UNL     1      -3.107  -1.999   5.441  1.00  0.00    -0.167 F 
ATOM     27  F   UNL     1      -3.890  -0.383   6.658  1.00  0.00    -0.167 F 
ATOM     28  F   UNL     1      -3.985  -0.243   4.485  1.00  0.00    -0.167 F 
ENDBRANCH  24  25
ENDBRANCH   9  11
ENDBRANCH   8   9
ENDBRANCH   7   8
ENDBRANCH   6   7
ENDBRANCH   5   6
ENDBRANCH   4   5
ENDBRANCH   3   4
ENDBRANCH   2   3
ENDBRANCH   1   2
BRANCH   1  29
ATOM     29  C   UNL     1       1.471   2.297  10.816  1.00  0.00     0.188 C 
BRANCH  29  30
ATOM     30  O   UNL     1       2.454   2.782   9.905  1.00  0.00    -0.376 OA
BRANCH  30  31
ATOM     31  C   UNL     1       3.811   2.545  10.255  1.00  0.00     0.202 C 
BRANCH  31  32
ATOM     32  C   UNL     1       4.278   1.118   9.942  1.00  0.00     0.261 C 
BRANCH  32  33
ATOM     33  O   UNL     1       3.609   0.088  10.688  1.00  0.00    -0.460 OA
BRANCH  33  34
ATOM     34  C   UNL     1       3.717   0.128  12.034  1.00  0.00     0.338 C 
ATOM     35  O   UNL     1       4.379   0.898  12.703  1.00  0.00    -0.246 OA
BRANCH  34  36
ATOM     36  C   UNL     1       2.718  -0.810  12.582  1.00  0.00     0.060 A 
ATOM     37  C   UNL     1       1.750  -0.321  13.470  1.00  0.00     0.016 A 
ATOM     38  C   UNL     1       2.720  -2.154  12.201  1.00  0.00     0.016 A 
ATOM     39  C   UNL     1       0.796  -1.188  14.000  1.00  0.00     0.010 A 
ATOM     40  C   UNL     1       1.779  -3.026  12.752  1.00  0.00     0.010 A 
ATOM     41  C   UNL     1       0.835  -2.552  13.677  1.00  0.00    -0.014 A 
BRANCH  41  42
ATOM     42  C   UNL     1       0.044  -3.507  14.487  1.00  0.00     0.031 A 
ATOM     43  C   UNL     1       0.687  -4.080  15.718  1.00  0.00     0.074 A 
ATOM     44  C   UNL     1      -1.221  -3.829  14.167  1.00  0.00     0.049 A 
ATOM     45  N   UNL     1       0.192  -4.894  16.614  1.00  0.00    -0.248 NA
ATOM     46  C   UNL     1       2.079  -3.672  15.979  1.00  0.00     0.031 C 
ATOM     47  C   UNL     1      -1.962  -3.315  13.019  1.00  0.00     0.029 A 
ATOM     48  N   UNL     1      -2.108  -4.669  14.795  1.00  0.00    -0.354 N 
ATOM     49  C   UNL     1       1.198  -5.073  17.552  1.00  0.00     0.074 A 
ATOM     50  C   UNL     1       2.349  -4.326  17.097  1.00  0.00     0.031 C 
ATOM     51  C   UNL     1      -3.197  -3.850  13.024  1.00  0.00     0.029 A 
ATOM     52  C   UNL     1      -3.325  -4.756  14.166  1.00  0.00     0.049 A 
ATOM     53  H   UNL     1      -1.891  -5.162  15.619  1.00  0.00     0.167 HD
ATOM     54  C   UNL     1       1.159  -5.780  18.703  1.00  0.00     0.037 A 
ATOM     55  C   UNL     1      -4.412  -5.491  14.478  1.00  0.00     0.037 A 
ATOM     56  C   UNL     1       0.024  -6.539  19.148  1.00  0.00     0.049 A 
ATOM     57  C   UNL     1      -4.387  -6.369  15.705  1.00  0.00     0.074 A 
ATOM     58  C   UNL     1      -0.117  -7.276  20.308  1.00  0.00     0.029 A 
ATOM     59  N   UNL     1      -1.160  -6.668  18.439  1.00  0.00    -0.354 N 
ATOM     60  N   UNL     1      -3.452  -6.492  16.616  1.00  0.00    -0.248 NA
ATOM     61  C   UNL     1      -5.567  -7.215  15.944  1.00  0.00     0.031 C 
ATOM     62  C   UNL     1      -1.370  -7.895  20.279  1.00  0.00     0.029 A 
ATOM     63  C   UNL     1      -2.025  -7.507  19.120  1.00  0.00     0.049 A 
ATOM     64  H   UNL     1      -1.357  -6.229  17.580  1.00  0.00     0.167 HD
ATOM     65  C   UNL     1      -3.933  -7.412  17.540  1.00  0.00     0.074 A 
ATOM     66  C   UNL     1      -5.252  -7.805  17.090  1.00  0.00     0.031 C 
ATOM     67  C   UNL     1      -3.334  -7.889  18.658  1.00  0.00     0.037 A 
BRANCH  54  68
ATOM     68  C   UNL     1       2.386  -5.768  19.562  1.00  0.00     0.064 A 
ATOM     69  C   UNL     1       2.744  -4.632  20.303  1.00  0.00     0.173 A 
ATOM     70  C   UNL     1       3.188  -6.912  19.677  1.00  0.00     0.173 A 
ATOM     71  F   UNL     1       2.017  -3.509  20.210  1.00  0.00    -0.203 F 
ATOM     72  C   UNL     1       3.871  -4.638  21.119  1.00  0.00     0.198 A 
ATOM     73  C   UNL     1       4.301  -6.922  20.513  1.00  0.00     0.198 A 
ATOM     74  F   UNL     1       2.886  -8.022  18.987  1.00  0.00    -0.203 F 
ATOM     75  F   UNL     1       4.215  -3.531  21.791  1.00  0.00    -0.200 F 
ATOM     76  C   UNL     1       4.644  -5.785  21.229  1.00  0.00     0.200 A 
ATOM     77  F   UNL     1       5.042  -8.033  20.626  1.00  0.00    -0.200 F 
ATOM     78  F   UNL     1       5.723  -5.792  22.023  1.00  0.00    -0.200 F 
ENDBRANCH  54  68
BRANCH  55  79
ATOM     79  C   UNL     1      -5.623  -5.430  13.619  1.00  0.00     0.064 A 
ATOM     80  C   UNL     1      -6.806  -4.838  14.082  1.00  0.00     0.173 A 
ATOM     81  C   UNL     1      -5.629  -5.974  12.326  1.00  0.00     0.173 A 
ATOM     82  F   UNL     1      -6.859  -4.331  15.322  1.00  0.00    -0.203 F 
ATOM     83  C   UNL     1      -7.951  -4.800  13.289  1.00  0.00     0.198 A 
ATOM     84  C   UNL     1      -6.767  -5.915  11.524  1.00  0.00     0.198 A 
ATOM     85  F   UNL     1      -4.525  -6.561  11.839  1.00  0.00    -0.203 F 
ATOM     86  F   UNL     1      -9.080  -4.262  13.770  1.00  0.00    -0.200 F 
ATOM     87  C   UNL     1      -7.929  -5.332  12.008  1.00  0.00     0.200 A 
ATOM     88  F   UNL     1      -6.740  -6.426  10.286  1.00  0.00    -0.200 F 
ATOM     89  F   UNL     1      -9.030  -5.293  11.245  1.00  0.00    -0.200 F 
ENDBRANCH  55  79
BRANCH  67  90
ATOM     90  C   UNL     1      -4.080  -8.897  19.483  1.00  0.00     0.064 A 
ATOM     91  C   UNL     1      -4.197 -10.230  19.065  1.00  0.00     0.173 A 
ATOM     92  C   UNL     1      -4.572  -8.557  20.752  1.00  0.00     0.173 A 
ATOM     93  F   UNL     1      -3.750 -10.600  17.856  1.00  0.00    -0.203 F 
ATOM     94  C   UNL     1      -4.779 -11.188  19.891  1.00  0.00     0.198 A 
ATOM     95  C   UNL     1      -5.130  -9.523  21.585  1.00  0.00     0.198 A 
ATOM     96  F   UNL     1      -4.474  -7.297  21.200  1.00  0.00    -0.203 F 
ATOM     97  F   UNL     1      -4.893 -12.454  19.467  1.00  0.00    -0.200 F 
ATOM     98  C   UNL     1      -5.232 -10.837  21.154  1.00  0.00     0.200 A 
ATOM     99  F   UNL     1      -5.550  -9.186  22.812  1.00  0.00    -0.200 F 
ATOM    100  F   UNL     1      -5.764 -11.768  21.959  1.00  0.00    -0.200 F 
ENDBRANCH  67  90
ENDBRANCH  41  42
ENDBRANCH  34  36
ENDBRANCH  33  34
ENDBRANCH  32  33
ENDBRANCH  31  32
ENDBRANCH  30  31
ENDBRANCH  29  30
ENDBRANCH   1  29
TORSDOF 21
