REMARK SMILES Cc1ccc(NC(=O)[C@H]2CC=CC[C@H]2C(=O)OCCOCCOCCOCCOC(=O)c2ccc(-c3c4nc(c(-c5c(F)c(F)c(F)c(F)c5F)c5ccc([nH]5)c(-c5c(F)c(F)c(F)c(F)c5F)c5nc(c(-c6c(F)c(F)c(F)c(F)c6F)c6ccc3[nH]6)C=C5)C=C4)cc2)cc1F
REMARK SMILES IDX 23 1 22 2 21 3 20 4 19 5 18 6 17 7 15 8 16 9 14 10 9 11
REMARK SMILES IDX 10 12 11 13 13 14 12 15 7 16 6 17 8 19 5 20 1 21 2 22 3 23
REMARK SMILES IDX 96 24 4 25 95 26 97 27 24 28 25 29 26 30 27 31 28 32 29 33
REMARK SMILES IDX 30 34 31 35 32 36 33 37 94 38 34 39 93 40 35 41 36 42 37 43
REMARK SMILES IDX 87 44 38 45 92 46 86 47 88 48 39 49 91 50 85 51 84 52 40 54
REMARK SMILES IDX 72 55 52 56 71 57 53 58 56 59 70 60 89 61 54 62 55 63 69 65
REMARK SMILES IDX 90 66 57 67 41 68 42 69 50 70 43 71 44 72 48 73 51 74 45 75
REMARK SMILES IDX 46 76 49 77 47 78 73 79 74 80 82 81 75 82 76 83 80 84 83 85
REMARK SMILES IDX 77 86 78 87 81 88 79 89 58 90 59 91 67 92 60 93 61 94 65 95
REMARK SMILES IDX 68 96 62 97 63 98 66 99 64 100
REMARK H PARENT 6 18 88 53 56 64
REMARK Flexibility Score: inf
ROOT
ATOM      1  O   UNL     1      -1.598  -0.501   1.020  1.00  0.00    -0.377 OA
ENDROOT
BRANCH   1   2
ATOM      2  C   UNL     1      -0.381  -0.115   0.152  1.00  0.00     0.188 C 
BRANCH   2   3
ATOM      3  C   UNL     1      -0.114  -0.246  -2.009  1.00  0.00     0.188 C 
BRANCH   3   4
ATOM      4  O   UNL     1      -1.075   0.150  -3.257  1.00  0.00    -0.376 OA
BRANCH   4   5
ATOM      5  C   UNL     1      -2.402  -0.338  -3.583  1.00  0.00     0.202 C 
BRANCH   5   6
ATOM      6  C   UNL     1      -2.675  -1.707  -4.223  1.00  0.00     0.261 C 
BRANCH   6   7
ATOM      7  O   UNL     1      -2.547  -2.832  -3.335  1.00  0.00    -0.463 OA
BRANCH   7   8
ATOM      8  C   UNL     1      -1.309  -3.366  -3.238  1.00  0.00     0.310 C 
ATOM      9  O   UNL     1      -0.370  -3.035  -3.954  1.00  0.00    -0.252 OA
BRANCH   8  10
ATOM     10  C   UNL     1      -1.181  -4.493  -2.212  1.00  0.00     0.116 C 
ATOM     11  C   UNL     1      -1.679  -4.350  -0.750  1.00  0.00     0.097 C 
ATOM     12  C   UNL     1      -1.599  -5.660   0.063  1.00  0.00     0.041 C 
ATOM     13  C   UNL     1      -1.508  -6.924  -0.731  1.00  0.00    -0.030 C 
ATOM     14  C   UNL     1      -1.751  -5.734  -2.896  1.00  0.00     0.043 C 
ATOM     15  C   UNL     1      -1.588  -6.963  -2.065  1.00  0.00    -0.030 C 
BRANCH  11  16
ATOM     16  C   UNL     1      -2.892  -3.466  -0.601  1.00  0.00     0.228 C 
ATOM     17  N   UNL     1      -2.732  -2.114  -0.830  1.00  0.00    -0.326 N 
ATOM     18  H   UNL     1      -3.575  -1.607  -0.866  1.00  0.00     0.169 HD
ATOM     19  O   UNL     1      -3.998  -3.911  -0.295  1.00  0.00    -0.274 OA
BRANCH  17  20
ATOM     20  C   UNL     1      -1.557  -1.317  -1.026  1.00  0.00     0.044 A 
ATOM     21  C   UNL     1       2.330   1.833  -0.172  1.00  0.00     0.047 C 
ATOM     22  C   UNL     1       1.252   0.954  -0.736  1.00  0.00    -0.015 A 
ATOM     23  C   UNL     1      -0.377   1.625  -1.050  1.00  0.00     0.008 A 
ATOM     24  C   UNL     1       1.501  -0.794  -0.667  1.00  0.00     0.128 A 
ATOM     25  C   UNL     1      -1.786   0.514  -1.164  1.00  0.00     0.026 A 
ATOM     26  C   UNL     1       0.128  -1.933  -0.760  1.00  0.00     0.065 A 
ATOM     27  F   UNL     1       2.682  -1.273  -0.252  1.00  0.00    -0.207 F 
ENDBRANCH  17  20
ENDBRANCH  11  16
ENDBRANCH   8  10
ENDBRANCH   7   8
ENDBRANCH   6   7
ENDBRANCH   5   6
ENDBRANCH   4   5
ENDBRANCH   3   4
ENDBRANCH   2   3
ENDBRANCH   1   2
BRANCH   1  28
ATOM     28  C   UNL     1      -2.669   0.415   1.191  1.00  0.00     0.188 C 
BRANCH  28  29
ATOM     29  C   UNL     1      -2.332   1.779   1.787  1.00  0.00     0.188 C 
BRANCH  29  30
ATOM     30  O   UNL     1      -0.996   1.942   2.194  1.00  0.00    -0.376 OA
BRANCH  30  31
ATOM     31  C   UNL     1      -0.496   1.338   3.375  1.00  0.00     0.202 C 
BRANCH  31  32
ATOM     32  C   UNL     1      -0.871  -0.066   3.898  1.00  0.00     0.261 C 
BRANCH  32  33
ATOM     33  O   UNL     1      -2.195  -0.544   3.705  1.00  0.00    -0.460 OA
BRANCH  33  34
ATOM     34  C   UNL     1      -3.170   0.236   4.183  1.00  0.00     0.338 C 
ATOM     35  O   UNL     1      -3.055   1.201   4.921  1.00  0.00    -0.246 OA
BRANCH  34  36
ATOM     36  C   UNL     1      -4.449  -0.239   3.529  1.00  0.00     0.060 A 
ATOM     37  C   UNL     1      -5.227   0.841   3.034  1.00  0.00     0.016 A 
ATOM     38  C   UNL     1      -4.989  -1.185   4.364  1.00  0.00     0.016 A 
ATOM     39  C   UNL     1      -6.097   1.418   3.892  1.00  0.00     0.010 A 
ATOM     40  C   UNL     1      -5.825  -0.631   5.269  1.00  0.00     0.010 A 
ATOM     41  C   UNL     1      -6.241   0.710   5.060  1.00  0.00    -0.014 A 
BRANCH  41  42
ATOM     42  C   UNL     1      -6.934   1.274   6.164  1.00  0.00     0.031 A 
ATOM     43  C   UNL     1      -8.353   0.914   6.072  1.00  0.00     0.074 A 
ATOM     44  C   UNL     1      -6.032   1.654   7.095  1.00  0.00     0.049 A 
ATOM     45  N   UNL     1      -9.329   1.511   6.645  1.00  0.00    -0.248 NA
ATOM     46  C   UNL     1      -8.848  -0.099   5.103  1.00  0.00     0.031 C 
ATOM     47  C   UNL     1      -6.052   1.623   8.544  1.00  0.00     0.029 A 
ATOM     48  N   UNL     1      -4.839   2.338   6.801  1.00  0.00    -0.354 N 
ATOM     49  C   UNL     1     -10.324   0.552   6.654  1.00  0.00     0.074 A 
ATOM     50  C   UNL     1     -10.126  -0.209   5.457  1.00  0.00     0.031 C 
ATOM     51  C   UNL     1      -5.113   2.471   9.016  1.00  0.00     0.029 A 
ATOM     52  C   UNL     1      -4.546   3.185   7.877  1.00  0.00     0.049 A 
ATOM     53  H   UNL     1      -4.303   2.239   5.981  1.00  0.00     0.167 HD
ATOM     54  C   UNL     1     -10.886   0.255   7.861  1.00  0.00     0.037 A 
ATOM     55  C   UNL     1      -4.684   4.533   7.678  1.00  0.00     0.037 A 
ATOM     56  C   UNL     1     -10.287   1.131   8.882  1.00  0.00     0.049 A 
ATOM     57  C   UNL     1      -5.957   5.042   8.316  1.00  0.00     0.074 A 
ATOM     58  C   UNL     1      -9.303   0.916   9.834  1.00  0.00     0.029 A 
ATOM     59  N   UNL     1     -10.351   2.510   8.701  1.00  0.00    -0.354 N 
ATOM     60  N   UNL     1      -7.039   4.329   8.471  1.00  0.00    -0.248 NA
ATOM     61  C   UNL     1      -6.082   6.396   8.836  1.00  0.00     0.031 C 
ATOM     62  C   UNL     1      -8.762   2.184  10.195  1.00  0.00     0.029 A 
ATOM     63  C   UNL     1      -9.386   3.164   9.441  1.00  0.00     0.049 A 
ATOM     64  H   UNL     1     -11.003   2.962   8.118  1.00  0.00     0.167 HD
ATOM     65  C   UNL     1      -7.991   5.085   9.097  1.00  0.00     0.074 A 
ATOM     66  C   UNL     1      -7.330   6.359   9.327  1.00  0.00     0.031 C 
ATOM     67  C   UNL     1      -9.250   4.616   9.357  1.00  0.00     0.037 A 
BRANCH  54  68
ATOM     68  C   UNL     1     -11.683  -0.988   8.200  1.00  0.00     0.064 A 
ATOM     69  C   UNL     1     -11.964  -1.279   9.553  1.00  0.00     0.173 A 
ATOM     70  C   UNL     1     -12.210  -1.925   7.284  1.00  0.00     0.173 A 
ATOM     71  F   UNL     1     -11.584  -0.454  10.538  1.00  0.00    -0.203 F 
ATOM     72  C   UNL     1     -12.665  -2.418   9.954  1.00  0.00     0.198 A 
ATOM     73  C   UNL     1     -12.899  -3.074   7.687  1.00  0.00     0.198 A 
ATOM     74  F   UNL     1     -12.127  -1.761   5.963  1.00  0.00    -0.203 F 
ATOM     75  F   UNL     1     -12.895  -2.628  11.257  1.00  0.00    -0.200 F 
ATOM     76  C   UNL     1     -13.127  -3.321   9.022  1.00  0.00     0.200 A 
ATOM     77  F   UNL     1     -13.354  -3.933   6.762  1.00  0.00    -0.200 F 
ATOM     78  F   UNL     1     -13.809  -4.408   9.405  1.00  0.00    -0.200 F 
ENDBRANCH  54  68
BRANCH  55  79
ATOM     79  C   UNL     1      -4.246   4.948   6.309  1.00  0.00     0.064 A 
ATOM     80  C   UNL     1      -2.904   4.733   5.938  1.00  0.00     0.173 A 
ATOM     81  C   UNL     1      -5.176   5.162   5.282  1.00  0.00     0.173 A 
ATOM     82  F   UNL     1      -1.966   4.545   6.881  1.00  0.00    -0.203 F 
ATOM     83  C   UNL     1      -2.537   4.607   4.601  1.00  0.00     0.198 A 
ATOM     84  C   UNL     1      -4.807   5.016   3.946  1.00  0.00     0.198 A 
ATOM     85  F   UNL     1      -6.460   5.421   5.563  1.00  0.00    -0.203 F 
ATOM     86  F   UNL     1      -1.269   4.316   4.278  1.00  0.00    -0.200 F 
ATOM     87  C   UNL     1      -3.496   4.720   3.609  1.00  0.00     0.200 A 
ATOM     88  F   UNL     1      -5.736   5.087   2.982  1.00  0.00    -0.200 F 
ATOM     89  F   UNL     1      -3.171   4.523   2.323  1.00  0.00    -0.200 F 
ENDBRANCH  55  79
BRANCH  67  90
ATOM     90  C   UNL     1     -10.449   5.495   9.650  1.00  0.00     0.064 A 
ATOM     91  C   UNL     1     -10.495   6.874   9.389  1.00  0.00     0.173 A 
ATOM     92  C   UNL     1     -11.668   4.941  10.116  1.00  0.00     0.173 A 
ATOM     93  F   UNL     1      -9.515   7.505   8.732  1.00  0.00    -0.203 F 
ATOM     94  C   UNL     1     -11.595   7.659   9.732  1.00  0.00     0.198 A 
ATOM     95  C   UNL     1     -12.805   5.710  10.345  1.00  0.00     0.198 A 
ATOM     96  F   UNL     1     -11.822   3.630  10.347  1.00  0.00    -0.203 F 
ATOM     97  F   UNL     1     -11.530   8.988   9.576  1.00  0.00    -0.200 F 
ATOM     98  C   UNL     1     -12.753   7.077  10.203  1.00  0.00     0.200 A 
ATOM     99  F   UNL     1     -13.950   5.109  10.697  1.00  0.00    -0.200 F 
ATOM    100  F   UNL     1     -13.822   7.827  10.493  1.00  0.00    -0.200 F 
ENDBRANCH  67  90
ENDBRANCH  41  42
ENDBRANCH  34  36
ENDBRANCH  33  34
ENDBRANCH  32  33
ENDBRANCH  31  32
ENDBRANCH  30  31
ENDBRANCH  29  30
ENDBRANCH  28  29
ENDBRANCH   1  28
TORSDOF 22
