REMARK SMILES Cc1cccc(NS(=O)(=O)c2ccc(Br)c(C(=O)OCCOCCOCCOCCOC(=O)c3ccc(-c4c5nc(c(-c6c(F)c(F)c(F)c(F)c6F)c6ccc([nH]6)c(-c6c(F)c(F)c(F)c(F)c6F)c6nc(c(-c7c(F)c(F)c(F)c(F)c7F)c7ccc4[nH]7)C=C6)C=C5)cc3)c2)c1
REMARK SMILES IDX 24 1 23 2 22 3 21 4 20 5 19 6 17 7 18 8 16 9 11 10 12 11
REMARK SMILES IDX 97 12 13 13 14 14 15 15 8 16 9 17 10 18 7 19 6 21 1 22 2 23
REMARK SMILES IDX 3 24 98 25 4 26 5 27 25 28 26 29 27 30 28 31 29 32 30 33
REMARK SMILES IDX 31 34 32 35 33 36 34 37 35 38 96 39 36 40 95 41 37 42 38 43
REMARK SMILES IDX 39 44 89 45 40 46 94 47 88 48 90 49 41 50 93 51 87 52 86 53
REMARK SMILES IDX 42 55 74 56 54 57 73 58 55 59 58 60 72 61 91 62 56 63 57 64
REMARK SMILES IDX 71 66 92 67 59 68 43 69 44 70 52 71 45 72 46 73 50 74 53 75
REMARK SMILES IDX 47 76 48 77 51 78 49 79 75 80 76 81 84 82 77 83 78 84 82 85
REMARK SMILES IDX 85 86 79 87 80 88 83 89 81 90 60 91 61 92 69 93 62 94 63 95
REMARK SMILES IDX 67 96 70 97 64 98 65 99 68 100 66 101
REMARK H PARENT 7 20 90 54 58 65
REMARK Flexibility Score: inf
ROOT
ATOM      1  C   UNL     1      -6.232   0.159   2.996  1.00  0.00     0.188 C 
ENDROOT
BRANCH   1   2
ATOM      2  C   UNL     1      -6.691   0.995   1.803  1.00  0.00     0.188 C 
BRANCH   2   3
ATOM      3  O   UNL     1      -8.042   1.444   1.828  1.00  0.00    -0.376 OA
BRANCH   3   4
ATOM      4  C   UNL     1      -8.858   0.944   0.767  1.00  0.00     0.202 C 
BRANCH   4   5
ATOM      5  C   UNL     1      -8.459   1.326  -0.670  1.00  0.00     0.261 C 
BRANCH   5   6
ATOM      6  O   UNL     1      -7.280   0.623  -1.089  1.00  0.00    -0.460 OA
BRANCH   6   7
ATOM      7  C   UNL     1      -6.421   1.295  -1.892  1.00  0.00     0.339 C 
ATOM      8  O   UNL     1      -6.646   2.281  -2.567  1.00  0.00    -0.246 OA
BRANCH   7   9
ATOM      9  C   UNL     1      -5.098   0.944  -1.356  1.00  0.00     0.075 A 
ATOM     10  C   UNL     1      -3.464   1.703   0.217  1.00  0.00     0.088 A 
ATOM     11  C   UNL     1      -3.252   0.386   0.641  1.00  0.00     0.023 A 
ATOM     12  C   UNL     1      -4.465   1.995  -0.698  1.00  0.00     0.039 A 
ATOM     13  C   UNL     1      -3.801  -0.660  -0.109  1.00  0.00     0.018 A 
ATOM     14  C   UNL     1      -4.651  -0.366  -1.179  1.00  0.00     0.032 A 
ATOM     15  Br  UNL     1      -4.898  -1.662  -2.538  1.00  0.00    -0.050 Br
BRANCH  10  16
ATOM     16  S   UNL     1      -2.412   3.012   0.757  1.00  0.00     0.261 S 
ATOM     17  O   UNL     1      -2.155   2.817   2.169  1.00  0.00    -0.201 OA
ATOM     18  O   UNL     1      -2.980   4.256   0.285  1.00  0.00    -0.201 OA
BRANCH  16  19
ATOM     19  N   UNL     1      -0.935   2.837  -0.085  1.00  0.00    -0.280 N 
ATOM     20  H   UNL     1      -0.508   3.635  -0.472  1.00  0.00     0.180 HD
BRANCH  19  21
ATOM     21  C   UNL     1      -0.295   1.556  -0.245  1.00  0.00     0.049 A 
ATOM     22  C   UNL     1       3.115   0.000   0.395  1.00  0.00     0.044 C 
ATOM     23  C   UNL     1       1.667   0.149   0.036  1.00  0.00    -0.049 A 
ATOM     24  C   UNL     1       0.987  -0.924  -0.547  1.00  0.00     0.003 A 
ATOM     25  C   UNL     1       0.998   1.368   0.241  1.00  0.00     0.030 A 
ATOM     26  C   UNL     1      -0.272  -0.720  -1.096  1.00  0.00     0.002 A 
ATOM     27  C   UNL     1      -0.857   0.546  -1.026  1.00  0.00     0.027 A 
ENDBRANCH  19  21
ENDBRANCH  16  19
ENDBRANCH  10  16
ENDBRANCH   7   9
ENDBRANCH   6   7
ENDBRANCH   5   6
ENDBRANCH   4   5
ENDBRANCH   3   4
ENDBRANCH   2   3
ENDBRANCH   1   2
BRANCH   1  28
ATOM     28  O   UNL     1      -6.323  -1.255   2.792  1.00  0.00    -0.377 OA
BRANCH  28  29
ATOM     29  C   UNL     1      -7.581  -1.862   3.078  1.00  0.00     0.188 C 
BRANCH  29  30
ATOM     30  C   UNL     1      -8.081  -1.615   4.496  1.00  0.00     0.188 C 
BRANCH  30  31
ATOM     31  O   UNL     1      -8.809  -0.387   4.498  1.00  0.00    -0.376 OA
BRANCH  31  32
ATOM     32  C   UNL     1      -8.835   0.298   5.749  1.00  0.00     0.202 C 
BRANCH  32  33
ATOM     33  C   UNL     1      -9.575  -0.469   6.850  1.00  0.00     0.261 C 
BRANCH  33  34
ATOM     34  O   UNL     1     -10.932  -0.703   6.427  1.00  0.00    -0.460 OA
BRANCH  34  35
ATOM     35  C   UNL     1     -11.220  -1.992   6.108  1.00  0.00     0.338 C 
ATOM     36  O   UNL     1     -10.932  -2.969   6.779  1.00  0.00    -0.246 OA
BRANCH  35  37
ATOM     37  C   UNL     1     -11.670  -2.068   4.688  1.00  0.00     0.060 A 
ATOM     38  C   UNL     1     -11.752  -3.319   4.051  1.00  0.00     0.016 A 
ATOM     39  C   UNL     1     -11.695  -0.906   3.923  1.00  0.00     0.016 A 
ATOM     40  C   UNL     1     -11.711  -3.405   2.650  1.00  0.00     0.010 A 
ATOM     41  C   UNL     1     -11.563  -1.002   2.551  1.00  0.00     0.010 A 
ATOM     42  C   UNL     1     -11.531  -2.243   1.894  1.00  0.00    -0.014 A 
BRANCH  42  43
ATOM     43  C   UNL     1     -11.053  -2.196   0.494  1.00  0.00     0.031 A 
ATOM     44  C   UNL     1     -11.593  -1.187  -0.478  1.00  0.00     0.074 A 
ATOM     45  C   UNL     1      -9.838  -2.744   0.254  1.00  0.00     0.049 A 
ATOM     46  N   UNL     1     -11.088  -0.930  -1.640  1.00  0.00    -0.248 NA
ATOM     47  C   UNL     1     -12.790  -0.393  -0.224  1.00  0.00     0.031 C 
ATOM     48  C   UNL     1      -8.810  -2.148  -0.594  1.00  0.00     0.029 A 
ATOM     49  N   UNL     1      -9.167  -3.803   0.853  1.00  0.00    -0.354 N 
ATOM     50  C   UNL     1     -11.675   0.210  -2.155  1.00  0.00     0.074 A 
ATOM     51  C   UNL     1     -12.810   0.421  -1.288  1.00  0.00     0.031 C 
ATOM     52  C   UNL     1      -7.658  -2.802  -0.424  1.00  0.00     0.029 A 
ATOM     53  C   UNL     1      -7.955  -4.057   0.192  1.00  0.00     0.049 A 
ATOM     54  H   UNL     1      -9.496  -4.305   1.633  1.00  0.00     0.167 HD
ATOM     55  C   UNL     1     -11.064   0.890  -3.183  1.00  0.00     0.037 A 
ATOM     56  C   UNL     1      -7.770  -5.217  -0.510  1.00  0.00     0.037 A 
ATOM     57  C   UNL     1      -9.893   0.154  -3.744  1.00  0.00     0.049 A 
ATOM     58  C   UNL     1      -8.013  -5.097  -2.016  1.00  0.00     0.074 A 
ATOM     59  C   UNL     1      -8.624   0.475  -4.204  1.00  0.00     0.029 A 
ATOM     60  N   UNL     1      -9.931  -1.237  -3.819  1.00  0.00    -0.354 N 
ATOM     61  N   UNL     1      -8.067  -3.961  -2.674  1.00  0.00    -0.248 NA
ATOM     62  C   UNL     1      -8.291  -6.233  -2.892  1.00  0.00     0.031 C 
ATOM     63  C   UNL     1      -7.944  -0.723  -4.591  1.00  0.00     0.029 A 
ATOM     64  C   UNL     1      -8.805  -1.783  -4.393  1.00  0.00     0.049 A 
ATOM     65  H   UNL     1     -10.688  -1.776  -3.494  1.00  0.00     0.167 HD
ATOM     66  C   UNL     1      -8.518  -4.170  -3.950  1.00  0.00     0.074 A 
ATOM     67  C   UNL     1      -8.603  -5.619  -4.049  1.00  0.00     0.031 C 
ATOM     68  C   UNL     1      -8.863  -3.170  -4.821  1.00  0.00     0.037 A 
BRANCH  55  69
ATOM     69  C   UNL     1     -11.419   2.326  -3.640  1.00  0.00     0.064 A 
ATOM     70  C   UNL     1     -10.816   2.901  -4.789  1.00  0.00     0.173 A 
ATOM     71  C   UNL     1     -12.272   3.225  -2.957  1.00  0.00     0.173 A 
ATOM     72  F   UNL     1     -10.035   2.182  -5.604  1.00  0.00    -0.203 F 
ATOM     73  C   UNL     1     -11.002   4.241  -5.173  1.00  0.00     0.198 A 
ATOM     74  C   UNL     1     -12.525   4.538  -3.392  1.00  0.00     0.198 A 
ATOM     75  F   UNL     1     -12.869   2.911  -1.806  1.00  0.00    -0.203 F 
ATOM     76  F   UNL     1     -10.334   4.732  -6.227  1.00  0.00    -0.200 F 
ATOM     77  C   UNL     1     -11.871   5.056  -4.484  1.00  0.00     0.200 A 
ATOM     78  F   UNL     1     -13.400   5.300  -2.718  1.00  0.00    -0.200 F 
ATOM     79  F   UNL     1     -12.075   6.324  -4.864  1.00  0.00    -0.200 F 
ENDBRANCH  55  69
BRANCH  56  80
ATOM     80  C   UNL     1      -7.835  -6.380   0.429  1.00  0.00     0.064 A 
ATOM     81  C   UNL     1      -6.738  -6.406   1.323  1.00  0.00     0.173 A 
ATOM     82  C   UNL     1      -9.088  -6.747   0.944  1.00  0.00     0.173 A 
ATOM     83  F   UNL     1      -5.506  -6.125   0.868  1.00  0.00    -0.203 F 
ATOM     84  C   UNL     1      -6.943  -6.439   2.701  1.00  0.00     0.198 A 
ATOM     85  C   UNL     1      -9.288  -6.790   2.328  1.00  0.00     0.198 A 
ATOM     86  F   UNL     1     -10.156  -6.795   0.134  1.00  0.00    -0.203 F 
ATOM     87  F   UNL     1      -5.923  -6.191   3.535  1.00  0.00    -0.200 F 
ATOM     88  C   UNL     1      -8.229  -6.566   3.200  1.00  0.00     0.200 A 
ATOM     89  F   UNL     1     -10.534  -6.873   2.816  1.00  0.00    -0.200 F 
ATOM     90  F   UNL     1      -8.461  -6.384   4.508  1.00  0.00    -0.200 F 
ENDBRANCH  56  80
BRANCH  68  91
ATOM     91  C   UNL     1      -9.419  -3.420  -6.200  1.00  0.00     0.064 A 
ATOM     92  C   UNL     1      -8.876  -4.370  -7.071  1.00  0.00     0.173 A 
ATOM     93  C   UNL     1     -10.479  -2.636  -6.720  1.00  0.00     0.173 A 
ATOM     94  F   UNL     1      -7.791  -5.077  -6.722  1.00  0.00    -0.203 F 
ATOM     95  C   UNL     1      -9.434  -4.607  -8.329  1.00  0.00     0.198 A 
ATOM     96  C   UNL     1     -10.995  -2.836  -7.996  1.00  0.00     0.198 A 
ATOM     97  F   UNL     1     -11.069  -1.671  -6.003  1.00  0.00    -0.203 F 
ATOM     98  F   UNL     1      -8.941  -5.588  -9.097  1.00  0.00    -0.200 F 
ATOM     99  C   UNL     1     -10.495  -3.845  -8.788  1.00  0.00     0.200 A 
ATOM    100  F   UNL     1     -11.993  -2.057  -8.439  1.00  0.00    -0.200 F 
ATOM    101  F   UNL     1     -11.038  -4.087  -9.988  1.00  0.00    -0.200 F 
ENDBRANCH  68  91
ENDBRANCH  42  43
ENDBRANCH  35  37
ENDBRANCH  34  35
ENDBRANCH  33  34
ENDBRANCH  32  33
ENDBRANCH  31  32
ENDBRANCH  30  31
ENDBRANCH  29  30
ENDBRANCH  28  29
ENDBRANCH   1  28
TORSDOF 23
