REMARK SMILES O=C(CSc1nc(-c2cccc(F)c2)n[nH]1)OCCOCCOCCOCCOC(=O)c1ccc(-c2c3nc(c(-c4c(F)c(F)c(F)c(F)c4F)c4ccc([nH]4)c(-c4c(F)c(F)c(F)c(F)c4F)c4nc(c(-c5c(F)c(F)c(F)c(F)c5F)c5ccc2[nH]5)C=C4)C=C3)cc1
REMARK SMILES IDX 22 1 21 2 20 3 19 4 18 5 17 6 2 7 1 8 3 9 4 10 5 11 6 12
REMARK SMILES IDX 16 13 7 14 15 15 8 17 9 18 14 19 10 20 12 21 11 22 13 23
REMARK SMILES IDX 23 24 24 25 25 26 26 27 27 28 28 29 29 30 30 31 31 32 32 33
REMARK SMILES IDX 33 34 94 35 34 36 93 37 35 38 36 39 37 40 87 41 38 42 92 43
REMARK SMILES IDX 86 44 88 45 39 46 91 47 85 48 84 49 40 51 72 52 52 53 71 54
REMARK SMILES IDX 53 55 56 56 70 57 89 58 54 59 55 60 69 62 90 63 57 64 41 65
REMARK SMILES IDX 42 66 50 67 43 68 44 69 48 70 51 71 45 72 46 73 49 74 47 75
REMARK SMILES IDX 73 76 74 77 82 78 75 79 76 80 80 81 83 82 77 83 78 84 81 85
REMARK SMILES IDX 79 86 58 87 59 88 67 89 60 90 61 91 65 92 68 93 62 94 63 95
REMARK SMILES IDX 66 96 64 97
REMARK H PARENT 16 16 88 50 56 61
REMARK Flexibility Score: inf
ROOT
ATOM      1  C   UNL     1       2.128  -2.512   0.124  1.00  0.00     0.188 C 
ENDROOT
BRANCH   1   2
ATOM      2  C   UNL     1       2.746  -1.592  -0.940  1.00  0.00     0.188 C 
BRANCH   2   3
ATOM      3  O   UNL     1       4.136  -1.341  -0.886  1.00  0.00    -0.376 OA
BRANCH   3   4
ATOM      4  C   UNL     1       4.856  -0.294  -0.275  1.00  0.00     0.202 C 
BRANCH   4   5
ATOM      5  C   UNL     1       4.316   0.448   0.933  1.00  0.00     0.261 C 
BRANCH   5   6
ATOM      6  O   UNL     1       2.914   0.739   0.938  1.00  0.00    -0.463 OA
BRANCH   6   7
ATOM      7  C   UNL     1       2.197   1.315  -0.037  1.00  0.00     0.316 C 
ATOM      8  O   UNL     1       1.013   1.585   0.176  1.00  0.00    -0.251 OA
BRANCH   7   9
ATOM      9  C   UNL     1       2.792   1.657  -1.383  1.00  0.00     0.200 C 
BRANCH   9  10
ATOM     10  S   UNL     1       3.919   3.032  -1.291  1.00  0.00    -0.075 SA
BRANCH  10  11
ATOM     11  C   UNL     1       2.916   4.294  -0.714  1.00  0.00     0.184 A 
ATOM     12  N   UNL     1       3.269   5.545  -0.759  1.00  0.00    -0.201 NA
ATOM     13  N   UNL     1       1.681   4.181  -0.144  1.00  0.00    -0.254 N 
ATOM     14  C   UNL     1       2.212   6.174  -0.171  1.00  0.00     0.182 A 
ATOM     15  N   UNL     1       1.228   5.375   0.252  1.00  0.00    -0.153 NA
ATOM     16  H   UNL     1       1.190   3.334  -0.039  1.00  0.00     0.192 HD
BRANCH  14  17
ATOM     17  C   UNL     1       2.182   7.601  -0.095  1.00  0.00     0.024 A 
ATOM     18  C   UNL     1       2.404   8.329  -1.271  1.00  0.00     0.012 A 
ATOM     19  C   UNL     1       1.997   8.239   1.128  1.00  0.00     0.051 A 
ATOM     20  C   UNL     1       2.443   9.715  -1.225  1.00  0.00     0.004 A 
ATOM     21  C   UNL     1       2.057   9.620   1.160  1.00  0.00     0.123 A 
ATOM     22  C   UNL     1       2.277  10.361  -0.001  1.00  0.00     0.039 A 
ATOM     23  F   UNL     1       1.918  10.254   2.331  1.00  0.00    -0.207 F 
ENDBRANCH  14  17
ENDBRANCH  10  11
ENDBRANCH   9  10
ENDBRANCH   7   9
ENDBRANCH   6   7
ENDBRANCH   5   6
ENDBRANCH   4   5
ENDBRANCH   3   4
ENDBRANCH   2   3
ENDBRANCH   1   2
BRANCH   1  24
ATOM     24  O   UNL     1       2.865  -3.631   0.587  1.00  0.00    -0.377 OA
BRANCH  24  25
ATOM     25  C   UNL     1       4.242  -3.412   0.823  1.00  0.00     0.188 C 
BRANCH  25  26
ATOM     26  C   UNL     1       5.144  -3.819  -0.364  1.00  0.00     0.188 C 
BRANCH  26  27
ATOM     27  O   UNL     1       4.613  -3.847  -1.673  1.00  0.00    -0.376 OA
BRANCH  27  28
ATOM     28  C   UNL     1       3.584  -4.733  -2.077  1.00  0.00     0.202 C 
BRANCH  28  29
ATOM     29  C   UNL     1       3.068  -5.972  -1.319  1.00  0.00     0.261 C 
BRANCH  29  30
ATOM     30  O   UNL     1       3.471  -6.169   0.033  1.00  0.00    -0.460 OA
BRANCH  30  31
ATOM     31  C   UNL     1       4.603  -6.872   0.222  1.00  0.00     0.338 C 
ATOM     32  O   UNL     1       5.309  -7.387  -0.632  1.00  0.00    -0.246 OA
BRANCH  31  33
ATOM     33  C   UNL     1       4.992  -6.717   1.638  1.00  0.00     0.060 A 
ATOM     34  C   UNL     1       6.255  -6.178   1.924  1.00  0.00     0.016 A 
ATOM     35  C   UNL     1       4.115  -7.058   2.671  1.00  0.00     0.016 A 
ATOM     36  C   UNL     1       6.659  -6.005   3.242  1.00  0.00     0.010 A 
ATOM     37  C   UNL     1       4.540  -6.933   3.995  1.00  0.00     0.010 A 
ATOM     38  C   UNL     1       5.828  -6.442   4.279  1.00  0.00    -0.014 A 
BRANCH  38  39
ATOM     39  C   UNL     1       6.422  -6.633   5.620  1.00  0.00     0.031 A 
ATOM     40  C   UNL     1       6.965  -7.996   5.950  1.00  0.00     0.074 A 
ATOM     41  C   UNL     1       6.553  -5.613   6.484  1.00  0.00     0.049 A 
ATOM     42  N   UNL     1       7.528  -8.422   7.050  1.00  0.00    -0.248 NA
ATOM     43  C   UNL     1       6.868  -9.016   4.891  1.00  0.00     0.031 C 
ATOM     44  C   UNL     1       6.132  -4.236   6.239  1.00  0.00     0.029 A 
ATOM     45  N   UNL     1       7.090  -5.583   7.747  1.00  0.00    -0.354 N 
ATOM     46  C   UNL     1       7.851  -9.751   6.813  1.00  0.00     0.074 A 
ATOM     47  C   UNL     1       7.394 -10.077   5.482  1.00  0.00     0.031 C 
ATOM     48  C   UNL     1       6.426  -3.493   7.320  1.00  0.00     0.029 A 
ATOM     49  C   UNL     1       7.024  -4.349   8.344  1.00  0.00     0.049 A 
ATOM     50  H   UNL     1       7.485  -6.373   8.183  1.00  0.00     0.167 HD
ATOM     51  C   UNL     1       8.489 -10.617   7.631  1.00  0.00     0.037 A 
ATOM     52  C   UNL     1       7.393  -3.968   9.583  1.00  0.00     0.037 A 
ATOM     53  C   UNL     1       8.945 -10.287   8.954  1.00  0.00     0.049 A 
ATOM     54  C   UNL     1       8.007  -4.985  10.514  1.00  0.00     0.074 A 
ATOM     55  C   UNL     1       9.591 -11.099   9.867  1.00  0.00     0.029 A 
ATOM     56  N   UNL     1       8.800  -9.043   9.550  1.00  0.00    -0.354 N 
ATOM     57  N   UNL     1       8.308  -6.241  10.287  1.00  0.00    -0.248 NA
ATOM     58  C   UNL     1       8.335  -4.530  11.873  1.00  0.00     0.031 C 
ATOM     59  C   UNL     1       9.789 -10.364  11.037  1.00  0.00     0.029 A 
ATOM     60  C   UNL     1       9.328  -9.074  10.830  1.00  0.00     0.049 A 
ATOM     61  H   UNL     1       8.386  -8.257   9.127  1.00  0.00     0.167 HD
ATOM     62  C   UNL     1       8.890  -6.714  11.457  1.00  0.00     0.074 A 
ATOM     63  C   UNL     1       8.913  -5.606  12.388  1.00  0.00     0.031 C 
ATOM     64  C   UNL     1       9.361  -7.955  11.736  1.00  0.00     0.037 A 
BRANCH  51  65
ATOM     65  C   UNL     1       8.732 -12.010   7.133  1.00  0.00     0.064 A 
ATOM     66  C   UNL     1       8.058 -13.097   7.710  1.00  0.00     0.173 A 
ATOM     67  C   UNL     1       9.696 -12.280   6.151  1.00  0.00     0.173 A 
ATOM     68  F   UNL     1       7.124 -12.890   8.651  1.00  0.00    -0.203 F 
ATOM     69  C   UNL     1       8.365 -14.404   7.347  1.00  0.00     0.198 A 
ATOM     70  C   UNL     1       9.980 -13.588   5.769  1.00  0.00     0.198 A 
ATOM     71  F   UNL     1      10.353 -11.273   5.554  1.00  0.00    -0.203 F 
ATOM     72  F   UNL     1       7.742 -15.428   7.946  1.00  0.00    -0.200 F 
ATOM     73  C   UNL     1       9.326 -14.649   6.378  1.00  0.00     0.200 A 
ATOM     74  F   UNL     1      10.892 -13.822   4.815  1.00  0.00    -0.200 F 
ATOM     75  F   UNL     1       9.624 -15.909   6.032  1.00  0.00    -0.200 F 
ENDBRANCH  51  65
BRANCH  52  76
ATOM     76  C   UNL     1       7.195  -2.560  10.022  1.00  0.00     0.064 A 
ATOM     77  C   UNL     1       5.911  -2.019  10.187  1.00  0.00     0.173 A 
ATOM     78  C   UNL     1       8.289  -1.730  10.304  1.00  0.00     0.173 A 
ATOM     79  F   UNL     1       4.828  -2.770   9.937  1.00  0.00    -0.203 F 
ATOM     80  C   UNL     1       5.730  -0.701  10.602  1.00  0.00     0.198 A 
ATOM     81  C   UNL     1       8.107  -0.422  10.750  1.00  0.00     0.198 A 
ATOM     82  F   UNL     1       9.538  -2.206  10.187  1.00  0.00    -0.203 F 
ATOM     83  F   UNL     1       4.492  -0.203  10.723  1.00  0.00    -0.200 F 
ATOM     84  C   UNL     1       6.828   0.094  10.891  1.00  0.00     0.200 A 
ATOM     85  F   UNL     1       9.171   0.332  11.059  1.00  0.00    -0.200 F 
ATOM     86  F   UNL     1       6.654   1.354  11.312  1.00  0.00    -0.200 F 
ENDBRANCH  52  76
BRANCH  64  87
ATOM     87  C   UNL     1       9.983  -8.184  13.085  1.00  0.00     0.064 A 
ATOM     88  C   UNL     1      11.357  -8.456  13.194  1.00  0.00     0.173 A 
ATOM     89  C   UNL     1       9.213  -8.221  14.255  1.00  0.00     0.173 A 
ATOM     90  F   UNL     1      12.137  -8.447  12.102  1.00  0.00    -0.203 F 
ATOM     91  C   UNL     1      11.931  -8.772  14.421  1.00  0.00     0.198 A 
ATOM     92  C   UNL     1       9.797  -8.502  15.488  1.00  0.00     0.198 A 
ATOM     93  F   UNL     1       7.898  -7.961  14.207  1.00  0.00    -0.203 F 
ATOM     94  F   UNL     1      13.235  -9.071  14.492  1.00  0.00    -0.200 F 
ATOM     95  C   UNL     1      11.152  -8.789  15.568  1.00  0.00     0.200 A 
ATOM     96  F   UNL     1       9.049  -8.492  16.599  1.00  0.00    -0.200 F 
ATOM     97  F   UNL     1      11.708  -9.079  16.752  1.00  0.00    -0.200 F 
ENDBRANCH  64  87
ENDBRANCH  38  39
ENDBRANCH  31  33
ENDBRANCH  30  31
ENDBRANCH  29  30
ENDBRANCH  28  29
ENDBRANCH  27  28
ENDBRANCH  26  27
ENDBRANCH  25  26
ENDBRANCH  24  25
ENDBRANCH   1  24
TORSDOF 23
