REMARK SMILES CC(=O)N[C@@H](C)C(=O)N1CCC[C@H]1C(=O)OCCOCCOCCOCCOC(=O)c1ccc(-c2c3nc(c(-c4c(F)c(F)c(F)c(F)c4F)c4ccc([nH]4)c(-c4c(F)c(F)c(F)c(F)c4F)c4nc(c(-c5c(F)c(F)c(F)c(F)c5F)c5ccc2[nH]5)C=C4)C=C3)cc1
REMARK SMILES IDX 21 1 20 2 19 3 18 4 17 5 16 6 14 7 15 8 13 9 9 10 10 11
REMARK SMILES IDX 11 12 12 13 7 14 8 15 5 16 6 17 4 18 1 19 2 20 3 21 22 23
REMARK SMILES IDX 23 24 24 25 25 26 26 27 27 28 28 29 29 30 30 31 31 32 32 33
REMARK SMILES IDX 93 34 33 35 92 36 34 37 35 38 36 39 86 40 37 41 91 42 85 43
REMARK SMILES IDX 87 44 38 45 90 46 84 47 83 48 39 50 71 51 51 52 70 53 52 54
REMARK SMILES IDX 55 55 69 56 88 57 53 58 54 59 68 61 89 62 56 63 40 64 41 65
REMARK SMILES IDX 49 66 42 67 43 68 47 69 50 70 44 71 45 72 48 73 46 74 72 75
REMARK SMILES IDX 73 76 81 77 74 78 75 79 79 80 82 81 76 82 77 83 80 84 78 85
REMARK SMILES IDX 57 86 58 87 66 88 59 89 60 90 64 91 67 92 61 93 62 94 65 95
REMARK SMILES IDX 63 96
REMARK H PARENT 4 22 87 49 55 60
REMARK Flexibility Score: inf
ROOT
ATOM      1  C   UNL     1      -0.798  -4.720   7.983  1.00  0.00     0.188 C 
ENDROOT
BRANCH   1   2
ATOM      2  C   UNL     1      -1.989  -4.202   7.145  1.00  0.00     0.188 C 
BRANCH   2   3
ATOM      3  O   UNL     1      -2.786  -5.194   6.534  1.00  0.00    -0.376 OA
BRANCH   3   4
ATOM      4  C   UNL     1      -2.248  -6.065   5.551  1.00  0.00     0.202 C 
BRANCH   4   5
ATOM      5  C   UNL     1      -0.784  -6.095   5.049  1.00  0.00     0.261 C 
BRANCH   5   6
ATOM      6  O   UNL     1       0.097  -5.008   5.340  1.00  0.00    -0.462 OA
BRANCH   6   7
ATOM      7  C   UNL     1      -0.150  -3.825   4.723  1.00  0.00     0.328 C 
ATOM      8  O   UNL     1      -1.103  -3.619   3.982  1.00  0.00    -0.250 OA
BRANCH   7   9
ATOM      9  C   UNL     1       0.890  -2.777   5.178  1.00  0.00     0.195 C 
ATOM     10  N   UNL     1       0.878  -1.681   4.221  1.00  0.00    -0.327 N 
ATOM     11  C   UNL     1       0.219  -0.528   4.806  1.00  0.00     0.120 C 
ATOM     12  C   UNL     1       0.702  -0.577   6.238  1.00  0.00     0.024 C 
ATOM     13  C   UNL     1       0.671  -2.072   6.534  1.00  0.00     0.039 C 
BRANCH  10  14
ATOM     14  C   UNL     1       1.524  -1.876   3.024  1.00  0.00     0.245 C 
ATOM     15  O   UNL     1       1.831  -3.021   2.668  1.00  0.00    -0.272 OA
BRANCH  14  16
ATOM     16  C   UNL     1       2.199  -0.684   2.333  1.00  0.00     0.168 C 
ATOM     17  C   UNL     1       3.409  -0.324   3.193  1.00  0.00     0.041 C 
BRANCH  16  18
ATOM     18  N   UNL     1       1.373   0.488   2.092  1.00  0.00    -0.345 N 
ATOM     19  C   UNL     1       0.886  -0.035  -0.261  1.00  0.00     0.114 C 
ATOM     20  C   UNL     1       0.664   0.792   0.972  1.00  0.00     0.217 C 
ATOM     21  O   UNL     1      -0.108   1.749   0.995  1.00  0.00    -0.275 OA
ATOM     22  H   UNL     1       1.322   1.140   2.828  1.00  0.00     0.164 HD
ENDBRANCH  16  18
ENDBRANCH  14  16
ENDBRANCH  10  14
ENDBRANCH   7   9
ENDBRANCH   6   7
ENDBRANCH   5   6
ENDBRANCH   4   5
ENDBRANCH   3   4
ENDBRANCH   2   3
ENDBRANCH   1   2
BRANCH   1  23
ATOM     23  O   UNL     1      -0.700  -6.136   7.945  1.00  0.00    -0.377 OA
BRANCH  23  24
ATOM     24  C   UNL     1      -1.378  -6.812   8.992  1.00  0.00     0.188 C 
BRANCH  24  25
ATOM     25  C   UNL     1      -2.799  -6.344   9.377  1.00  0.00     0.188 C 
BRANCH  25  26
ATOM     26  O   UNL     1      -2.895  -4.941   9.577  1.00  0.00    -0.376 OA
BRANCH  26  27
ATOM     27  C   UNL     1      -3.044  -4.401  10.873  1.00  0.00     0.202 C 
BRANCH  27  28
ATOM     28  C   UNL     1      -1.793  -4.394  11.760  1.00  0.00     0.261 C 
BRANCH  28  29
ATOM     29  O   UNL     1      -1.085  -5.636  11.847  1.00  0.00    -0.460 OA
BRANCH  29  30
ATOM     30  C   UNL     1      -1.732  -6.662  12.449  1.00  0.00     0.338 C 
ATOM     31  O   UNL     1      -2.831  -6.645  12.950  1.00  0.00    -0.246 OA
BRANCH  30  32
ATOM     32  C   UNL     1      -0.928  -7.881  12.204  1.00  0.00     0.060 A 
ATOM     33  C   UNL     1      -1.528  -8.955  11.533  1.00  0.00     0.016 A 
ATOM     34  C   UNL     1       0.416  -7.938  12.579  1.00  0.00     0.016 A 
ATOM     35  C   UNL     1      -0.788 -10.102  11.255  1.00  0.00     0.010 A 
ATOM     36  C   UNL     1       1.147  -9.101  12.332  1.00  0.00     0.010 A 
ATOM     37  C   UNL     1       0.536 -10.198  11.700  1.00  0.00    -0.014 A 
BRANCH  37  38
ATOM     38  C   UNL     1       1.194 -11.523  11.728  1.00  0.00     0.031 A 
ATOM     39  C   UNL     1       1.114 -12.314  13.003  1.00  0.00     0.074 A 
ATOM     40  C   UNL     1       1.822 -12.024  10.652  1.00  0.00     0.049 A 
ATOM     41  N   UNL     1       1.635 -13.475  13.301  1.00  0.00    -0.248 NA
ATOM     42  C   UNL     1       0.338 -11.702  14.095  1.00  0.00     0.031 C 
ATOM     43  C   UNL     1       1.919 -11.373   9.349  1.00  0.00     0.029 A 
ATOM     44  N   UNL     1       2.503 -13.205  10.495  1.00  0.00    -0.354 N 
ATOM     45  C   UNL     1       1.256 -13.728  14.613  1.00  0.00     0.074 A 
ATOM     46  C   UNL     1       0.494 -12.587  15.066  1.00  0.00     0.031 C 
ATOM     47  C   UNL     1       2.633 -12.159   8.524  1.00  0.00     0.029 A 
ATOM     48  C   UNL     1       3.069 -13.351   9.253  1.00  0.00     0.049 A 
ATOM     49  H   UNL     1       2.579 -13.882  11.205  1.00  0.00     0.167 HD
ATOM     50  C   UNL     1       1.516 -14.820  15.369  1.00  0.00     0.037 A 
ATOM     51  C   UNL     1       3.865 -14.327   8.775  1.00  0.00     0.037 A 
ATOM     52  C   UNL     1       2.287 -15.946  14.914  1.00  0.00     0.049 A 
ATOM     53  C   UNL     1       4.219 -15.492   9.667  1.00  0.00     0.074 A 
ATOM     54  C   UNL     1       2.598 -17.109  15.593  1.00  0.00     0.029 A 
ATOM     55  N   UNL     1       2.884 -16.038  13.664  1.00  0.00    -0.354 N 
ATOM     56  N   UNL     1       3.837 -15.743  10.897  1.00  0.00    -0.248 NA
ATOM     57  C   UNL     1       5.114 -16.511   9.100  1.00  0.00     0.031 C 
ATOM     58  C   UNL     1       3.440 -17.875  14.780  1.00  0.00     0.029 A 
ATOM     59  C   UNL     1       3.592 -17.225  13.566  1.00  0.00     0.049 A 
ATOM     60  H   UNL     1       2.813 -15.361  12.953  1.00  0.00     0.167 HD
ATOM     61  C   UNL     1       4.416 -16.960  11.238  1.00  0.00     0.074 A 
ATOM     62  C   UNL     1       5.165 -17.402  10.080  1.00  0.00     0.031 C 
ATOM     63  C   UNL     1       4.331 -17.652  12.402  1.00  0.00     0.037 A 
BRANCH  50  64
ATOM     64  C   UNL     1       1.000 -14.819  16.779  1.00  0.00     0.064 A 
ATOM     65  C   UNL     1      -0.372 -14.884  17.068  1.00  0.00     0.173 A 
ATOM     66  C   UNL     1       1.893 -14.747  17.858  1.00  0.00     0.173 A 
ATOM     67  F   UNL     1      -1.272 -14.935  16.074  1.00  0.00    -0.203 F 
ATOM     68  C   UNL     1      -0.831 -14.839  18.383  1.00  0.00     0.198 A 
ATOM     69  C   UNL     1       1.433 -14.739  19.172  1.00  0.00     0.198 A 
ATOM     70  F   UNL     1       3.215 -14.681  17.639  1.00  0.00    -0.203 F 
ATOM     71  F   UNL     1      -2.148 -14.835  18.632  1.00  0.00    -0.200 F 
ATOM     72  C   UNL     1       0.072 -14.774  19.433  1.00  0.00     0.200 A 
ATOM     73  F   UNL     1       2.309 -14.688  20.185  1.00  0.00    -0.200 F 
ATOM     74  F   UNL     1      -0.370 -14.731  20.697  1.00  0.00    -0.200 F 
ENDBRANCH  50  64
BRANCH  51  75
ATOM     75  C   UNL     1       4.389 -14.244   7.386  1.00  0.00     0.064 A 
ATOM     76  C   UNL     1       3.980 -15.155   6.403  1.00  0.00     0.173 A 
ATOM     77  C   UNL     1       5.320 -13.262   7.016  1.00  0.00     0.173 A 
ATOM     78  F   UNL     1       3.113 -16.131   6.714  1.00  0.00    -0.203 F 
ATOM     79  C   UNL     1       4.492 -15.097   5.108  1.00  0.00     0.198 A 
ATOM     80  C   UNL     1       5.809 -13.186   5.713  1.00  0.00     0.198 A 
ATOM     81  F   UNL     1       5.750 -12.369   7.920  1.00  0.00    -0.203 F 
ATOM     82  F   UNL     1       4.119 -16.010   4.201  1.00  0.00    -0.200 F 
ATOM     83  C   UNL     1       5.400 -14.108   4.762  1.00  0.00     0.200 A 
ATOM     84  F   UNL     1       6.678 -12.221   5.381  1.00  0.00    -0.200 F 
ATOM     85  F   UNL     1       5.888 -14.049   3.516  1.00  0.00    -0.200 F 
ENDBRANCH  51  75
BRANCH  63  86
ATOM     86  C   UNL     1       5.029 -18.981  12.473  1.00  0.00     0.064 A 
ATOM     87  C   UNL     1       6.428 -19.085  12.499  1.00  0.00     0.173 A 
ATOM     88  C   UNL     1       4.284 -20.168  12.565  1.00  0.00     0.173 A 
ATOM     89  F   UNL     1       7.189 -17.984  12.402  1.00  0.00    -0.203 F 
ATOM     90  C   UNL     1       7.053 -20.327  12.584  1.00  0.00     0.198 A 
ATOM     91  C   UNL     1       4.912 -21.404  12.687  1.00  0.00     0.198 A 
ATOM     92  F   UNL     1       2.943 -20.127  12.556  1.00  0.00    -0.203 F 
ATOM     93  F   UNL     1       8.391 -20.404  12.553  1.00  0.00    -0.200 F 
ATOM     94  C   UNL     1       6.295 -21.483  12.687  1.00  0.00     0.200 A 
ATOM     95  F   UNL     1       4.177 -22.518  12.807  1.00  0.00    -0.200 F 
ATOM     96  F   UNL     1       6.899 -22.676  12.780  1.00  0.00    -0.200 F 
ENDBRANCH  63  86
ENDBRANCH  37  38
ENDBRANCH  30  32
ENDBRANCH  29  30
ENDBRANCH  28  29
ENDBRANCH  27  28
ENDBRANCH  26  27
ENDBRANCH  25  26
ENDBRANCH  24  25
ENDBRANCH  23  24
ENDBRANCH   1  23
TORSDOF 23
