REMARK SMILES CC(=O)Nc1ccc(/C=C2/CCc3oc(C(=O)OCCOCCOCCOCCOC(=O)c4ccc(-c5c6nc(c(-c7c(F)c(F)c(F)c(F)c7F)c7ccc([nH]7)c(-c7c(F)c(F)c(F)c(F)c7F)c7nc(c(-c8c(F)c(F)c(F)c(F)c8F)c8ccc5[nH]8)C=C7)C=C6)cc4)c(C)c3C2=O)cc1
REMARK SMILES IDX 24 1 23 2 22 3 21 4 20 5 19 6 18 7 16 8 17 9 15 10 9 11
REMARK SMILES IDX 10 12 11 13 99 14 12 15 98 16 100 17 13 18 96 19 14 20 97 21
REMARK SMILES IDX 8 22 5 23 6 24 102 25 7 26 101 27 4 28 1 29 2 30 3 31 25 33
REMARK SMILES IDX 26 34 27 35 28 36 29 37 30 38 31 39 32 40 33 41 34 42 95 43
REMARK SMILES IDX 35 44 94 45 36 46 37 47 38 48 88 49 39 50 93 51 87 52 89 53
REMARK SMILES IDX 40 54 92 55 86 56 85 57 41 59 73 60 53 61 72 62 54 63 57 64
REMARK SMILES IDX 71 65 90 66 55 67 56 68 70 70 91 71 58 72 42 73 43 74 51 75
REMARK SMILES IDX 44 76 45 77 49 78 52 79 46 80 47 81 50 82 48 83 74 84 75 85
REMARK SMILES IDX 83 86 76 87 77 88 81 89 84 90 78 91 79 92 82 93 80 94 59 95
REMARK SMILES IDX 60 96 68 97 61 98 62 99 66 100 69 101 63 102 64 103 67 104
REMARK SMILES IDX 65 105
REMARK H PARENT 4 32 89 58 57 69
REMARK Flexibility Score: inf
ROOT
ATOM      1  O   UNL     1       5.647  14.330   1.593  1.00  0.00    -0.377 OA
ENDROOT
BRANCH   1   2
ATOM      2  C   UNL     1       4.654  13.519   0.963  1.00  0.00     0.188 C 
BRANCH   2   3
ATOM      3  C   UNL     1       3.256  14.059   0.577  1.00  0.00     0.188 C 
BRANCH   3   4
ATOM      4  O   UNL     1       2.804  15.130   1.384  1.00  0.00    -0.376 OA
BRANCH   4   5
ATOM      5  C   UNL     1       1.725  14.944   2.272  1.00  0.00     0.202 C 
BRANCH   5   6
ATOM      6  C   UNL     1       1.949  13.974   3.437  1.00  0.00     0.261 C 
BRANCH   6   7
ATOM      7  O   UNL     1       2.488  12.692   3.095  1.00  0.00    -0.457 OA
BRANCH   7   8
ATOM      8  C   UNL     1       1.726  11.874   2.322  1.00  0.00     0.374 C 
ATOM      9  O   UNL     1       0.593  12.144   1.931  1.00  0.00    -0.242 OA
BRANCH   8  10
ATOM     10  C   UNL     1       2.519  10.738   1.910  1.00  0.00     0.215 A 
ATOM     11  C   UNL     1       4.507   5.486   0.840  1.00  0.00     0.016 C 
ATOM     12  C   UNL     1       4.685   6.820   0.907  1.00  0.00     0.001 C 
ATOM     13  C   UNL     1       5.685   7.422   1.891  1.00  0.00     0.048 C 
ATOM     14  C   UNL     1       3.926   7.846   0.103  1.00  0.00     0.192 C 
ATOM     15  C   UNL     1       4.998   8.344   2.917  1.00  0.00     0.081 C 
ATOM     16  C   UNL     1       3.503   8.967   0.927  1.00  0.00     0.067 A 
ATOM     17  O   UNL     1       3.699   7.752  -1.094  1.00  0.00    -0.289 OA
ATOM     18  C   UNL     1       3.988   9.151   2.201  1.00  0.00     0.116 A 
ATOM     19  C   UNL     1       2.613  10.058   0.695  1.00  0.00     0.014 A 
ATOM     20  O   UNL     1       3.410  10.205   2.811  1.00  0.00    -0.453 OA
ATOM     21  C   UNL     1       1.948  10.392  -0.592  1.00  0.00     0.049 C 
BRANCH  11  22
ATOM     22  C   UNL     1       3.567   4.617   0.102  1.00  0.00    -0.025 A 
ATOM     23  C   UNL     1       1.772   2.744  -1.058  1.00  0.00     0.041 A 
ATOM     24  C   UNL     1       1.506   4.114  -1.099  1.00  0.00     0.027 A 
ATOM     25  C   UNL     1       2.963   2.315  -0.481  1.00  0.00     0.027 A 
ATOM     26  C   UNL     1       2.375   5.035  -0.493  1.00  0.00     0.010 A 
ATOM     27  C   UNL     1       3.849   3.241   0.084  1.00  0.00     0.010 A 
BRANCH  23  28
ATOM     28  N   UNL     1       0.841   1.880  -1.652  1.00  0.00    -0.326 N 
ATOM     29  C   UNL     1       1.001  -0.068  -0.112  1.00  0.00     0.114 C 
ATOM     30  C   UNL     1       0.543   0.571  -1.396  1.00  0.00     0.221 C 
ATOM     31  O   UNL     1      -0.172  -0.048  -2.186  1.00  0.00    -0.275 OA
ATOM     32  H   UNL     1       0.313   2.285  -2.378  1.00  0.00     0.169 HD
ENDBRANCH  23  28
ENDBRANCH  11  22
ENDBRANCH   8  10
ENDBRANCH   7   8
ENDBRANCH   6   7
ENDBRANCH   5   6
ENDBRANCH   4   5
ENDBRANCH   3   4
ENDBRANCH   2   3
ENDBRANCH   1   2
BRANCH   1  33
ATOM     33  C   UNL     1       5.294  15.623   2.052  1.00  0.00     0.188 C 
BRANCH  33  34
ATOM     34  C   UNL     1       5.072  16.692   0.954  1.00  0.00     0.188 C 
BRANCH  34  35
ATOM     35  O   UNL     1       4.687  16.217  -0.323  1.00  0.00    -0.376 OA
BRANCH  35  36
ATOM     36  C   UNL     1       5.543  15.846  -1.390  1.00  0.00     0.202 C 
BRANCH  36  37
ATOM     37  C   UNL     1       6.958  15.284  -1.265  1.00  0.00     0.261 C 
BRANCH  37  38
ATOM     38  O   UNL     1       7.537  15.426   0.003  1.00  0.00    -0.460 OA
BRANCH  38  39
ATOM     39  C   UNL     1       7.928  16.673   0.292  1.00  0.00     0.338 C 
ATOM     40  O   UNL     1       7.873  17.655  -0.438  1.00  0.00    -0.246 OA
BRANCH  39  41
ATOM     41  C   UNL     1       8.496  16.660   1.649  1.00  0.00     0.060 A 
ATOM     42  C   UNL     1       9.059  17.876   2.020  1.00  0.00     0.016 A 
ATOM     43  C   UNL     1       8.965  15.423   2.120  1.00  0.00     0.016 A 
ATOM     44  C   UNL     1      10.364  17.830   2.414  1.00  0.00     0.010 A 
ATOM     45  C   UNL     1      10.274  15.373   2.493  1.00  0.00     0.010 A 
ATOM     46  C   UNL     1      10.974  16.574   2.484  1.00  0.00    -0.014 A 
BRANCH  46  47
ATOM     47  C   UNL     1      12.409  16.545   2.491  1.00  0.00     0.031 A 
ATOM     48  C   UNL     1      12.961  16.803   3.826  1.00  0.00     0.074 A 
ATOM     49  C   UNL     1      13.103  16.245   1.381  1.00  0.00     0.049 A 
ATOM     50  N   UNL     1      13.614  17.842   4.222  1.00  0.00    -0.248 NA
ATOM     51  C   UNL     1      12.545  15.890   4.901  1.00  0.00     0.031 C 
ATOM     52  C   UNL     1      12.626  15.712   0.101  1.00  0.00     0.029 A 
ATOM     53  N   UNL     1      14.450  16.261   1.226  1.00  0.00    -0.354 N 
ATOM     54  C   UNL     1      13.850  17.623   5.571  1.00  0.00     0.074 A 
ATOM     55  C   UNL     1      12.995  16.540   5.972  1.00  0.00     0.031 C 
ATOM     56  C   UNL     1      13.682  15.234  -0.598  1.00  0.00     0.029 A 
ATOM     57  C   UNL     1      14.900  15.540   0.130  1.00  0.00     0.049 A 
ATOM     58  H   UNL     1      15.054  16.741   1.838  1.00  0.00     0.167 HD
ATOM     59  C   UNL     1      14.926  18.172   6.191  1.00  0.00     0.037 A 
ATOM     60  C   UNL     1      16.180  15.118  -0.011  1.00  0.00     0.037 A 
ATOM     61  C   UNL     1      15.454  19.282   5.442  1.00  0.00     0.049 A 
ATOM     62  C   UNL     1      17.020  15.970   0.887  1.00  0.00     0.074 A 
ATOM     63  C   UNL     1      14.938  20.503   5.049  1.00  0.00     0.029 A 
ATOM     64  N   UNL     1      16.550  19.067   4.639  1.00  0.00    -0.354 N 
ATOM     65  N   UNL     1      17.204  17.252   0.701  1.00  0.00    -0.248 NA
ATOM     66  C   UNL     1      17.219  15.509   2.257  1.00  0.00     0.031 C 
ATOM     67  C   UNL     1      15.444  20.714   3.732  1.00  0.00     0.029 A 
ATOM     68  C   UNL     1      16.280  19.641   3.421  1.00  0.00     0.049 A 
ATOM     69  H   UNL     1      17.374  18.590   4.891  1.00  0.00     0.167 HD
ATOM     70  C   UNL     1      17.145  17.815   1.971  1.00  0.00     0.074 A 
ATOM     71  C   UNL     1      17.203  16.684   2.894  1.00  0.00     0.031 C 
ATOM     72  C   UNL     1      16.758  19.111   2.164  1.00  0.00     0.037 A 
BRANCH  59  73
ATOM     73  C   UNL     1      15.694  17.468   7.275  1.00  0.00     0.064 A 
ATOM     74  C   UNL     1      16.683  18.177   7.977  1.00  0.00     0.173 A 
ATOM     75  C   UNL     1      15.694  16.066   7.467  1.00  0.00     0.173 A 
ATOM     76  F   UNL     1      16.785  19.509   7.853  1.00  0.00    -0.203 F 
ATOM     77  C   UNL     1      17.643  17.525   8.752  1.00  0.00     0.198 A 
ATOM     78  C   UNL     1      16.614  15.426   8.290  1.00  0.00     0.198 A 
ATOM     79  F   UNL     1      14.888  15.244   6.786  1.00  0.00    -0.203 F 
ATOM     80  F   UNL     1      18.642  18.229   9.299  1.00  0.00    -0.200 F 
ATOM     81  C   UNL     1      17.611  16.150   8.904  1.00  0.00     0.200 A 
ATOM     82  F   UNL     1      16.571  14.091   8.411  1.00  0.00    -0.200 F 
ATOM     83  F   UNL     1      18.565  15.518   9.599  1.00  0.00    -0.200 F 
ENDBRANCH  59  73
BRANCH  60  84
ATOM     84  C   UNL     1      16.602  13.784  -0.503  1.00  0.00     0.064 A 
ATOM     85  C   UNL     1      17.922  13.540  -0.909  1.00  0.00     0.173 A 
ATOM     86  C   UNL     1      15.773  12.651  -0.361  1.00  0.00     0.173 A 
ATOM     87  F   UNL     1      18.793  14.554  -1.009  1.00  0.00    -0.203 F 
ATOM     88  C   UNL     1      18.382  12.241  -1.160  1.00  0.00     0.198 A 
ATOM     89  C   UNL     1      16.229  11.359  -0.622  1.00  0.00     0.198 A 
ATOM     90  F   UNL     1      14.527  12.761   0.122  1.00  0.00    -0.203 F 
ATOM     91  F   UNL     1      19.663  12.040  -1.500  1.00  0.00    -0.200 F 
ATOM     92  C   UNL     1      17.536  11.153  -1.014  1.00  0.00     0.200 A 
ATOM     93  F   UNL     1      15.409  10.315  -0.436  1.00  0.00    -0.200 F 
ATOM     94  F   UNL     1      17.989   9.907  -1.210  1.00  0.00    -0.200 F 
ENDBRANCH  60  84
BRANCH  72  95
ATOM     95  C   UNL     1      16.570  19.984   0.953  1.00  0.00     0.064 A 
ATOM     96  C   UNL     1      15.602  19.738  -0.038  1.00  0.00     0.173 A 
ATOM     97  C   UNL     1      17.260  21.201   0.886  1.00  0.00     0.173 A 
ATOM     98  F   UNL     1      14.823  18.651   0.019  1.00  0.00    -0.203 F 
ATOM     99  C   UNL     1      15.370  20.648  -1.068  1.00  0.00     0.198 A 
ATOM    100  C   UNL     1      17.000  22.126  -0.122  1.00  0.00     0.198 A 
ATOM    101  F   UNL     1      18.149  21.522   1.839  1.00  0.00    -0.203 F 
ATOM    102  F   UNL     1      14.444  20.385  -2.002  1.00  0.00    -0.200 F 
ATOM    103  C   UNL     1      16.063  21.846  -1.104  1.00  0.00     0.200 A 
ATOM    104  F   UNL     1      17.634  23.307  -0.122  1.00  0.00    -0.200 F 
ATOM    105  F   UNL     1      15.807  22.744  -2.066  1.00  0.00    -0.200 F 
ENDBRANCH  72  95
ENDBRANCH  46  47
ENDBRANCH  39  41
ENDBRANCH  38  39
ENDBRANCH  37  38
ENDBRANCH  36  37
ENDBRANCH  35  36
ENDBRANCH  34  35
ENDBRANCH  33  34
ENDBRANCH   1  33
TORSDOF 22
