REMARK SMILES CCOc1cc(OCC)cc(-c2ccc([C@@H](C)C(=O)OCCOCCOCCOCCOC(=O)c3ccc(-c4c5nc(c(-c6c(F)c(F)c(F)c(F)c6F)c6ccc([nH]6)c(-c6c(F)c(F)c(F)c(F)c6F)c6nc(c(-c7c(F)c(F)c(F)c(F)c7F)c7ccc4[nH]7)C=C6)C=C5)cc3)cc2F)c1
REMARK SMILES IDX 25 1 24 2 23 3 22 4 21 5 20 6 18 7 19 8 16 9 17 10 15 11
REMARK SMILES IDX 12 12 13 13 99 14 14 15 98 16 100 17 11 18 4 19 5 20 101 21
REMARK SMILES IDX 6 22 10 23 3 24 2 25 1 26 7 27 8 28 9 29 26 30 27 31 28 32
REMARK SMILES IDX 29 33 30 34 31 35 32 36 33 37 34 38 35 39 36 40 97 41 37 42
REMARK SMILES IDX 96 43 38 44 39 45 40 46 90 47 41 48 95 49 89 50 91 51 42 52
REMARK SMILES IDX 94 53 88 54 87 55 43 57 75 58 55 59 74 60 56 61 59 62 73 63
REMARK SMILES IDX 92 64 57 65 58 66 72 68 93 69 60 70 44 71 45 72 53 73 46 74
REMARK SMILES IDX 47 75 51 76 54 77 48 78 49 79 52 80 50 81 76 82 77 83 85 84
REMARK SMILES IDX 78 85 79 86 83 87 86 88 80 89 81 90 84 91 82 92 61 93 62 94
REMARK SMILES IDX 70 95 63 96 64 97 68 98 71 99 65 100 66 101 69 102 67 103
REMARK H PARENT 91 56 59 67
REMARK Flexibility Score: inf
ROOT
ATOM      1  C   UNL     1       5.912  -1.312  -3.429  1.00  0.00     0.188 C 
ENDROOT
BRANCH   1   2
ATOM      2  C   UNL     1       6.248  -1.510  -4.915  1.00  0.00     0.188 C 
BRANCH   2   3
ATOM      3  O   UNL     1       6.992  -2.639  -5.353  1.00  0.00    -0.376 OA
BRANCH   3   4
ATOM      4  C   UNL     1       8.045  -3.161  -4.559  1.00  0.00     0.202 C 
BRANCH   4   5
ATOM      5  C   UNL     1       9.178  -2.251  -4.049  1.00  0.00     0.261 C 
BRANCH   5   6
ATOM      6  O   UNL     1       8.789  -1.008  -3.427  1.00  0.00    -0.463 OA
BRANCH   6   7
ATOM      7  C   UNL     1       8.996   0.115  -4.156  1.00  0.00     0.313 C 
ATOM      8  O   UNL     1       9.504   0.108  -5.277  1.00  0.00    -0.252 OA
BRANCH   7   9
ATOM      9  C   UNL     1       8.591   1.429  -3.490  1.00  0.00     0.126 C 
ATOM     10  C   UNL     1       9.859   2.191  -3.118  1.00  0.00     0.025 C 
BRANCH   9  11
ATOM     11  C   UNL     1       7.578   1.456  -2.346  1.00  0.00    -0.031 A 
ATOM     12  C   UNL     1       5.596   1.577  -0.271  1.00  0.00     0.018 A 
ATOM     13  C   UNL     1       6.784   0.832  -0.123  1.00  0.00     0.012 A 
ATOM     14  C   UNL     1       5.419   2.242  -1.486  1.00  0.00     0.131 A 
ATOM     15  C   UNL     1       7.761   0.777  -1.135  1.00  0.00     0.005 A 
ATOM     16  C   UNL     1       6.388   2.199  -2.497  1.00  0.00     0.044 A 
ATOM     17  F   UNL     1       4.313   2.971  -1.704  1.00  0.00    -0.206 F 
BRANCH  12  18
ATOM     18  C   UNL     1       4.647   1.723   0.853  1.00  0.00    -0.008 A 
ATOM     19  C   UNL     1       2.428   1.624   1.857  1.00  0.00     0.123 A 
ATOM     20  C   UNL     1       2.937   2.084   3.070  1.00  0.00     0.092 A 
ATOM     21  C   UNL     1       3.272   1.457   0.750  1.00  0.00     0.055 A 
ATOM     22  C   UNL     1       4.290   2.394   3.185  1.00  0.00     0.123 A 
ATOM     23  C   UNL     1       5.127   2.209   2.082  1.00  0.00     0.055 A 
BRANCH  19  24
ATOM     24  O   UNL     1       1.065   1.536   1.750  1.00  0.00    -0.494 OA
BRANCH  24  25
ATOM     25  C   UNL     1       0.558   0.206   1.624  1.00  0.00     0.226 C 
ATOM     26  C   UNL     1       0.427  -0.174   0.166  1.00  0.00     0.049 C 
ENDBRANCH  24  25
ENDBRANCH  19  24
BRANCH  22  27
ATOM     27  O   UNL     1       4.690   2.862   4.407  1.00  0.00    -0.494 OA
BRANCH  27  28
ATOM     28  C   UNL     1       5.932   3.571   4.464  1.00  0.00     0.226 C 
ATOM     29  C   UNL     1       7.091   2.626   4.741  1.00  0.00     0.049 C 
ENDBRANCH  27  28
ENDBRANCH  22  27
ENDBRANCH  12  18
ENDBRANCH   9  11
ENDBRANCH   7   9
ENDBRANCH   6   7
ENDBRANCH   5   6
ENDBRANCH   4   5
ENDBRANCH   3   4
ENDBRANCH   2   3
ENDBRANCH   1   2
BRANCH   1  30
ATOM     30  O   UNL     1       6.534  -2.215  -2.536  1.00  0.00    -0.377 OA
BRANCH  30  31
ATOM     31  C   UNL     1       5.725  -3.265  -2.033  1.00  0.00     0.188 C 
BRANCH  31  32
ATOM     32  C   UNL     1       4.770  -3.955  -3.024  1.00  0.00     0.188 C 
BRANCH  32  33
ATOM     33  O   UNL     1       3.936  -3.059  -3.748  1.00  0.00    -0.376 OA
BRANCH  33  34
ATOM     34  C   UNL     1       2.622  -2.833  -3.264  1.00  0.00     0.202 C 
BRANCH  34  35
ATOM     35  C   UNL     1       2.475  -2.094  -1.928  1.00  0.00     0.261 C 
BRANCH  35  36
ATOM     36  O   UNL     1       3.103  -2.693  -0.781  1.00  0.00    -0.460 OA
BRANCH  36  37
ATOM     37  C   UNL     1       2.656  -3.900  -0.388  1.00  0.00     0.338 C 
ATOM     38  O   UNL     1       1.698  -4.508  -0.847  1.00  0.00    -0.246 OA
BRANCH  37  39
ATOM     39  C   UNL     1       3.634  -4.491   0.552  1.00  0.00     0.060 A 
ATOM     40  C   UNL     1       4.249  -5.694   0.184  1.00  0.00     0.016 A 
ATOM     41  C   UNL     1       3.929  -3.904   1.786  1.00  0.00     0.016 A 
ATOM     42  C   UNL     1       5.114  -6.340   1.065  1.00  0.00     0.010 A 
ATOM     43  C   UNL     1       4.782  -4.568   2.682  1.00  0.00     0.010 A 
ATOM     44  C   UNL     1       5.345  -5.812   2.342  1.00  0.00    -0.014 A 
BRANCH  44  45
ATOM     45  C   UNL     1       6.016  -6.675   3.350  1.00  0.00     0.031 A 
ATOM     46  C   UNL     1       5.165  -7.444   4.328  1.00  0.00     0.074 A 
ATOM     47  C   UNL     1       7.348  -6.863   3.332  1.00  0.00     0.049 A 
ATOM     48  N   UNL     1       5.518  -8.332   5.224  1.00  0.00    -0.248 NA
ATOM     49  C   UNL     1       3.719  -7.179   4.283  1.00  0.00     0.031 C 
ATOM     50  C   UNL     1       8.279  -6.210   2.416  1.00  0.00     0.029 A 
ATOM     51  N   UNL     1       8.145  -7.674   4.103  1.00  0.00    -0.354 N 
ATOM     52  C   UNL     1       4.340  -8.734   5.842  1.00  0.00     0.074 A 
ATOM     53  C   UNL     1       3.268  -7.963   5.250  1.00  0.00     0.031 C 
ATOM     54  C   UNL     1       9.523  -6.652   2.672  1.00  0.00     0.029 A 
ATOM     55  C   UNL     1       9.478  -7.600   3.784  1.00  0.00     0.049 A 
ATOM     56  H   UNL     1       7.793  -8.253   4.817  1.00  0.00     0.167 HD
ATOM     57  C   UNL     1       4.164  -9.671   6.805  1.00  0.00     0.037 A 
ATOM     58  C   UNL     1      10.541  -8.224   4.331  1.00  0.00     0.037 A 
ATOM     59  C   UNL     1       5.230 -10.433   7.402  1.00  0.00     0.049 A 
ATOM     60  C   UNL     1      10.324  -9.215   5.448  1.00  0.00     0.074 A 
ATOM     61  C   UNL     1       5.151 -11.414   8.376  1.00  0.00     0.029 A 
ATOM     62  N   UNL     1       6.575 -10.291   7.090  1.00  0.00    -0.354 N 
ATOM     63  N   UNL     1       9.204  -9.616   5.999  1.00  0.00    -0.248 NA
ATOM     64  C   UNL     1      11.525  -9.852   6.006  1.00  0.00     0.031 C 
ATOM     65  C   UNL     1       6.451 -11.819   8.698  1.00  0.00     0.029 A 
ATOM     66  C   UNL     1       7.337 -11.144   7.875  1.00  0.00     0.049 A 
ATOM     67  H   UNL     1       6.935  -9.675   6.412  1.00  0.00     0.167 HD
ATOM     68  C   UNL     1       9.562 -10.569   6.946  1.00  0.00     0.074 A 
ATOM     69  C   UNL     1      11.001 -10.706   6.873  1.00  0.00     0.031 C 
ATOM     70  C   UNL     1       8.771 -11.267   7.801  1.00  0.00     0.037 A 
BRANCH  57  71
ATOM     71  C   UNL     1       2.763  -9.901   7.299  1.00  0.00     0.064 A 
ATOM     72  C   UNL     1       1.783 -10.505   6.495  1.00  0.00     0.173 A 
ATOM     73  C   UNL     1       2.402  -9.536   8.605  1.00  0.00     0.173 A 
ATOM     74  F   UNL     1       2.069 -10.860   5.233  1.00  0.00    -0.203 F 
ATOM     75  C   UNL     1       0.489 -10.707   6.970  1.00  0.00     0.198 A 
ATOM     76  C   UNL     1       1.117  -9.771   9.088  1.00  0.00     0.198 A 
ATOM     77  F   UNL     1       3.299  -8.959   9.418  1.00  0.00    -0.203 F 
ATOM     78  F   UNL     1      -0.444 -11.236   6.166  1.00  0.00    -0.200 F 
ATOM     79  C   UNL     1       0.160 -10.347   8.268  1.00  0.00     0.200 A 
ATOM     80  F   UNL     1       0.805  -9.435  10.348  1.00  0.00    -0.200 F 
ATOM     81  F   UNL     1      -1.083 -10.549   8.727  1.00  0.00    -0.200 F 
ENDBRANCH  57  71
BRANCH  58  82
ATOM     82  C   UNL     1      11.914  -7.933   3.836  1.00  0.00     0.064 A 
ATOM     83  C   UNL     1      12.678  -8.911   3.185  1.00  0.00     0.173 A 
ATOM     84  C   UNL     1      12.502  -6.675   4.036  1.00  0.00     0.173 A 
ATOM     85  F   UNL     1      12.173 -10.139   2.994  1.00  0.00    -0.203 F 
ATOM     86  C   UNL     1      13.985  -8.651   2.775  1.00  0.00     0.198 A 
ATOM     87  C   UNL     1      13.796  -6.405   3.595  1.00  0.00     0.198 A 
ATOM     88  F   UNL     1      11.817  -5.703   4.657  1.00  0.00    -0.203 F 
ATOM     89  F   UNL     1      14.712  -9.622   2.206  1.00  0.00    -0.200 F 
ATOM     90  C   UNL     1      14.540  -7.396   2.974  1.00  0.00     0.200 A 
ATOM     91  F   UNL     1      14.323  -5.186   3.778  1.00  0.00    -0.200 F 
ATOM     92  F   UNL     1      15.795  -7.145   2.577  1.00  0.00    -0.200 F 
ENDBRANCH  58  82
BRANCH  70  93
ATOM     93  C   UNL     1       9.448 -12.266   8.701  1.00  0.00     0.064 A 
ATOM     94  C   UNL     1      10.320 -11.869   9.727  1.00  0.00     0.173 A 
ATOM     95  C   UNL     1       9.226 -13.642   8.531  1.00  0.00     0.173 A 
ATOM     96  F   UNL     1      10.576 -10.568   9.930  1.00  0.00    -0.203 F 
ATOM     97  C   UNL     1      10.984 -12.811  10.510  1.00  0.00     0.198 A 
ATOM     98  C   UNL     1       9.861 -14.579   9.342  1.00  0.00     0.198 A 
ATOM     99  F   UNL     1       8.393 -14.081   7.575  1.00  0.00    -0.203 F 
ATOM    100  F   UNL     1      11.872 -12.408  11.430  1.00  0.00    -0.200 F 
ATOM    101  C   UNL     1      10.751 -14.164  10.320  1.00  0.00     0.200 A 
ATOM    102  F   UNL     1       9.619 -15.886   9.169  1.00  0.00    -0.200 F 
ATOM    103  F   UNL     1      11.396 -15.069  11.069  1.00  0.00    -0.200 F 
ENDBRANCH  70  93
ENDBRANCH  44  45
ENDBRANCH  37  39
ENDBRANCH  36  37
ENDBRANCH  35  36
ENDBRANCH  34  35
ENDBRANCH  33  34
ENDBRANCH  32  33
ENDBRANCH  31  32
ENDBRANCH  30  31
ENDBRANCH   1  30
TORSDOF 26
