REMARK SMILES Cc1cccc(N2C(=O)/C(=C/c3ccc(C(=O)OCCOCCOCCOCCOC(=O)c4ccc(-c5c6nc(c(-c7c(F)c(F)c(F)c(F)c7F)c7ccc([nH]7)c(-c7c(F)c(F)c(F)c(F)c7F)c7nc(c(-c8c(F)c(F)c(F)c(F)c8F)c8ccc5[nH]8)C=C7)C=C6)cc4)cc3)c3ccccc3C2=O)c1
REMARK SMILES IDX 24 1 23 2 22 3 21 4 20 5 19 6 18 7 16 8 17 9 15 10 12 11
REMARK SMILES IDX 13 12 97 13 14 14 96 15 11 16 7 17 8 18 104 19 9 20 10 21
REMARK SMILES IDX 103 22 105 23 98 24 102 25 99 26 101 27 100 28 6 29 1 30
REMARK SMILES IDX 2 31 3 32 106 33 4 34 5 35 25 36 26 37 27 38 28 39 29 40
REMARK SMILES IDX 30 41 31 42 32 43 33 44 34 45 95 46 35 47 94 48 36 49 37 50
REMARK SMILES IDX 38 51 88 52 39 53 93 54 87 55 89 56 40 57 92 58 86 59 85 60
REMARK SMILES IDX 41 62 73 63 53 64 72 65 54 66 57 67 71 68 90 69 55 70 56 71
REMARK SMILES IDX 70 73 91 74 58 75 42 76 43 77 51 78 44 79 45 80 49 81 52 82
REMARK SMILES IDX 46 83 47 84 50 85 48 86 74 87 75 88 83 89 76 90 77 91 81 92
REMARK SMILES IDX 84 93 78 94 79 95 82 96 80 97 59 98 60 99 68 100 61 101
REMARK SMILES IDX 62 102 66 103 69 104 63 105 64 106 67 107 65 108
REMARK H PARENT 89 61 57 72
REMARK Flexibility Score: inf
ROOT
ATOM      1  O   UNL     1      -2.974  11.069   1.432  1.00  0.00    -0.377 OA
ENDROOT
BRANCH   1   2
ATOM      2  C   UNL     1      -1.624  10.710   1.136  1.00  0.00     0.188 C 
BRANCH   2   3
ATOM      3  C   UNL     1      -1.141  11.110  -0.255  1.00  0.00     0.188 C 
BRANCH   3   4
ATOM      4  O   UNL     1      -1.196  12.483  -0.623  1.00  0.00    -0.376 OA
BRANCH   4   5
ATOM      5  C   UNL     1      -2.477  12.933  -1.055  1.00  0.00     0.202 C 
BRANCH   5   6
ATOM      6  C   UNL     1      -2.913  12.447  -2.435  1.00  0.00     0.261 C 
BRANCH   6   7
ATOM      7  O   UNL     1      -3.204  11.053  -2.443  1.00  0.00    -0.460 OA
BRANCH   7   8
ATOM      8  C   UNL     1      -2.603  10.352  -3.429  1.00  0.00     0.338 C 
ATOM      9  O   UNL     1      -2.057  10.775  -4.428  1.00  0.00    -0.246 OA
BRANCH   8  10
ATOM     10  C   UNL     1      -2.394   9.011  -2.865  1.00  0.00     0.060 A 
ATOM     11  C   UNL     1      -1.708   6.760  -1.383  1.00  0.00    -0.025 A 
ATOM     12  C   UNL     1      -0.724   7.496  -2.059  1.00  0.00     0.009 A 
ATOM     13  C   UNL     1      -3.050   7.151  -1.476  1.00  0.00     0.009 A 
ATOM     14  C   UNL     1      -1.063   8.603  -2.817  1.00  0.00     0.016 A 
ATOM     15  C   UNL     1      -3.395   8.300  -2.194  1.00  0.00     0.016 A 
BRANCH  11  16
ATOM     16  C   UNL     1      -1.223   5.556  -0.710  1.00  0.00     0.022 C 
ATOM     17  N   UNL     1      -1.659   2.451   0.632  1.00  0.00    -0.242 N 
ATOM     18  C   UNL     1      -0.877   3.614   0.578  1.00  0.00     0.265 C 
ATOM     19  C   UNL     1      -3.034   2.552   0.964  1.00  0.00     0.265 C 
ATOM     20  O   UNL     1       0.339   3.744   0.695  1.00  0.00    -0.268 OA
ATOM     21  C   UNL     1      -1.673   4.853   0.343  1.00  0.00     0.049 C 
ATOM     22  C   UNL     1      -3.524   3.860   1.497  1.00  0.00     0.048 A 
ATOM     23  O   UNL     1      -3.890   1.674   0.884  1.00  0.00    -0.268 OA
ATOM     24  C   UNL     1      -2.835   5.031   1.188  1.00  0.00    -0.000 A 
ATOM     25  C   UNL     1      -4.670   3.915   2.301  1.00  0.00     0.014 A 
ATOM     26  C   UNL     1      -3.238   6.249   1.747  1.00  0.00     0.010 A 
ATOM     27  C   UNL     1      -5.092   5.136   2.829  1.00  0.00     0.001 A 
ATOM     28  C   UNL     1      -4.371   6.300   2.562  1.00  0.00     0.001 A 
BRANCH  17  29
ATOM     29  C   UNL     1      -1.031   1.150   0.374  1.00  0.00     0.053 A 
ATOM     30  C   UNL     1       2.500  -0.307  -0.062  1.00  0.00     0.044 C 
ATOM     31  C   UNL     1       1.002  -0.230   0.018  1.00  0.00    -0.049 A 
ATOM     32  C   UNL     1       0.228  -1.379  -0.084  1.00  0.00     0.003 A 
ATOM     33  C   UNL     1       0.367   1.006   0.237  1.00  0.00     0.030 A 
ATOM     34  C   UNL     1      -1.153  -1.280   0.013  1.00  0.00     0.002 A 
ATOM     35  C   UNL     1      -1.768  -0.037   0.235  1.00  0.00     0.027 A 
ENDBRANCH  17  29
ENDBRANCH  11  16
ENDBRANCH   8  10
ENDBRANCH   7   8
ENDBRANCH   6   7
ENDBRANCH   5   6
ENDBRANCH   4   5
ENDBRANCH   3   4
ENDBRANCH   2   3
ENDBRANCH   1   2
BRANCH   1  36
ATOM     36  C   UNL     1      -3.115  11.368   2.820  1.00  0.00     0.188 C 
BRANCH  36  37
ATOM     37  C   UNL     1      -2.796  12.831   3.126  1.00  0.00     0.188 C 
BRANCH  37  38
ATOM     38  O   UNL     1      -1.751  13.399   2.349  1.00  0.00    -0.376 OA
BRANCH  38  39
ATOM     39  C   UNL     1      -0.498  13.675   2.968  1.00  0.00     0.202 C 
BRANCH  39  40
ATOM     40  C   UNL     1      -0.555  14.537   4.240  1.00  0.00     0.261 C 
BRANCH  40  41
ATOM     41  O   UNL     1      -1.241  15.774   3.966  1.00  0.00    -0.460 OA
BRANCH  41  42
ATOM     42  C   UNL     1      -2.511  15.867   4.447  1.00  0.00     0.338 C 
ATOM     43  O   UNL     1      -2.873  15.526   5.561  1.00  0.00    -0.246 OA
BRANCH  42  44
ATOM     44  C   UNL     1      -3.452  16.117   3.311  1.00  0.00     0.060 A 
ATOM     45  C   UNL     1      -4.830  15.895   3.485  1.00  0.00     0.016 A 
ATOM     46  C   UNL     1      -2.928  16.162   2.026  1.00  0.00     0.016 A 
ATOM     47  C   UNL     1      -5.630  15.505   2.393  1.00  0.00     0.010 A 
ATOM     48  C   UNL     1      -3.700  15.684   0.983  1.00  0.00     0.010 A 
ATOM     49  C   UNL     1      -5.039  15.288   1.150  1.00  0.00    -0.014 A 
BRANCH  49  50
ATOM     50  C   UNL     1      -5.611  14.489   0.034  1.00  0.00     0.031 A 
ATOM     51  C   UNL     1      -5.451  14.991  -1.379  1.00  0.00     0.074 A 
ATOM     52  C   UNL     1      -5.894  13.175   0.265  1.00  0.00     0.049 A 
ATOM     53  N   UNL     1      -5.776  14.346  -2.451  1.00  0.00    -0.248 NA
ATOM     54  C   UNL     1      -4.894  16.308  -1.709  1.00  0.00     0.031 C 
ATOM     55  C   UNL     1      -5.737  12.057  -0.673  1.00  0.00     0.029 A 
ATOM     56  N   UNL     1      -6.326  12.530   1.440  1.00  0.00    -0.354 N 
ATOM     57  C   UNL     1      -5.146  14.948  -3.534  1.00  0.00     0.074 A 
ATOM     58  C   UNL     1      -4.716  16.224  -3.033  1.00  0.00     0.031 C 
ATOM     59  C   UNL     1      -6.128  10.904  -0.114  1.00  0.00     0.029 A 
ATOM     60  C   UNL     1      -6.870  11.275   1.056  1.00  0.00     0.049 A 
ATOM     61  H   UNL     1      -6.262  12.883   2.357  1.00  0.00     0.167 HD
ATOM     62  C   UNL     1      -4.921  14.217  -4.673  1.00  0.00     0.037 A 
ATOM     63  C   UNL     1      -8.210  11.018   1.162  1.00  0.00     0.037 A 
ATOM     64  C   UNL     1      -5.641  12.931  -4.634  1.00  0.00     0.049 A 
ATOM     65  C   UNL     1      -8.896  10.901  -0.196  1.00  0.00     0.074 A 
ATOM     66  C   UNL     1      -5.295  11.611  -4.861  1.00  0.00     0.029 A 
ATOM     67  N   UNL     1      -6.951  12.895  -4.156  1.00  0.00    -0.354 N 
ATOM     68  N   UNL     1      -8.386  11.408  -1.296  1.00  0.00    -0.248 NA
ATOM     69  C   UNL     1     -10.110  10.136  -0.474  1.00  0.00     0.031 C 
ATOM     70  C   UNL     1      -6.331  10.784  -4.341  1.00  0.00     0.029 A 
ATOM     71  C   UNL     1      -7.377  11.605  -3.951  1.00  0.00     0.049 A 
ATOM     72  H   UNL     1      -7.501  13.694  -3.987  1.00  0.00     0.167 HD
ATOM     73  C   UNL     1      -9.117  11.022  -2.384  1.00  0.00     0.074 A 
ATOM     74  C   UNL     1     -10.203  10.247  -1.815  1.00  0.00     0.031 C 
ATOM     75  C   UNL     1      -8.777  11.339  -3.670  1.00  0.00     0.037 A 
BRANCH  62  76
ATOM     76  C   UNL     1      -3.871  14.523  -5.754  1.00  0.00     0.064 A 
ATOM     77  C   UNL     1      -3.834  13.767  -6.953  1.00  0.00     0.173 A 
ATOM     78  C   UNL     1      -2.800  15.437  -5.627  1.00  0.00     0.173 A 
ATOM     79  F   UNL     1      -4.804  12.889  -7.246  1.00  0.00    -0.203 F 
ATOM     80  C   UNL     1      -2.807  13.882  -7.904  1.00  0.00     0.198 A 
ATOM     81  C   UNL     1      -1.811  15.601  -6.612  1.00  0.00     0.198 A 
ATOM     82  F   UNL     1      -2.627  16.177  -4.528  1.00  0.00    -0.203 F 
ATOM     83  F   UNL     1      -2.801  13.085  -8.983  1.00  0.00    -0.200 F 
ATOM     84  C   UNL     1      -1.801  14.809  -7.740  1.00  0.00     0.200 A 
ATOM     85  F   UNL     1      -0.854  16.527  -6.445  1.00  0.00    -0.200 F 
ATOM     86  F   UNL     1      -0.832  14.940  -8.657  1.00  0.00    -0.200 F 
ENDBRANCH  62  76
BRANCH  63  87
ATOM     87  C   UNL     1      -8.707  11.424   2.516  1.00  0.00     0.064 A 
ATOM     88  C   UNL     1      -8.058  10.718   3.559  1.00  0.00     0.173 A 
ATOM     89  C   UNL     1      -9.016  12.771   2.757  1.00  0.00     0.173 A 
ATOM     90  F   UNL     1      -7.781   9.412   3.404  1.00  0.00    -0.203 F 
ATOM     91  C   UNL     1      -7.433  11.401   4.601  1.00  0.00     0.198 A 
ATOM     92  C   UNL     1      -8.439  13.441   3.844  1.00  0.00     0.198 A 
ATOM     93  F   UNL     1      -9.688  13.483   1.841  1.00  0.00    -0.203 F 
ATOM     94  F   UNL     1      -6.563  10.756   5.393  1.00  0.00    -0.200 F 
ATOM     95  C   UNL     1      -7.581  12.773   4.709  1.00  0.00     0.200 A 
ATOM     96  F   UNL     1      -8.587  14.768   3.967  1.00  0.00    -0.200 F 
ATOM     97  F   UNL     1      -6.834  13.459   5.586  1.00  0.00    -0.200 F 
ENDBRANCH  63  87
BRANCH  75  98
ATOM     98  C   UNL     1      -9.727  11.422  -4.849  1.00  0.00     0.064 A 
ATOM     99  C   UNL     1     -11.107  11.623  -4.704  1.00  0.00     0.173 A 
ATOM    100  C   UNL     1      -9.233  11.559  -6.177  1.00  0.00     0.173 A 
ATOM    101  F   UNL     1     -11.689  11.629  -3.498  1.00  0.00    -0.203 F 
ATOM    102  C   UNL     1     -11.931  11.901  -5.797  1.00  0.00     0.198 A 
ATOM    103  C   UNL     1     -10.049  11.900  -7.252  1.00  0.00     0.198 A 
ATOM    104  F   UNL     1      -7.936  11.411  -6.478  1.00  0.00    -0.203 F 
ATOM    105  F   UNL     1     -13.248  12.058  -5.604  1.00  0.00    -0.200 F 
ATOM    106  C   UNL     1     -11.402  12.060  -7.064  1.00  0.00     0.200 A 
ATOM    107  F   UNL     1      -9.506  12.106  -8.461  1.00  0.00    -0.200 F 
ATOM    108  F   UNL     1     -12.191  12.387  -8.095  1.00  0.00    -0.200 F 
ENDBRANCH  75  98
ENDBRANCH  49  50
ENDBRANCH  42  44
ENDBRANCH  41  42
ENDBRANCH  40  41
ENDBRANCH  39  40
ENDBRANCH  38  39
ENDBRANCH  37  38
ENDBRANCH  36  37
ENDBRANCH   1  36
TORSDOF 22
