REMARK SMILES COc1ccc([C@@H]2C(C#N)=C(N)N3C(=O)[C@H](CC(=O)OCCOCCOCCOCCOC(=O)c4ccc(-c5c6nc(c(-c7c(F)c(F)c(F)c(F)c7F)c7ccc([nH]7)c(-c7c(F)c(F)c(F)c(F)c7F)c7nc(c(-c8c(F)c(F)c(F)c(F)c8F)c8ccc5[nH]8)C=C7)C=C6)cc4)SC3=C2C#N)cc1
REMARK SMILES IDX 25 1 24 2 23 3 22 4 21 5 20 6 18 7 19 8 17 9 16 10 7 11 8 12
REMARK SMILES IDX 100 13 11 14 99 15 13 16 98 17 14 18 15 19 6 20 3 21 4 22
REMARK SMILES IDX 104 23 5 24 103 25 2 26 1 27 9 28 10 29 101 30 102 31 12 32
REMARK SMILES IDX 26 35 27 36 28 37 29 38 30 39 31 40 32 41 33 42 34 43 35 44
REMARK SMILES IDX 36 45 97 46 37 47 96 48 38 49 39 50 40 51 90 52 41 53 95 54
REMARK SMILES IDX 89 55 91 56 42 57 94 58 88 59 87 60 43 62 75 63 55 64 74 65
REMARK SMILES IDX 56 66 59 67 73 68 92 69 57 70 58 71 72 73 93 74 60 75 44 76
REMARK SMILES IDX 45 77 53 78 46 79 47 80 51 81 54 82 48 83 49 84 52 85 50 86
REMARK SMILES IDX 76 87 77 88 85 89 78 90 79 91 83 92 86 93 80 94 81 95 84 96
REMARK SMILES IDX 82 97 61 98 62 99 70 100 63 101 64 102 68 103 71 104 65 105
REMARK SMILES IDX 66 106 69 107 67 108
REMARK H PARENT 12 33 12 34 91 61 59 72
REMARK Flexibility Score: inf
ROOT
ATOM      1  C   UNL     1       2.322  13.316   0.721  1.00  0.00     0.188 C 
ENDROOT
BRANCH   1   2
ATOM      2  C   UNL     1       3.146  14.405   1.418  1.00  0.00     0.188 C 
BRANCH   2   3
ATOM      3  O   UNL     1       3.731  15.396   0.606  1.00  0.00    -0.376 OA
BRANCH   3   4
ATOM      4  C   UNL     1       4.973  15.189  -0.048  1.00  0.00     0.202 C 
BRANCH   4   5
ATOM      5  C   UNL     1       5.904  13.975   0.137  1.00  0.00     0.261 C 
BRANCH   5   6
ATOM      6  O   UNL     1       5.320  12.751   0.598  1.00  0.00    -0.463 OA
BRANCH   6   7
ATOM      7  C   UNL     1       5.820  12.259   1.756  1.00  0.00     0.307 C 
ATOM      8  O   UNL     1       6.644  12.839   2.456  1.00  0.00    -0.252 OA
BRANCH   7   9
ATOM      9  C   UNL     1       5.233  10.934   2.189  1.00  0.00     0.147 C 
BRANCH   9  10
ATOM     10  C   UNL     1       4.187  10.307   1.293  1.00  0.00     0.154 C 
ATOM     11  C   UNL     1       1.915   6.523  -0.905  1.00  0.00     0.107 C 
ATOM     12  C   UNL     1       3.061   6.913  -1.822  1.00  0.00     0.083 C 
ATOM     13  C   UNL     1       2.088   7.138   0.459  1.00  0.00     0.073 C 
ATOM     14  C   UNL     1       3.898   7.952  -1.577  1.00  0.00     0.126 C 
ATOM     15  C   UNL     1       2.971   8.144   0.625  1.00  0.00     0.099 C 
ATOM     16  N   UNL     1       3.811   8.629  -0.365  1.00  0.00    -0.258 N 
ATOM     17  S   UNL     1       3.288   8.950   2.131  1.00  0.00    -0.093 SA
ATOM     18  C   UNL     1       4.669   9.692  -0.001  1.00  0.00     0.247 C 
ATOM     19  O   UNL     1       5.614  10.124  -0.656  1.00  0.00    -0.273 OA
BRANCH  11  20
ATOM     20  C   UNL     1       1.603   5.031  -0.870  1.00  0.00    -0.034 A 
ATOM     21  C   UNL     1       0.945   2.290  -0.838  1.00  0.00     0.118 A 
ATOM     22  C   UNL     1      -0.010   3.237  -1.198  1.00  0.00     0.047 A 
ATOM     23  C   UNL     1       2.233   2.707  -0.504  1.00  0.00     0.047 A 
ATOM     24  C   UNL     1       0.309   4.595  -1.205  1.00  0.00     0.008 A 
ATOM     25  C   UNL     1       2.560   4.069  -0.510  1.00  0.00     0.008 A 
BRANCH  21  26
ATOM     26  O   UNL     1       0.532   0.989  -0.904  1.00  0.00    -0.497 OA
ATOM     27  C   UNL     1       1.103   0.123   0.070  1.00  0.00     0.278 C 
ENDBRANCH  21  26
ENDBRANCH  11  20
BRANCH  12  28
ATOM     28  C   UNL     1       3.396   6.032  -3.014  1.00  0.00     0.100 C 
ATOM     29  N   UNL     1       3.674   5.301  -4.004  1.00  0.00    -0.193 NA
ENDBRANCH  12  28
BRANCH  13  30
ATOM     30  C   UNL     1       1.448   6.521   1.692  1.00  0.00     0.098 C 
ATOM     31  N   UNL     1       0.918   6.009   2.716  1.00  0.00    -0.193 NA
ENDBRANCH  13  30
BRANCH  14  32
ATOM     32  N   UNL     1       4.846   8.339  -2.490  1.00  0.00    -0.384 N 
ATOM     33  H   UNL     1       4.921   7.870  -3.352  1.00  0.00     0.158 HD
ATOM     34  H   UNL     1       5.453   9.086  -2.282  1.00  0.00     0.158 HD
ENDBRANCH  14  32
ENDBRANCH   9  10
ENDBRANCH   7   9
ENDBRANCH   6   7
ENDBRANCH   5   6
ENDBRANCH   4   5
ENDBRANCH   3   4
ENDBRANCH   2   3
ENDBRANCH   1   2
BRANCH   1  35
ATOM     35  O   UNL     1       2.827  12.813  -0.504  1.00  0.00    -0.377 OA
BRANCH  35  36
ATOM     36  C   UNL     1       2.640  13.564  -1.704  1.00  0.00     0.188 C 
BRANCH  36  37
ATOM     37  C   UNL     1       1.861  14.898  -1.717  1.00  0.00     0.188 C 
BRANCH  37  38
ATOM     38  O   UNL     1       0.822  15.005  -0.762  1.00  0.00    -0.376 OA
BRANCH  38  39
ATOM     39  C   UNL     1      -0.502  14.668  -1.146  1.00  0.00     0.202 C 
BRANCH  39  40
ATOM     40  C   UNL     1      -0.751  13.244  -1.667  1.00  0.00     0.261 C 
BRANCH  40  41
ATOM     41  O   UNL     1      -0.058  12.885  -2.875  1.00  0.00    -0.460 OA
BRANCH  41  42
ATOM     42  C   UNL     1      -0.255  13.659  -3.965  1.00  0.00     0.338 C 
ATOM     43  O   UNL     1      -1.011  14.601  -4.079  1.00  0.00    -0.246 OA
BRANCH  42  44
ATOM     44  C   UNL     1       0.758  13.276  -4.969  1.00  0.00     0.060 A 
ATOM     45  C   UNL     1       1.700  14.228  -5.380  1.00  0.00     0.016 A 
ATOM     46  C   UNL     1       0.763  11.990  -5.511  1.00  0.00     0.016 A 
ATOM     47  C   UNL     1       2.634  13.904  -6.364  1.00  0.00     0.010 A 
ATOM     48  C   UNL     1       1.685  11.674  -6.511  1.00  0.00     0.010 A 
ATOM     49  C   UNL     1       2.603  12.639  -6.965  1.00  0.00    -0.014 A 
BRANCH  49  50
ATOM     50  C   UNL     1       3.393  12.382  -8.193  1.00  0.00     0.031 A 
ATOM     51  C   UNL     1       2.698  12.478  -9.522  1.00  0.00     0.074 A 
ATOM     52  C   UNL     1       4.701  12.077  -8.132  1.00  0.00     0.049 A 
ATOM     53  N   UNL     1       3.150  12.211 -10.721  1.00  0.00    -0.248 NA
ATOM     54  C   UNL     1       1.299  12.935  -9.493  1.00  0.00     0.031 C 
ATOM     55  C   UNL     1       5.498  12.007  -6.910  1.00  0.00     0.029 A 
ATOM     56  N   UNL     1       5.585  11.754  -9.132  1.00  0.00    -0.354 N 
ATOM     57  C   UNL     1       2.090  12.456 -11.584  1.00  0.00     0.074 A 
ATOM     58  C   UNL     1       0.965  12.864 -10.773  1.00  0.00     0.031 C 
ATOM     59  C   UNL     1       6.752  11.643  -7.230  1.00  0.00     0.029 A 
ATOM     60  C   UNL     1       6.834  11.415  -8.673  1.00  0.00     0.049 A 
ATOM     61  H   UNL     1       5.346  11.764 -10.087  1.00  0.00     0.167 HD
ATOM     62  C   UNL     1       2.061  12.355 -12.934  1.00  0.00     0.037 A 
ATOM     63  C   UNL     1       7.906  10.943  -9.340  1.00  0.00     0.037 A 
ATOM     64  C   UNL     1       3.183  11.946 -13.737  1.00  0.00     0.049 A 
ATOM     65  C   UNL     1       7.819  10.748 -10.834  1.00  0.00     0.074 A 
ATOM     66  C   UNL     1       3.262  11.828 -15.113  1.00  0.00     0.029 A 
ATOM     67  N   UNL     1       4.421  11.575 -13.232  1.00  0.00    -0.354 N 
ATOM     68  N   UNL     1       6.824  11.005 -11.649  1.00  0.00    -0.248 NA
ATOM     69  C   UNL     1       9.008  10.197 -11.502  1.00  0.00     0.031 C 
ATOM     70  C   UNL     1       4.525  11.325 -15.437  1.00  0.00     0.029 A 
ATOM     71  C   UNL     1       5.259  11.195 -14.268  1.00  0.00     0.049 A 
ATOM     72  H   UNL     1       4.668  11.581 -12.279  1.00  0.00     0.167 HD
ATOM     73  C   UNL     1       7.276  10.677 -12.922  1.00  0.00     0.074 A 
ATOM     74  C   UNL     1       8.640  10.217 -12.775  1.00  0.00     0.031 C 
ATOM     75  C   UNL     1       6.620  10.751 -14.108  1.00  0.00     0.037 A 
BRANCH  62  76
ATOM     76  C   UNL     1       0.765  12.660 -13.628  1.00  0.00     0.064 A 
ATOM     77  C   UNL     1       0.251  13.964 -13.698  1.00  0.00     0.173 A 
ATOM     78  C   UNL     1       0.045  11.637 -14.263  1.00  0.00     0.173 A 
ATOM     79  F   UNL     1       0.892  14.976 -13.095  1.00  0.00    -0.203 F 
ATOM     80  C   UNL     1      -0.949  14.226 -14.354  1.00  0.00     0.198 A 
ATOM     81  C   UNL     1      -1.137  11.909 -14.947  1.00  0.00     0.198 A 
ATOM     82  F   UNL     1       0.492  10.373 -14.229  1.00  0.00    -0.203 F 
ATOM     83  F   UNL     1      -1.447  15.471 -14.365  1.00  0.00    -0.200 F 
ATOM     84  C   UNL     1      -1.637  13.201 -14.986  1.00  0.00     0.200 A 
ATOM     85  F   UNL     1      -1.792  10.918 -15.568  1.00  0.00    -0.200 F 
ATOM     86  F   UNL     1      -2.786  13.457 -15.625  1.00  0.00    -0.200 F 
ENDBRANCH  62  76
BRANCH  63  87
ATOM     87  C   UNL     1       9.151  10.594  -8.603  1.00  0.00     0.064 A 
ATOM     88  C   UNL     1      10.340  11.307  -8.811  1.00  0.00     0.173 A 
ATOM     89  C   UNL     1       9.187   9.520  -7.701  1.00  0.00     0.173 A 
ATOM     90  F   UNL     1      10.365  12.326  -9.683  1.00  0.00    -0.203 F 
ATOM     91  C   UNL     1      11.520  10.945  -8.164  1.00  0.00     0.198 A 
ATOM     92  C   UNL     1      10.359   9.180  -7.030  1.00  0.00     0.198 A 
ATOM     93  F   UNL     1       8.078   8.802  -7.466  1.00  0.00    -0.203 F 
ATOM     94  F   UNL     1      12.655  11.609  -8.425  1.00  0.00    -0.200 F 
ATOM     95  C   UNL     1      11.528   9.886  -7.270  1.00  0.00     0.200 A 
ATOM     96  F   UNL     1      10.358   8.164  -6.156  1.00  0.00    -0.200 F 
ATOM     97  F   UNL     1      12.662   9.539  -6.647  1.00  0.00    -0.200 F 
ENDBRANCH  63  87
BRANCH  75  98
ATOM     98  C   UNL     1       7.378  10.370 -15.349  1.00  0.00     0.064 A 
ATOM     99  C   UNL     1       7.724   9.040 -15.626  1.00  0.00     0.173 A 
ATOM    100  C   UNL     1       7.710  11.345 -16.303  1.00  0.00     0.173 A 
ATOM    101  F   UNL     1       7.441   8.070 -14.743  1.00  0.00    -0.203 F 
ATOM    102  C   UNL     1       8.394   8.703 -16.800  1.00  0.00     0.198 A 
ATOM    103  C   UNL     1       8.348  11.001 -17.491  1.00  0.00     0.198 A 
ATOM    104  F   UNL     1       7.394  12.632 -16.093  1.00  0.00    -0.203 F 
ATOM    105  F   UNL     1       8.756   7.432 -17.022  1.00  0.00    -0.200 F 
ATOM    106  C   UNL     1       8.696   9.681 -17.736  1.00  0.00     0.200 A 
ATOM    107  F   UNL     1       8.622  11.945 -18.402  1.00  0.00    -0.200 F 
ATOM    108  F   UNL     1       9.328   9.353 -18.871  1.00  0.00    -0.200 F 
ENDBRANCH  75  98
ENDBRANCH  49  50
ENDBRANCH  42  44
ENDBRANCH  41  42
ENDBRANCH  40  41
ENDBRANCH  39  40
ENDBRANCH  38  39
ENDBRANCH  37  38
ENDBRANCH  36  37
ENDBRANCH  35  36
ENDBRANCH   1  35
TORSDOF 26
