REMARK SMILES Cc1cnc(C)c(N2CCC[C@@](CC3CC3)(C(=O)OCCOCCOCCOCCOC(=O)c3ccc(-c4c5nc(c(-c6c(F)c(F)c(F)c(F)c6F)c6ccc([nH]6)c(-c6c(F)c(F)c(F)c(F)c6F)c6nc(c(-c7c(F)c(F)c(F)c(F)c7F)c7ccc4[nH]7)C=C6)C=C5)cc3)C2)n1
REMARK SMILES IDX 25 1 24 2 23 3 22 4 21 5 20 6 19 7 17 8 18 9 12 10 8 11 9 12
REMARK SMILES IDX 97 13 10 14 11 15 7 16 1 17 2 18 3 19 98 20 4 21 5 22 6 23
REMARK SMILES IDX 13 24 14 25 15 26 16 27 26 28 27 29 28 30 29 31 30 32 31 33
REMARK SMILES IDX 32 34 33 35 34 36 35 37 96 38 36 39 95 40 37 41 38 42 39 43
REMARK SMILES IDX 89 44 40 45 94 46 88 47 90 48 41 49 93 50 87 51 86 52 42 54
REMARK SMILES IDX 74 55 54 56 73 57 55 58 58 59 72 60 91 61 56 62 57 63 71 65
REMARK SMILES IDX 92 66 59 67 43 68 44 69 52 70 45 71 46 72 50 73 53 74 47 75
REMARK SMILES IDX 48 76 51 77 49 78 75 79 76 80 84 81 77 82 78 83 82 84 85 85
REMARK SMILES IDX 79 86 80 87 83 88 81 89 60 90 61 91 69 92 62 93 63 94 67 95
REMARK SMILES IDX 70 96 64 97 65 98 68 99 66 100
REMARK H PARENT 90 53 58 64
REMARK Flexibility Score: inf
ROOT
ATOM      1  O   UNL     1       1.791  -7.276  -2.098  1.00  0.00    -0.377 OA
ENDROOT
BRANCH   1   2
ATOM      2  C   UNL     1       0.522  -6.720  -1.802  1.00  0.00     0.188 C 
BRANCH   2   3
ATOM      3  C   UNL     1      -0.389  -6.298  -2.961  1.00  0.00     0.188 C 
BRANCH   3   4
ATOM      4  O   UNL     1      -0.293  -7.012  -4.170  1.00  0.00    -0.376 OA
BRANCH   4   5
ATOM      5  C   UNL     1       0.738  -6.762  -5.108  1.00  0.00     0.202 C 
BRANCH   5   6
ATOM      6  C   UNL     1       1.833  -5.690  -4.985  1.00  0.00     0.261 C 
BRANCH   6   7
ATOM      7  O   UNL     1       2.277  -5.317  -3.671  1.00  0.00    -0.463 OA
BRANCH   7   8
ATOM      8  C   UNL     1       1.946  -4.058  -3.312  1.00  0.00     0.313 C 
ATOM      9  O   UNL     1       1.245  -3.342  -4.028  1.00  0.00    -0.252 OA
BRANCH   8  10
ATOM     10  C   UNL     1       2.527  -3.533  -1.990  1.00  0.00     0.086 C 
ATOM     11  N   UNL     1       1.566  -2.166  -0.154  1.00  0.00    -0.354 N 
ATOM     12  C   UNL     1       1.923  -3.043   0.940  1.00  0.00     0.118 C 
ATOM     13  C   UNL     1       1.267  -2.806  -1.422  1.00  0.00     0.137 C 
ATOM     14  C   UNL     1       3.204  -3.766   0.522  1.00  0.00     0.023 C 
ATOM     15  C   UNL     1       3.080  -4.455  -0.858  1.00  0.00     0.022 C 
BRANCH  11  16
ATOM     16  C   UNL     1       0.792  -1.045   0.113  1.00  0.00     0.150 A 
ATOM     17  C   UNL     1      -2.753  -0.043   0.010  1.00  0.00     0.068 C 
ATOM     18  C   UNL     1      -1.260   0.016   0.115  1.00  0.00     0.058 A 
ATOM     19  C   UNL     1      -0.625   1.243   0.250  1.00  0.00     0.135 A 
ATOM     20  N   UNL     1      -0.558  -1.144   0.044  1.00  0.00    -0.233 NA
ATOM     21  N   UNL     1       0.714   1.369   0.346  1.00  0.00    -0.256 NA
ATOM     22  C   UNL     1       1.416   0.206   0.278  1.00  0.00     0.080 A 
ATOM     23  C   UNL     1       2.910   0.341   0.230  1.00  0.00     0.071 C 
ENDBRANCH  11  16
BRANCH  10  24
ATOM     24  C   UNL     1       3.618  -2.522  -2.425  1.00  0.00     0.024 C 
BRANCH  24  25
ATOM     25  C   UNL     1       4.938  -3.063  -2.943  1.00  0.00    -0.010 C 
ATOM     26  C   UNL     1       5.309  -4.513  -3.199  1.00  0.00     0.004 C 
ATOM     27  C   UNL     1       5.053  -3.597  -4.354  1.00  0.00     0.004 C 
ENDBRANCH  24  25
ENDBRANCH  10  24
ENDBRANCH   8  10
ENDBRANCH   7   8
ENDBRANCH   6   7
ENDBRANCH   5   6
ENDBRANCH   4   5
ENDBRANCH   3   4
ENDBRANCH   2   3
ENDBRANCH   1   2
BRANCH   1  28
ATOM     28  C   UNL     1       1.889  -8.577  -2.665  1.00  0.00     0.188 C 
BRANCH  28  29
ATOM     29  C   UNL     1       0.643  -9.472  -2.799  1.00  0.00     0.188 C 
BRANCH  29  30
ATOM     30  O   UNL     1      -0.364  -9.238  -1.835  1.00  0.00    -0.376 OA
BRANCH  30  31
ATOM     31  C   UNL     1      -0.354  -9.992  -0.633  1.00  0.00     0.202 C 
BRANCH  31  32
ATOM     32  C   UNL     1       0.917  -9.983   0.231  1.00  0.00     0.261 C 
BRANCH  32  33
ATOM     33  O   UNL     1       2.118 -10.489  -0.377  1.00  0.00    -0.460 OA
BRANCH  33  34
ATOM     34  C   UNL     1       2.097 -11.723  -0.916  1.00  0.00     0.338 C 
ATOM     35  O   UNL     1       1.181 -12.529  -0.898  1.00  0.00    -0.246 OA
BRANCH  34  36
ATOM     36  C   UNL     1       3.326 -11.879  -1.718  1.00  0.00     0.060 A 
ATOM     37  C   UNL     1       3.220 -12.075  -3.102  1.00  0.00     0.016 A 
ATOM     38  C   UNL     1       4.578 -11.839  -1.102  1.00  0.00     0.016 A 
ATOM     39  C   UNL     1       4.368 -12.265  -3.870  1.00  0.00     0.010 A 
ATOM     40  C   UNL     1       5.725 -12.054  -1.869  1.00  0.00     0.010 A 
ATOM     41  C   UNL     1       5.622 -12.303  -3.249  1.00  0.00    -0.014 A 
BRANCH  41  42
ATOM     42  C   UNL     1       6.799 -12.797  -4.002  1.00  0.00     0.031 A 
ATOM     43  C   UNL     1       7.214 -14.229  -3.816  1.00  0.00     0.074 A 
ATOM     44  C   UNL     1       7.479 -11.999  -4.840  1.00  0.00     0.049 A 
ATOM     45  N   UNL     1       8.246 -14.870  -4.302  1.00  0.00    -0.248 NA
ATOM     46  C   UNL     1       6.347 -15.047  -2.954  1.00  0.00     0.031 C 
ATOM     47  C   UNL     1       7.150 -10.607  -5.134  1.00  0.00     0.029 A 
ATOM     48  N   UNL     1       8.606 -12.247  -5.585  1.00  0.00    -0.354 N 
ATOM     49  C   UNL     1       8.156 -16.161  -3.799  1.00  0.00     0.074 A 
ATOM     50  C   UNL     1       6.992 -16.202  -2.941  1.00  0.00     0.031 C 
ATOM     51  C   UNL     1       8.072 -10.113  -5.977  1.00  0.00     0.029 A 
ATOM     52  C   UNL     1       9.074 -11.142  -6.251  1.00  0.00     0.049 A 
ATOM     53  H   UNL     1       9.036 -13.131  -5.636  1.00  0.00     0.167 HD
ATOM     54  C   UNL     1       8.967 -17.219  -4.038  1.00  0.00     0.037 A 
ATOM     55  C   UNL     1      10.203 -10.975  -6.967  1.00  0.00     0.037 A 
ATOM     56  C   UNL     1      10.132 -17.165  -4.883  1.00  0.00     0.049 A 
ATOM     57  C   UNL     1      11.138 -12.142  -7.158  1.00  0.00     0.074 A 
ATOM     58  C   UNL     1      11.011 -18.183  -5.208  1.00  0.00     0.029 A 
ATOM     59  N   UNL     1      10.589 -16.022  -5.524  1.00  0.00    -0.354 N 
ATOM     60  N   UNL     1      11.036 -13.369  -6.707  1.00  0.00    -0.248 NA
ATOM     61  C   UNL     1      12.344 -11.901  -7.963  1.00  0.00     0.031 C 
ATOM     62  C   UNL     1      12.038 -17.640  -5.988  1.00  0.00     0.029 A 
ATOM     63  C   UNL     1      11.760 -16.300  -6.212  1.00  0.00     0.049 A 
ATOM     64  H   UNL     1      10.147 -15.143  -5.495  1.00  0.00     0.167 HD
ATOM     65  C   UNL     1      12.146 -14.051  -7.188  1.00  0.00     0.074 A 
ATOM     66  C   UNL     1      12.902 -13.104  -7.982  1.00  0.00     0.031 C 
ATOM     67  C   UNL     1      12.507 -15.345  -6.993  1.00  0.00     0.037 A 
BRANCH  54  68
ATOM     68  C   UNL     1       8.643 -18.507  -3.335  1.00  0.00     0.064 A 
ATOM     69  C   UNL     1       7.487 -19.247  -3.633  1.00  0.00     0.173 A 
ATOM     70  C   UNL     1       9.498 -19.005  -2.340  1.00  0.00     0.173 A 
ATOM     71  F   UNL     1       6.627 -18.810  -4.566  1.00  0.00    -0.203 F 
ATOM     72  C   UNL     1       7.179 -20.410  -2.931  1.00  0.00     0.198 A 
ATOM     73  C   UNL     1       9.206 -20.189  -1.667  1.00  0.00     0.198 A 
ATOM     74  F   UNL     1      10.619 -18.343  -2.017  1.00  0.00    -0.203 F 
ATOM     75  F   UNL     1       6.034 -21.059  -3.184  1.00  0.00    -0.200 F 
ATOM     76  C   UNL     1       8.040 -20.882  -1.953  1.00  0.00     0.200 A 
ATOM     77  F   UNL     1      10.048 -20.651  -0.733  1.00  0.00    -0.200 F 
ATOM     78  F   UNL     1       7.741 -22.000  -1.276  1.00  0.00    -0.200 F 
ENDBRANCH  54  68
BRANCH  55  79
ATOM     79  C   UNL     1      10.521  -9.636  -7.530  1.00  0.00     0.064 A 
ATOM     80  C   UNL     1      10.509  -9.402  -8.911  1.00  0.00     0.173 A 
ATOM     81  C   UNL     1      10.836  -8.556  -6.689  1.00  0.00     0.173 A 
ATOM     82  F   UNL     1      10.240 -10.407  -9.757  1.00  0.00    -0.203 F 
ATOM     83  C   UNL     1      10.808  -8.144  -9.431  1.00  0.00     0.198 A 
ATOM     84  C   UNL     1      11.104  -7.292  -7.208  1.00  0.00     0.198 A 
ATOM     85  F   UNL     1      10.865  -8.727  -5.359  1.00  0.00    -0.203 F 
ATOM     86  F   UNL     1      10.828  -7.957 -10.758  1.00  0.00    -0.200 F 
ATOM     87  C   UNL     1      11.095  -7.088  -8.579  1.00  0.00     0.200 A 
ATOM     88  F   UNL     1      11.366  -6.272  -6.379  1.00  0.00    -0.200 F 
ATOM     89  F   UNL     1      11.369  -5.875  -9.079  1.00  0.00    -0.200 F 
ENDBRANCH  55  79
BRANCH  67  90
ATOM     90  C   UNL     1      13.761 -15.825  -7.670  1.00  0.00     0.064 A 
ATOM     91  C   UNL     1      15.033 -15.396  -7.263  1.00  0.00     0.173 A 
ATOM     92  C   UNL     1      13.691 -16.767  -8.709  1.00  0.00     0.173 A 
ATOM     93  F   UNL     1      15.158 -14.488  -6.283  1.00  0.00    -0.203 F 
ATOM     94  C   UNL     1      16.184 -15.870  -7.888  1.00  0.00     0.198 A 
ATOM     95  C   UNL     1      14.845 -17.265  -9.308  1.00  0.00     0.198 A 
ATOM     96  F   UNL     1      12.501 -17.219  -9.133  1.00  0.00    -0.203 F 
ATOM     97  F   UNL     1      17.386 -15.406  -7.517  1.00  0.00    -0.200 F 
ATOM     98  C   UNL     1      16.090 -16.810  -8.903  1.00  0.00     0.200 A 
ATOM     99  F   UNL     1      14.751 -18.188 -10.275  1.00  0.00    -0.200 F 
ATOM    100  F   UNL     1      17.199 -17.273  -9.496  1.00  0.00    -0.200 F 
ENDBRANCH  67  90
ENDBRANCH  41  42
ENDBRANCH  34  36
ENDBRANCH  33  34
ENDBRANCH  32  33
ENDBRANCH  31  32
ENDBRANCH  30  31
ENDBRANCH  29  30
ENDBRANCH  28  29
ENDBRANCH   1  28
TORSDOF 23
