REMARK SMILES CC(=O)N[C@H]1[C@@H](Oc2ccc(C)c(C)c2)O[C@H]2CO[C@H](c3ccco3)O[C@@H]2[C@H]1OCC(=O)OCCOCCOCCOCCOC(=O)c1ccc(-c2c3nc(c(-c4c(F)c(F)c(F)c(F)c4F)c4ccc([nH]4)c(-c4c(F)c(F)c(F)c(F)c4F)c4nc(c(-c5c(F)c(F)c(F)c(F)c5F)c5ccc2[nH]5)C=C4)C=C3)cc1
REMARK SMILES IDX 38 1 37 2 36 3 35 4 34 5 33 6 31 7 32 8 30 9 29 10 28 11
REMARK SMILES IDX 5 12 6 13 16 14 27 15 17 16 26 17 18 18 20 19 19 20 4 21
REMARK SMILES IDX 1 22 2 23 3 24 7 26 8 27 9 28 15 29 10 30 13 31 11 32 14 33
REMARK SMILES IDX 12 34 21 35 22 36 25 37 23 38 24 39 39 40 40 41 41 42 42 43
REMARK SMILES IDX 43 44 44 45 45 46 46 47 47 48 48 49 49 50 110 51 50 52
REMARK SMILES IDX 109 53 51 54 52 55 53 56 103 57 54 58 108 59 102 60 104 61
REMARK SMILES IDX 55 62 107 63 101 64 100 65 56 67 88 68 68 69 87 70 69 71
REMARK SMILES IDX 72 72 86 73 105 74 70 75 71 76 85 78 106 79 73 80 57 81
REMARK SMILES IDX 58 82 66 83 59 84 60 85 64 86 67 87 61 88 62 89 65 90 63 91
REMARK SMILES IDX 89 92 90 93 98 94 91 95 92 96 96 97 99 98 93 99 94 100
REMARK SMILES IDX 97 101 95 102 74 103 75 104 83 105 76 106 77 107 81 108
REMARK SMILES IDX 84 109 78 110 79 111 82 112 80 113
REMARK H PARENT 4 25 104 66 72 77
REMARK Flexibility Score: inf
ROOT
ATOM      1  C   UNL     1       2.994  -1.502  -4.017  1.00  0.00     0.188 C 
ENDROOT
BRANCH   1   2
ATOM      2  C   UNL     1       1.948  -2.212  -4.910  1.00  0.00     0.188 C 
BRANCH   2   3
ATOM      3  O   UNL     1       1.854  -1.874  -6.290  1.00  0.00    -0.376 OA
BRANCH   3   4
ATOM      4  C   UNL     1       2.060  -0.523  -6.668  1.00  0.00     0.202 C 
BRANCH   4   5
ATOM      5  C   UNL     1       1.201   0.566  -6.005  1.00  0.00     0.261 C 
BRANCH   5   6
ATOM      6  O   UNL     1       0.958   0.358  -4.601  1.00  0.00    -0.462 OA
BRANCH   6   7
ATOM      7  C   UNL     1      -0.335   0.324  -4.183  1.00  0.00     0.332 C 
ATOM      8  O   UNL     1      -1.296   0.618  -4.884  1.00  0.00    -0.250 OA
BRANCH   7   9
ATOM      9  C   UNL     1      -0.454   0.042  -2.662  1.00  0.00     0.283 C 
BRANCH   9  10
ATOM     10  O   UNL     1       0.485  -0.653  -1.859  1.00  0.00    -0.361 OA
BRANCH  10  11
ATOM     11  C   UNL     1       0.463  -2.080  -1.708  1.00  0.00     0.179 C 
ATOM     12  C   UNL     1       1.127  -2.500  -0.346  1.00  0.00     0.182 C 
ATOM     13  C   UNL     1       1.091  -4.092  -0.226  1.00  0.00     0.333 C 
ATOM     14  O   UNL     1      -0.151  -4.698  -0.598  1.00  0.00    -0.332 OA
ATOM     15  C   UNL     1      -0.857  -2.833  -1.955  1.00  0.00     0.184 C 
ATOM     16  C   UNL     1      -0.561  -4.333  -1.901  1.00  0.00     0.180 C 
ATOM     17  O   UNL     1      -1.347  -2.526  -3.251  1.00  0.00    -0.337 OA
ATOM     18  C   UNL     1      -1.806  -5.112  -2.320  1.00  0.00     0.199 C 
ATOM     19  C   UNL     1      -2.521  -3.266  -3.572  1.00  0.00     0.319 C 
ATOM     20  O   UNL     1      -2.268  -4.667  -3.592  1.00  0.00    -0.343 OA
BRANCH  12  21
ATOM     21  N   UNL     1       0.560  -1.799   0.826  1.00  0.00    -0.345 N 
ATOM     22  C   UNL     1       1.317   0.556   0.507  1.00  0.00     0.114 C 
ATOM     23  C   UNL     1       0.673  -0.536   1.302  1.00  0.00     0.217 C 
ATOM     24  O   UNL     1       0.195  -0.301   2.414  1.00  0.00    -0.275 OA
ATOM     25  H   UNL     1      -0.022  -2.371   1.376  1.00  0.00     0.164 HD
ENDBRANCH  12  21
BRANCH  13  26
ATOM     26  O   UNL     1       1.599  -4.637   1.004  1.00  0.00    -0.463 OA
BRANCH  26  27
ATOM     27  C   UNL     1       0.829  -4.672   2.135  1.00  0.00     0.123 A 
ATOM     28  C   UNL     1      -0.515  -4.327   2.236  1.00  0.00     0.047 A 
ATOM     29  C   UNL     1       1.515  -5.009   3.303  1.00  0.00     0.050 A 
ATOM     30  C   UNL     1      -1.073  -4.047   3.483  1.00  0.00     0.007 A 
ATOM     31  C   UNL     1       0.939  -4.813   4.572  1.00  0.00    -0.045 A 
ATOM     32  C   UNL     1      -0.329  -4.214   4.656  1.00  0.00    -0.048 A 
ATOM     33  C   UNL     1       1.712  -5.261   5.781  1.00  0.00     0.045 C 
ATOM     34  C   UNL     1      -0.912  -3.725   5.952  1.00  0.00     0.044 C 
ENDBRANCH  26  27
ENDBRANCH  13  26
BRANCH  19  35
ATOM     35  C   UNL     1      -2.935  -2.856  -4.942  1.00  0.00     0.159 A 
ATOM     36  C   UNL     1      -4.136  -2.917  -5.622  1.00  0.00     0.051 A 
ATOM     37  O   UNL     1      -1.999  -2.239  -5.726  1.00  0.00    -0.464 OA
ATOM     38  C   UNL     1      -3.932  -2.258  -6.860  1.00  0.00     0.042 A 
ATOM     39  C   UNL     1      -2.617  -1.858  -6.870  1.00  0.00     0.195 A 
ENDBRANCH  19  35
ENDBRANCH  10  11
ENDBRANCH   9  10
ENDBRANCH   7   9
ENDBRANCH   6   7
ENDBRANCH   5   6
ENDBRANCH   4   5
ENDBRANCH   3   4
ENDBRANCH   2   3
ENDBRANCH   1   2
BRANCH   1  40
ATOM     40  O   UNL     1       4.090  -0.986  -4.750  1.00  0.00    -0.377 OA
BRANCH  40  41
ATOM     41  C   UNL     1       5.260  -1.778  -4.686  1.00  0.00     0.188 C 
BRANCH  41  42
ATOM     42  C   UNL     1       5.088  -3.235  -5.132  1.00  0.00     0.188 C 
BRANCH  42  43
ATOM     43  O   UNL     1       4.328  -3.986  -4.175  1.00  0.00    -0.376 OA
BRANCH  43  44
ATOM     44  C   UNL     1       5.039  -5.012  -3.490  1.00  0.00     0.202 C 
BRANCH  44  45
ATOM     45  C   UNL     1       5.619  -4.535  -2.152  1.00  0.00     0.261 C 
BRANCH  45  46
ATOM     46  O   UNL     1       6.502  -3.406  -2.243  1.00  0.00    -0.460 OA
BRANCH  46  47
ATOM     47  C   UNL     1       7.632  -3.559  -2.968  1.00  0.00     0.338 C 
ATOM     48  O   UNL     1       8.021  -4.577  -3.514  1.00  0.00    -0.246 OA
BRANCH  47  49
ATOM     49  C   UNL     1       8.224  -2.219  -3.175  1.00  0.00     0.060 A 
ATOM     50  C   UNL     1       8.589  -1.845  -4.475  1.00  0.00     0.016 A 
ATOM     51  C   UNL     1       8.358  -1.315  -2.115  1.00  0.00     0.016 A 
ATOM     52  C   UNL     1       9.103  -0.571  -4.716  1.00  0.00     0.010 A 
ATOM     53  C   UNL     1       8.903  -0.051  -2.351  1.00  0.00     0.010 A 
ATOM     54  C   UNL     1       9.305   0.314  -3.647  1.00  0.00    -0.014 A 
BRANCH  54  55
ATOM     55  C   UNL     1      10.176   1.495  -3.841  1.00  0.00     0.031 A 
ATOM     56  C   UNL     1      11.655   1.301  -3.650  1.00  0.00     0.074 A 
ATOM     57  C   UNL     1       9.688   2.697  -4.191  1.00  0.00     0.049 A 
ATOM     58  N   UNL     1      12.635   2.156  -3.779  1.00  0.00    -0.248 NA
ATOM     59  C   UNL     1      12.082  -0.053  -3.260  1.00  0.00     0.031 C 
ATOM     60  C   UNL     1       8.282   3.002  -4.440  1.00  0.00     0.029 A 
ATOM     61  N   UNL     1      10.337   3.889  -4.398  1.00  0.00    -0.354 N 
ATOM     62  C   UNL     1      13.792   1.440  -3.505  1.00  0.00     0.074 A 
ATOM     63  C   UNL     1      13.393   0.094  -3.161  1.00  0.00     0.031 C 
ATOM     64  C   UNL     1       8.173   4.303  -4.768  1.00  0.00     0.029 A 
ATOM     65  C   UNL     1       9.498   4.922  -4.731  1.00  0.00     0.049 A 
ATOM     66  H   UNL     1      11.312   3.992  -4.315  1.00  0.00     0.167 HD
ATOM     67  C   UNL     1      15.077   1.861  -3.547  1.00  0.00     0.037 A 
ATOM     68  C   UNL     1       9.777   6.219  -4.971  1.00  0.00     0.037 A 
ATOM     69  C   UNL     1      15.473   3.209  -3.847  1.00  0.00     0.049 A 
ATOM     70  C   UNL     1      11.207   6.693  -4.902  1.00  0.00     0.074 A 
ATOM     71  C   UNL     1      16.746   3.744  -3.907  1.00  0.00     0.029 A 
ATOM     72  N   UNL     1      14.588   4.243  -4.118  1.00  0.00    -0.354 N 
ATOM     73  N   UNL     1      12.301   6.004  -4.682  1.00  0.00    -0.248 NA
ATOM     74  C   UNL     1      11.439   8.130  -5.116  1.00  0.00     0.031 C 
ATOM     75  C   UNL     1      16.630   5.114  -4.165  1.00  0.00     0.029 A 
ATOM     76  C   UNL     1      15.286   5.422  -4.317  1.00  0.00     0.049 A 
ATOM     77  H   UNL     1      13.609   4.151  -4.162  1.00  0.00     0.167 HD
ATOM     78  C   UNL     1      13.350   6.912  -4.763  1.00  0.00     0.074 A 
ATOM     79  C   UNL     1      12.762   8.202  -5.056  1.00  0.00     0.031 C 
ATOM     80  C   UNL     1      14.681   6.696  -4.615  1.00  0.00     0.037 A 
BRANCH  67  81
ATOM     81  C   UNL     1      16.130   0.845  -3.220  1.00  0.00     0.064 A 
ATOM     82  C   UNL     1      16.420  -0.217  -4.090  1.00  0.00     0.173 A 
ATOM     83  C   UNL     1      16.829   0.910  -2.006  1.00  0.00     0.173 A 
ATOM     84  F   UNL     1      15.760  -0.338  -5.252  1.00  0.00    -0.203 F 
ATOM     85  C   UNL     1      17.343  -1.199  -3.739  1.00  0.00     0.198 A 
ATOM     86  C   UNL     1      17.772  -0.057  -1.671  1.00  0.00     0.198 A 
ATOM     87  F   UNL     1      16.584   1.903  -1.137  1.00  0.00    -0.203 F 
ATOM     88  F   UNL     1      17.555  -2.240  -4.555  1.00  0.00    -0.200 F 
ATOM     89  C   UNL     1      18.020  -1.116  -2.531  1.00  0.00     0.200 A 
ATOM     90  F   UNL     1      18.428   0.026  -0.505  1.00  0.00    -0.200 F 
ATOM     91  F   UNL     1      18.900  -2.067  -2.189  1.00  0.00    -0.200 F 
ENDBRANCH  67  81
BRANCH  68  92
ATOM     92  C   UNL     1       8.683   7.164  -5.316  1.00  0.00     0.064 A 
ATOM     93  C   UNL     1       8.574   7.696  -6.609  1.00  0.00     0.173 A 
ATOM     94  C   UNL     1       7.736   7.566  -4.363  1.00  0.00     0.173 A 
ATOM     95  F   UNL     1       9.474   7.366  -7.546  1.00  0.00    -0.203 F 
ATOM     96  C   UNL     1       7.564   8.601  -6.933  1.00  0.00     0.198 A 
ATOM     97  C   UNL     1       6.713   8.453  -4.694  1.00  0.00     0.198 A 
ATOM     98  F   UNL     1       7.803   7.094  -3.110  1.00  0.00    -0.203 F 
ATOM     99  F   UNL     1       7.505   9.122  -8.165  1.00  0.00    -0.200 F 
ATOM    100  C   UNL     1       6.631   8.973  -5.977  1.00  0.00     0.200 A 
ATOM    101  F   UNL     1       5.811   8.808  -3.769  1.00  0.00    -0.200 F 
ATOM    102  F   UNL     1       5.658   9.840  -6.290  1.00  0.00    -0.200 F 
ENDBRANCH  68  92
BRANCH  80 103
ATOM    103  C   UNL     1      15.598   7.869  -4.804  1.00  0.00     0.064 A 
ATOM    104  C   UNL     1      15.696   8.890  -3.848  1.00  0.00     0.173 A 
ATOM    105  C   UNL     1      16.431   7.941  -5.932  1.00  0.00     0.173 A 
ATOM    106  F   UNL     1      14.913   8.873  -2.759  1.00  0.00    -0.203 F 
ATOM    107  C   UNL     1      16.579   9.952  -4.025  1.00  0.00     0.198 A 
ATOM    108  C   UNL     1      17.332   8.990  -6.091  1.00  0.00     0.198 A 
ATOM    109  F   UNL     1      16.382   6.985  -6.871  1.00  0.00    -0.203 F 
ATOM    110  F   UNL     1      16.628  10.939  -3.119  1.00  0.00    -0.200 F 
ATOM    111  C   UNL     1      17.402   9.997  -5.141  1.00  0.00     0.200 A 
ATOM    112  F   UNL     1      18.136   9.023  -7.163  1.00  0.00    -0.200 F 
ATOM    113  F   UNL     1      18.258  11.015  -5.304  1.00  0.00    -0.200 F 
ENDBRANCH  80 103
ENDBRANCH  54  55
ENDBRANCH  47  49
ENDBRANCH  46  47
ENDBRANCH  45  46
ENDBRANCH  44  45
ENDBRANCH  43  44
ENDBRANCH  42  43
ENDBRANCH  41  42
ENDBRANCH  40  41
ENDBRANCH   1  40
TORSDOF 26
