REMARK SMILES O=C(OCCOCCOCCOCCOC(=O)c1ccc2c(c1)[C@@H](C1CCOCC1)C(=O)N2)c1ccc(-c2c3nc(c(-c4c(F)c(F)c(F)c(F)c4F)c4ccc([nH]4)c(-c4c(F)c(F)c(F)c(F)c4F)c4nc(c(-c5c(F)c(F)c(F)c(F)c5F)c5ccc2[nH]5)C=C4)C=C3)cc1
REMARK SMILES IDX 8 1 7 2 6 3 5 4 4 5 3 6 2 7 1 8 34 9 35 10 96 11 36 12 95 13
REMARK SMILES IDX 37 14 38 15 39 16 89 17 40 18 94 19 88 20 90 21 41 22 93 23
REMARK SMILES IDX 87 24 86 25 42 27 74 28 54 29 73 30 55 31 58 32 72 33 91 34
REMARK SMILES IDX 56 35 57 36 71 38 92 39 59 40 43 41 44 42 52 43 45 44 46 45
REMARK SMILES IDX 50 46 53 47 47 48 48 49 51 50 49 51 75 52 76 53 84 54 77 55
REMARK SMILES IDX 78 56 82 57 85 58 79 59 80 60 83 61 81 62 60 63 61 64 69 65
REMARK SMILES IDX 62 66 63 67 67 68 70 69 64 70 65 71 68 72 66 73 9 74 10 75
REMARK SMILES IDX 11 76 12 77 13 78 14 79 15 80 16 81 17 82 18 83 19 84 23 85
REMARK SMILES IDX 20 86 22 87 21 88 24 89 33 90 31 91 32 93 25 94 26 95 30 96
REMARK SMILES IDX 27 97 29 98 28 99
REMARK H PARENT 90 26 58 37 33 92
REMARK Flexibility Score: inf
ROOT
ATOM      1  C   UNL     1       1.675   1.867  -1.887  1.00  0.00     0.188 C 
ENDROOT
BRANCH   1   2
ATOM      2  C   UNL     1       2.144   0.510  -1.366  1.00  0.00     0.188 C 
BRANCH   2   3
ATOM      3  O   UNL     1       3.495   0.570  -0.895  1.00  0.00    -0.376 OA
BRANCH   3   4
ATOM      4  C   UNL     1       4.312  -0.554  -1.227  1.00  0.00     0.202 C 
BRANCH   4   5
ATOM      5  C   UNL     1       4.109  -1.782  -0.337  1.00  0.00     0.261 C 
BRANCH   5   6
ATOM      6  O   UNL     1       2.755  -1.919   0.114  1.00  0.00    -0.460 OA
BRANCH   6   7
ATOM      7  C   UNL     1       2.184  -1.378   1.220  1.00  0.00     0.338 C 
ATOM      8  O   UNL     1       1.002  -1.637   1.444  1.00  0.00    -0.246 OA
BRANCH   7   9
ATOM      9  C   UNL     1       2.894  -0.485   2.193  1.00  0.00     0.060 A 
ATOM     10  C   UNL     1       4.068   0.227   1.942  1.00  0.00     0.016 A 
ATOM     11  C   UNL     1       2.299  -0.327   3.458  1.00  0.00     0.016 A 
ATOM     12  C   UNL     1       4.684   0.993   2.915  1.00  0.00     0.010 A 
ATOM     13  C   UNL     1       2.903   0.453   4.449  1.00  0.00     0.010 A 
ATOM     14  C   UNL     1       4.127   1.073   4.184  1.00  0.00    -0.014 A 
BRANCH  14  15
ATOM     15  C   UNL     1       5.002   1.590   5.247  1.00  0.00     0.031 A 
ATOM     16  C   UNL     1       5.710   0.578   6.096  1.00  0.00     0.074 A 
ATOM     17  C   UNL     1       5.313   2.896   5.282  1.00  0.00     0.049 A 
ATOM     18  N   UNL     1       6.543   0.755   7.085  1.00  0.00    -0.248 NA
ATOM     19  C   UNL     1       5.466  -0.838   5.765  1.00  0.00     0.031 C 
ATOM     20  C   UNL     1       4.803   3.908   4.355  1.00  0.00     0.029 A 
ATOM     21  N   UNL     1       6.172   3.584   6.093  1.00  0.00    -0.354 N 
ATOM     22  C   UNL     1       6.883  -0.520   7.517  1.00  0.00     0.074 A 
ATOM     23  C   UNL     1       6.178  -1.465   6.685  1.00  0.00     0.031 C 
ATOM     24  C   UNL     1       5.381   5.088   4.635  1.00  0.00     0.029 A 
ATOM     25  C   UNL     1       6.240   4.924   5.802  1.00  0.00     0.049 A 
ATOM     26  H   UNL     1       6.690   3.161   6.814  1.00  0.00     0.167 HD
ATOM     27  C   UNL     1       7.707  -0.860   8.534  1.00  0.00     0.037 A 
ATOM     28  C   UNL     1       6.904   5.902   6.445  1.00  0.00     0.037 A 
ATOM     29  C   UNL     1       8.396   0.115   9.332  1.00  0.00     0.049 A 
ATOM     30  C   UNL     1       7.718   5.510   7.651  1.00  0.00     0.074 A 
ATOM     31  C   UNL     1       9.198  -0.076  10.439  1.00  0.00     0.029 A 
ATOM     32  N   UNL     1       8.356   1.484   9.090  1.00  0.00    -0.354 N 
ATOM     33  N   UNL     1       7.965   4.312   8.130  1.00  0.00    -0.248 NA
ATOM     34  C   UNL     1       8.327   6.601   8.418  1.00  0.00     0.031 C 
ATOM     35  C   UNL     1       9.599   1.184  10.899  1.00  0.00     0.029 A 
ATOM     36  C   UNL     1       9.099   2.155  10.042  1.00  0.00     0.049 A 
ATOM     37  H   UNL     1       7.868   1.912   8.349  1.00  0.00     0.167 HD
ATOM     38  C   UNL     1       8.776   4.500   9.239  1.00  0.00     0.074 A 
ATOM     39  C   UNL     1       8.992   5.931   9.349  1.00  0.00     0.031 C 
ATOM     40  C   UNL     1       9.293   3.584  10.096  1.00  0.00     0.037 A 
BRANCH  27  41
ATOM     41  C   UNL     1       7.796  -2.318   8.878  1.00  0.00     0.064 A 
ATOM     42  C   UNL     1       8.429  -3.252   8.043  1.00  0.00     0.173 A 
ATOM     43  C   UNL     1       7.167  -2.799  10.037  1.00  0.00     0.173 A 
ATOM     44  F   UNL     1       9.015  -2.852   6.904  1.00  0.00    -0.203 F 
ATOM     45  C   UNL     1       8.392  -4.615   8.334  1.00  0.00     0.198 A 
ATOM     46  C   UNL     1       7.157  -4.158  10.340  1.00  0.00     0.198 A 
ATOM     47  F   UNL     1       6.535  -1.952  10.864  1.00  0.00    -0.203 F 
ATOM     48  F   UNL     1       8.935  -5.496   7.482  1.00  0.00    -0.200 F 
ATOM     49  C   UNL     1       7.758  -5.066   9.482  1.00  0.00     0.200 A 
ATOM     50  F   UNL     1       6.544  -4.590  11.450  1.00  0.00    -0.200 F 
ATOM     51  F   UNL     1       7.708  -6.378   9.752  1.00  0.00    -0.200 F 
ENDBRANCH  27  41
BRANCH  28  52
ATOM     52  C   UNL     1       6.784   7.318   6.005  1.00  0.00     0.064 A 
ATOM     53  C   UNL     1       7.897   8.040   5.553  1.00  0.00     0.173 A 
ATOM     54  C   UNL     1       5.552   7.991   6.046  1.00  0.00     0.173 A 
ATOM     55  F   UNL     1       9.104   7.455   5.514  1.00  0.00    -0.203 F 
ATOM     56  C   UNL     1       7.787   9.379   5.177  1.00  0.00     0.198 A 
ATOM     57  C   UNL     1       5.436   9.319   5.639  1.00  0.00     0.198 A 
ATOM     58  F   UNL     1       4.452   7.355   6.476  1.00  0.00    -0.203 F 
ATOM     59  F   UNL     1       8.878  10.058   4.796  1.00  0.00    -0.200 F 
ATOM     60  C   UNL     1       6.555  10.015   5.215  1.00  0.00     0.200 A 
ATOM     61  F   UNL     1       4.240   9.923   5.665  1.00  0.00    -0.200 F 
ATOM     62  F   UNL     1       6.450  11.301   4.852  1.00  0.00    -0.200 F 
ENDBRANCH  28  52
BRANCH  40  63
ATOM     63  C   UNL     1      10.177   4.107  11.187  1.00  0.00     0.064 A 
ATOM     64  C   UNL     1       9.659   4.819  12.277  1.00  0.00     0.173 A 
ATOM     65  C   UNL     1      11.556   3.849  11.157  1.00  0.00     0.173 A 
ATOM     66  F   UNL     1       8.349   5.102  12.339  1.00  0.00    -0.203 F 
ATOM     67  C   UNL     1      10.497   5.281  13.287  1.00  0.00     0.198 A 
ATOM     68  C   UNL     1      12.384   4.282  12.185  1.00  0.00     0.198 A 
ATOM     69  F   UNL     1      12.094   3.163  10.137  1.00  0.00    -0.203 F 
ATOM     70  F   UNL     1       9.991   6.007  14.293  1.00  0.00    -0.200 F 
ATOM     71  C   UNL     1      11.856   5.005  13.245  1.00  0.00     0.200 A 
ATOM     72  F   UNL     1      13.693   3.999  12.152  1.00  0.00    -0.200 F 
ATOM     73  F   UNL     1      12.659   5.442  14.223  1.00  0.00    -0.200 F 
ENDBRANCH  40  63
ENDBRANCH  14  15
ENDBRANCH   7   9
ENDBRANCH   6   7
ENDBRANCH   5   6
ENDBRANCH   4   5
ENDBRANCH   3   4
ENDBRANCH   2   3
ENDBRANCH   1   2
BRANCH   1  74
ATOM     74  O   UNL     1       2.286   2.289  -3.102  1.00  0.00    -0.377 OA
BRANCH  74  75
ATOM     75  C   UNL     1       3.700   2.155  -3.180  1.00  0.00     0.188 C 
BRANCH  75  76
ATOM     76  C   UNL     1       4.567   2.933  -2.164  1.00  0.00     0.188 C 
BRANCH  76  77
ATOM     77  O   UNL     1       3.808   3.642  -1.208  1.00  0.00    -0.376 OA
BRANCH  77  78
ATOM     78  C   UNL     1       3.558   5.019  -1.439  1.00  0.00     0.202 C 
BRANCH  78  79
ATOM     79  C   UNL     1       3.175   5.580  -2.826  1.00  0.00     0.261 C 
BRANCH  79  80
ATOM     80  O   UNL     1       3.658   4.905  -3.999  1.00  0.00    -0.460 OA
BRANCH  80  81
ATOM     81  C   UNL     1       4.910   5.141  -4.448  1.00  0.00     0.338 C 
ATOM     82  O   UNL     1       5.739   5.889  -3.959  1.00  0.00    -0.246 OA
BRANCH  81  83
ATOM     83  C   UNL     1       5.169   4.151  -5.532  1.00  0.00     0.060 A 
ATOM     84  C   UNL     1       4.340   4.161  -6.673  1.00  0.00     0.018 A 
ATOM     85  C   UNL     1       6.128   3.125  -5.339  1.00  0.00     0.022 A 
ATOM     86  C   UNL     1       4.505   3.198  -7.669  1.00  0.00     0.027 A 
ATOM     87  C   UNL     1       6.212   2.115  -6.290  1.00  0.00    -0.011 A 
ATOM     88  C   UNL     1       5.457   2.220  -7.460  1.00  0.00     0.045 A 
ATOM     89  C   UNL     1       7.089   0.875  -6.380  1.00  0.00     0.114 C 
ATOM     90  N   UNL     1       5.881   1.278  -8.379  1.00  0.00    -0.325 N 
ATOM     91  C   UNL     1       6.942   0.534  -7.885  1.00  0.00     0.232 C 
ATOM     92  H   UNL     1       5.481   1.151  -9.269  1.00  0.00     0.169 HD
ATOM     93  O   UNL     1       7.610  -0.250  -8.536  1.00  0.00    -0.274 OA
BRANCH  89  94
ATOM     94  C   UNL     1       6.671  -0.352  -5.497  1.00  0.00     0.010 C 
ATOM     95  C   UNL     1       7.674  -1.522  -5.660  1.00  0.00     0.033 C 
ATOM     96  C   UNL     1       5.239  -0.873  -5.759  1.00  0.00     0.033 C 
ATOM     97  C   UNL     1       7.229  -2.802  -4.962  1.00  0.00     0.160 C 
ATOM     98  C   UNL     1       4.954  -2.186  -5.034  1.00  0.00     0.160 C 
ATOM     99  O   UNL     1       5.918  -3.175  -5.373  1.00  0.00    -0.381 OA
ENDBRANCH  89  94
ENDBRANCH  81  83
ENDBRANCH  80  81
ENDBRANCH  79  80
ENDBRANCH  78  79
ENDBRANCH  77  78
ENDBRANCH  76  77
ENDBRANCH  75  76
ENDBRANCH  74  75
ENDBRANCH   1  74
TORSDOF 21
