REMARK SMILES C[C@H](Cc1ccc2c(c1)OCCCO2)C(=O)OCCOCCOCCOCCOC(=O)c1ccc(-c2c3nc(c(-c4c(F)c(F)c(F)c(F)c4F)c4ccc([nH]4)c(-c4c(F)c(F)c(F)c(F)c4F)c4nc(c(-c5c(F)c(F)c(F)c(F)c5F)c5ccc2[nH]5)C=C4)C=C3)cc1
REMARK SMILES IDX 21 1 20 2 19 3 18 4 17 5 15 6 16 7 2 8 1 9 3 10 4 11 5 12
REMARK SMILES IDX 9 13 6 14 8 15 7 16 10 17 11 18 14 20 13 21 12 22 22 24
REMARK SMILES IDX 23 25 24 26 25 27 26 28 27 29 28 30 29 31 30 32 31 33 32 34
REMARK SMILES IDX 33 35 94 36 34 37 93 38 35 39 36 40 37 41 87 42 38 43 92 44
REMARK SMILES IDX 86 45 88 46 39 47 91 48 85 49 84 50 40 52 72 53 52 54 71 55
REMARK SMILES IDX 53 56 56 57 70 58 89 59 54 60 55 61 69 63 90 64 57 65 41 66
REMARK SMILES IDX 42 67 50 68 43 69 44 70 48 71 51 72 45 73 46 74 49 75 47 76
REMARK SMILES IDX 73 77 74 78 82 79 75 80 76 81 80 82 83 83 77 84 78 85 81 86
REMARK SMILES IDX 79 87 58 88 59 89 67 90 60 91 61 92 65 93 68 94 62 95 63 96
REMARK SMILES IDX 66 97 64 98
REMARK H PARENT 88 51 56 62
REMARK Flexibility Score: 80.00
ROOT
ATOM      1  C   UNL     1      -2.254   0.803  -2.089  1.00  0.00     0.188 C 
ENDROOT
BRANCH   1   2
ATOM      2  O   UNL     1      -3.572   0.288  -2.003  1.00  0.00    -0.376 OA
BRANCH   2   3
ATOM      3  C   UNL     1      -3.866  -0.810  -1.150  1.00  0.00     0.202 C 
BRANCH   3   4
ATOM      4  C   UNL     1      -2.880  -1.962  -0.900  1.00  0.00     0.261 C 
BRANCH   4   5
ATOM      5  O   UNL     1      -1.522  -1.584  -0.625  1.00  0.00    -0.463 OA
BRANCH   5   6
ATOM      6  C   UNL     1      -0.577  -2.002  -1.491  1.00  0.00     0.309 C 
ATOM      7  O   UNL     1      -0.826  -2.607  -2.530  1.00  0.00    -0.252 OA
BRANCH   6   8
ATOM      8  C   UNL     1       0.860  -1.668  -1.090  1.00  0.00     0.100 C 
ATOM      9  C   UNL     1       1.669  -2.968  -1.180  1.00  0.00     0.020 C 
BRANCH   8  10
ATOM     10  C   UNL     1       1.195  -0.878   0.198  1.00  0.00     0.050 C 
BRANCH  10  11
ATOM     11  C   UNL     1       0.564  -1.202   1.525  1.00  0.00    -0.043 A 
ATOM     12  C   UNL     1       0.622  -0.251   2.564  1.00  0.00     0.008 A 
ATOM     13  C   UNL     1      -0.066  -2.419   1.771  1.00  0.00     0.054 A 
ATOM     14  C   UNL     1       0.068  -0.518   3.819  1.00  0.00     0.051 A 
ATOM     15  C   UNL     1      -0.628  -2.678   3.012  1.00  0.00     0.161 A 
ATOM     16  C   UNL     1      -0.533  -1.750   4.047  1.00  0.00     0.161 A 
BRANCH  15  17
ATOM     17  O   UNL     1      -1.296  -3.862   3.143  1.00  0.00    -0.490 OA
BRANCH  17  18
ATOM     18  C   UNL     1      -0.542  -4.746   3.969  1.00  0.00     0.233 CG0
ATOM     19  G   UNL     1      -0.822  -4.460   5.433  1.00  0.00     0.000 G0
ENDBRANCH  17  18
ENDBRANCH  15  17
BRANCH  16  20
ATOM     20  O   UNL     1      -1.016  -2.011   5.300  1.00  0.00    -0.490 OA
BRANCH  20  21
ATOM     21  C   UNL     1      -0.296  -3.104   5.888  1.00  0.00     0.233 C 
BRANCH  21  22
ATOM     22  C   UNL     1      -0.822  -4.460   5.433  1.00  0.00     0.083 CG0
ATOM     23  G   UNL     1      -0.542  -4.746   3.969  1.00  0.00     0.000 G0
ENDBRANCH  21  22
ENDBRANCH  20  21
ENDBRANCH  16  20
ENDBRANCH  10  11
ENDBRANCH   8  10
ENDBRANCH   6   8
ENDBRANCH   5   6
ENDBRANCH   4   5
ENDBRANCH   3   4
ENDBRANCH   2   3
ENDBRANCH   1   2
BRANCH   1  24
ATOM     24  C   UNL     1      -1.534   1.297  -0.825  1.00  0.00     0.188 C 
BRANCH  24  25
ATOM     25  O   UNL     1      -2.017   0.767   0.392  1.00  0.00    -0.377 OA
BRANCH  25  26
ATOM     26  C   UNL     1      -3.012   1.487   1.106  1.00  0.00     0.188 C 
BRANCH  26  27
ATOM     27  C   UNL     1      -3.948   2.448   0.349  1.00  0.00     0.188 C 
BRANCH  27  28
ATOM     28  O   UNL     1      -3.287   3.319  -0.558  1.00  0.00    -0.376 OA
BRANCH  28  29
ATOM     29  C   UNL     1      -2.957   4.630  -0.122  1.00  0.00     0.202 C 
BRANCH  29  30
ATOM     30  C   UNL     1      -1.908   4.751   0.994  1.00  0.00     0.261 C 
BRANCH  30  31
ATOM     31  O   UNL     1      -2.263   4.182   2.264  1.00  0.00    -0.460 OA
BRANCH  31  32
ATOM     32  C   UNL     1      -3.416   4.570   2.847  1.00  0.00     0.338 C 
ATOM     33  O   UNL     1      -4.189   5.428   2.461  1.00  0.00    -0.246 OA
BRANCH  32  34
ATOM     34  C   UNL     1      -3.685   3.636   3.960  1.00  0.00     0.060 A 
ATOM     35  C   UNL     1      -2.707   3.391   4.927  1.00  0.00     0.016 A 
ATOM     36  C   UNL     1      -4.926   2.989   4.027  1.00  0.00     0.016 A 
ATOM     37  C   UNL     1      -2.989   2.527   5.986  1.00  0.00     0.010 A 
ATOM     38  C   UNL     1      -5.206   2.124   5.090  1.00  0.00     0.010 A 
ATOM     39  C   UNL     1      -4.250   1.911   6.093  1.00  0.00    -0.014 A 
BRANCH  39  40
ATOM     40  C   UNL     1      -4.611   1.221   7.357  1.00  0.00     0.031 A 
ATOM     41  C   UNL     1      -4.671  -0.271   7.472  1.00  0.00     0.074 A 
ATOM     42  C   UNL     1      -4.880   1.991   8.429  1.00  0.00     0.049 A 
ATOM     43  N   UNL     1      -4.847  -1.000   8.547  1.00  0.00    -0.248 NA
ATOM     44  C   UNL     1      -4.537  -1.046   6.233  1.00  0.00     0.031 C 
ATOM     45  C   UNL     1      -4.912   3.455   8.417  1.00  0.00     0.029 A 
ATOM     46  N   UNL     1      -5.154   1.662   9.732  1.00  0.00    -0.354 N 
ATOM     47  C   UNL     1      -4.833  -2.319   8.119  1.00  0.00     0.074 A 
ATOM     48  C   UNL     1      -4.676  -2.290   6.679  1.00  0.00     0.031 C 
ATOM     49  C   UNL     1      -5.137   3.898   9.662  1.00  0.00     0.029 A 
ATOM     50  C   UNL     1      -5.289   2.753  10.555  1.00  0.00     0.049 A 
ATOM     51  H   UNL     1      -5.245   0.734  10.047  1.00  0.00     0.167 HD
ATOM     52  C   UNL     1      -4.919  -3.444   8.871  1.00  0.00     0.037 A 
ATOM     53  C   UNL     1      -5.490   2.829  11.884  1.00  0.00     0.037 A 
ATOM     54  C   UNL     1      -5.043  -3.462  10.305  1.00  0.00     0.049 A 
ATOM     55  C   UNL     1      -5.567   1.563  12.690  1.00  0.00     0.074 A 
ATOM     56  C   UNL     1      -5.037  -4.557  11.152  1.00  0.00     0.029 A 
ATOM     57  N   UNL     1      -5.199  -2.339  11.102  1.00  0.00    -0.354 N 
ATOM     58  N   UNL     1      -5.435   0.322  12.290  1.00  0.00    -0.248 NA
ATOM     59  C   UNL     1      -5.814   1.705  14.132  1.00  0.00     0.031 C 
ATOM     60  C   UNL     1      -5.244  -4.101  12.456  1.00  0.00     0.029 A 
ATOM     61  C   UNL     1      -5.330  -2.719  12.429  1.00  0.00     0.049 A 
ATOM     62  H   UNL     1      -5.214  -1.411  10.775  1.00  0.00     0.167 HD
ATOM     63  C   UNL     1      -5.568  -0.462  13.426  1.00  0.00     0.074 A 
ATOM     64  C   UNL     1      -5.770   0.443  14.538  1.00  0.00     0.031 C 
ATOM     65  C   UNL     1      -5.530  -1.812  13.532  1.00  0.00     0.037 A 
BRANCH  52  66
ATOM     66  C   UNL     1      -4.840  -4.768   8.173  1.00  0.00     0.064 A 
ATOM     67  C   UNL     1      -3.616  -5.246   7.691  1.00  0.00     0.173 A 
ATOM     68  C   UNL     1      -5.956  -5.612   8.080  1.00  0.00     0.173 A 
ATOM     69  F   UNL     1      -2.510  -4.500   7.824  1.00  0.00    -0.203 F 
ATOM     70  C   UNL     1      -3.522  -6.494   7.079  1.00  0.00     0.198 A 
ATOM     71  C   UNL     1      -5.851  -6.877   7.504  1.00  0.00     0.198 A 
ATOM     72  F   UNL     1      -7.139  -5.227   8.581  1.00  0.00    -0.203 F 
ATOM     73  F   UNL     1      -2.348  -6.909   6.582  1.00  0.00    -0.200 F 
ATOM     74  C   UNL     1      -4.638  -7.309   6.988  1.00  0.00     0.200 A 
ATOM     75  F   UNL     1      -6.919  -7.685   7.461  1.00  0.00    -0.200 F 
ATOM     76  F   UNL     1      -4.541  -8.517   6.416  1.00  0.00    -0.200 F 
ENDBRANCH  52  66
BRANCH  53  77
ATOM     77  C   UNL     1      -5.566   4.163  12.531  1.00  0.00     0.064 A 
ATOM     78  C   UNL     1      -4.526   4.623  13.350  1.00  0.00     0.173 A 
ATOM     79  C   UNL     1      -6.647   5.026  12.300  1.00  0.00     0.173 A 
ATOM     80  F   UNL     1      -3.478   3.828  13.612  1.00  0.00    -0.203 F 
ATOM     81  C   UNL     1      -4.565   5.896  13.914  1.00  0.00     0.198 A 
ATOM     82  C   UNL     1      -6.672   6.309  12.842  1.00  0.00     0.198 A 
ATOM     83  F   UNL     1      -7.662   4.635  11.516  1.00  0.00    -0.203 F 
ATOM     84  F   UNL     1      -3.568   6.303  14.712  1.00  0.00    -0.200 F 
ATOM     85  C   UNL     1      -5.632   6.742  13.651  1.00  0.00     0.200 A 
ATOM     86  F   UNL     1      -7.695   7.130  12.570  1.00  0.00    -0.200 F 
ATOM     87  F   UNL     1      -5.659   7.974  14.178  1.00  0.00    -0.200 F 
ENDBRANCH  53  77
BRANCH  65  88
ATOM     88  C   UNL     1      -5.716  -2.416  14.893  1.00  0.00     0.064 A 
ATOM     89  C   UNL     1      -6.973  -2.439  15.512  1.00  0.00     0.173 A 
ATOM     90  C   UNL     1      -4.654  -3.074  15.534  1.00  0.00     0.173 A 
ATOM     91  F   UNL     1      -8.017  -1.815  14.945  1.00  0.00    -0.203 F 
ATOM     92  C   UNL     1      -7.161  -3.098  16.724  1.00  0.00     0.198 A 
ATOM     93  C   UNL     1      -4.853  -3.755  16.731  1.00  0.00     0.198 A 
ATOM     94  F   UNL     1      -3.433  -3.088  14.978  1.00  0.00    -0.203 F 
ATOM     95  F   UNL     1      -8.367  -3.089  17.309  1.00  0.00    -0.200 F 
ATOM     96  C   UNL     1      -6.105  -3.766  17.326  1.00  0.00     0.200 A 
ATOM     97  F   UNL     1      -3.835  -4.416  17.301  1.00  0.00    -0.200 F 
ATOM     98  F   UNL     1      -6.295  -4.423  18.478  1.00  0.00    -0.200 F 
ENDBRANCH  65  88
ENDBRANCH  39  40
ENDBRANCH  32  34
ENDBRANCH  31  32
ENDBRANCH  30  31
ENDBRANCH  29  30
ENDBRANCH  28  29
ENDBRANCH  27  28
ENDBRANCH  26  27
ENDBRANCH  25  26
ENDBRANCH  24  25
ENDBRANCH   1  24
TORSDOF 22
