REMARK SMILES C[C@H]([NH2+]CC1(O)CCCC1)[C@H](C)C(=O)OCCOCCOCCOCCOC(=O)c1ccc(-c2c3nc(c(-c4c(F)c(F)c(F)c(F)c4F)c4ccc([nH]4)c(-c4c(F)c(F)c(F)c(F)c4F)c4nc(c(-c5c(F)c(F)c(F)c(F)c5F)c5ccc2[nH]5)C=C4)C=C3)cc1
REMARK SMILES IDX 19 1 18 2 17 3 16 4 15 5 13 6 14 7 11 8 12 9 2 10 1 11 3 12
REMARK SMILES IDX 4 15 5 16 7 17 10 18 8 19 9 20 6 21 20 23 21 24 22 25 23 26
REMARK SMILES IDX 24 27 25 28 26 29 27 30 28 31 29 32 30 33 31 34 92 35 32 36
REMARK SMILES IDX 91 37 33 38 34 39 35 40 85 41 36 42 90 43 84 44 86 45 37 46
REMARK SMILES IDX 89 47 83 48 82 49 38 51 70 52 50 53 69 54 51 55 54 56 68 57
REMARK SMILES IDX 87 58 52 59 53 60 67 62 88 63 55 64 39 65 40 66 48 67 41 68
REMARK SMILES IDX 42 69 46 70 49 71 43 72 44 73 47 74 45 75 71 76 72 77 80 78
REMARK SMILES IDX 73 79 74 80 78 81 81 82 75 83 76 84 79 85 77 86 56 87 57 88
REMARK SMILES IDX 65 89 58 90 59 91 63 92 66 93 60 94 61 95 64 96 62 97
REMARK H PARENT 3 13 3 14 6 22 86 50 54 61
REMARK Flexibility Score: inf
ROOT
ATOM      1  C   UNL     1      -1.438   3.951  -2.288  1.00  0.00     0.188 C 
ENDROOT
BRANCH   1   2
ATOM      2  O   UNL     1      -2.383   4.934  -1.881  1.00  0.00    -0.376 OA
BRANCH   2   3
ATOM      3  C   UNL     1      -2.413   5.465  -0.567  1.00  0.00     0.202 C 
BRANCH   3   4
ATOM      4  C   UNL     1      -2.625   4.549   0.646  1.00  0.00     0.261 C 
BRANCH   4   5
ATOM      5  O   UNL     1      -1.717   3.448   0.793  1.00  0.00    -0.463 OA
BRANCH   5   6
ATOM      6  C   UNL     1      -2.121   2.269   0.257  1.00  0.00     0.314 C 
ATOM      7  O   UNL     1      -3.179   2.116  -0.345  1.00  0.00    -0.252 OA
BRANCH   6   8
ATOM      8  C   UNL     1      -1.158   1.117   0.528  1.00  0.00     0.154 C 
ATOM      9  C   UNL     1       0.306   1.473   0.841  1.00  0.00     0.026 C 
BRANCH   8  10
ATOM     10  C   UNL     1      -1.758   0.216   1.625  1.00  0.00     0.193 C 
ATOM     11  C   UNL     1      -2.789  -0.753   1.028  1.00  0.00     0.076 C 
BRANCH  10  12
ATOM     12  N   UNL     1      -2.177   0.955   2.823  1.00  0.00    -0.341 N 
ATOM     13  H   UNL     1      -1.669   1.839   2.836  1.00  0.00     0.346 HD
ATOM     14  H   UNL     1      -1.970   0.339   3.609  1.00  0.00     0.346 HD
BRANCH  12  15
ATOM     15  C   UNL     1      -3.606   1.259   2.930  1.00  0.00     0.296 C 
BRANCH  15  16
ATOM     16  C   UNL     1      -4.018   1.910   4.269  1.00  0.00     0.113 C 
ATOM     17  C   UNL     1      -5.515   1.707   4.516  1.00  0.00     0.041 C 
ATOM     18  C   UNL     1      -3.896   3.437   4.321  1.00  0.00     0.041 C 
ATOM     19  C   UNL     1      -5.844   2.698   5.622  1.00  0.00     0.003 C 
ATOM     20  C   UNL     1      -4.856   3.853   5.446  1.00  0.00     0.003 C 
BRANCH  16  21
ATOM     21  O   UNL     1      -3.286   1.311   5.345  1.00  0.00    -0.384 OA
ATOM     22  H   UNL     1      -3.374   0.346   5.297  1.00  0.00     0.211 HD
ENDBRANCH  16  21
ENDBRANCH  15  16
ENDBRANCH  12  15
ENDBRANCH  10  12
ENDBRANCH   8  10
ENDBRANCH   6   8
ENDBRANCH   5   6
ENDBRANCH   4   5
ENDBRANCH   3   4
ENDBRANCH   2   3
ENDBRANCH   1   2
BRANCH   1  23
ATOM     23  C   UNL     1      -0.055   3.813  -1.627  1.00  0.00     0.188 C 
BRANCH  23  24
ATOM     24  O   UNL     1       0.221   4.734  -0.592  1.00  0.00    -0.377 OA
BRANCH  24  25
ATOM     25  C   UNL     1       0.941   5.905  -0.955  1.00  0.00     0.188 C 
BRANCH  25  26
ATOM     26  C   UNL     1       0.626   6.538  -2.324  1.00  0.00     0.188 C 
BRANCH  26  27
ATOM     27  O   UNL     1       0.678   5.619  -3.406  1.00  0.00    -0.376 OA
BRANCH  27  28
ATOM     28  C   UNL     1       1.867   5.489  -4.169  1.00  0.00     0.202 C 
BRANCH  28  29
ATOM     29  C   UNL     1       3.139   4.967  -3.475  1.00  0.00     0.261 C 
BRANCH  29  30
ATOM     30  O   UNL     1       3.593   5.690  -2.321  1.00  0.00    -0.460 OA
BRANCH  30  31
ATOM     31  C   UNL     1       3.851   7.002  -2.468  1.00  0.00     0.338 C 
ATOM     32  O   UNL     1       3.822   7.646  -3.507  1.00  0.00    -0.246 OA
BRANCH  31  33
ATOM     33  C   UNL     1       3.984   7.609  -1.128  1.00  0.00     0.060 A 
ATOM     34  C   UNL     1       3.170   8.704  -0.810  1.00  0.00     0.016 A 
ATOM     35  C   UNL     1       4.926   7.139  -0.209  1.00  0.00     0.016 A 
ATOM     36  C   UNL     1       3.357   9.389   0.386  1.00  0.00     0.010 A 
ATOM     37  C   UNL     1       5.130   7.841   0.984  1.00  0.00     0.010 A 
ATOM     38  C   UNL     1       4.390   9.007   1.251  1.00  0.00    -0.014 A 
BRANCH  38  39
ATOM     39  C   UNL     1       4.866   9.994   2.253  1.00  0.00     0.031 A 
ATOM     40  C   UNL     1       6.052  10.849   1.888  1.00  0.00     0.074 A 
ATOM     41  C   UNL     1       4.215  10.197   3.410  1.00  0.00     0.049 A 
ATOM     42  N   UNL     1       6.638  11.802   2.568  1.00  0.00    -0.248 NA
ATOM     43  C   UNL     1       6.660  10.595   0.571  1.00  0.00     0.031 C 
ATOM     44  C   UNL     1       3.026   9.472   3.851  1.00  0.00     0.029 A 
ATOM     45  N   UNL     1       4.466  11.086   4.425  1.00  0.00    -0.354 N 
ATOM     46  C   UNL     1       7.679  12.252   1.766  1.00  0.00     0.074 A 
ATOM     47  C   UNL     1       7.675  11.444   0.567  1.00  0.00     0.031 C 
ATOM     48  C   UNL     1       2.651   9.943   5.054  1.00  0.00     0.029 A 
ATOM     49  C   UNL     1       3.589  10.983   5.476  1.00  0.00     0.049 A 
ATOM     50  H   UNL     1       5.205  11.736   4.401  1.00  0.00     0.167 HD
ATOM     51  C   UNL     1       8.554  13.259   1.999  1.00  0.00     0.037 A 
ATOM     52  C   UNL     1       3.562  11.646   6.649  1.00  0.00     0.037 A 
ATOM     53  C   UNL     1       8.556  14.063   3.191  1.00  0.00     0.049 A 
ATOM     54  C   UNL     1       4.590  12.719   6.913  1.00  0.00     0.074 A 
ATOM     55  C   UNL     1       9.397  15.109   3.525  1.00  0.00     0.029 A 
ATOM     56  N   UNL     1       7.673  13.905   4.250  1.00  0.00    -0.354 N 
ATOM     57  N   UNL     1       5.561  13.151   6.144  1.00  0.00    -0.248 NA
ATOM     58  C   UNL     1       4.505  13.409   8.208  1.00  0.00     0.031 C 
ATOM     59  C   UNL     1       9.063  15.543   4.812  1.00  0.00     0.029 A 
ATOM     60  C   UNL     1       7.963  14.821   5.247  1.00  0.00     0.049 A 
ATOM     61  H   UNL     1       6.948  13.240   4.286  1.00  0.00     0.167 HD
ATOM     62  C   UNL     1       6.170  14.188   6.840  1.00  0.00     0.074 A 
ATOM     63  C   UNL     1       5.451  14.329   8.088  1.00  0.00     0.031 C 
ATOM     64  C   UNL     1       7.227  14.960   6.478  1.00  0.00     0.037 A 
BRANCH  51  65
ATOM     65  C   UNL     1       9.602  13.523   0.956  1.00  0.00     0.064 A 
ATOM     66  C   UNL     1       9.283  14.057  -0.302  1.00  0.00     0.173 A 
ATOM     67  C   UNL     1      10.953  13.259   1.230  1.00  0.00     0.173 A 
ATOM     68  F   UNL     1       8.005  14.309  -0.624  1.00  0.00    -0.203 F 
ATOM     69  C   UNL     1      10.272  14.292  -1.254  1.00  0.00     0.198 A 
ATOM     70  C   UNL     1      11.943  13.528   0.289  1.00  0.00     0.198 A 
ATOM     71  F   UNL     1      11.315  12.747   2.416  1.00  0.00    -0.203 F 
ATOM     72  F   UNL     1       9.937  14.752  -2.467  1.00  0.00    -0.200 F 
ATOM     73  C   UNL     1      11.602  14.036  -0.955  1.00  0.00     0.200 A 
ATOM     74  F   UNL     1      13.229  13.293   0.586  1.00  0.00    -0.200 F 
ATOM     75  F   UNL     1      12.553  14.272  -1.868  1.00  0.00    -0.200 F 
ENDBRANCH  51  65
BRANCH  52  76
ATOM     76  C   UNL     1       2.530  11.319   7.670  1.00  0.00     0.064 A 
ATOM     77  C   UNL     1       1.550  12.251   8.041  1.00  0.00     0.173 A 
ATOM     78  C   UNL     1       2.532  10.081   8.330  1.00  0.00     0.173 A 
ATOM     79  F   UNL     1       1.520  13.459   7.459  1.00  0.00    -0.203 F 
ATOM     80  C   UNL     1       0.633  11.970   9.053  1.00  0.00     0.198 A 
ATOM     81  C   UNL     1       1.593   9.788   9.316  1.00  0.00     0.198 A 
ATOM     82  F   UNL     1       3.448   9.153   8.015  1.00  0.00    -0.203 F 
ATOM     83  F   UNL     1      -0.251  12.903   9.431  1.00  0.00    -0.200 F 
ATOM     84  C   UNL     1       0.652  10.736   9.686  1.00  0.00     0.200 A 
ATOM     85  F   UNL     1       1.606   8.589   9.915  1.00  0.00    -0.200 F 
ATOM     86  F   UNL     1      -0.228  10.467  10.660  1.00  0.00    -0.200 F 
ENDBRANCH  52  76
BRANCH  64  87
ATOM     87  C   UNL     1       7.622  16.073   7.410  1.00  0.00     0.064 A 
ATOM     88  C   UNL     1       8.176  15.829   8.675  1.00  0.00     0.173 A 
ATOM     89  C   UNL     1       7.452  17.411   7.018  1.00  0.00     0.173 A 
ATOM     90  F   UNL     1       8.354  14.570   9.104  1.00  0.00    -0.203 F 
ATOM     91  C   UNL     1       8.497  16.880   9.532  1.00  0.00     0.198 A 
ATOM     92  C   UNL     1       7.814  18.459   7.861  1.00  0.00     0.198 A 
ATOM     93  F   UNL     1       6.941  17.705   5.813  1.00  0.00    -0.203 F 
ATOM     94  F   UNL     1       8.955  16.620  10.764  1.00  0.00    -0.200 F 
ATOM     95  C   UNL     1       8.321  18.193   9.122  1.00  0.00     0.200 A 
ATOM     96  F   UNL     1       7.662  19.727   7.453  1.00  0.00    -0.200 F 
ATOM     97  F   UNL     1       8.630  19.202   9.948  1.00  0.00    -0.200 F 
ENDBRANCH  64  87
ENDBRANCH  38  39
ENDBRANCH  31  33
ENDBRANCH  30  31
ENDBRANCH  29  30
ENDBRANCH  28  29
ENDBRANCH  27  28
ENDBRANCH  26  27
ENDBRANCH  25  26
ENDBRANCH  24  25
ENDBRANCH  23  24
ENDBRANCH   1  23
TORSDOF 25
