REMARK SMILES CCC[N@@H+](C)CC[C@@H]1CCC[C@]1([NH2+]C)C(=O)OCCOCCOCCOCCOC(=O)c1ccc(-c2c3nc(c(-c4c(F)c(F)c(F)c(F)c4F)c4ccc([nH]4)c(-c4c(F)c(F)c(F)c(F)c4F)c4nc(c(-c5c(F)c(F)c(F)c(F)c5F)c5ccc2[nH]5)C=C4)C=C3)cc1
REMARK SMILES IDX 21 1 20 2 19 3 18 4 17 5 15 6 16 7 12 8 8 9 9 10 10 11 11 12
REMARK SMILES IDX 7 13 6 14 4 15 5 16 3 18 2 19 1 20 13 21 14 22 22 25 23 26
REMARK SMILES IDX 24 27 25 28 26 29 27 30 28 31 29 32 30 33 31 34 32 35 33 36
REMARK SMILES IDX 94 37 34 38 93 39 35 40 36 41 37 42 87 43 38 44 92 45 86 46
REMARK SMILES IDX 88 47 39 48 91 49 85 50 84 51 40 53 72 54 52 55 71 56 53 57
REMARK SMILES IDX 56 58 70 59 89 60 54 61 55 62 69 64 90 65 57 66 41 67 42 68
REMARK SMILES IDX 50 69 43 70 44 71 48 72 51 73 45 74 46 75 49 76 47 77 73 78
REMARK SMILES IDX 74 79 82 80 75 81 76 82 80 83 83 84 77 85 78 86 81 87 79 88
REMARK SMILES IDX 58 89 59 90 67 91 60 92 61 93 65 94 68 95 62 96 63 97 66 98
REMARK SMILES IDX 64 99
REMARK H PARENT 4 17 13 23 13 24 88 52 56 63
REMARK Flexibility Score: inf
ROOT
ATOM      1  C   UNL     1      -1.840  -1.587   2.302  1.00  0.00     0.188 C 
ENDROOT
BRANCH   1   2
ATOM      2  O   UNL     1      -2.001  -2.030   3.636  1.00  0.00    -0.376 OA
BRANCH   2   3
ATOM      3  C   UNL     1      -0.902  -1.907   4.542  1.00  0.00     0.202 C 
BRANCH   3   4
ATOM      4  C   UNL     1       0.320  -2.842   4.309  1.00  0.00     0.261 C 
BRANCH   4   5
ATOM      5  O   UNL     1       1.559  -2.236   3.782  1.00  0.00    -0.459 OA
BRANCH   5   6
ATOM      6  C   UNL     1       2.248  -2.948   2.827  1.00  0.00     0.368 C 
ATOM      7  O   UNL     1       1.754  -3.968   2.341  1.00  0.00    -0.245 OA
BRANCH   6   8
ATOM      8  C   UNL     1       3.807  -2.514   2.501  1.00  0.00     0.197 C 
ATOM      9  C   UNL     1       4.434  -1.161   1.874  1.00  0.00     0.068 C 
ATOM     10  C   UNL     1       4.580  -1.312   0.344  1.00  0.00     0.011 C 
ATOM     11  C   UNL     1       4.208  -2.741   0.027  1.00  0.00     0.008 C 
ATOM     12  C   UNL     1       4.277  -3.495   1.351  1.00  0.00     0.081 C 
BRANCH   9  13
ATOM     13  C   UNL     1       4.159   0.299   2.289  1.00  0.00     0.072 C 
BRANCH  13  14
ATOM     14  C   UNL     1       3.025   1.089   1.598  1.00  0.00     0.262 C 
BRANCH  14  15
ATOM     15  N   UNL     1       1.677   0.581   1.809  1.00  0.00    -0.337 N 
ATOM     16  C   UNL     1       1.457   0.550   3.265  1.00  0.00     0.332 C 
ATOM     17  H   UNL     1       0.978   1.196   1.393  1.00  0.00     0.347 HD
BRANCH  15  18
ATOM     18  C   UNL     1       1.412  -0.673   1.090  1.00  0.00     0.261 C 
BRANCH  18  19
ATOM     19  C   UNL     1       0.743  -0.686  -0.294  1.00  0.00     0.058 C 
ATOM     20  C   UNL     1       1.145   0.412  -1.248  1.00  0.00     0.010 C 
ENDBRANCH  18  19
ENDBRANCH  15  18
ENDBRANCH  14  15
ENDBRANCH  13  14
ENDBRANCH   9  13
BRANCH   8  21
ATOM     21  N   UNL     1       4.599  -2.780   3.752  1.00  0.00    -0.334 N 
ATOM     22  C   UNL     1       4.423  -4.117   4.310  1.00  0.00     0.331 C 
ATOM     23  H   UNL     1       4.315  -2.101   4.458  1.00  0.00     0.347 HD
ATOM     24  H   UNL     1       5.582  -2.702   3.493  1.00  0.00     0.347 HD
ENDBRANCH   8  21
ENDBRANCH   6   8
ENDBRANCH   5   6
ENDBRANCH   4   5
ENDBRANCH   3   4
ENDBRANCH   2   3
ENDBRANCH   1   2
BRANCH   1  25
ATOM     25  C   UNL     1      -1.623  -0.091   2.045  1.00  0.00     0.188 C 
BRANCH  25  26
ATOM     26  O   UNL     1      -1.973   0.876   3.012  1.00  0.00    -0.377 OA
BRANCH  26  27
ATOM     27  C   UNL     1      -3.352   0.980   3.280  1.00  0.00     0.188 C 
BRANCH  27  28
ATOM     28  C   UNL     1      -4.230   1.461   2.113  1.00  0.00     0.188 C 
BRANCH  28  29
ATOM     29  O   UNL     1      -3.936   0.858   0.856  1.00  0.00    -0.376 OA
BRANCH  29  30
ATOM     30  C   UNL     1      -3.711   1.781  -0.222  1.00  0.00     0.202 C 
BRANCH  30  31
ATOM     31  C   UNL     1      -2.332   2.480  -0.274  1.00  0.00     0.261 C 
BRANCH  31  32
ATOM     32  O   UNL     1      -1.970   3.207   0.907  1.00  0.00    -0.460 OA
BRANCH  32  33
ATOM     33  C   UNL     1      -2.641   4.361   1.119  1.00  0.00     0.338 C 
ATOM     34  O   UNL     1      -3.514   4.848   0.440  1.00  0.00    -0.246 OA
BRANCH  33  35
ATOM     35  C   UNL     1      -2.237   4.867   2.442  1.00  0.00     0.060 A 
ATOM     36  C   UNL     1      -3.101   4.654   3.520  1.00  0.00     0.016 A 
ATOM     37  C   UNL     1      -1.059   5.600   2.599  1.00  0.00     0.016 A 
ATOM     38  C   UNL     1      -2.791   5.172   4.769  1.00  0.00     0.010 A 
ATOM     39  C   UNL     1      -0.769   6.162   3.846  1.00  0.00     0.010 A 
ATOM     40  C   UNL     1      -1.653   5.972   4.922  1.00  0.00    -0.014 A 
BRANCH  40  41
ATOM     41  C   UNL     1      -1.576   6.811   6.135  1.00  0.00     0.031 A 
ATOM     42  C   UNL     1      -2.270   8.144   6.099  1.00  0.00     0.074 A 
ATOM     43  C   UNL     1      -1.017   6.347   7.265  1.00  0.00     0.049 A 
ATOM     44  N   UNL     1      -2.408   9.038   7.043  1.00  0.00    -0.248 NA
ATOM     45  C   UNL     1      -2.922   8.506   4.828  1.00  0.00     0.031 C 
ATOM     46  C   UNL     1      -0.403   5.032   7.427  1.00  0.00     0.029 A 
ATOM     47  N   UNL     1      -0.895   6.933   8.498  1.00  0.00    -0.354 N 
ATOM     48  C   UNL     1      -3.177  10.051   6.486  1.00  0.00     0.074 A 
ATOM     49  C   UNL     1      -3.450   9.684   5.116  1.00  0.00     0.031 C 
ATOM     50  C   UNL     1       0.042   4.913   8.691  1.00  0.00     0.029 A 
ATOM     51  C   UNL     1      -0.233   6.153   9.414  1.00  0.00     0.049 A 
ATOM     52  H   UNL     1      -1.248   7.828   8.708  1.00  0.00     0.167 HD
ATOM     53  C   UNL     1      -3.624  11.184   7.074  1.00  0.00     0.037 A 
ATOM     54  C   UNL     1       0.122   6.433  10.683  1.00  0.00     0.037 A 
ATOM     55  C   UNL     1      -3.314  11.556   8.427  1.00  0.00     0.049 A 
ATOM     56  C   UNL     1      -0.271   7.769  11.267  1.00  0.00     0.074 A 
ATOM     57  C   UNL     1      -3.663  12.707   9.109  1.00  0.00     0.029 A 
ATOM     58  N   UNL     1      -2.568  10.778   9.301  1.00  0.00    -0.354 N 
ATOM     59  N   UNL     1      -0.991   8.729  10.737  1.00  0.00    -0.248 NA
ATOM     60  C   UNL     1       0.199   8.059  12.629  1.00  0.00     0.031 C 
ATOM     61  C   UNL     1      -3.087  12.647  10.382  1.00  0.00     0.029 A 
ATOM     62  C   UNL     1      -2.430  11.433  10.512  1.00  0.00     0.049 A 
ATOM     63  H   UNL     1      -2.194   9.893   9.091  1.00  0.00     0.167 HD
ATOM     64  C   UNL     1      -1.094   9.714  11.711  1.00  0.00     0.074 A 
ATOM     65  C   UNL     1      -0.373   9.229  12.869  1.00  0.00     0.031 C 
ATOM     66  C   UNL     1      -1.726  10.913  11.656  1.00  0.00     0.037 A 
BRANCH  53  67
ATOM     67  C   UNL     1      -4.459  12.111   6.242  1.00  0.00     0.064 A 
ATOM     68  C   UNL     1      -5.776  11.788   5.880  1.00  0.00     0.173 A 
ATOM     69  C   UNL     1      -3.945  13.344   5.816  1.00  0.00     0.173 A 
ATOM     70  F   UNL     1      -6.306  10.610   6.242  1.00  0.00    -0.203 F 
ATOM     71  C   UNL     1      -6.541  12.659   5.109  1.00  0.00     0.198 A 
ATOM     72  C   UNL     1      -4.722  14.225   5.070  1.00  0.00     0.198 A 
ATOM     73  F   UNL     1      -2.690  13.698   6.130  1.00  0.00    -0.203 F 
ATOM     74  F   UNL     1      -7.782  12.312   4.739  1.00  0.00    -0.200 F 
ATOM     75  C   UNL     1      -6.017  13.880   4.712  1.00  0.00     0.200 A 
ATOM     76  F   UNL     1      -4.217  15.408   4.694  1.00  0.00    -0.200 F 
ATOM     77  F   UNL     1      -6.757  14.722   3.978  1.00  0.00    -0.200 F 
ENDBRANCH  53  67
BRANCH  54  78
ATOM     78  C   UNL     1       0.910   5.457  11.484  1.00  0.00     0.064 A 
ATOM     79  C   UNL     1       0.389   4.883  12.652  1.00  0.00     0.173 A 
ATOM     80  C   UNL     1       2.229   5.128  11.132  1.00  0.00     0.173 A 
ATOM     81  F   UNL     1      -0.857   5.184  13.048  1.00  0.00    -0.203 F 
ATOM     82  C   UNL     1       1.165   4.048  13.454  1.00  0.00     0.198 A 
ATOM     83  C   UNL     1       2.993   4.266  11.917  1.00  0.00     0.198 A 
ATOM     84  F   UNL     1       2.782   5.652  10.029  1.00  0.00    -0.203 F 
ATOM     85  F   UNL     1       0.664   3.569  14.601  1.00  0.00    -0.200 F 
ATOM     86  C   UNL     1       2.465   3.738  13.085  1.00  0.00     0.200 A 
ATOM     87  F   UNL     1       4.245   3.963  11.551  1.00  0.00    -0.200 F 
ATOM     88  F   UNL     1       3.215   2.945  13.862  1.00  0.00    -0.200 F 
ENDBRANCH  54  78
BRANCH  66  89
ATOM     89  C   UNL     1      -1.715  11.756  12.899  1.00  0.00     0.064 A 
ATOM     90  C   UNL     1      -0.550  12.393  13.350  1.00  0.00     0.173 A 
ATOM     91  C   UNL     1      -2.901  11.965  13.620  1.00  0.00     0.173 A 
ATOM     92  F   UNL     1       0.611  12.215  12.703  1.00  0.00    -0.203 F 
ATOM     93  C   UNL     1      -0.568  13.185  14.495  1.00  0.00     0.198 A 
ATOM     94  C   UNL     1      -2.922  12.786  14.743  1.00  0.00     0.198 A 
ATOM     95  F   UNL     1      -4.045  11.387  13.223  1.00  0.00    -0.203 F 
ATOM     96  F   UNL     1       0.568  13.742  14.938  1.00  0.00    -0.200 F 
ATOM     97  C   UNL     1      -1.754  13.387  15.185  1.00  0.00     0.200 A 
ATOM     98  F   UNL     1      -4.073  12.995  15.397  1.00  0.00    -0.200 F 
ATOM     99  F   UNL     1      -1.770  14.159  16.280  1.00  0.00    -0.200 F 
ENDBRANCH  66  89
ENDBRANCH  40  41
ENDBRANCH  33  35
ENDBRANCH  32  33
ENDBRANCH  31  32
ENDBRANCH  30  31
ENDBRANCH  29  30
ENDBRANCH  28  29
ENDBRANCH  27  28
ENDBRANCH  26  27
ENDBRANCH  25  26
ENDBRANCH   1  25
TORSDOF 26
