REMARK SMILES Cc1cc2c(c(C)c1Br)C=C(C(=O)OCCOCCOCCOCCOC(=O)c1ccc(-c3c4nc(c(-c5c(F)c(F)c(F)c(F)c5F)c5ccc([nH]5)c(-c5c(F)c(F)c(F)c(F)c5F)c5nc(c(-c6c(F)c(F)c(F)c(F)c6F)c6ccc3[nH]6)C=C5)C=C4)cc1)[C@@H](C(F)(F)F)O2
REMARK SMILES IDX 21 1 20 2 19 3 18 4 17 5 16 6 15 7 14 8 12 9 13 10 11 11
REMARK SMILES IDX 1 12 2 13 3 14 8 15 4 16 6 17 9 18 5 19 97 20 7 21 10 22
REMARK SMILES IDX 92 23 93 24 94 25 95 26 96 27 22 28 23 29 24 30 25 31 26 32
REMARK SMILES IDX 27 33 28 34 29 35 30 36 91 37 31 38 90 39 32 40 33 41 34 42
REMARK SMILES IDX 84 43 35 44 89 45 83 46 85 47 36 48 88 49 82 50 81 51 37 53
REMARK SMILES IDX 69 54 49 55 68 56 50 57 53 58 67 59 86 60 51 61 52 62 66 64
REMARK SMILES IDX 87 65 54 66 38 67 39 68 47 69 40 70 41 71 45 72 48 73 42 74
REMARK SMILES IDX 43 75 46 76 44 77 70 78 71 79 79 80 72 81 73 82 77 83 80 84
REMARK SMILES IDX 74 85 75 86 78 87 76 88 55 89 56 90 64 91 57 92 58 93 62 94
REMARK SMILES IDX 65 95 59 96 60 97 63 98 61 99
REMARK H PARENT 85 52 53 63
REMARK Flexibility Score: inf
ROOT
ATOM      1  C   UNL     1       1.619  -5.167   9.068  1.00  0.00     0.188 C 
ENDROOT
BRANCH   1   2
ATOM      2  O   UNL     1       1.043  -4.739   7.831  1.00  0.00    -0.377 OA
BRANCH   2   3
ATOM      3  C   UNL     1       0.909  -3.344   7.600  1.00  0.00     0.188 C 
BRANCH   3   4
ATOM      4  C   UNL     1      -0.272  -2.704   8.357  1.00  0.00     0.188 C 
BRANCH   4   5
ATOM      5  O   UNL     1      -0.743  -3.511   9.424  1.00  0.00    -0.376 OA
BRANCH   5   6
ATOM      6  C   UNL     1      -1.873  -4.348   9.240  1.00  0.00     0.202 C 
BRANCH   6   7
ATOM      7  C   UNL     1      -2.002  -5.293   8.032  1.00  0.00     0.261 C 
BRANCH   7   8
ATOM      8  O   UNL     1      -1.521  -4.807   6.776  1.00  0.00    -0.460 OA
BRANCH   8   9
ATOM      9  C   UNL     1      -2.275  -3.903   6.125  1.00  0.00     0.338 C 
ATOM     10  O   UNL     1      -3.359  -3.471   6.474  1.00  0.00    -0.246 OA
BRANCH   9  11
ATOM     11  C   UNL     1      -1.474  -3.384   4.994  1.00  0.00     0.087 C 
ATOM     12  C   UNL     1       1.063  -0.166   0.002  1.00  0.00     0.046 C 
ATOM     13  C   UNL     1       0.508  -0.558   1.345  1.00  0.00    -0.033 A 
ATOM     14  C   UNL     1       0.520  -1.921   1.670  1.00  0.00     0.051 A 
ATOM     15  C   UNL     1       0.016   0.360   2.296  1.00  0.00     0.024 A 
ATOM     16  C   UNL     1      -0.062  -2.384   2.846  1.00  0.00     0.128 A 
ATOM     17  C   UNL     1      -0.565  -0.092   3.507  1.00  0.00    -0.026 A 
ATOM     18  Br  UNL     1       0.137   2.231   1.909  1.00  0.00    -0.050 Br
ATOM     19  C   UNL     1      -0.660  -1.490   3.737  1.00  0.00     0.021 A 
ATOM     20  O   UNL     1      -0.008  -3.737   3.017  1.00  0.00    -0.475 OA
ATOM     21  C   UNL     1      -1.068   0.861   4.570  1.00  0.00     0.046 C 
ATOM     22  C   UNL     1      -1.427  -2.054   4.847  1.00  0.00     0.027 C 
ATOM     23  C   UNL     1      -0.701  -4.346   4.136  1.00  0.00     0.316 C 
BRANCH  23  24
ATOM     24  C   UNL     1      -1.578  -5.477   3.583  1.00  0.00     0.430 C 
ATOM     25  F   UNL     1      -0.873  -6.287   2.756  1.00  0.00    -0.167 F 
ATOM     26  F   UNL     1      -2.072  -6.266   4.566  1.00  0.00    -0.167 F 
ATOM     27  F   UNL     1      -2.631  -4.999   2.882  1.00  0.00    -0.167 F 
ENDBRANCH  23  24
ENDBRANCH   9  11
ENDBRANCH   8   9
ENDBRANCH   7   8
ENDBRANCH   6   7
ENDBRANCH   5   6
ENDBRANCH   4   5
ENDBRANCH   3   4
ENDBRANCH   2   3
ENDBRANCH   1   2
BRANCH   1  28
ATOM     28  C   UNL     1       1.796  -4.218  10.281  1.00  0.00     0.188 C 
BRANCH  28  29
ATOM     29  O   UNL     1       2.126  -2.880   9.939  1.00  0.00    -0.376 OA
BRANCH  29  30
ATOM     30  C   UNL     1       3.450  -2.437  10.179  1.00  0.00     0.202 C 
BRANCH  30  31
ATOM     31  C   UNL     1       4.531  -3.049   9.279  1.00  0.00     0.261 C 
BRANCH  31  32
ATOM     32  O   UNL     1       4.619  -4.482   9.301  1.00  0.00    -0.460 OA
BRANCH  32  33
ATOM     33  C   UNL     1       4.957  -5.067  10.469  1.00  0.00     0.338 C 
ATOM     34  O   UNL     1       5.234  -4.517  11.521  1.00  0.00    -0.246 OA
BRANCH  33  35
ATOM     35  C   UNL     1       4.748  -6.520  10.310  1.00  0.00     0.060 A 
ATOM     36  C   UNL     1       3.823  -7.172  11.137  1.00  0.00     0.016 A 
ATOM     37  C   UNL     1       5.449  -7.230   9.332  1.00  0.00     0.016 A 
ATOM     38  C   UNL     1       3.618  -8.545  11.005  1.00  0.00     0.010 A 
ATOM     39  C   UNL     1       5.261  -8.609   9.218  1.00  0.00     0.010 A 
ATOM     40  C   UNL     1       4.370  -9.277  10.075  1.00  0.00    -0.014 A 
BRANCH  40  41
ATOM     41  C   UNL     1       4.385 -10.757  10.148  1.00  0.00     0.031 A 
ATOM     42  C   UNL     1       5.486 -11.413  10.933  1.00  0.00     0.074 A 
ATOM     43  C   UNL     1       3.432 -11.502   9.562  1.00  0.00     0.049 A 
ATOM     44  N   UNL     1       5.734 -12.684  11.117  1.00  0.00    -0.248 NA
ATOM     45  C   UNL     1       6.437 -10.511  11.605  1.00  0.00     0.031 C 
ATOM     46  C   UNL     1       2.288 -10.979   8.821  1.00  0.00     0.029 A 
ATOM     47  N   UNL     1       3.281 -12.865   9.501  1.00  0.00    -0.354 N 
ATOM     48  C   UNL     1       6.861 -12.732  11.927  1.00  0.00     0.074 A 
ATOM     49  C   UNL     1       7.274 -11.368  12.168  1.00  0.00     0.031 C 
ATOM     50  C   UNL     1       1.550 -12.012   8.377  1.00  0.00     0.029 A 
ATOM     51  C   UNL     1       2.188 -13.267   8.773  1.00  0.00     0.049 A 
ATOM     52  H   UNL     1       3.898 -13.495   9.938  1.00  0.00     0.167 HD
ATOM     53  C   UNL     1       7.485 -13.818  12.438  1.00  0.00     0.037 A 
ATOM     54  C   UNL     1       1.766 -14.507   8.453  1.00  0.00     0.037 A 
ATOM     55  C   UNL     1       7.076 -15.174  12.191  1.00  0.00     0.049 A 
ATOM     56  C   UNL     1       2.541 -15.704   8.949  1.00  0.00     0.074 A 
ATOM     57  C   UNL     1       7.646 -16.343  12.662  1.00  0.00     0.029 A 
ATOM     58  N   UNL     1       5.998 -15.542  11.400  1.00  0.00    -0.354 N 
ATOM     59  N   UNL     1       3.597 -15.743   9.725  1.00  0.00    -0.248 NA
ATOM     60  C   UNL     1       2.064 -17.029   8.523  1.00  0.00     0.031 C 
ATOM     61  C   UNL     1       6.948 -17.420  12.110  1.00  0.00     0.029 A 
ATOM     62  C   UNL     1       5.903 -16.922  11.347  1.00  0.00     0.049 A 
ATOM     63  H   UNL     1       5.390 -14.915  10.945  1.00  0.00     0.167 HD
ATOM     64  C   UNL     1       3.893 -17.089   9.904  1.00  0.00     0.074 A 
ATOM     65  C   UNL     1       2.898 -17.837   9.165  1.00  0.00     0.031 C 
ATOM     66  C   UNL     1       4.899 -17.654  10.617  1.00  0.00     0.037 A 
BRANCH  53  67
ATOM     67  C   UNL     1       8.685 -13.588  13.307  1.00  0.00     0.064 A 
ATOM     68  C   UNL     1       8.564 -13.055  14.599  1.00  0.00     0.173 A 
ATOM     69  C   UNL     1       9.964 -13.960  12.867  1.00  0.00     0.173 A 
ATOM     70  F   UNL     1       7.365 -12.666  15.060  1.00  0.00    -0.203 F 
ATOM     71  C   UNL     1       9.681 -12.892  15.414  1.00  0.00     0.198 A 
ATOM     72  C   UNL     1      11.074 -13.825  13.696  1.00  0.00     0.198 A 
ATOM     73  F   UNL     1      10.134 -14.475  11.640  1.00  0.00    -0.203 F 
ATOM     74  F   UNL     1       9.547 -12.348  16.631  1.00  0.00    -0.200 F 
ATOM     75  C   UNL     1      10.933 -13.288  14.966  1.00  0.00     0.200 A 
ATOM     76  F   UNL     1      12.281 -14.220  13.266  1.00  0.00    -0.200 F 
ATOM     77  F   UNL     1      12.004 -13.148  15.759  1.00  0.00    -0.200 F 
ENDBRANCH  53  67
BRANCH  54  78
ATOM     78  C   UNL     1       0.544 -14.683   7.623  1.00  0.00     0.064 A 
ATOM     79  C   UNL     1      -0.619 -15.249   8.163  1.00  0.00     0.173 A 
ATOM     80  C   UNL     1       0.512 -14.291   6.276  1.00  0.00     0.173 A 
ATOM     81  F   UNL     1      -0.630 -15.667   9.437  1.00  0.00    -0.203 F 
ATOM     82  C   UNL     1      -1.764 -15.423   7.387  1.00  0.00     0.198 A 
ATOM     83  C   UNL     1      -0.642 -14.438   5.509  1.00  0.00     0.198 A 
ATOM     84  F   UNL     1       1.600 -13.751   5.708  1.00  0.00    -0.203 F 
ATOM     85  F   UNL     1      -2.848 -16.003   7.918  1.00  0.00    -0.200 F 
ATOM     86  C   UNL     1      -1.777 -15.009   6.064  1.00  0.00     0.200 A 
ATOM     87  F   UNL     1      -0.653 -14.027   4.234  1.00  0.00    -0.200 F 
ATOM     88  F   UNL     1      -2.881 -15.166   5.321  1.00  0.00    -0.200 F 
ENDBRANCH  54  78
BRANCH  66  89
ATOM     89  C   UNL     1       4.974 -19.154  10.665  1.00  0.00     0.064 A 
ATOM     90  C   UNL     1       5.377 -19.906   9.553  1.00  0.00     0.173 A 
ATOM     91  C   UNL     1       4.734 -19.837  11.868  1.00  0.00     0.173 A 
ATOM     92  F   UNL     1       5.609 -19.302   8.378  1.00  0.00    -0.203 F 
ATOM     93  C   UNL     1       5.528 -21.288   9.640  1.00  0.00     0.198 A 
ATOM     94  C   UNL     1       4.918 -21.214  11.960  1.00  0.00     0.198 A 
ATOM     95  F   UNL     1       4.357 -19.164  12.966  1.00  0.00    -0.203 F 
ATOM     96  F   UNL     1       5.886 -21.990   8.556  1.00  0.00    -0.200 F 
ATOM     97  C   UNL     1       5.311 -21.939  10.846  1.00  0.00     0.200 A 
ATOM     98  F   UNL     1       4.727 -21.837  13.132  1.00  0.00    -0.200 F 
ATOM     99  F   UNL     1       5.481 -23.265  10.933  1.00  0.00    -0.200 F 
ENDBRANCH  66  89
ENDBRANCH  40  41
ENDBRANCH  33  35
ENDBRANCH  32  33
ENDBRANCH  31  32
ENDBRANCH  30  31
ENDBRANCH  29  30
ENDBRANCH  28  29
ENDBRANCH   1  28
TORSDOF 21
