REMARK SMILES Cc1cc2c(c(C)c1Cl)C=C(C(=O)OCCOCCOCCOCCOC(=O)c1ccc(-c3c4nc(c(-c5c(F)c(F)c(F)c(F)c5F)c5ccc([nH]5)c(-c5c(F)c(F)c(F)c(F)c5F)c5nc(c(-c6c(F)c(F)c(F)c(F)c6F)c6ccc3[nH]6)C=C5)C=C4)cc1)[C@H](C(F)(F)F)O2
REMARK SMILES IDX 21 1 20 2 19 3 18 4 17 5 16 6 15 7 14 8 12 9 13 10 11 11
REMARK SMILES IDX 1 12 2 13 3 14 8 15 4 16 6 17 9 18 5 19 97 20 7 21 10 22
REMARK SMILES IDX 92 23 93 24 94 25 95 26 96 27 22 28 23 29 24 30 25 31 26 32
REMARK SMILES IDX 27 33 28 34 29 35 30 36 91 37 31 38 90 39 32 40 33 41 34 42
REMARK SMILES IDX 84 43 35 44 89 45 83 46 85 47 36 48 88 49 82 50 81 51 37 53
REMARK SMILES IDX 69 54 49 55 68 56 50 57 53 58 67 59 86 60 51 61 52 62 66 64
REMARK SMILES IDX 87 65 54 66 38 67 39 68 47 69 40 70 41 71 45 72 48 73 42 74
REMARK SMILES IDX 43 75 46 76 44 77 70 78 71 79 79 80 72 81 73 82 77 83 80 84
REMARK SMILES IDX 74 85 75 86 78 87 76 88 55 89 56 90 64 91 57 92 58 93 62 94
REMARK SMILES IDX 65 95 59 96 60 97 63 98 61 99
REMARK H PARENT 85 52 53 63
REMARK Flexibility Score: inf
ROOT
ATOM      1  C   UNL     1       0.288  -1.282  10.348  1.00  0.00     0.188 C 
ENDROOT
BRANCH   1   2
ATOM      2  O   UNL     1       0.016  -1.120   8.958  1.00  0.00    -0.377 OA
BRANCH   2   3
ATOM      3  C   UNL     1       0.260   0.130   8.339  1.00  0.00     0.188 C 
BRANCH   3   4
ATOM      4  C   UNL     1      -0.728   1.246   8.713  1.00  0.00     0.188 C 
BRANCH   4   5
ATOM      5  O   UNL     1      -1.359   1.029   9.958  1.00  0.00    -0.376 OA
BRANCH   5   6
ATOM      6  C   UNL     1      -2.660   0.473  10.026  1.00  0.00     0.202 C 
BRANCH   6   7
ATOM      7  C   UNL     1      -3.172  -0.671   9.125  1.00  0.00     0.261 C 
BRANCH   7   8
ATOM      8  O   UNL     1      -2.466  -0.933   7.910  1.00  0.00    -0.460 OA
BRANCH   8   9
ATOM      9  C   UNL     1      -2.904  -0.316   6.801  1.00  0.00     0.338 C 
ATOM     10  O   UNL     1      -3.861   0.436   6.723  1.00  0.00    -0.246 OA
BRANCH   9  11
ATOM     11  C   UNL     1      -1.950  -0.549   5.702  1.00  0.00     0.087 C 
ATOM     12  C   UNL     1       1.132  -0.168   0.018  1.00  0.00     0.046 C 
ATOM     13  C   UNL     1       0.549   0.065   1.386  1.00  0.00    -0.028 A 
ATOM     14  C   UNL     1       0.007  -1.026   2.078  1.00  0.00     0.052 A 
ATOM     15  C   UNL     1       0.522   1.340   1.987  1.00  0.00     0.047 A 
ATOM     16  C   UNL     1      -0.613  -0.849   3.311  1.00  0.00     0.128 A 
ATOM     17  C   UNL     1      -0.094   1.539   3.244  1.00  0.00    -0.021 A 
ATOM     18  Cl  UNL     1       1.238   2.672   1.130  1.00  0.00    -0.084 Cl
ATOM     19  C   UNL     1      -0.692   0.425   3.888  1.00  0.00     0.022 A 
ATOM     20  O   UNL     1      -1.196  -1.971   3.839  1.00  0.00    -0.475 OA
ATOM     21  C   UNL     1      -0.138   2.900   3.903  1.00  0.00     0.047 C 
ATOM     22  C   UNL     1      -1.506   0.560   5.093  1.00  0.00     0.027 C 
ATOM     23  C   UNL     1      -1.631  -1.938   5.229  1.00  0.00     0.316 C 
BRANCH  23  24
ATOM     24  C   UNL     1      -0.635  -2.761   6.073  1.00  0.00     0.430 C 
ATOM     25  F   UNL     1       0.553  -2.139   6.234  1.00  0.00    -0.167 F 
ATOM     26  F   UNL     1      -1.130  -3.079   7.288  1.00  0.00    -0.167 F 
ATOM     27  F   UNL     1      -0.372  -3.949   5.463  1.00  0.00    -0.167 F 
ENDBRANCH  23  24
ENDBRANCH   9  11
ENDBRANCH   8   9
ENDBRANCH   7   8
ENDBRANCH   6   7
ENDBRANCH   5   6
ENDBRANCH   4   5
ENDBRANCH   3   4
ENDBRANCH   2   3
ENDBRANCH   1   2
BRANCH   1  28
ATOM     28  C   UNL     1       0.856  -0.141  11.225  1.00  0.00     0.188 C 
BRANCH  28  29
ATOM     29  O   UNL     1       1.680   0.788  10.541  1.00  0.00    -0.376 OA
BRANCH  29  30
ATOM     30  C   UNL     1       3.083   0.668  10.712  1.00  0.00     0.202 C 
BRANCH  30  31
ATOM     31  C   UNL     1       3.738  -0.590  10.124  1.00  0.00     0.261 C 
BRANCH  31  32
ATOM     32  O   UNL     1       3.259  -1.847  10.627  1.00  0.00    -0.460 OA
BRANCH  32  33
ATOM     33  C   UNL     1       3.408  -2.101  11.949  1.00  0.00     0.338 C 
ATOM     34  O   UNL     1       3.943  -1.406  12.779  1.00  0.00    -0.246 OA
BRANCH  33  35
ATOM     35  C   UNL     1       2.610  -3.315  12.244  1.00  0.00     0.060 A 
ATOM     36  C   UNL     1       1.516  -3.213  13.113  1.00  0.00     0.016 A 
ATOM     37  C   UNL     1       2.923  -4.535  11.640  1.00  0.00     0.016 A 
ATOM     38  C   UNL     1       0.743  -4.340  13.396  1.00  0.00     0.010 A 
ATOM     39  C   UNL     1       2.166  -5.669  11.946  1.00  0.00     0.010 A 
ATOM     40  C   UNL     1       1.091  -5.583  12.849  1.00  0.00    -0.014 A 
BRANCH  40  41
ATOM     41  C   UNL     1       0.484  -6.815  13.412  1.00  0.00     0.031 A 
ATOM     42  C   UNL     1       1.220  -7.515  14.521  1.00  0.00     0.074 A 
ATOM     43  C   UNL     1      -0.709  -7.277  12.997  1.00  0.00     0.049 A 
ATOM     44  N   UNL     1       0.893  -8.591  15.189  1.00  0.00    -0.248 NA
ATOM     45  C   UNL     1       2.498  -6.913  14.937  1.00  0.00     0.031 C 
ATOM     46  C   UNL     1      -1.541  -6.666  11.964  1.00  0.00     0.029 A 
ATOM     47  N   UNL     1      -1.430  -8.374  13.406  1.00  0.00    -0.354 N 
ATOM     48  C   UNL     1       1.916  -8.785  16.107  1.00  0.00     0.074 A 
ATOM     49  C   UNL     1       2.898  -7.749  15.883  1.00  0.00     0.031 C 
ATOM     50  C   UNL     1      -2.663  -7.394  11.822  1.00  0.00     0.029 A 
ATOM     51  C   UNL     1      -2.616  -8.538  12.734  1.00  0.00     0.049 A 
ATOM     52  H   UNL     1      -1.124  -8.985  14.115  1.00  0.00     0.167 HD
ATOM     53  C   UNL     1       2.018  -9.731  17.069  1.00  0.00     0.037 A 
ATOM     54  C   UNL     1      -3.549  -9.508  12.839  1.00  0.00     0.037 A 
ATOM     55  C   UNL     1       1.046 -10.764  17.293  1.00  0.00     0.049 A 
ATOM     56  C   UNL     1      -3.356 -10.619  13.844  1.00  0.00     0.074 A 
ATOM     57  C   UNL     1       1.056 -11.760  18.252  1.00  0.00     0.029 A 
ATOM     58  N   UNL     1      -0.105 -10.940  16.540  1.00  0.00    -0.354 N 
ATOM     59  N   UNL     1      -2.408 -10.773  14.737  1.00  0.00    -0.248 NA
ATOM     60  C   UNL     1      -4.360 -11.695  13.852  1.00  0.00     0.031 C 
ATOM     61  C   UNL     1      -0.060 -12.574  18.045  1.00  0.00     0.029 A 
ATOM     62  C   UNL     1      -0.793 -12.055  16.989  1.00  0.00     0.049 A 
ATOM     63  H   UNL     1      -0.391 -10.360  15.798  1.00  0.00     0.167 HD
ATOM     64  C   UNL     1      -2.709 -11.946  15.419  1.00  0.00     0.074 A 
ATOM     65  C   UNL     1      -3.939 -12.455  14.854  1.00  0.00     0.031 C 
ATOM     66  C   UNL     1      -2.021 -12.549  16.420  1.00  0.00     0.037 A 
BRANCH  53  67
ATOM     67  C   UNL     1       3.229  -9.696  17.952  1.00  0.00     0.064 A 
ATOM     68  C   UNL     1       3.400  -8.696  18.921  1.00  0.00     0.173 A 
ATOM     69  C   UNL     1       4.202 -10.704  17.867  1.00  0.00     0.173 A 
ATOM     70  F   UNL     1       2.505  -7.702  19.030  1.00  0.00    -0.203 F 
ATOM     71  C   UNL     1       4.509  -8.697  19.762  1.00  0.00     0.198 A 
ATOM     72  C   UNL     1       5.293 -10.718  18.730  1.00  0.00     0.198 A 
ATOM     73  F   UNL     1       4.083 -11.684  16.959  1.00  0.00    -0.203 F 
ATOM     74  F   UNL     1       4.671  -7.711  20.654  1.00  0.00    -0.200 F 
ATOM     75  C   UNL     1       5.449  -9.713  19.673  1.00  0.00     0.200 A 
ATOM     76  F   UNL     1       6.194 -11.708  18.652  1.00  0.00    -0.200 F 
ATOM     77  F   UNL     1       6.507  -9.722  20.495  1.00  0.00    -0.200 F 
ENDBRANCH  53  67
BRANCH  54  78
ATOM     78  C   UNL     1      -4.756  -9.478  11.969  1.00  0.00     0.064 A 
ATOM     79  C   UNL     1      -6.031  -9.264  12.511  1.00  0.00     0.173 A 
ATOM     80  C   UNL     1      -4.663  -9.673  10.583  1.00  0.00     0.173 A 
ATOM     81  F   UNL     1      -6.178  -9.103  13.834  1.00  0.00    -0.203 F 
ATOM     82  C   UNL     1      -7.166  -9.253  11.702  1.00  0.00     0.198 A 
ATOM     83  C   UNL     1      -5.796  -9.633   9.771  1.00  0.00     0.198 A 
ATOM     84  F   UNL     1      -3.469  -9.893  10.013  1.00  0.00    -0.203 F 
ATOM     85  F   UNL     1      -8.377  -9.086  12.252  1.00  0.00    -0.200 F 
ATOM     86  C   UNL     1      -7.047  -9.429  10.332  1.00  0.00     0.200 A 
ATOM     87  F   UNL     1      -5.674  -9.795   8.446  1.00  0.00    -0.200 F 
ATOM     88  F   UNL     1      -8.137  -9.409   9.553  1.00  0.00    -0.200 F 
ENDBRANCH  54  78
BRANCH  66  89
ATOM     89  C   UNL     1      -2.561 -13.835  16.978  1.00  0.00     0.064 A 
ATOM     90  C   UNL     1      -2.474 -15.033  16.255  1.00  0.00     0.173 A 
ATOM     91  C   UNL     1      -3.052 -13.894  18.292  1.00  0.00     0.173 A 
ATOM     92  F   UNL     1      -2.021 -15.028  14.992  1.00  0.00    -0.203 F 
ATOM     93  C   UNL     1      -2.857 -16.244  16.827  1.00  0.00     0.198 A 
ATOM     94  C   UNL     1      -3.406 -15.110  18.870  1.00  0.00     0.198 A 
ATOM     95  F   UNL     1      -3.145 -12.778  19.030  1.00  0.00    -0.203 F 
ATOM     96  F   UNL     1      -2.781 -17.374  16.111  1.00  0.00    -0.200 F 
ATOM     97  C   UNL     1      -3.308 -16.283  18.138  1.00  0.00     0.200 A 
ATOM     98  F   UNL     1      -3.821 -15.149  20.144  1.00  0.00    -0.200 F 
ATOM     99  F   UNL     1      -3.645 -17.453  18.697  1.00  0.00    -0.200 F 
ENDBRANCH  66  89
ENDBRANCH  40  41
ENDBRANCH  33  35
ENDBRANCH  32  33
ENDBRANCH  31  32
ENDBRANCH  30  31
ENDBRANCH  29  30
ENDBRANCH  28  29
ENDBRANCH   1  28
TORSDOF 21
