REMARK SMILES COc1ccc2[nH]cc([C@H](C(=O)OCCOCCOCCOCCOC(=O)c3ccc(-c4c5nc(c(-c6c(F)c(F)c(F)c(F)c6F)c6ccc([nH]6)c(-c6c(F)c(F)c(F)c(F)c6F)c6nc(c(-c7c(F)c(F)c(F)c(F)c7F)c7ccc4[nH]7)C=C6)C=C5)cc3)[NH+]3CC[NH+](Cc4cccc5ccccc45)CC3)c2c1
REMARK SMILES IDX 18 1 17 2 16 3 15 4 14 5 13 6 11 7 12 8 10 9 9 10 3 11 4 12
REMARK SMILES IDX 109 13 5 14 108 15 6 16 7 17 8 18 2 20 1 21 91 22 92 23
REMARK SMILES IDX 107 24 93 26 106 27 94 28 95 30 96 31 97 32 105 33 98 34
REMARK SMILES IDX 100 35 104 36 99 37 101 38 103 39 102 40 19 41 20 42 21 43
REMARK SMILES IDX 22 44 23 45 24 46 25 47 26 48 27 49 28 50 29 51 90 52 30 53
REMARK SMILES IDX 89 54 31 55 32 56 33 57 83 58 34 59 88 60 82 61 84 62 35 63
REMARK SMILES IDX 87 64 81 65 80 66 36 68 68 69 48 70 67 71 49 72 52 73 66 74
REMARK SMILES IDX 85 75 50 76 51 77 65 79 86 80 53 81 37 82 38 83 46 84 39 85
REMARK SMILES IDX 40 86 44 87 47 88 41 89 42 90 45 91 43 92 69 93 70 94 78 95
REMARK SMILES IDX 71 96 72 97 76 98 79 99 73 100 74 101 77 102 75 103 54 104
REMARK SMILES IDX 55 105 63 106 56 107 57 108 61 109 64 110 58 111 59 112
REMARK SMILES IDX 62 113 60 114
REMARK H PARENT 7 19 91 25 94 29 84 67 52 78
REMARK Flexibility Score: inf
ROOT
ATOM      1  C   UNL     1       1.723  -2.441  -7.589  1.00  0.00     0.188 C 
ENDROOT
BRANCH   1   2
ATOM      2  C   UNL     1       2.238  -1.281  -6.734  1.00  0.00     0.188 C 
BRANCH   2   3
ATOM      3  O   UNL     1       3.158  -1.586  -5.694  1.00  0.00    -0.376 OA
BRANCH   3   4
ATOM      4  C   UNL     1       2.613  -2.214  -4.526  1.00  0.00     0.202 C 
BRANCH   4   5
ATOM      5  C   UNL     1       1.333  -1.594  -3.949  1.00  0.00     0.261 C 
BRANCH   5   6
ATOM      6  O   UNL     1       0.166  -2.190  -4.563  1.00  0.00    -0.459 OA
BRANCH   6   7
ATOM      7  C   UNL     1      -0.976  -1.448  -4.547  1.00  0.00     0.370 C 
ATOM      8  O   UNL     1      -0.990  -0.268  -4.198  1.00  0.00    -0.245 OA
BRANCH   7   9
ATOM      9  C   UNL     1      -2.260  -2.220  -4.934  1.00  0.00     0.328 C 
BRANCH   9  10
ATOM     10  C   UNL     1      -3.011  -1.614  -6.120  1.00  0.00     0.046 A 
ATOM     11  C   UNL     1      -1.113   0.448  -8.771  1.00  0.00     0.119 A 
ATOM     12  C   UNL     1      -2.170   0.568  -9.663  1.00  0.00     0.048 A 
ATOM     13  C   UNL     1      -1.292  -0.217  -7.553  1.00  0.00     0.057 A 
ATOM     14  C   UNL     1      -3.431   0.053  -9.339  1.00  0.00     0.030 A 
ATOM     15  C   UNL     1      -2.528  -0.800  -7.213  1.00  0.00     0.013 A 
ATOM     16  C   UNL     1      -3.578  -0.623  -8.117  1.00  0.00     0.046 A 
ATOM     17  N   UNL     1      -4.682  -1.231  -7.572  1.00  0.00    -0.361 N 
ATOM     18  C   UNL     1      -4.363  -1.809  -6.375  1.00  0.00     0.094 A 
ATOM     19  H   UNL     1      -5.576  -1.248  -7.984  1.00  0.00     0.166 HD
BRANCH  11  20
ATOM     20  O   UNL     1       0.168   0.841  -9.057  1.00  0.00    -0.497 OA
ATOM     21  C   UNL     1       0.272   2.202  -9.467  1.00  0.00     0.278 C 
ENDBRANCH  11  20
ENDBRANCH   9  10
BRANCH   9  22
ATOM     22  N   UNL     1      -2.173  -3.692  -5.014  1.00  0.00    -0.310 N 
ATOM     23  C   UNL     1      -2.334  -4.447  -6.242  1.00  0.00     0.325 C 
ATOM     24  C   UNL     1      -1.558  -4.472  -3.948  1.00  0.00     0.325 C 
ATOM     25  H   UNL     1      -3.140  -3.465  -4.781  1.00  0.00     0.349 HD
ATOM     26  C   UNL     1      -1.029  -5.113  -6.693  1.00  0.00     0.324 C 
ATOM     27  C   UNL     1      -0.292  -5.278  -4.369  1.00  0.00     0.324 C 
ATOM     28  N   UNL     1      -0.281  -5.886  -5.701  1.00  0.00    -0.322 N 
ATOM     29  H   UNL     1       0.689  -5.798  -6.003  1.00  0.00     0.348 HD
BRANCH  28  30
ATOM     30  C   UNL     1      -0.372  -7.343  -5.776  1.00  0.00     0.300 C 
BRANCH  30  31
ATOM     31  C   UNL     1      -1.713  -7.923  -5.380  1.00  0.00     0.014 A 
ATOM     32  C   UNL     1      -1.905  -8.252  -4.027  1.00  0.00     0.010 A 
ATOM     33  C   UNL     1      -2.807  -7.976  -6.287  1.00  0.00    -0.010 A 
ATOM     34  C   UNL     1      -3.179  -8.491  -3.534  1.00  0.00     0.001 A 
ATOM     35  C   UNL     1      -4.108  -8.106  -5.752  1.00  0.00    -0.018 A 
ATOM     36  C   UNL     1      -2.684  -7.861  -7.693  1.00  0.00     0.009 A 
ATOM     37  C   UNL     1      -4.276  -8.363  -4.381  1.00  0.00     0.009 A 
ATOM     38  C   UNL     1      -5.221  -7.947  -6.593  1.00  0.00     0.009 A 
ATOM     39  C   UNL     1      -3.798  -7.740  -8.522  1.00  0.00     0.001 A 
ATOM     40  C   UNL     1      -5.067  -7.743  -7.965  1.00  0.00     0.001 A 
ENDBRANCH  30  31
ENDBRANCH  28  30
ENDBRANCH   9  22
ENDBRANCH   7   9
ENDBRANCH   6   7
ENDBRANCH   5   6
ENDBRANCH   4   5
ENDBRANCH   3   4
ENDBRANCH   2   3
ENDBRANCH   1   2
BRANCH   1  41
ATOM     41  O   UNL     1       1.849  -3.724  -7.012  1.00  0.00    -0.377 OA
BRANCH  41  42
ATOM     42  C   UNL     1       3.075  -4.401  -7.224  1.00  0.00     0.188 C 
BRANCH  42  43
ATOM     43  C   UNL     1       3.474  -4.698  -8.679  1.00  0.00     0.188 C 
BRANCH  43  44
ATOM     44  O   UNL     1       2.475  -4.666  -9.691  1.00  0.00    -0.376 OA
BRANCH  44  45
ATOM     45  C   UNL     1       1.315  -5.473  -9.519  1.00  0.00     0.202 C 
BRANCH  45  46
ATOM     46  C   UNL     1       1.547  -6.977  -9.623  1.00  0.00     0.261 C 
BRANCH  46  47
ATOM     47  O   UNL     1       1.937  -7.501  -8.341  1.00  0.00    -0.460 OA
BRANCH  47  48
ATOM     48  C   UNL     1       3.110  -8.155  -8.301  1.00  0.00     0.338 C 
ATOM     49  O   UNL     1       3.876  -8.389  -9.227  1.00  0.00    -0.246 OA
BRANCH  48  50
ATOM     50  C   UNL     1       3.433  -8.482  -6.908  1.00  0.00     0.060 A 
ATOM     51  C   UNL     1       4.549  -7.867  -6.333  1.00  0.00     0.016 A 
ATOM     52  C   UNL     1       2.735  -9.485  -6.231  1.00  0.00     0.016 A 
ATOM     53  C   UNL     1       5.021  -8.308  -5.100  1.00  0.00     0.010 A 
ATOM     54  C   UNL     1       3.210  -9.927  -4.993  1.00  0.00     0.010 A 
ATOM     55  C   UNL     1       4.388  -9.379  -4.453  1.00  0.00    -0.014 A 
BRANCH  55  56
ATOM     56  C   UNL     1       5.099 -10.069  -3.349  1.00  0.00     0.031 A 
ATOM     57  C   UNL     1       5.869 -11.323  -3.668  1.00  0.00     0.074 A 
ATOM     58  C   UNL     1       5.114  -9.564  -2.104  1.00  0.00     0.049 A 
ATOM     59  N   UNL     1       6.571 -12.094  -2.877  1.00  0.00    -0.248 NA
ATOM     60  C   UNL     1       5.846 -11.767  -5.072  1.00  0.00     0.031 C 
ATOM     61  C   UNL     1       4.447  -8.335  -1.683  1.00  0.00     0.029 A 
ATOM     62  N   UNL     1       5.719 -10.030  -0.965  1.00  0.00    -0.354 N 
ATOM     63  C   UNL     1       7.066 -13.111  -3.684  1.00  0.00     0.074 A 
ATOM     64  C   UNL     1       6.555 -12.883  -5.018  1.00  0.00     0.031 C 
ATOM     65  C   UNL     1       4.675  -8.146  -0.372  1.00  0.00     0.029 A 
ATOM     66  C   UNL     1       5.480  -9.254   0.141  1.00  0.00     0.049 A 
ATOM     67  H   UNL     1       6.272 -10.845  -0.942  1.00  0.00     0.167 HD
ATOM     68  C   UNL     1       7.886 -14.135  -3.348  1.00  0.00     0.037 A 
ATOM     69  C   UNL     1       5.857  -9.431   1.423  1.00  0.00     0.037 A 
ATOM     70  C   UNL     1       8.398 -14.360  -2.023  1.00  0.00     0.049 A 
ATOM     71  C   UNL     1       6.708 -10.622   1.786  1.00  0.00     0.074 A 
ATOM     72  C   UNL     1       9.248 -15.359  -1.584  1.00  0.00     0.029 A 
ATOM     73  N   UNL     1       8.100 -13.573  -0.920  1.00  0.00    -0.354 N 
ATOM     74  N   UNL     1       7.196 -11.562   1.013  1.00  0.00    -0.248 NA
ATOM     75  C   UNL     1       7.066 -10.772   3.205  1.00  0.00     0.031 C 
ATOM     76  C   UNL     1       9.421 -15.210  -0.204  1.00  0.00     0.029 A 
ATOM     77  C   UNL     1       8.727 -14.083   0.205  1.00  0.00     0.049 A 
ATOM     78  H   UNL     1       7.528 -12.773  -0.935  1.00  0.00     0.167 HD
ATOM     79  C   UNL     1       7.941 -12.393   1.841  1.00  0.00     0.074 A 
ATOM     80  C   UNL     1       7.853 -11.838   3.175  1.00  0.00     0.031 C 
ATOM     81  C   UNL     1       8.637 -13.513   1.526  1.00  0.00     0.037 A 
BRANCH  68  82
ATOM     82  C   UNL     1       8.258 -15.107  -4.430  1.00  0.00     0.064 A 
ATOM     83  C   UNL     1       9.123 -14.753  -5.476  1.00  0.00     0.173 A 
ATOM     84  C   UNL     1       7.762 -16.419  -4.404  1.00  0.00     0.173 A 
ATOM     85  F   UNL     1       9.613 -13.507  -5.555  1.00  0.00    -0.203 F 
ATOM     86  C   UNL     1       9.457 -15.669  -6.470  1.00  0.00     0.198 A 
ATOM     87  C   UNL     1       8.122 -17.341  -5.383  1.00  0.00     0.198 A 
ATOM     88  F   UNL     1       6.933 -16.810  -3.424  1.00  0.00    -0.203 F 
ATOM     89  F   UNL     1      10.247 -15.295  -7.486  1.00  0.00    -0.200 F 
ATOM     90  C   UNL     1       8.962 -16.964  -6.419  1.00  0.00     0.200 A 
ATOM     91  F   UNL     1       7.652 -18.595  -5.324  1.00  0.00    -0.200 F 
ATOM     92  F   UNL     1       9.290 -17.847  -7.372  1.00  0.00    -0.200 F 
ENDBRANCH  68  82
BRANCH  69  93
ATOM     93  C   UNL     1       5.427  -8.463   2.465  1.00  0.00     0.064 A 
ATOM     94  C   UNL     1       6.354  -7.639   3.118  1.00  0.00     0.173 A 
ATOM     95  C   UNL     1       4.082  -8.363   2.851  1.00  0.00     0.173 A 
ATOM     96  F   UNL     1       7.655  -7.716   2.803  1.00  0.00    -0.203 F 
ATOM     97  C   UNL     1       5.956  -6.769   4.131  1.00  0.00     0.198 A 
ATOM     98  C   UNL     1       3.681  -7.471   3.844  1.00  0.00     0.198 A 
ATOM     99  F   UNL     1       3.154  -9.131   2.261  1.00  0.00    -0.203 F 
ATOM    100  F   UNL     1       6.871  -6.030   4.774  1.00  0.00    -0.200 F 
ATOM    101  C   UNL     1       4.619  -6.682   4.489  1.00  0.00     0.200 A 
ATOM    102  F   UNL     1       2.386  -7.383   4.178  1.00  0.00    -0.200 F 
ATOM    103  F   UNL     1       4.237  -5.845   5.463  1.00  0.00    -0.200 F 
ENDBRANCH  69  93
BRANCH  81 104
ATOM    104  C   UNL     1       9.393 -14.195   2.631  1.00  0.00     0.064 A 
ATOM    105  C   UNL     1       8.735 -14.898   3.651  1.00  0.00     0.173 A 
ATOM    106  C   UNL     1      10.797 -14.184   2.642  1.00  0.00     0.173 A 
ATOM    107  F   UNL     1       7.395 -14.929   3.694  1.00  0.00    -0.203 F 
ATOM    108  C   UNL     1       9.454 -15.542   4.655  1.00  0.00     0.198 A 
ATOM    109  C   UNL     1      11.512 -14.855   3.629  1.00  0.00     0.198 A 
ATOM    110  F   UNL     1      11.476 -13.534   1.684  1.00  0.00    -0.203 F 
ATOM    111  F   UNL     1       8.804 -16.167   5.646  1.00  0.00    -0.200 F 
ATOM    112  C   UNL     1      10.841 -15.527   4.639  1.00  0.00     0.200 A 
ATOM    113  F   UNL     1      12.852 -14.854   3.602  1.00  0.00    -0.200 F 
ATOM    114  F   UNL     1      11.531 -16.155   5.601  1.00  0.00    -0.200 F 
ENDBRANCH  81 104
ENDBRANCH  55  56
ENDBRANCH  48  50
ENDBRANCH  47  48
ENDBRANCH  46  47
ENDBRANCH  45  46
ENDBRANCH  44  45
ENDBRANCH  43  44
ENDBRANCH  42  43
ENDBRANCH  41  42
ENDBRANCH   1  41
TORSDOF 25
