REMARK SMILES O=C(OCCOCCOCCOCCOC(=O)[C@H]1CC[C@@H](C(F)F)[NH2+]1)c1ccc(-c2c3nc(c(-c4c(F)c(F)c(F)c(F)c4F)c4ccc([nH]4)c(-c4c(F)c(F)c(F)c(F)c4F)c4nc(c(-c5c(F)c(F)c(F)c(F)c5F)c5ccc2[nH]5)C=C4)C=C3)cc1
REMARK SMILES IDX 8 1 7 2 6 3 5 4 4 5 3 6 2 7 1 8 26 9 27 10 88 11 28 12 87 13
REMARK SMILES IDX 29 14 30 15 31 16 81 17 32 18 86 19 80 20 82 21 33 22 85 23
REMARK SMILES IDX 79 24 78 25 34 27 66 28 46 29 65 30 47 31 50 32 64 33 83 34
REMARK SMILES IDX 48 35 49 36 63 38 84 39 51 40 35 41 36 42 44 43 37 44 38 45
REMARK SMILES IDX 42 46 45 47 39 48 40 49 43 50 41 51 67 52 68 53 76 54 69 55
REMARK SMILES IDX 70 56 74 57 77 58 71 59 72 60 75 61 73 62 52 63 53 64 61 65
REMARK SMILES IDX 54 66 55 67 59 68 62 69 56 70 57 71 60 72 58 73 9 74 10 75
REMARK SMILES IDX 11 76 12 77 13 78 14 79 15 80 16 81 17 82 18 83 19 84 25 85
REMARK SMILES IDX 20 86 21 87 22 90 23 91 24 92
REMARK H PARENT 82 26 50 37 25 88 25 89
REMARK Flexibility Score: inf
ROOT
ATOM      1  C   UNL     1       7.175  -2.310   0.655  1.00  0.00     0.188 C 
ENDROOT
BRANCH   1   2
ATOM      2  C   UNL     1       6.665  -2.907   1.964  1.00  0.00     0.188 C 
BRANCH   2   3
ATOM      3  O   UNL     1       6.915  -4.305   1.939  1.00  0.00    -0.376 OA
BRANCH   3   4
ATOM      4  C   UNL     1       6.115  -5.198   2.695  1.00  0.00     0.202 C 
BRANCH   4   5
ATOM      5  C   UNL     1       6.013  -4.946   4.191  1.00  0.00     0.261 C 
BRANCH   5   6
ATOM      6  O   UNL     1       6.633  -3.744   4.678  1.00  0.00    -0.460 OA
BRANCH   6   7
ATOM      7  C   UNL     1       7.922  -3.388   4.858  1.00  0.00     0.338 C 
ATOM      8  O   UNL     1       8.156  -2.269   5.316  1.00  0.00    -0.246 OA
BRANCH   7   9
ATOM      9  C   UNL     1       9.096  -4.250   4.559  1.00  0.00     0.060 A 
ATOM     10  C   UNL     1       9.212  -5.137   3.492  1.00  0.00     0.016 A 
ATOM     11  C   UNL     1      10.227  -4.051   5.362  1.00  0.00     0.016 A 
ATOM     12  C   UNL     1      10.341  -5.906   3.287  1.00  0.00     0.010 A 
ATOM     13  C   UNL     1      11.395  -4.777   5.140  1.00  0.00     0.010 A 
ATOM     14  C   UNL     1      11.426  -5.745   4.129  1.00  0.00    -0.014 A 
BRANCH  14  15
ATOM     15  C   UNL     1      12.475  -6.767   4.100  1.00  0.00     0.031 A 
ATOM     16  C   UNL     1      12.524  -7.694   5.268  1.00  0.00     0.074 A 
ATOM     17  C   UNL     1      13.268  -6.913   3.029  1.00  0.00     0.049 A 
ATOM     18  N   UNL     1      13.482  -8.476   5.671  1.00  0.00    -0.248 NA
ATOM     19  C   UNL     1      11.320  -7.720   6.121  1.00  0.00     0.031 C 
ATOM     20  C   UNL     1      13.141  -6.174   1.771  1.00  0.00     0.029 A 
ATOM     21  N   UNL     1      14.336  -7.740   2.829  1.00  0.00    -0.354 N 
ATOM     22  C   UNL     1      13.036  -9.010   6.871  1.00  0.00     0.074 A 
ATOM     23  C   UNL     1      11.715  -8.485   7.123  1.00  0.00     0.031 C 
ATOM     24  C   UNL     1      14.106  -6.578   0.929  1.00  0.00     0.029 A 
ATOM     25  C   UNL     1      14.973  -7.512   1.635  1.00  0.00     0.049 A 
ATOM     26  H   UNL     1      14.620  -8.428   3.474  1.00  0.00     0.167 HD
ATOM     27  C   UNL     1      13.712  -9.844   7.692  1.00  0.00     0.037 A 
ATOM     28  C   UNL     1      16.173  -7.952   1.218  1.00  0.00     0.037 A 
ATOM     29  C   UNL     1      15.016 -10.343   7.354  1.00  0.00     0.049 A 
ATOM     30  C   UNL     1      16.950  -8.822   2.169  1.00  0.00     0.074 A 
ATOM     31  C   UNL     1      15.864 -11.144   8.089  1.00  0.00     0.029 A 
ATOM     32  N   UNL     1      15.654 -10.076   6.144  1.00  0.00    -0.354 N 
ATOM     33  N   UNL     1      16.613  -9.235   3.370  1.00  0.00    -0.248 NA
ATOM     34  C   UNL     1      18.275  -9.265   1.729  1.00  0.00     0.031 C 
ATOM     35  C   UNL     1      17.034 -11.323   7.342  1.00  0.00     0.029 A 
ATOM     36  C   UNL     1      16.890 -10.689   6.113  1.00  0.00     0.049 A 
ATOM     37  H   UNL     1      15.277  -9.530   5.417  1.00  0.00     0.167 HD
ATOM     38  C   UNL     1      17.669 -10.008   3.825  1.00  0.00     0.074 A 
ATOM     39  C   UNL     1      18.660 -10.005   2.762  1.00  0.00     0.031 C 
ATOM     40  C   UNL     1      17.817 -10.662   5.005  1.00  0.00     0.037 A 
BRANCH  27  41
ATOM     41  C   UNL     1      13.094 -10.135   9.028  1.00  0.00     0.064 A 
ATOM     42  C   UNL     1      11.904 -10.867   9.167  1.00  0.00     0.173 A 
ATOM     43  C   UNL     1      13.655  -9.582  10.190  1.00  0.00     0.173 A 
ATOM     44  F   UNL     1      11.301 -11.389   8.087  1.00  0.00    -0.203 F 
ATOM     45  C   UNL     1      11.274 -10.986  10.405  1.00  0.00     0.198 A 
ATOM     46  C   UNL     1      13.043  -9.734  11.431  1.00  0.00     0.198 A 
ATOM     47  F   UNL     1      14.785  -8.862  10.118  1.00  0.00    -0.203 F 
ATOM     48  F   UNL     1      10.090 -11.609  10.495  1.00  0.00    -0.200 F 
ATOM     49  C   UNL     1      11.844 -10.421  11.536  1.00  0.00     0.200 A 
ATOM     50  F   UNL     1      13.598  -9.188  12.522  1.00  0.00    -0.200 F 
ATOM     51  F   UNL     1      11.226 -10.519  12.721  1.00  0.00    -0.200 F 
ENDBRANCH  27  41
BRANCH  28  52
ATOM     52  C   UNL     1      16.706  -7.513  -0.098  1.00  0.00     0.064 A 
ATOM     53  C   UNL     1      16.873  -8.420  -1.152  1.00  0.00     0.173 A 
ATOM     54  C   UNL     1      17.009  -6.164  -0.350  1.00  0.00     0.173 A 
ATOM     55  F   UNL     1      16.614  -9.722  -0.962  1.00  0.00    -0.203 F 
ATOM     56  C   UNL     1      17.321  -7.997  -2.404  1.00  0.00     0.198 A 
ATOM     57  C   UNL     1      17.426  -5.737  -1.609  1.00  0.00     0.198 A 
ATOM     58  F   UNL     1      16.864  -5.250   0.621  1.00  0.00    -0.203 F 
ATOM     59  F   UNL     1      17.494  -8.890  -3.388  1.00  0.00    -0.200 F 
ATOM     60  C   UNL     1      17.586  -6.655  -2.635  1.00  0.00     0.200 A 
ATOM     61  F   UNL     1      17.660  -4.436  -1.831  1.00  0.00    -0.200 F 
ATOM     62  F   UNL     1      17.997  -6.247  -3.843  1.00  0.00    -0.200 F 
ENDBRANCH  28  52
BRANCH  40  63
ATOM     63  C   UNL     1      19.057 -11.482   5.168  1.00  0.00     0.064 A 
ATOM     64  C   UNL     1      20.302 -10.894   5.424  1.00  0.00     0.173 A 
ATOM     65  C   UNL     1      18.968 -12.882   5.162  1.00  0.00     0.173 A 
ATOM     66  F   UNL     1      20.431  -9.559   5.424  1.00  0.00    -0.203 F 
ATOM     67  C   UNL     1      21.422 -11.683   5.660  1.00  0.00     0.198 A 
ATOM     68  C   UNL     1      20.083 -13.666   5.430  1.00  0.00     0.198 A 
ATOM     69  F   UNL     1      17.792 -13.484   4.929  1.00  0.00    -0.203 F 
ATOM     70  F   UNL     1      22.612 -11.106   5.872  1.00  0.00    -0.200 F 
ATOM     71  C   UNL     1      21.309 -13.066   5.676  1.00  0.00     0.200 A 
ATOM     72  F   UNL     1      19.968 -15.001   5.463  1.00  0.00    -0.200 F 
ATOM     73  F   UNL     1      22.385 -13.824   5.928  1.00  0.00    -0.200 F 
ENDBRANCH  40  63
ENDBRANCH  14  15
ENDBRANCH   7   9
ENDBRANCH   6   7
ENDBRANCH   5   6
ENDBRANCH   4   5
ENDBRANCH   3   4
ENDBRANCH   2   3
ENDBRANCH   1   2
BRANCH   1  74
ATOM     74  O   UNL     1       6.342  -2.565  -0.468  1.00  0.00    -0.377 OA
BRANCH  74  75
ATOM     75  C   UNL     1       5.803  -3.881  -0.564  1.00  0.00     0.188 C 
BRANCH  75  76
ATOM     76  C   UNL     1       6.797  -5.051  -0.764  1.00  0.00     0.188 C 
BRANCH  76  77
ATOM     77  O   UNL     1       8.145  -4.653  -0.890  1.00  0.00    -0.376 OA
BRANCH  77  78
ATOM     78  C   UNL     1       8.608  -4.272  -2.177  1.00  0.00     0.202 C 
BRANCH  78  79
ATOM     79  C   UNL     1       7.688  -3.650  -3.249  1.00  0.00     0.261 C 
BRANCH  79  80
ATOM     80  O   UNL     1       6.328  -4.118  -3.335  1.00  0.00    -0.459 OA
BRANCH  80  81
ATOM     81  C   UNL     1       6.057  -5.308  -3.938  1.00  0.00     0.364 C 
ATOM     82  O   UNL     1       6.894  -5.989  -4.507  1.00  0.00    -0.245 OA
BRANCH  81  83
ATOM     83  C   UNL     1       4.543  -5.666  -3.791  1.00  0.00     0.294 C 
ATOM     84  C   UNL     1       4.241  -7.084  -4.251  1.00  0.00     0.084 C 
ATOM     85  N   UNL     1       4.098  -5.651  -2.368  1.00  0.00    -0.327 N 
ATOM     86  C   UNL     1       4.344  -7.907  -2.978  1.00  0.00     0.078 C 
ATOM     87  C   UNL     1       3.679  -7.007  -1.953  1.00  0.00     0.251 C 
ATOM     88  H   UNL     1       3.311  -5.010  -2.268  1.00  0.00     0.347 HD
ATOM     89  H   UNL     1       4.872  -5.345  -1.779  1.00  0.00     0.347 HD
BRANCH  87  90
ATOM     90  C   UNL     1       4.027  -7.411  -0.508  1.00  0.00     0.399 C 
ATOM     91  F   UNL     1       3.527  -6.501   0.370  1.00  0.00    -0.204 F 
ATOM     92  F   UNL     1       3.430  -8.594  -0.209  1.00  0.00    -0.204 F 
ENDBRANCH  87  90
ENDBRANCH  81  83
ENDBRANCH  80  81
ENDBRANCH  79  80
ENDBRANCH  78  79
ENDBRANCH  77  78
ENDBRANCH  76  77
ENDBRANCH  75  76
ENDBRANCH  74  75
ENDBRANCH   1  74
TORSDOF 21
