REMARK SMILES Cc1nc(SCc2cccc(Cl)c2)[nH]c(=O)c1CC(=O)OCCOCCOCCOCCOC(=O)c1ccc(-c2c3nc(c(-c4c(F)c(F)c(F)c(F)c4F)c4ccc([nH]4)c(-c4c(F)c(F)c(F)c(F)c4F)c4nc(c(-c5c(F)c(F)c(F)c(F)c5F)c5ccc2[nH]5)C=C4)C=C3)cc1
REMARK SMILES IDX 26 1 25 2 24 3 23 4 22 5 21 6 19 7 20 8 18 9 17 10 1 11 2 12
REMARK SMILES IDX 3 13 4 14 15 15 14 16 16 17 5 19 6 20 7 21 8 22 13 23 9 24
REMARK SMILES IDX 11 25 10 26 12 27 27 28 28 29 29 30 30 31 31 32 32 33 33 34
REMARK SMILES IDX 34 35 35 36 36 37 37 38 98 39 38 40 97 41 39 42 40 43 41 44
REMARK SMILES IDX 91 45 42 46 96 47 90 48 92 49 43 50 95 51 89 52 88 53 44 55
REMARK SMILES IDX 76 56 56 57 75 58 57 59 60 60 74 61 93 62 58 63 59 64 73 66
REMARK SMILES IDX 94 67 61 68 45 69 46 70 54 71 47 72 48 73 52 74 55 75 49 76
REMARK SMILES IDX 50 77 53 78 51 79 77 80 78 81 86 82 79 83 80 84 84 85 87 86
REMARK SMILES IDX 81 87 82 88 85 89 83 90 62 91 63 92 71 93 64 94 65 95 69 96
REMARK SMILES IDX 72 97 66 98 67 99 70 100 68 101
REMARK H PARENT 14 18 92 54 60 65
REMARK Flexibility Score: inf
ROOT
ATOM      1  C   UNL     1       2.119  -1.517  -1.891  1.00  0.00     0.188 C 
ENDROOT
BRANCH   1   2
ATOM      2  C   UNL     1       2.732  -2.882  -1.515  1.00  0.00     0.188 C 
BRANCH   2   3
ATOM      3  O   UNL     1       2.715  -3.958  -2.450  1.00  0.00    -0.376 OA
BRANCH   3   4
ATOM      4  C   UNL     1       1.682  -4.032  -3.419  1.00  0.00     0.202 C 
BRANCH   4   5
ATOM      5  C   UNL     1       0.205  -3.972  -2.969  1.00  0.00     0.261 C 
BRANCH   5   6
ATOM      6  O   UNL     1      -0.095  -3.157  -1.808  1.00  0.00    -0.463 OA
BRANCH   6   7
ATOM      7  C   UNL     1      -0.374  -3.808  -0.654  1.00  0.00     0.310 C 
ATOM      8  O   UNL     1      -0.504  -5.027  -0.581  1.00  0.00    -0.252 OA
BRANCH   7   9
ATOM      9  C   UNL     1      -0.455  -2.936   0.613  1.00  0.00     0.166 C 
BRANCH   9  10
ATOM     10  C   UNL     1      -0.535  -1.427   0.603  1.00  0.00     0.050 A 
ATOM     11  C   UNL     1      -3.007  -1.302   0.264  1.00  0.00     0.067 C 
ATOM     12  C   UNL     1      -1.657  -0.685   0.507  1.00  0.00     0.050 A 
ATOM     13  N   UNL     1      -1.681   0.692   0.517  1.00  0.00    -0.229 NA
ATOM     14  C   UNL     1      -0.556   1.312   0.497  1.00  0.00     0.168 A 
ATOM     15  C   UNL     1       0.710  -0.650   0.876  1.00  0.00     0.255 A 
ATOM     16  N   UNL     1       0.635   0.695   0.673  1.00  0.00    -0.301 N 
ATOM     17  O   UNL     1       1.760  -1.189   1.209  1.00  0.00    -0.269 OA
ATOM     18  H   UNL     1       1.462   1.227   0.655  1.00  0.00     0.172 HD
BRANCH  14  19
ATOM     19  S   UNL     1      -0.402   3.014   0.194  1.00  0.00    -0.083 SA
BRANCH  19  20
ATOM     20  C   UNL     1      -2.121   3.521  -0.094  1.00  0.00     0.113 C 
BRANCH  20  21
ATOM     21  C   UNL     1      -2.704   3.278  -1.476  1.00  0.00    -0.036 A 
ATOM     22  C   UNL     1      -3.359   4.320  -2.154  1.00  0.00     0.005 A 
ATOM     23  C   UNL     1      -2.751   2.004  -2.063  1.00  0.00     0.025 A 
ATOM     24  C   UNL     1      -4.041   4.086  -3.356  1.00  0.00     0.002 A 
ATOM     25  C   UNL     1      -3.444   1.766  -3.250  1.00  0.00     0.041 A 
ATOM     26  C   UNL     1      -4.094   2.804  -3.900  1.00  0.00     0.020 A 
ATOM     27  Cl  UNL     1      -3.513   0.166  -3.884  1.00  0.00    -0.084 Cl
ENDBRANCH  20  21
ENDBRANCH  19  20
ENDBRANCH  14  19
ENDBRANCH   9  10
ENDBRANCH   7   9
ENDBRANCH   6   7
ENDBRANCH   5   6
ENDBRANCH   4   5
ENDBRANCH   3   4
ENDBRANCH   2   3
ENDBRANCH   1   2
BRANCH   1  28
ATOM     28  O   UNL     1       1.782  -1.370  -3.255  1.00  0.00    -0.377 OA
BRANCH  28  29
ATOM     29  C   UNL     1       2.699  -0.660  -4.061  1.00  0.00     0.188 C 
BRANCH  29  30
ATOM     30  C   UNL     1       4.196  -0.940  -3.858  1.00  0.00     0.188 C 
BRANCH  30  31
ATOM     31  O   UNL     1       4.613  -0.862  -2.501  1.00  0.00    -0.376 OA
BRANCH  31  32
ATOM     32  C   UNL     1       5.281   0.304  -2.048  1.00  0.00     0.202 C 
BRANCH  32  33
ATOM     33  C   UNL     1       4.440   1.578  -1.865  1.00  0.00     0.261 C 
BRANCH  33  34
ATOM     34  O   UNL     1       3.669   2.008  -2.994  1.00  0.00    -0.460 OA
BRANCH  34  35
ATOM     35  C   UNL     1       4.343   2.391  -4.105  1.00  0.00     0.338 C 
ATOM     36  O   UNL     1       5.539   2.441  -4.256  1.00  0.00    -0.246 OA
BRANCH  35  37
ATOM     37  C   UNL     1       3.339   2.560  -5.185  1.00  0.00     0.060 A 
ATOM     38  C   UNL     1       3.416   1.731  -6.312  1.00  0.00     0.016 A 
ATOM     39  C   UNL     1       2.303   3.488  -5.060  1.00  0.00     0.016 A 
ATOM     40  C   UNL     1       2.457   1.832  -7.322  1.00  0.00     0.010 A 
ATOM     41  C   UNL     1       1.363   3.612  -6.088  1.00  0.00     0.010 A 
ATOM     42  C   UNL     1       1.447   2.799  -7.232  1.00  0.00    -0.014 A 
BRANCH  42  43
ATOM     43  C   UNL     1       0.595   3.093  -8.409  1.00  0.00     0.031 A 
ATOM     44  C   UNL     1       1.010   4.211  -9.323  1.00  0.00     0.074 A 
ATOM     45  C   UNL     1      -0.524   2.391  -8.661  1.00  0.00     0.049 A 
ATOM     46  N   UNL     1       0.394   4.713 -10.362  1.00  0.00    -0.248 NA
ATOM     47  C   UNL     1       2.298   4.854  -9.016  1.00  0.00     0.031 C 
ATOM     48  C   UNL     1      -1.007   1.259  -7.874  1.00  0.00     0.029 A 
ATOM     49  N   UNL     1      -1.466   2.544  -9.649  1.00  0.00    -0.354 N 
ATOM     50  C   UNL     1       1.213   5.734 -10.825  1.00  0.00     0.074 A 
ATOM     51  C   UNL     1       2.357   5.798  -9.943  1.00  0.00     0.031 C 
ATOM     52  C   UNL     1      -2.171   0.832  -8.398  1.00  0.00     0.029 A 
ATOM     53  C   UNL     1      -2.530   1.685  -9.531  1.00  0.00     0.049 A 
ATOM     54  H   UNL     1      -1.386   3.207 -10.372  1.00  0.00     0.167 HD
ATOM     55  C   UNL     1       1.026   6.544 -11.893  1.00  0.00     0.037 A 
ATOM     56  C   UNL     1      -3.677   1.621 -10.238  1.00  0.00     0.037 A 
ATOM     57  C   UNL     1      -0.119   6.482 -12.763  1.00  0.00     0.049 A 
ATOM     58  C   UNL     1      -3.900   2.591 -11.374  1.00  0.00     0.074 A 
ATOM     59  C   UNL     1      -0.390   7.243 -13.886  1.00  0.00     0.029 A 
ATOM     60  N   UNL     1      -1.190   5.617 -12.595  1.00  0.00    -0.354 N 
ATOM     61  N   UNL     1      -3.109   3.532 -11.830  1.00  0.00    -0.248 NA
ATOM     62  C   UNL     1      -5.180   2.490 -12.092  1.00  0.00     0.031 C 
ATOM     63  C   UNL     1      -1.657   6.885 -14.358  1.00  0.00     0.029 A 
ATOM     64  C   UNL     1      -2.144   5.853 -13.572  1.00  0.00     0.049 A 
ATOM     65  H   UNL     1      -1.262   4.937 -11.887  1.00  0.00     0.167 HD
ATOM     66  C   UNL     1      -3.779   4.114 -12.900  1.00  0.00     0.074 A 
ATOM     67  C   UNL     1      -5.036   3.410 -13.036  1.00  0.00     0.031 C 
ATOM     68  C   UNL     1      -3.389   5.138 -13.699  1.00  0.00     0.037 A 
BRANCH  55  69
ATOM     69  C   UNL     1       2.063   7.596 -12.157  1.00  0.00     0.064 A 
ATOM     70  C   UNL     1       3.349   7.272 -12.615  1.00  0.00     0.173 A 
ATOM     71  C   UNL     1       1.753   8.954 -11.979  1.00  0.00     0.173 A 
ATOM     72  F   UNL     1       3.702   5.989 -12.786  1.00  0.00    -0.203 F 
ATOM     73  C   UNL     1       4.293   8.266 -12.861  1.00  0.00     0.198 A 
ATOM     74  C   UNL     1       2.689   9.946 -12.256  1.00  0.00     0.198 A 
ATOM     75  F   UNL     1       0.538   9.319 -11.543  1.00  0.00    -0.203 F 
ATOM     76  F   UNL     1       5.531   7.931 -13.250  1.00  0.00    -0.200 F 
ATOM     77  C   UNL     1       3.960   9.601 -12.690  1.00  0.00     0.200 A 
ATOM     78  F   UNL     1       2.360  11.236 -12.102  1.00  0.00    -0.200 F 
ATOM     79  F   UNL     1       4.867  10.557 -12.935  1.00  0.00    -0.200 F 
ENDBRANCH  55  69
BRANCH  56  80
ATOM     80  C   UNL     1      -4.721   0.623  -9.878  1.00  0.00     0.064 A 
ATOM     81  C   UNL     1      -5.061  -0.419 -10.753  1.00  0.00     0.173 A 
ATOM     82  C   UNL     1      -5.425   0.711  -8.667  1.00  0.00     0.173 A 
ATOM     83  F   UNL     1      -4.440  -0.529 -11.937  1.00  0.00    -0.203 F 
ATOM     84  C   UNL     1      -6.079  -1.319 -10.441  1.00  0.00     0.198 A 
ATOM     85  C   UNL     1      -6.420  -0.209  -8.342  1.00  0.00     0.198 A 
ATOM     86  F   UNL     1      -5.147   1.694  -7.797  1.00  0.00    -0.203 F 
ATOM     87  F   UNL     1      -6.423  -2.269 -11.322  1.00  0.00    -0.200 F 
ATOM     88  C   UNL     1      -6.753  -1.218  -9.234  1.00  0.00     0.200 A 
ATOM     89  F   UNL     1      -7.064  -0.110  -7.171  1.00  0.00    -0.200 F 
ATOM     90  F   UNL     1      -7.733  -2.082  -8.936  1.00  0.00    -0.200 F 
ENDBRANCH  56  80
BRANCH  68  91
ATOM     91  C   UNL     1      -4.310   5.543 -14.815  1.00  0.00     0.064 A 
ATOM     92  C   UNL     1      -5.523   6.204 -14.570  1.00  0.00     0.173 A 
ATOM     93  C   UNL     1      -3.943   5.324 -16.153  1.00  0.00     0.173 A 
ATOM     94  F   UNL     1      -5.927   6.428 -13.311  1.00  0.00    -0.203 F 
ATOM     95  C   UNL     1      -6.343   6.610 -15.620  1.00  0.00     0.198 A 
ATOM     96  C   UNL     1      -4.748   5.761 -17.200  1.00  0.00     0.198 A 
ATOM     97  F   UNL     1      -2.788   4.706 -16.444  1.00  0.00    -0.203 F 
ATOM     98  F   UNL     1      -7.518   7.200 -15.361  1.00  0.00    -0.200 F 
ATOM     99  C   UNL     1      -5.950   6.397 -16.934  1.00  0.00     0.200 A 
ATOM    100  F   UNL     1      -4.357   5.572 -18.468  1.00  0.00    -0.200 F 
ATOM    101  F   UNL     1      -6.734   6.803 -17.943  1.00  0.00    -0.200 F 
ENDBRANCH  68  91
ENDBRANCH  42  43
ENDBRANCH  35  37
ENDBRANCH  34  35
ENDBRANCH  33  34
ENDBRANCH  32  33
ENDBRANCH  31  32
ENDBRANCH  30  31
ENDBRANCH  29  30
ENDBRANCH  28  29
ENDBRANCH   1  28
TORSDOF 24
