REMARK SMILES Cc1ccccc1OC1(C(=O)OCCOCCOCCOCCOC(=O)c2ccc(-c3c4nc(c(-c5c(F)c(F)c(F)c(F)c5F)c5ccc([nH]5)c(-c5c(F)c(F)c(F)c(F)c5F)c5nc(c(-c6c(F)c(F)c(F)c(F)c6F)c6ccc3[nH]6)C=C5)C=C4)cc2)CCN(C(=O)[C@H]2CCCCO2)CC1
REMARK SMILES IDX 18 1 17 2 16 3 15 4 14 5 13 6 12 7 10 8 11 9 9 10 90 11
REMARK SMILES IDX 102 12 91 13 101 14 92 15 93 16 94 17 8 18 7 19 1 20 2 21
REMARK SMILES IDX 3 22 4 23 6 24 5 25 95 26 96 27 100 28 97 29 99 30 98 31
REMARK SMILES IDX 19 32 20 33 21 34 22 35 23 36 24 37 25 38 26 39 27 40 28 41
REMARK SMILES IDX 89 42 29 43 88 44 30 45 31 46 32 47 82 48 33 49 87 50 81 51
REMARK SMILES IDX 83 52 34 53 86 54 80 55 79 56 35 58 67 59 47 60 66 61 48 62
REMARK SMILES IDX 51 63 65 64 84 65 49 66 50 67 64 69 85 70 52 71 36 72 37 73
REMARK SMILES IDX 45 74 38 75 39 76 43 77 46 78 40 79 41 80 44 81 42 82 68 83
REMARK SMILES IDX 69 84 77 85 70 86 71 87 75 88 78 89 72 90 73 91 76 92 74 93
REMARK SMILES IDX 53 94 54 95 62 96 55 97 56 98 60 99 63 100 57 101 58 102
REMARK SMILES IDX 61 103 59 104
REMARK H PARENT 83 57 51 68
REMARK Flexibility Score: inf
ROOT
ATOM      1  O   UNL     1       8.028  -7.286  -1.592  1.00  0.00    -0.377 OA
ENDROOT
BRANCH   1   2
ATOM      2  C   UNL     1       7.534  -8.365  -0.809  1.00  0.00     0.188 C 
BRANCH   2   3
ATOM      3  C   UNL     1       6.351  -9.071  -1.493  1.00  0.00     0.188 C 
BRANCH   3   4
ATOM      4  O   UNL     1       6.573  -9.552  -2.817  1.00  0.00    -0.376 OA
BRANCH   4   5
ATOM      5  C   UNL     1       6.569  -8.566  -3.850  1.00  0.00     0.202 C 
BRANCH   5   6
ATOM      6  C   UNL     1       5.213  -7.923  -4.124  1.00  0.00     0.261 C 
BRANCH   6   7
ATOM      7  O   UNL     1       5.025  -6.820  -3.237  1.00  0.00    -0.460 OA
BRANCH   7   8
ATOM      8  C   UNL     1       3.857  -6.747  -2.549  1.00  0.00     0.350 C 
ATOM      9  O   UNL     1       2.870  -7.389  -2.826  1.00  0.00    -0.247 OA
BRANCH   8  10
ATOM     10  C   UNL     1       4.019  -5.746  -1.365  1.00  0.00     0.209 C 
ATOM     11  C   UNL     1       5.420  -5.848  -0.742  1.00  0.00     0.082 C 
ATOM     12  C   UNL     1       3.889  -4.332  -1.957  1.00  0.00     0.082 C 
ATOM     13  C   UNL     1       6.093  -4.600  -0.193  1.00  0.00     0.124 C 
ATOM     14  C   UNL     1       4.103  -3.247  -0.901  1.00  0.00     0.124 C 
ATOM     15  N   UNL     1       5.244  -3.444  -0.008  1.00  0.00    -0.340 N 
ATOM     16  C   UNL     1       5.619  -2.564   1.019  1.00  0.00     0.251 C 
ATOM     17  O   UNL     1       6.682  -2.718   1.630  1.00  0.00    -0.272 OA
BRANCH  10  18
ATOM     18  O   UNL     1       2.954  -5.849  -0.411  1.00  0.00    -0.475 OA
BRANCH  18  19
ATOM     19  C   UNL     1       2.826  -6.905   0.457  1.00  0.00     0.123 A 
ATOM     20  C   UNL     1       3.663  -5.417   2.333  1.00  0.00     0.048 C 
ATOM     21  C   UNL     1       2.929  -6.610   1.824  1.00  0.00    -0.009 A 
ATOM     22  C   UNL     1       2.302  -7.430   2.771  1.00  0.00     0.007 A 
ATOM     23  C   UNL     1       1.635  -8.580   2.374  1.00  0.00     0.001 A 
ATOM     24  C   UNL     1       2.231  -8.110   0.073  1.00  0.00     0.047 A 
ATOM     25  C   UNL     1       1.648  -8.949   1.033  1.00  0.00     0.004 A 
ENDBRANCH  18  19
ENDBRANCH  10  18
BRANCH  16  26
ATOM     26  C   UNL     1       4.629  -1.444   1.413  1.00  0.00     0.207 C 
ATOM     27  C   UNL     1       3.506  -2.054   2.259  1.00  0.00     0.042 C 
ATOM     28  O   UNL     1       5.296  -0.433   2.179  1.00  0.00    -0.368 OA
ATOM     29  C   UNL     1       2.545  -0.998   2.774  1.00  0.00     0.006 C 
ATOM     30  C   UNL     1       4.432   0.623   2.586  1.00  0.00     0.161 C 
ATOM     31  C   UNL     1       3.316   0.104   3.482  1.00  0.00     0.029 C 
ENDBRANCH  16  26
ENDBRANCH   8  10
ENDBRANCH   7   8
ENDBRANCH   6   7
ENDBRANCH   5   6
ENDBRANCH   4   5
ENDBRANCH   3   4
ENDBRANCH   2   3
ENDBRANCH   1   2
BRANCH   1  32
ATOM     32  C   UNL     1       9.402  -7.004  -1.416  1.00  0.00     0.188 C 
BRANCH  32  33
ATOM     33  C   UNL     1      10.360  -8.051  -1.992  1.00  0.00     0.188 C 
BRANCH  33  34
ATOM     34  O   UNL     1       9.761  -9.280  -2.379  1.00  0.00    -0.376 OA
BRANCH  34  35
ATOM     35  C   UNL     1      10.192 -10.482  -1.739  1.00  0.00     0.202 C 
BRANCH  35  36
ATOM     36  C   UNL     1      11.708 -10.724  -1.709  1.00  0.00     0.261 C 
BRANCH  36  37
ATOM     37  O   UNL     1      12.209 -10.818  -3.056  1.00  0.00    -0.460 OA
BRANCH  37  38
ATOM     38  C   UNL     1      12.836  -9.705  -3.525  1.00  0.00     0.338 C 
ATOM     39  O   UNL     1      13.704  -9.085  -2.932  1.00  0.00    -0.246 OA
BRANCH  38  40
ATOM     40  C   UNL     1      12.091  -9.164  -4.705  1.00  0.00     0.060 A 
ATOM     41  C   UNL     1      12.388  -7.874  -5.181  1.00  0.00     0.016 A 
ATOM     42  C   UNL     1      10.870  -9.741  -5.027  1.00  0.00     0.016 A 
ATOM     43  C   UNL     1      11.387  -7.095  -5.791  1.00  0.00     0.010 A 
ATOM     44  C   UNL     1       9.863  -8.925  -5.509  1.00  0.00     0.010 A 
ATOM     45  C   UNL     1      10.081  -7.580  -5.858  1.00  0.00    -0.014 A 
BRANCH  45  46
ATOM     46  C   UNL     1       8.854  -6.769  -6.069  1.00  0.00     0.031 A 
ATOM     47  C   UNL     1       7.745  -7.313  -6.940  1.00  0.00     0.074 A 
ATOM     48  C   UNL     1       8.591  -5.752  -5.204  1.00  0.00     0.049 A 
ATOM     49  N   UNL     1       6.578  -6.780  -7.094  1.00  0.00    -0.248 NA
ATOM     50  C   UNL     1       7.869  -8.539  -7.736  1.00  0.00     0.031 C 
ATOM     51  C   UNL     1       7.268  -5.336  -4.736  1.00  0.00     0.029 A 
ATOM     52  N   UNL     1       9.447  -4.912  -4.482  1.00  0.00    -0.354 N 
ATOM     53  C   UNL     1       5.734  -7.704  -7.691  1.00  0.00     0.074 A 
ATOM     54  C   UNL     1       6.613  -8.745  -8.151  1.00  0.00     0.031 C 
ATOM     55  C   UNL     1       7.368  -4.341  -3.848  1.00  0.00     0.029 A 
ATOM     56  C   UNL     1       8.701  -3.830  -3.965  1.00  0.00     0.049 A 
ATOM     57  H   UNL     1      10.413  -5.052  -4.355  1.00  0.00     0.167 HD
ATOM     58  C   UNL     1       4.377  -7.531  -7.608  1.00  0.00     0.037 A 
ATOM     59  C   UNL     1       8.906  -2.543  -4.389  1.00  0.00     0.037 A 
ATOM     60  C   UNL     1       4.039  -6.209  -7.055  1.00  0.00     0.049 A 
ATOM     61  C   UNL     1       7.771  -2.020  -5.270  1.00  0.00     0.074 A 
ATOM     62  C   UNL     1       3.244  -5.759  -6.016  1.00  0.00     0.029 A 
ATOM     63  N   UNL     1       4.712  -5.086  -7.534  1.00  0.00    -0.354 N 
ATOM     64  N   UNL     1       6.918  -2.818  -5.872  1.00  0.00    -0.248 NA
ATOM     65  C   UNL     1       7.420  -0.615  -5.474  1.00  0.00     0.031 C 
ATOM     66  C   UNL     1       3.539  -4.380  -5.805  1.00  0.00     0.029 A 
ATOM     67  C   UNL     1       4.450  -3.974  -6.769  1.00  0.00     0.049 A 
ATOM     68  H   UNL     1       5.301  -5.088  -8.323  1.00  0.00     0.167 HD
ATOM     69  C   UNL     1       5.944  -2.095  -6.497  1.00  0.00     0.074 A 
ATOM     70  C   UNL     1       6.309  -0.718  -6.230  1.00  0.00     0.031 C 
ATOM     71  C   UNL     1       4.920  -2.667  -7.198  1.00  0.00     0.037 A 
BRANCH  58  72
ATOM     72  C   UNL     1       3.300  -8.595  -7.848  1.00  0.00     0.064 A 
ATOM     73  C   UNL     1       1.933  -8.224  -7.916  1.00  0.00     0.173 A 
ATOM     74  C   UNL     1       3.518  -9.990  -7.889  1.00  0.00     0.173 A 
ATOM     75  F   UNL     1       1.567  -6.935  -7.923  1.00  0.00    -0.203 F 
ATOM     76  C   UNL     1       0.888  -9.158  -7.977  1.00  0.00     0.198 A 
ATOM     77  C   UNL     1       2.473 -10.922  -8.013  1.00  0.00     0.198 A 
ATOM     78  F   UNL     1       4.739 -10.517  -7.759  1.00  0.00    -0.203 F 
ATOM     79  F   UNL     1      -0.386  -8.738  -7.972  1.00  0.00    -0.200 F 
ATOM     80  C   UNL     1       1.157 -10.508  -8.037  1.00  0.00     0.200 A 
ATOM     81  F   UNL     1       2.755 -12.232  -8.087  1.00  0.00    -0.200 F 
ATOM     82  F   UNL     1       0.162 -11.403  -8.109  1.00  0.00    -0.200 F 
ENDBRANCH  58  72
BRANCH  59  83
ATOM     83  C   UNL     1      10.359  -2.190  -4.293  1.00  0.00     0.064 A 
ATOM     84  C   UNL     1      10.823  -2.222  -2.955  1.00  0.00     0.173 A 
ATOM     85  C   UNL     1      11.227  -2.685  -5.279  1.00  0.00     0.173 A 
ATOM     86  F   UNL     1      10.062  -1.701  -1.979  1.00  0.00    -0.203 F 
ATOM     87  C   UNL     1      11.889  -3.046  -2.594  1.00  0.00     0.198 A 
ATOM     88  C   UNL     1      12.328  -3.470  -4.913  1.00  0.00     0.198 A 
ATOM     89  F   UNL     1      10.877  -2.629  -6.572  1.00  0.00    -0.203 F 
ATOM     90  F   UNL     1      12.114  -3.318  -1.300  1.00  0.00    -0.200 F 
ATOM     91  C   UNL     1      12.601  -3.717  -3.573  1.00  0.00     0.200 A 
ATOM     92  F   UNL     1      13.023  -4.126  -5.853  1.00  0.00    -0.200 F 
ATOM     93  F   UNL     1      13.477  -4.672  -3.228  1.00  0.00    -0.200 F 
ENDBRANCH  59  83
BRANCH  71  94
ATOM     94  C   UNL     1       4.231  -2.028  -8.386  1.00  0.00     0.064 A 
ATOM     95  C   UNL     1       4.813  -0.994  -9.136  1.00  0.00     0.173 A 
ATOM     96  C   UNL     1       3.063  -2.603  -8.953  1.00  0.00     0.173 A 
ATOM     97  F   UNL     1       5.990  -0.455  -8.794  1.00  0.00    -0.203 F 
ATOM     98  C   UNL     1       4.237  -0.521 -10.316  1.00  0.00     0.198 A 
ATOM     99  C   UNL     1       2.530  -2.173 -10.166  1.00  0.00     0.198 A 
ATOM    100  F   UNL     1       2.425  -3.632  -8.377  1.00  0.00    -0.203 F 
ATOM    101  F   UNL     1       4.815   0.497 -10.968  1.00  0.00    -0.200 F 
ATOM    102  C   UNL     1       3.105  -1.117 -10.837  1.00  0.00     0.200 A 
ATOM    103  F   UNL     1       1.474  -2.809 -10.692  1.00  0.00    -0.200 F 
ATOM    104  F   UNL     1       2.587  -0.691 -11.996  1.00  0.00    -0.200 F 
ENDBRANCH  71  94
ENDBRANCH  45  46
ENDBRANCH  38  40
ENDBRANCH  37  38
ENDBRANCH  36  37
ENDBRANCH  35  36
ENDBRANCH  34  35
ENDBRANCH  33  34
ENDBRANCH  32  33
ENDBRANCH   1  32
TORSDOF 23
