REMARK SMILES Cc1ccc(C)c(/C=C2\SC(=S)N(CC(=O)OCCOCCOCCOCCOC(=O)c3ccc(-c4c5nc(c(-c6c(F)c(F)c(F)c(F)c6F)c6ccc([nH]6)c(-c6c(F)c(F)c(F)c(F)c6F)c6nc(c(-c7c(F)c(F)c(F)c(F)c7F)c7ccc4[nH]7)C=C6)C=C5)cc3)C2=O)c1
REMARK SMILES IDX 23 1 22 2 21 3 20 4 19 5 18 6 17 7 15 8 16 9 14 10 13 11
REMARK SMILES IDX 8 12 9 13 10 14 95 15 11 16 96 17 12 18 7 19 1 20 2 21 3 22
REMARK SMILES IDX 97 23 4 24 5 25 6 26 24 27 25 28 26 29 27 30 28 31 29 32
REMARK SMILES IDX 30 33 31 34 32 35 33 36 94 37 34 38 93 39 35 40 36 41 37 42
REMARK SMILES IDX 87 43 38 44 92 45 86 46 88 47 39 48 91 49 85 50 84 51 40 53
REMARK SMILES IDX 72 54 52 55 71 56 53 57 56 58 70 59 89 60 54 61 55 62 69 64
REMARK SMILES IDX 90 65 57 66 41 67 42 68 50 69 43 70 44 71 48 72 51 73 45 74
REMARK SMILES IDX 46 75 49 76 47 77 73 78 74 79 82 80 75 81 76 82 80 83 83 84
REMARK SMILES IDX 77 85 78 86 81 87 79 88 58 89 59 90 67 91 60 92 61 93 65 94
REMARK SMILES IDX 68 95 62 96 63 97 66 98 64 99
REMARK H PARENT 88 52 56 63
REMARK Flexibility Score: inf
ROOT
ATOM      1  O   UNL     1      -3.599   2.227  -2.575  1.00  0.00    -0.377 OA
ENDROOT
BRANCH   1   2
ATOM      2  C   UNL     1      -3.391   3.610  -2.345  1.00  0.00     0.188 C 
BRANCH   2   3
ATOM      3  C   UNL     1      -4.506   4.643  -2.319  1.00  0.00     0.188 C 
BRANCH   3   4
ATOM      4  O   UNL     1      -5.519   4.593  -3.300  1.00  0.00    -0.376 OA
BRANCH   4   5
ATOM      5  C   UNL     1      -5.163   4.889  -4.643  1.00  0.00     0.202 C 
BRANCH   5   6
ATOM      6  C   UNL     1      -4.186   6.048  -4.867  1.00  0.00     0.261 C 
BRANCH   6   7
ATOM      7  O   UNL     1      -2.812   5.658  -4.593  1.00  0.00    -0.462 OA
BRANCH   7   8
ATOM      8  C   UNL     1      -2.129   6.471  -3.739  1.00  0.00     0.326 C 
ATOM      9  O   UNL     1      -2.634   7.460  -3.225  1.00  0.00    -0.250 OA
BRANCH   8  10
ATOM     10  C   UNL     1      -0.654   6.101  -3.548  1.00  0.00     0.250 C 
BRANCH  10  11
ATOM     11  N   UNL     1      -0.363   4.730  -3.100  1.00  0.00    -0.282 N 
ATOM     12  C   UNL     1      -0.474   2.396  -0.319  1.00  0.00     0.029 C 
ATOM     13  C   UNL     1      -0.218   2.988  -1.500  1.00  0.00     0.081 C 
ATOM     14  S   UNL     1       0.335   2.250  -2.952  1.00  0.00    -0.054 SA
ATOM     15  C   UNL     1      -0.429   4.441  -1.746  1.00  0.00     0.266 C 
ATOM     16  C   UNL     1       0.025   3.690  -3.917  1.00  0.00     0.148 C 
ATOM     17  O   UNL     1      -0.641   5.240  -0.846  1.00  0.00    -0.268 OA
ATOM     18  S   UNL     1       0.224   3.700  -5.572  1.00  0.00    -0.052 S 
BRANCH  12  19
ATOM     19  C   UNL     1      -0.072   1.010  -0.031  1.00  0.00    -0.021 A 
ATOM     20  C   UNL     1       3.371  -0.560   0.210  1.00  0.00     0.044 C 
ATOM     21  C   UNL     1       1.882  -0.426   0.200  1.00  0.00    -0.051 A 
ATOM     22  C   UNL     1       1.056  -1.549   0.150  1.00  0.00     0.004 A 
ATOM     23  C   UNL     1       1.305   0.841   0.160  1.00  0.00     0.011 A 
ATOM     24  C   UNL     1      -0.326  -1.398   0.051  1.00  0.00     0.004 A 
ATOM     25  C   UNL     1      -0.905  -0.123  -0.060  1.00  0.00    -0.044 A 
ATOM     26  C   UNL     1      -2.391  -0.063  -0.212  1.00  0.00     0.045 C 
ENDBRANCH  12  19
ENDBRANCH  10  11
ENDBRANCH   8  10
ENDBRANCH   7   8
ENDBRANCH   6   7
ENDBRANCH   5   6
ENDBRANCH   4   5
ENDBRANCH   3   4
ENDBRANCH   2   3
ENDBRANCH   1   2
BRANCH   1  27
ATOM     27  C   UNL     1      -4.897   1.710  -2.361  1.00  0.00     0.188 C 
BRANCH  27  28
ATOM     28  C   UNL     1      -5.344   1.616  -0.897  1.00  0.00     0.188 C 
BRANCH  28  29
ATOM     29  O   UNL     1      -4.962   2.753  -0.138  1.00  0.00    -0.376 OA
BRANCH  29  30
ATOM     30  C   UNL     1      -4.516   2.540   1.191  1.00  0.00     0.202 C 
BRANCH  30  31
ATOM     31  C   UNL     1      -5.513   1.813   2.101  1.00  0.00     0.261 C 
BRANCH  31  32
ATOM     32  O   UNL     1      -6.760   2.484   2.389  1.00  0.00    -0.460 OA
BRANCH  32  33
ATOM     33  C   UNL     1      -7.487   2.961   1.341  1.00  0.00     0.338 C 
ATOM     34  O   UNL     1      -8.298   2.328   0.716  1.00  0.00    -0.246 OA
BRANCH  33  35
ATOM     35  C   UNL     1      -7.099   4.374   1.071  1.00  0.00     0.060 A 
ATOM     36  C   UNL     1      -7.343   4.889  -0.197  1.00  0.00     0.016 A 
ATOM     37  C   UNL     1      -6.301   5.081   1.988  1.00  0.00     0.016 A 
ATOM     38  C   UNL     1      -6.654   6.031  -0.582  1.00  0.00     0.010 A 
ATOM     39  C   UNL     1      -5.552   6.176   1.572  1.00  0.00     0.010 A 
ATOM     40  C   UNL     1      -5.677   6.616   0.261  1.00  0.00    -0.014 A 
BRANCH  40  41
ATOM     41  C   UNL     1      -5.076   7.881  -0.189  1.00  0.00     0.031 A 
ATOM     42  C   UNL     1      -6.163   8.842  -0.440  1.00  0.00     0.074 A 
ATOM     43  C   UNL     1      -3.774   8.238  -0.301  1.00  0.00     0.049 A 
ATOM     44  N   UNL     1      -6.509   9.335  -1.581  1.00  0.00    -0.248 NA
ATOM     45  C   UNL     1      -7.127   9.079   0.656  1.00  0.00     0.031 C 
ATOM     46  C   UNL     1      -2.635   7.423   0.099  1.00  0.00     0.029 A 
ATOM     47  N   UNL     1      -3.175   9.408  -0.756  1.00  0.00    -0.354 N 
ATOM     48  C   UNL     1      -7.556  10.181  -1.269  1.00  0.00     0.074 A 
ATOM     49  C   UNL     1      -8.048   9.811   0.034  1.00  0.00     0.031 C 
ATOM     50  C   UNL     1      -1.502   8.152   0.017  1.00  0.00     0.029 A 
ATOM     51  C   UNL     1      -1.801   9.485  -0.481  1.00  0.00     0.049 A 
ATOM     52  H   UNL     1      -3.670  10.117  -1.226  1.00  0.00     0.167 HD
ATOM     53  C   UNL     1      -7.593  11.398  -1.861  1.00  0.00     0.037 A 
ATOM     54  C   UNL     1      -0.950  10.545  -0.609  1.00  0.00     0.037 A 
ATOM     55  C   UNL     1      -6.888  11.428  -3.108  1.00  0.00     0.049 A 
ATOM     56  C   UNL     1      -1.555  11.538  -1.530  1.00  0.00     0.074 A 
ATOM     57  C   UNL     1      -7.109  10.921  -4.369  1.00  0.00     0.029 A 
ATOM     58  N   UNL     1      -5.553  11.711  -3.014  1.00  0.00    -0.354 N 
ATOM     59  N   UNL     1      -1.530  11.443  -2.829  1.00  0.00    -0.248 NA
ATOM     60  C   UNL     1      -2.435  12.576  -1.001  1.00  0.00     0.031 C 
ATOM     61  C   UNL     1      -5.851  10.917  -5.034  1.00  0.00     0.029 A 
ATOM     62  C   UNL     1      -4.885  11.452  -4.185  1.00  0.00     0.049 A 
ATOM     63  H   UNL     1      -5.121  12.060  -2.201  1.00  0.00     0.167 HD
ATOM     64  C   UNL     1      -2.699  12.049  -3.229  1.00  0.00     0.074 A 
ATOM     65  C   UNL     1      -3.112  12.880  -2.110  1.00  0.00     0.031 C 
ATOM     66  C   UNL     1      -3.435  11.524  -4.247  1.00  0.00     0.037 A 
BRANCH  53  67
ATOM     67  C   UNL     1      -7.784  12.615  -1.013  1.00  0.00     0.064 A 
ATOM     68  C   UNL     1      -8.348  13.772  -1.552  1.00  0.00     0.173 A 
ATOM     69  C   UNL     1      -7.210  12.732   0.276  1.00  0.00     0.173 A 
ATOM     70  F   UNL     1      -8.823  13.771  -2.805  1.00  0.00    -0.203 F 
ATOM     71  C   UNL     1      -8.377  14.963  -0.822  1.00  0.00     0.198 A 
ATOM     72  C   UNL     1      -7.306  13.893   1.028  1.00  0.00     0.198 A 
ATOM     73  F   UNL     1      -6.454  11.755   0.798  1.00  0.00    -0.203 F 
ATOM     74  F   UNL     1      -8.855  16.077  -1.391  1.00  0.00    -0.200 F 
ATOM     75  C   UNL     1      -7.880  15.015   0.473  1.00  0.00     0.200 A 
ATOM     76  F   UNL     1      -6.785  13.929   2.262  1.00  0.00    -0.200 F 
ATOM     77  F   UNL     1      -7.907  16.160   1.167  1.00  0.00    -0.200 F 
ENDBRANCH  53  67
BRANCH  54  78
ATOM     78  C   UNL     1       0.366  10.836   0.052  1.00  0.00     0.064 A 
ATOM     79  C   UNL     1       1.177  11.919  -0.360  1.00  0.00     0.173 A 
ATOM     80  C   UNL     1       0.765  10.216   1.252  1.00  0.00     0.173 A 
ATOM     81  F   UNL     1       0.880  12.618  -1.465  1.00  0.00    -0.203 F 
ATOM     82  C   UNL     1       2.278  12.359   0.390  1.00  0.00     0.198 A 
ATOM     83  C   UNL     1       1.879  10.637   1.984  1.00  0.00     0.198 A 
ATOM     84  F   UNL     1       0.039   9.238   1.805  1.00  0.00    -0.203 F 
ATOM     85  F   UNL     1       2.971  13.437  -0.005  1.00  0.00    -0.200 F 
ATOM     86  C   UNL     1       2.624  11.720   1.566  1.00  0.00     0.200 A 
ATOM     87  F   UNL     1       2.188  10.019   3.133  1.00  0.00    -0.200 F 
ATOM     88  F   UNL     1       3.642  12.170   2.313  1.00  0.00    -0.200 F 
ENDBRANCH  54  78
BRANCH  66  89
ATOM     89  C   UNL     1      -2.726  10.870  -5.400  1.00  0.00     0.064 A 
ATOM     90  C   UNL     1      -1.827   9.797  -5.318  1.00  0.00     0.173 A 
ATOM     91  C   UNL     1      -3.051  11.323  -6.692  1.00  0.00     0.173 A 
ATOM     92  F   UNL     1      -1.384   9.331  -4.146  1.00  0.00    -0.203 F 
ATOM     93  C   UNL     1      -1.353   9.157  -6.463  1.00  0.00     0.198 A 
ATOM     94  C   UNL     1      -2.574  10.686  -7.834  1.00  0.00     0.198 A 
ATOM     95  F   UNL     1      -3.865  12.379  -6.851  1.00  0.00    -0.203 F 
ATOM     96  F   UNL     1      -0.539   8.098  -6.342  1.00  0.00    -0.200 F 
ATOM     97  C   UNL     1      -1.738   9.591  -7.718  1.00  0.00     0.200 A 
ATOM     98  F   UNL     1      -2.949  11.121  -9.044  1.00  0.00    -0.200 F 
ATOM     99  F   UNL     1      -1.304   8.955  -8.815  1.00  0.00    -0.200 F 
ENDBRANCH  66  89
ENDBRANCH  40  41
ENDBRANCH  33  35
ENDBRANCH  32  33
ENDBRANCH  31  32
ENDBRANCH  30  31
ENDBRANCH  29  30
ENDBRANCH  28  29
ENDBRANCH  27  28
ENDBRANCH   1  27
TORSDOF 22
