REMARK SMILES CO[C@H]1C[C@@H](C(=O)OCCOCCOCCOCCOC(=O)c2ccc(-c3c4nc(c(-c5c(F)c(F)c(F)c(F)c5F)c5ccc([nH]5)c(-c5c(F)c(F)c(F)c(F)c5F)c5nc(c(-c6c(F)c(F)c(F)c(F)c6F)c6ccc3[nH]6)C=C5)C=C4)cc2)N(C(=O)Nc2cc(C)cc(F)c2)C1
REMARK SMILES IDX 14 1 13 2 12 3 11 4 10 5 9 6 8 7 6 8 7 9 5 10 3 11 4 12
REMARK SMILES IDX 98 13 86 14 2 15 1 16 87 17 88 18 89 19 90 21 91 22 97 23
REMARK SMILES IDX 92 24 95 25 93 26 94 27 96 28 15 29 16 30 17 31 18 32 19 33
REMARK SMILES IDX 20 34 21 35 22 36 23 37 24 38 85 39 25 40 84 41 26 42 27 43
REMARK SMILES IDX 28 44 78 45 29 46 83 47 77 48 79 49 30 50 82 51 76 52 75 53
REMARK SMILES IDX 31 55 63 56 43 57 62 58 44 59 47 60 61 61 80 62 45 63 46 64
REMARK SMILES IDX 60 66 81 67 48 68 32 69 33 70 41 71 34 72 35 73 39 74 42 75
REMARK SMILES IDX 36 76 37 77 40 78 38 79 64 80 65 81 73 82 66 83 67 84 71 85
REMARK SMILES IDX 74 86 68 87 69 88 72 89 70 90 49 91 50 92 58 93 51 94 52 95
REMARK SMILES IDX 56 96 59 97 53 98 54 99 57 100 55 101
REMARK H PARENT 89 20 79 54 47 65
REMARK Flexibility Score: inf
ROOT
ATOM      1  O   UNL     1       1.643   6.917  -1.334  1.00  0.00    -0.377 OA
ENDROOT
BRANCH   1   2
ATOM      2  C   UNL     1       0.427   6.343  -1.818  1.00  0.00     0.188 C 
BRANCH   2   3
ATOM      3  C   UNL     1      -0.825   6.836  -1.050  1.00  0.00     0.188 C 
BRANCH   3   4
ATOM      4  O   UNL     1      -0.718   6.583   0.349  1.00  0.00    -0.376 OA
BRANCH   4   5
ATOM      5  C   UNL     1      -1.944   6.737   1.078  1.00  0.00     0.202 C 
BRANCH   5   6
ATOM      6  C   UNL     1      -1.753   6.382   2.574  1.00  0.00     0.261 C 
BRANCH   6   7
ATOM      7  O   UNL     1      -0.534   5.643   2.784  1.00  0.00    -0.462 OA
BRANCH   7   8
ATOM      8  C   UNL     1      -0.601   4.419   2.208  1.00  0.00     0.329 C 
ATOM      9  O   UNL     1      -1.668   3.808   2.124  1.00  0.00    -0.250 OA
BRANCH   8  10
ATOM     10  C   UNL     1       0.643   4.060   1.356  1.00  0.00     0.199 C 
ATOM     11  C   UNL     1       1.819   1.907   1.409  1.00  0.00     0.140 C 
ATOM     12  C   UNL     1       0.512   2.563   1.008  1.00  0.00     0.071 C 
ATOM     13  C   UNL     1       2.811   3.039   1.629  1.00  0.00     0.154 C 
ATOM     14  N   UNL     1       2.055   4.276   1.733  1.00  0.00    -0.308 N 
BRANCH  11  15
ATOM     15  O   UNL     1       1.712   0.990   2.496  1.00  0.00    -0.380 OA
ATOM     16  C   UNL     1       1.252   1.504   3.735  1.00  0.00     0.195 C 
ENDBRANCH  11  15
BRANCH  14  17
ATOM     17  C   UNL     1       2.817   5.431   1.813  1.00  0.00     0.322 C 
ATOM     18  O   UNL     1       3.962   5.415   2.270  1.00  0.00    -0.248 OA
ATOM     19  N   UNL     1       2.343   6.551   1.203  1.00  0.00    -0.308 N 
ATOM     20  H   UNL     1       2.327   6.542   0.219  1.00  0.00     0.171 HD
BRANCH  19  21
ATOM     21  C   UNL     1       1.873   7.723   1.828  1.00  0.00     0.046 A 
ATOM     22  C   UNL     1       1.465   8.794   1.016  1.00  0.00     0.029 A 
ATOM     23  C   UNL     1       1.544   7.727   3.170  1.00  0.00     0.065 A 
ATOM     24  C   UNL     1       0.469   9.682   1.428  1.00  0.00    -0.046 A 
ATOM     25  C   UNL     1       0.595   8.643   3.604  1.00  0.00     0.125 A 
ATOM     26  C   UNL     1      -0.163  10.637   0.458  1.00  0.00     0.044 C 
ATOM     27  C   UNL     1       0.021   9.580   2.740  1.00  0.00     0.042 A 
ATOM     28  F   UNL     1       0.094   8.516   4.839  1.00  0.00    -0.207 F 
ENDBRANCH  19  21
ENDBRANCH  14  17
ENDBRANCH   8  10
ENDBRANCH   7   8
ENDBRANCH   6   7
ENDBRANCH   5   6
ENDBRANCH   4   5
ENDBRANCH   3   4
ENDBRANCH   2   3
ENDBRANCH   1   2
BRANCH   1  29
ATOM     29  C   UNL     1       2.337   7.782  -2.237  1.00  0.00     0.188 C 
BRANCH  29  30
ATOM     30  C   UNL     1       1.523   9.026  -2.623  1.00  0.00     0.188 C 
BRANCH  30  31
ATOM     31  O   UNL     1       1.228   9.218  -3.998  1.00  0.00    -0.376 OA
BRANCH  31  32
ATOM     32  C   UNL     1       2.231   8.872  -4.939  1.00  0.00     0.202 C 
BRANCH  32  33
ATOM     33  C   UNL     1       3.590   9.597  -4.881  1.00  0.00     0.261 C 
BRANCH  33  34
ATOM     34  O   UNL     1       4.004  10.100  -3.597  1.00  0.00    -0.460 OA
BRANCH  34  35
ATOM     35  C   UNL     1       3.748  11.423  -3.393  1.00  0.00     0.338 C 
ATOM     36  O   UNL     1       3.173  12.177  -4.152  1.00  0.00    -0.246 OA
BRANCH  35  37
ATOM     37  C   UNL     1       4.191  11.845  -2.039  1.00  0.00     0.060 A 
ATOM     38  C   UNL     1       3.254  12.429  -1.175  1.00  0.00     0.016 A 
ATOM     39  C   UNL     1       5.536  11.796  -1.669  1.00  0.00     0.016 A 
ATOM     40  C   UNL     1       3.660  12.987   0.048  1.00  0.00     0.010 A 
ATOM     41  C   UNL     1       5.942  12.370  -0.453  1.00  0.00     0.010 A 
ATOM     42  C   UNL     1       5.016  12.998   0.404  1.00  0.00    -0.014 A 
BRANCH  42  43
ATOM     43  C   UNL     1       5.519  13.812   1.552  1.00  0.00     0.031 A 
ATOM     44  C   UNL     1       6.128  15.162   1.266  1.00  0.00     0.074 A 
ATOM     45  C   UNL     1       5.490  13.373   2.824  1.00  0.00     0.049 A 
ATOM     46  N   UNL     1       6.818  15.956   2.048  1.00  0.00    -0.248 NA
ATOM     47  C   UNL     1       5.932  15.682  -0.095  1.00  0.00     0.031 C 
ATOM     48  C   UNL     1       4.871  12.134   3.282  1.00  0.00     0.029 A 
ATOM     49  N   UNL     1       6.032  13.922   3.967  1.00  0.00    -0.354 N 
ATOM     50  C   UNL     1       7.161  17.054   1.268  1.00  0.00     0.074 A 
ATOM     51  C   UNL     1       6.611  16.819  -0.051  1.00  0.00     0.031 C 
ATOM     52  C   UNL     1       5.096  11.997   4.602  1.00  0.00     0.029 A 
ATOM     53  C   UNL     1       5.921  13.112   5.073  1.00  0.00     0.049 A 
ATOM     54  H   UNL     1       6.457  14.809   3.990  1.00  0.00     0.167 HD
ATOM     55  C   UNL     1       7.873  18.155   1.612  1.00  0.00     0.037 A 
ATOM     56  C   UNL     1       6.461  13.229   6.305  1.00  0.00     0.037 A 
ATOM     57  C   UNL     1       8.423  18.402   2.921  1.00  0.00     0.049 A 
ATOM     58  C   UNL     1       7.346  14.410   6.638  1.00  0.00     0.074 A 
ATOM     59  C   UNL     1       9.145  19.499   3.360  1.00  0.00     0.029 A 
ATOM     60  N   UNL     1       8.321  17.536   3.998  1.00  0.00    -0.354 N 
ATOM     61  N   UNL     1       7.673  15.441   5.897  1.00  0.00    -0.248 NA
ATOM     62  C   UNL     1       7.948  14.434   7.982  1.00  0.00     0.031 C 
ATOM     63  C   UNL     1       9.533  19.269   4.684  1.00  0.00     0.029 A 
ATOM     64  C   UNL     1       8.998  18.058   5.090  1.00  0.00     0.049 A 
ATOM     65  H   UNL     1       7.839  16.678   3.990  1.00  0.00     0.167 HD
ATOM     66  C   UNL     1       8.492  16.241   6.688  1.00  0.00     0.074 A 
ATOM     67  C   UNL     1       8.599  15.589   7.974  1.00  0.00     0.031 C 
ATOM     68  C   UNL     1       9.101  17.411   6.374  1.00  0.00     0.037 A 
BRANCH  55  69
ATOM     69  C   UNL     1       8.142  19.170   0.537  1.00  0.00     0.064 A 
ATOM     70  C   UNL     1       7.128  19.988   0.018  1.00  0.00     0.173 A 
ATOM     71  C   UNL     1       9.445  19.349   0.046  1.00  0.00     0.173 A 
ATOM     72  F   UNL     1       5.864  19.850   0.445  1.00  0.00    -0.203 F 
ATOM     73  C   UNL     1       7.403  20.926  -0.975  1.00  0.00     0.198 A 
ATOM     74  C   UNL     1       9.722  20.310  -0.922  1.00  0.00     0.198 A 
ATOM     75  F   UNL     1      10.454  18.599   0.514  1.00  0.00    -0.203 F 
ATOM     76  F   UNL     1       6.409  21.660  -1.493  1.00  0.00    -0.200 F 
ATOM     77  C   UNL     1       8.700  21.091  -1.438  1.00  0.00     0.200 A 
ATOM     78  F   UNL     1      10.979  20.478  -1.357  1.00  0.00    -0.200 F 
ATOM     79  F   UNL     1       8.963  21.998  -2.389  1.00  0.00    -0.200 F 
ENDBRANCH  55  69
BRANCH  56  80
ATOM     80  C   UNL     1       6.232  12.168   7.327  1.00  0.00     0.064 A 
ATOM     81  C   UNL     1       5.511  12.436   8.500  1.00  0.00     0.173 A 
ATOM     82  C   UNL     1       6.776  10.883   7.179  1.00  0.00     0.173 A 
ATOM     83  F   UNL     1       5.011  13.662   8.713  1.00  0.00    -0.203 F 
ATOM     84  C   UNL     1       5.357  11.466   9.490  1.00  0.00     0.198 A 
ATOM     85  C   UNL     1       6.593   9.904   8.154  1.00  0.00     0.198 A 
ATOM     86  F   UNL     1       7.495  10.580   6.088  1.00  0.00    -0.203 F 
ATOM     87  F   UNL     1       4.718  11.770  10.628  1.00  0.00    -0.200 F 
ATOM     88  C   UNL     1       5.891  10.199   9.313  1.00  0.00     0.200 A 
ATOM     89  F   UNL     1       7.111   8.681   7.979  1.00  0.00    -0.200 F 
ATOM     90  F   UNL     1       5.745   9.269  10.267  1.00  0.00    -0.200 F 
ENDBRANCH  56  80
BRANCH  68  91
ATOM     91  C   UNL     1       9.917  18.090   7.441  1.00  0.00     0.064 A 
ATOM     92  C   UNL     1      11.146  17.570   7.875  1.00  0.00     0.173 A 
ATOM     93  C   UNL     1       9.488  19.303   8.004  1.00  0.00     0.173 A 
ATOM     94  F   UNL     1      11.600  16.408   7.381  1.00  0.00    -0.203 F 
ATOM     95  C   UNL     1      11.901  18.225   8.847  1.00  0.00     0.198 A 
ATOM     96  C   UNL     1      10.260  19.971   8.951  1.00  0.00     0.198 A 
ATOM     97  F   UNL     1       8.325  19.852   7.620  1.00  0.00    -0.203 F 
ATOM     98  F   UNL     1      13.049  17.685   9.278  1.00  0.00    -0.200 F 
ATOM     99  C   UNL     1      11.461  19.428   9.378  1.00  0.00     0.200 A 
ATOM    100  F   UNL     1       9.841  21.143   9.450  1.00  0.00    -0.200 F 
ATOM    101  F   UNL     1      12.194  20.062  10.305  1.00  0.00    -0.200 F 
ENDBRANCH  68  91
ENDBRANCH  42  43
ENDBRANCH  35  37
ENDBRANCH  34  35
ENDBRANCH  33  34
ENDBRANCH  32  33
ENDBRANCH  31  32
ENDBRANCH  30  31
ENDBRANCH  29  30
ENDBRANCH   1  29
TORSDOF 23
