REMARK SMILES CCN(CC)S(=O)(=O)c1cccc(C(=O)N2C[C@H](O)C[C@H]2C(=O)OCCOCCOCCOCCOC(=O)c2ccc(-c3c4nc(c(-c5c(F)c(F)c(F)c(F)c5F)c5ccc([nH]5)c(-c5c(F)c(F)c(F)c(F)c5F)c5nc(c(-c6c(F)c(F)c(F)c(F)c6F)c6ccc3[nH]6)C=C5)C=C4)cc2)c1
REMARK SMILES IDX 28 1 27 2 26 3 25 4 24 5 22 6 23 7 21 8 16 9 17 10 18 11
REMARK SMILES IDX 20 12 14 13 15 14 13 15 9 16 10 17 102 18 11 19 12 20 6 21
REMARK SMILES IDX 7 22 8 23 3 24 2 25 1 26 4 27 5 28 19 29 29 31 30 32 31 33
REMARK SMILES IDX 32 34 33 35 34 36 35 37 36 38 37 39 38 40 39 41 40 42 101 43
REMARK SMILES IDX 41 44 100 45 42 46 43 47 44 48 94 49 45 50 99 51 93 52 95 53
REMARK SMILES IDX 46 54 98 55 92 56 91 57 47 59 79 60 59 61 78 62 60 63 63 64
REMARK SMILES IDX 77 65 96 66 61 67 62 68 76 70 97 71 64 72 48 73 49 74 57 75
REMARK SMILES IDX 50 76 51 77 55 78 58 79 52 80 53 81 56 82 54 83 80 84 81 85
REMARK SMILES IDX 89 86 82 87 83 88 87 89 90 90 84 91 85 92 88 93 86 94 65 95
REMARK SMILES IDX 66 96 74 97 67 98 68 99 72 100 75 101 69 102 70 103 73 104
REMARK SMILES IDX 71 105
REMARK H PARENT 19 30 95 58 63 69
REMARK Flexibility Score: inf
ROOT
ATOM      1  C   UNL     1       6.282   8.619   3.725  1.00  0.00     0.188 C 
ENDROOT
BRANCH   1   2
ATOM      2  O   UNL     1       6.046   9.957   4.126  1.00  0.00    -0.376 OA
BRANCH   2   3
ATOM      3  C   UNL     1       4.728  10.491   4.049  1.00  0.00     0.202 C 
BRANCH   3   4
ATOM      4  C   UNL     1       3.788  10.133   2.881  1.00  0.00     0.261 C 
BRANCH   4   5
ATOM      5  O   UNL     1       3.296   8.766   2.860  1.00  0.00    -0.462 OA
BRANCH   5   6
ATOM      6  C   UNL     1       3.697   8.018   1.806  1.00  0.00     0.329 C 
ATOM      7  O   UNL     1       4.420   8.461   0.909  1.00  0.00    -0.250 OA
BRANCH   6   8
ATOM      8  C   UNL     1       3.211   6.548   1.720  1.00  0.00     0.198 C 
ATOM      9  N   UNL     1       2.268   5.802   2.581  1.00  0.00    -0.322 N 
ATOM     10  C   UNL     1       1.104   5.351   1.836  1.00  0.00     0.152 C 
ATOM     11  C   UNL     1       1.557   5.357   0.381  1.00  0.00     0.136 C 
ATOM     12  C   UNL     1       2.511   6.530   0.334  1.00  0.00     0.071 C 
BRANCH   9  13
ATOM     13  C   UNL     1       2.504   5.286   3.844  1.00  0.00     0.254 C 
ATOM     14  O   UNL     1       2.047   5.846   4.840  1.00  0.00    -0.269 OA
BRANCH  13  15
ATOM     15  C   UNL     1       3.079   3.899   4.026  1.00  0.00     0.041 A 
ATOM     16  C   UNL     1       3.430   1.582   3.383  1.00  0.00     0.083 A 
ATOM     17  C   UNL     1       3.922   1.253   4.645  1.00  0.00     0.022 A 
ATOM     18  C   UNL     1       3.057   2.900   3.052  1.00  0.00     0.035 A 
ATOM     19  C   UNL     1       3.959   2.239   5.619  1.00  0.00     0.002 A 
ATOM     20  C   UNL     1       3.509   3.532   5.316  1.00  0.00     0.014 A 
BRANCH  16  21
ATOM     21  S   UNL     1       3.112   0.289   2.198  1.00  0.00     0.243 S 
ATOM     22  O   UNL     1       3.646  -0.957   2.729  1.00  0.00    -0.207 OA
ATOM     23  O   UNL     1       3.547   0.791   0.925  1.00  0.00    -0.207 OA
BRANCH  21  24
ATOM     24  N   UNL     1       1.399   0.189   2.239  1.00  0.00    -0.198 NA
BRANCH  24  25
ATOM     25  C   UNL     1       0.764  -0.643   1.176  1.00  0.00     0.099 C 
ATOM     26  C   UNL     1       0.910  -0.037  -0.207  1.00  0.00     0.022 C 
ENDBRANCH  24  25
BRANCH  24  27
ATOM     27  C   UNL     1       0.740  -0.007   3.570  1.00  0.00     0.099 C 
ATOM     28  C   UNL     1       0.956  -1.379   4.186  1.00  0.00     0.022 C 
ENDBRANCH  24  27
ENDBRANCH  21  24
ENDBRANCH  16  21
ENDBRANCH  13  15
ENDBRANCH   9  13
BRANCH  11  29
ATOM     29  O   UNL     1       2.222   4.154   0.016  1.00  0.00    -0.391 OA
ATOM     30  H   UNL     1       2.985   4.017   0.599  1.00  0.00     0.211 HD
ENDBRANCH  11  29
ENDBRANCH   6   8
ENDBRANCH   5   6
ENDBRANCH   4   5
ENDBRANCH   3   4
ENDBRANCH   2   3
ENDBRANCH   1   2
BRANCH   1  31
ATOM     31  C   UNL     1       5.765   7.503   4.636  1.00  0.00     0.188 C 
BRANCH  31  32
ATOM     32  O   UNL     1       4.376   7.526   4.898  1.00  0.00    -0.377 OA
BRANCH  32  33
ATOM     33  C   UNL     1       3.877   8.056   6.128  1.00  0.00     0.188 C 
BRANCH  33  34
ATOM     34  C   UNL     1       4.883   8.379   7.236  1.00  0.00     0.188 C 
BRANCH  34  35
ATOM     35  O   UNL     1       5.657   7.297   7.767  1.00  0.00    -0.376 OA
BRANCH  35  36
ATOM     36  C   UNL     1       5.114   5.983   7.688  1.00  0.00     0.202 C 
BRANCH  36  37
ATOM     37  C   UNL     1       4.233   5.578   8.867  1.00  0.00     0.261 C 
BRANCH  37  38
ATOM     38  O   UNL     1       3.022   6.344   8.916  1.00  0.00    -0.460 OA
BRANCH  38  39
ATOM     39  C   UNL     1       3.052   7.394   9.767  1.00  0.00     0.338 C 
ATOM     40  O   UNL     1       3.958   7.719  10.516  1.00  0.00    -0.246 OA
BRANCH  39  41
ATOM     41  C   UNL     1       1.840   8.212   9.587  1.00  0.00     0.060 A 
ATOM     42  C   UNL     1       1.989   9.604   9.581  1.00  0.00     0.016 A 
ATOM     43  C   UNL     1       0.572   7.629   9.518  1.00  0.00     0.016 A 
ATOM     44  C   UNL     1       0.866  10.423   9.568  1.00  0.00     0.010 A 
ATOM     45  C   UNL     1      -0.556   8.450   9.514  1.00  0.00     0.010 A 
ATOM     46  C   UNL     1      -0.410   9.846   9.586  1.00  0.00    -0.014 A 
BRANCH  46  47
ATOM     47  C   UNL     1      -1.582  10.698   9.878  1.00  0.00     0.031 A 
ATOM     48  C   UNL     1      -2.097  10.745  11.289  1.00  0.00     0.074 A 
ATOM     49  C   UNL     1      -2.151  11.433   8.910  1.00  0.00     0.049 A 
ATOM     50  N   UNL     1      -3.118  11.398  11.782  1.00  0.00    -0.248 NA
ATOM     51  C   UNL     1      -1.362   9.940  12.278  1.00  0.00     0.031 C 
ATOM     52  C   UNL     1      -1.702  11.486   7.520  1.00  0.00     0.029 A 
ATOM     53  N   UNL     1      -3.232  12.273   8.951  1.00  0.00    -0.354 N 
ATOM     54  C   UNL     1      -3.152  11.075  13.132  1.00  0.00     0.074 A 
ATOM     55  C   UNL     1      -2.073  10.143  13.376  1.00  0.00     0.031 C 
ATOM     56  C   UNL     1      -2.508  12.316   6.836  1.00  0.00     0.029 A 
ATOM     57  C   UNL     1      -3.545  12.822   7.734  1.00  0.00     0.049 A 
ATOM     58  H   UNL     1      -3.737  12.463   9.775  1.00  0.00     0.167 HD
ATOM     59  C   UNL     1      -4.005  11.524  14.082  1.00  0.00     0.037 A 
ATOM     60  C   UNL     1      -4.566  13.628   7.389  1.00  0.00     0.037 A 
ATOM     61  C   UNL     1      -5.075  12.451  13.822  1.00  0.00     0.049 A 
ATOM     62  C   UNL     1      -5.543  14.062   8.451  1.00  0.00     0.074 A 
ATOM     63  C   UNL     1      -5.983  12.997  14.711  1.00  0.00     0.029 A 
ATOM     64  N   UNL     1      -5.386  12.960  12.568  1.00  0.00    -0.354 N 
ATOM     65  N   UNL     1      -5.553  13.783   9.733  1.00  0.00    -0.248 NA
ATOM     66  C   UNL     1      -6.649  14.925   8.018  1.00  0.00     0.031 C 
ATOM     67  C   UNL     1      -6.880  13.787  13.986  1.00  0.00     0.029 A 
ATOM     68  C   UNL     1      -6.495  13.787  12.654  1.00  0.00     0.049 A 
ATOM     69  H   UNL     1      -4.893  12.762  11.739  1.00  0.00     0.167 HD
ATOM     70  C   UNL     1      -6.644  14.457  10.264  1.00  0.00     0.074 A 
ATOM     71  C   UNL     1      -7.264  15.170   9.166  1.00  0.00     0.031 C 
ATOM     72  C   UNL     1      -7.093  14.486  11.544  1.00  0.00     0.037 A 
BRANCH  59  73
ATOM     73  C   UNL     1      -3.837  10.987  15.475  1.00  0.00     0.064 A 
ATOM     74  C   UNL     1      -2.729  11.318  16.271  1.00  0.00     0.173 A 
ATOM     75  C   UNL     1      -4.804  10.132  16.024  1.00  0.00     0.173 A 
ATOM     76  F   UNL     1      -1.767  12.119  15.789  1.00  0.00    -0.203 F 
ATOM     77  C   UNL     1      -2.580  10.786  17.549  1.00  0.00     0.198 A 
ATOM     78  C   UNL     1      -4.668   9.627  17.315  1.00  0.00     0.198 A 
ATOM     79  F   UNL     1      -5.884   9.783  15.309  1.00  0.00    -0.203 F 
ATOM     80  F   UNL     1      -1.484  11.069  18.268  1.00  0.00    -0.200 F 
ATOM     81  C   UNL     1      -3.551   9.946  18.073  1.00  0.00     0.200 A 
ATOM     82  F   UNL     1      -5.614   8.825  17.823  1.00  0.00    -0.200 F 
ATOM     83  F   UNL     1      -3.407   9.436  19.303  1.00  0.00    -0.200 F 
ENDBRANCH  59  73
BRANCH  60  84
ATOM     84  C   UNL     1      -4.710  14.079   5.981  1.00  0.00     0.064 A 
ATOM     85  C   UNL     1      -4.513  15.420   5.628  1.00  0.00     0.173 A 
ATOM     86  C   UNL     1      -5.043  13.178   4.958  1.00  0.00     0.173 A 
ATOM     87  F   UNL     1      -4.215  16.324   6.573  1.00  0.00    -0.203 F 
ATOM     88  C   UNL     1      -4.655  15.847   4.309  1.00  0.00     0.198 A 
ATOM     89  C   UNL     1      -5.157  13.600   3.635  1.00  0.00     0.198 A 
ATOM     90  F   UNL     1      -5.243  11.882   5.242  1.00  0.00    -0.203 F 
ATOM     91  F   UNL     1      -4.499  17.142   4.006  1.00  0.00    -0.200 F 
ATOM     92  C   UNL     1      -4.970  14.935   3.312  1.00  0.00     0.200 A 
ATOM     93  F   UNL     1      -5.447  12.713   2.673  1.00  0.00    -0.200 F 
ATOM     94  F   UNL     1      -5.097  15.344   2.043  1.00  0.00    -0.200 F 
ENDBRANCH  60  84
BRANCH  72  95
ATOM     95  C   UNL     1      -8.294  15.342  11.830  1.00  0.00     0.064 A 
ATOM     96  C   UNL     1      -9.576  14.989  11.383  1.00  0.00     0.173 A 
ATOM     97  C   UNL     1      -8.164  16.512  12.595  1.00  0.00     0.173 A 
ATOM     98  F   UNL     1      -9.751  13.888  10.636  1.00  0.00    -0.203 F 
ATOM     99  C   UNL     1     -10.678  15.792  11.665  1.00  0.00     0.198 A 
ATOM    100  C   UNL     1      -9.273  17.293  12.904  1.00  0.00     0.198 A 
ATOM    101  F   UNL     1      -6.962  16.890  13.055  1.00  0.00    -0.203 F 
ATOM    102  F   UNL     1     -11.884  15.464  11.182  1.00  0.00    -0.200 F 
ATOM    103  C   UNL     1     -10.527  16.938  12.432  1.00  0.00     0.200 A 
ATOM    104  F   UNL     1      -9.128  18.391  13.659  1.00  0.00    -0.200 F 
ATOM    105  F   UNL     1     -11.591  17.705  12.709  1.00  0.00    -0.200 F 
ENDBRANCH  72  95
ENDBRANCH  46  47
ENDBRANCH  39  41
ENDBRANCH  38  39
ENDBRANCH  37  38
ENDBRANCH  36  37
ENDBRANCH  35  36
ENDBRANCH  34  35
ENDBRANCH  33  34
ENDBRANCH  32  33
ENDBRANCH  31  32
ENDBRANCH   1  31
TORSDOF 27
