REMARK SMILES C[C@H]([NH3+])c1ccc(F)cc1OCC(C)(C)C(=O)OCCOCCOCCOCCOC(=O)c1ccc(-c2c3nc(c(-c4c(F)c(F)c(F)c(F)c4F)c4ccc([nH]4)c(-c4c(F)c(F)c(F)c(F)c4F)c4nc(c(-c5c(F)c(F)c(F)c(F)c5F)c5ccc2[nH]5)C=C4)C=C3)cc1
REMARK SMILES IDX 22 1 21 2 20 3 19 4 18 5 16 6 17 7 13 8 14 9 15 10 12 11
REMARK SMILES IDX 11 12 10 13 4 14 5 15 6 16 9 17 7 18 8 19 2 20 1 21 3 22
REMARK SMILES IDX 23 26 24 27 25 28 26 29 27 30 28 31 29 32 30 33 31 34 32 35
REMARK SMILES IDX 33 36 34 37 95 38 35 39 94 40 36 41 37 42 38 43 88 44 39 45
REMARK SMILES IDX 93 46 87 47 89 48 40 49 92 50 86 51 85 52 41 54 73 55 53 56
REMARK SMILES IDX 72 57 54 58 57 59 71 60 90 61 55 62 56 63 70 65 91 66 58 67
REMARK SMILES IDX 42 68 43 69 51 70 44 71 45 72 49 73 52 74 46 75 47 76 50 77
REMARK SMILES IDX 48 78 74 79 75 80 83 81 76 82 77 83 81 84 84 85 78 86 79 87
REMARK SMILES IDX 82 88 80 89 59 90 60 91 68 92 61 93 62 94 66 95 69 96 63 97
REMARK SMILES IDX 64 98 67 99 65 100
REMARK H PARENT 3 23 3 24 3 25 89 53 57 64
REMARK Flexibility Score: inf
ROOT
ATOM      1  C   UNL     1       0.229  -5.986  -1.727  1.00  0.00     0.188 C 
ENDROOT
BRANCH   1   2
ATOM      2  O   UNL     1      -0.285  -6.234  -3.017  1.00  0.00    -0.376 OA
BRANCH   2   3
ATOM      3  C   UNL     1      -0.516  -5.231  -3.993  1.00  0.00     0.202 C 
BRANCH   3   4
ATOM      4  C   UNL     1      -0.638  -3.720  -3.755  1.00  0.00     0.261 C 
BRANCH   4   5
ATOM      5  O   UNL     1       0.259  -3.131  -2.817  1.00  0.00    -0.463 OA
BRANCH   5   6
ATOM      6  C   UNL     1      -0.287  -2.905  -1.600  1.00  0.00     0.315 C 
ATOM      7  O   UNL     1      -1.442  -3.206  -1.316  1.00  0.00    -0.251 OA
BRANCH   6   8
ATOM      8  C   UNL     1       0.622  -2.113  -0.669  1.00  0.00     0.096 C 
ATOM      9  C   UNL     1       0.255  -0.670  -1.050  1.00  0.00     0.027 C 
ATOM     10  C   UNL     1       2.153  -2.203  -0.889  1.00  0.00     0.027 C 
BRANCH   8  11
ATOM     11  C   UNL     1       0.381  -2.681   0.768  1.00  0.00     0.247 C 
BRANCH  11  12
ATOM     12  O   UNL     1      -0.896  -2.651   1.389  1.00  0.00    -0.492 OA
BRANCH  12  13
ATOM     13  C   UNL     1      -1.648  -1.523   1.435  1.00  0.00     0.131 A 
ATOM     14  C   UNL     1      -1.216  -0.221   1.749  1.00  0.00     0.051 A 
ATOM     15  C   UNL     1      -2.188   0.803   1.714  1.00  0.00     0.017 A 
ATOM     16  C   UNL     1      -3.522   0.545   1.384  1.00  0.00     0.040 A 
ATOM     17  C   UNL     1      -3.001  -1.786   1.162  1.00  0.00     0.086 A 
ATOM     18  C   UNL     1      -3.921  -0.753   1.123  1.00  0.00     0.126 A 
ATOM     19  F   UNL     1      -5.201  -1.011   0.825  1.00  0.00    -0.207 F 
BRANCH  14  20
ATOM     20  C   UNL     1       0.221   0.119   2.112  1.00  0.00     0.212 C 
ATOM     21  C   UNL     1       0.569  -0.200   3.559  1.00  0.00     0.081 C 
BRANCH  20  22
ATOM     22  N   UNL     1       0.599   1.499   1.776  1.00  0.00    -0.351 N 
ATOM     23  H   UNL     1       0.058   2.149   2.347  1.00  0.00     0.345 HD
ATOM     24  H   UNL     1       0.407   1.674   0.789  1.00  0.00     0.345 HD
ATOM     25  H   UNL     1       1.594   1.633   1.958  1.00  0.00     0.345 HD
ENDBRANCH  20  22
ENDBRANCH  14  20
ENDBRANCH  12  13
ENDBRANCH  11  12
ENDBRANCH   8  11
ENDBRANCH   6   8
ENDBRANCH   5   6
ENDBRANCH   4   5
ENDBRANCH   3   4
ENDBRANCH   2   3
ENDBRANCH   1   2
BRANCH   1  26
ATOM     26  C   UNL     1       1.674  -5.501  -1.553  1.00  0.00     0.188 C 
BRANCH  26  27
ATOM     27  O   UNL     1       2.224  -4.760  -2.620  1.00  0.00    -0.377 OA
BRANCH  27  28
ATOM     28  C   UNL     1       2.759  -5.451  -3.739  1.00  0.00     0.188 C 
BRANCH  28  29
ATOM     29  C   UNL     1       2.542  -6.969  -3.904  1.00  0.00     0.188 C 
BRANCH  29  30
ATOM     30  O   UNL     1       2.568  -7.710  -2.697  1.00  0.00    -0.376 OA
BRANCH  30  31
ATOM     31  C   UNL     1       3.777  -8.322  -2.283  1.00  0.00     0.202 C 
BRANCH  31  32
ATOM     32  C   UNL     1       5.000  -7.428  -2.027  1.00  0.00     0.261 C 
BRANCH  32  33
ATOM     33  O   UNL     1       5.457  -6.625  -3.126  1.00  0.00    -0.460 OA
BRANCH  33  34
ATOM     34  C   UNL     1       5.752  -7.231  -4.293  1.00  0.00     0.338 C 
ATOM     35  O   UNL     1       5.733  -8.425  -4.539  1.00  0.00    -0.246 OA
BRANCH  34  36
ATOM     36  C   UNL     1       5.931  -6.167  -5.299  1.00  0.00     0.060 A 
ATOM     37  C   UNL     1       5.067  -6.101  -6.403  1.00  0.00     0.016 A 
ATOM     38  C   UNL     1       6.949  -5.228  -5.136  1.00  0.00     0.016 A 
ATOM     39  C   UNL     1       5.244  -5.110  -7.370  1.00  0.00     0.010 A 
ATOM     40  C   UNL     1       7.144  -4.258  -6.117  1.00  0.00     0.010 A 
ATOM     41  C   UNL     1       6.316  -4.218  -7.253  1.00  0.00    -0.014 A 
BRANCH  41  42
ATOM     42  C   UNL     1       6.750  -3.404  -8.411  1.00  0.00     0.031 A 
ATOM     43  C   UNL     1       7.866  -3.946  -9.257  1.00  0.00     0.074 A 
ATOM     44  C   UNL     1       6.208  -2.205  -8.680  1.00  0.00     0.049 A 
ATOM     45  N   UNL     1       8.568  -3.356 -10.187  1.00  0.00    -0.248 NA
ATOM     46  C   UNL     1       8.250  -5.347  -9.008  1.00  0.00     0.031 C 
ATOM     47  C   UNL     1       5.072  -1.613  -7.980  1.00  0.00     0.029 A 
ATOM     48  N   UNL     1       6.566  -1.260  -9.609  1.00  0.00    -0.354 N 
ATOM     49  C   UNL     1       9.485  -4.305 -10.619  1.00  0.00     0.074 A 
ATOM     50  C   UNL     1       9.269  -5.502  -9.839  1.00  0.00     0.031 C 
ATOM     51  C   UNL     1       4.839  -0.390  -8.490  1.00  0.00     0.029 A 
ATOM     52  C   UNL     1       5.843  -0.096  -9.512  1.00  0.00     0.049 A 
ATOM     53  H   UNL     1       7.272  -1.402 -10.280  1.00  0.00     0.167 HD
ATOM     54  C   UNL     1      10.422  -4.183 -11.585  1.00  0.00     0.037 A 
ATOM     55  C   UNL     1       6.007   1.082 -10.150  1.00  0.00     0.037 A 
ATOM     56  C   UNL     1      10.627  -2.987 -12.355  1.00  0.00     0.049 A 
ATOM     57  C   UNL     1       7.128   1.231 -11.149  1.00  0.00     0.074 A 
ATOM     58  C   UNL     1      11.554  -2.757 -13.354  1.00  0.00     0.029 A 
ATOM     59  N   UNL     1       9.894  -1.819 -12.205  1.00  0.00    -0.354 N 
ATOM     60  N   UNL     1       8.007   0.341 -11.545  1.00  0.00    -0.248 NA
ATOM     61  C   UNL     1       7.290   2.549 -11.784  1.00  0.00     0.031 C 
ATOM     62  C   UNL     1      11.421  -1.432 -13.771  1.00  0.00     0.029 A 
ATOM     63  C   UNL     1      10.364  -0.858 -13.082  1.00  0.00     0.049 A 
ATOM     64  H   UNL     1       9.152  -1.694 -11.572  1.00  0.00     0.167 HD
ATOM     65  C   UNL     1       8.794   0.975 -12.499  1.00  0.00     0.074 A 
ATOM     66  C   UNL     1       8.296   2.328 -12.620  1.00  0.00     0.031 C 
ATOM     67  C   UNL     1       9.832   0.476 -13.213  1.00  0.00     0.037 A 
BRANCH  54  68
ATOM     68  C   UNL     1      11.312  -5.359 -11.856  1.00  0.00     0.064 A 
ATOM     69  C   UNL     1      12.680  -5.297 -11.548  1.00  0.00     0.173 A 
ATOM     70  C   UNL     1      10.831  -6.516 -12.483  1.00  0.00     0.173 A 
ATOM     71  F   UNL     1      13.190  -4.212 -10.947  1.00  0.00    -0.203 F 
ATOM     72  C   UNL     1      13.536  -6.342 -11.881  1.00  0.00     0.198 A 
ATOM     73  C   UNL     1      11.685  -7.573 -12.786  1.00  0.00     0.198 A 
ATOM     74  F   UNL     1       9.527  -6.631 -12.781  1.00  0.00    -0.203 F 
ATOM     75  F   UNL     1      14.846  -6.243 -11.615  1.00  0.00    -0.200 F 
ATOM     76  C   UNL     1      13.038  -7.480 -12.497  1.00  0.00     0.200 A 
ATOM     77  F   UNL     1      11.197  -8.684 -13.357  1.00  0.00    -0.200 F 
ATOM     78  F   UNL     1      13.863  -8.488 -12.812  1.00  0.00    -0.200 F 
ENDBRANCH  54  68
BRANCH  55  79
ATOM     79  C   UNL     1       5.090   2.215  -9.855  1.00  0.00     0.064 A 
ATOM     80  C   UNL     1       5.087   2.851  -8.604  1.00  0.00     0.173 A 
ATOM     81  C   UNL     1       4.186   2.677 -10.821  1.00  0.00     0.173 A 
ATOM     82  F   UNL     1       5.935   2.452  -7.644  1.00  0.00    -0.203 F 
ATOM     83  C   UNL     1       4.198   3.887  -8.323  1.00  0.00     0.198 A 
ATOM     84  C   UNL     1       3.317   3.733 -10.549  1.00  0.00     0.198 A 
ATOM     85  F   UNL     1       4.168   2.121 -12.041  1.00  0.00    -0.203 F 
ATOM     86  F   UNL     1       4.191   4.451  -7.108  1.00  0.00    -0.200 F 
ATOM     87  C   UNL     1       3.317   4.330  -9.297  1.00  0.00     0.200 A 
ATOM     88  F   UNL     1       2.487   4.176 -11.502  1.00  0.00    -0.200 F 
ATOM     89  F   UNL     1       2.471   5.335  -9.032  1.00  0.00    -0.200 F 
ENDBRANCH  55  79
BRANCH  67  90
ATOM     90  C   UNL     1      10.484   1.354 -14.241  1.00  0.00     0.064 A 
ATOM     91  C   UNL     1      10.350   1.050 -15.606  1.00  0.00     0.173 A 
ATOM     92  C   UNL     1      11.359   2.386 -13.879  1.00  0.00     0.173 A 
ATOM     93  F   UNL     1       9.534   0.061 -16.002  1.00  0.00    -0.203 F 
ATOM     94  C   UNL     1      11.099   1.723 -16.567  1.00  0.00     0.198 A 
ATOM     95  C   UNL     1      12.085   3.077 -14.846  1.00  0.00     0.198 A 
ATOM     96  F   UNL     1      11.514   2.719 -12.589  1.00  0.00    -0.203 F 
ATOM     97  F   UNL     1      11.002   1.372 -17.857  1.00  0.00    -0.200 F 
ATOM     98  C   UNL     1      11.968   2.733 -16.186  1.00  0.00     0.200 A 
ATOM     99  F   UNL     1      12.912   4.066 -14.480  1.00  0.00    -0.200 F 
ATOM    100  F   UNL     1      12.700   3.372 -17.109  1.00  0.00    -0.200 F 
ENDBRANCH  67  90
ENDBRANCH  41  42
ENDBRANCH  34  36
ENDBRANCH  33  34
ENDBRANCH  32  33
ENDBRANCH  31  32
ENDBRANCH  30  31
ENDBRANCH  29  30
ENDBRANCH  28  29
ENDBRANCH  27  28
ENDBRANCH  26  27
ENDBRANCH   1  26
TORSDOF 25
