REMARK SMILES O=C(OCCOCCOCCOCCOC(=O)[C@H]1CC[C@H]2CCCC[C@@H]2[N@H+]1[C@@H]1C[N@H+]2CC[C@@H]1CC2)c1ccc(-c2c3nc(c(-c4c(F)c(F)c(F)c(F)c4F)c4ccc([nH]4)c(-c4c(F)c(F)c(F)c(F)c4F)c4nc(c(-c5c(F)c(F)c(F)c(F)c5F)c5ccc2[nH]5)C=C4)C=C3)cc1
REMARK SMILES IDX 8 1 7 2 6 3 5 4 4 5 3 6 2 7 1 8 36 9 37 10 98 11 38 12 97 13
REMARK SMILES IDX 39 14 40 15 41 16 91 17 42 18 96 19 90 20 92 21 43 22 95 23
REMARK SMILES IDX 89 24 88 25 44 27 76 28 56 29 75 30 57 31 60 32 74 33 93 34
REMARK SMILES IDX 58 35 59 36 73 38 94 39 61 40 45 41 46 42 54 43 47 44 48 45
REMARK SMILES IDX 52 46 55 47 49 48 50 49 53 50 51 51 77 52 78 53 86 54 79 55
REMARK SMILES IDX 80 56 84 57 87 58 81 59 82 60 85 61 83 62 62 63 63 64 71 65
REMARK SMILES IDX 64 66 65 67 69 68 72 69 66 70 67 71 70 72 68 73 9 74 10 75
REMARK SMILES IDX 11 76 12 77 13 78 14 79 15 80 16 81 17 82 18 83 19 84 27 85
REMARK SMILES IDX 20 86 26 87 21 89 25 90 22 91 24 92 23 93 28 94 29 95 33 96
REMARK SMILES IDX 30 97 34 98 32 99 35 100 31 101
REMARK H PARENT 92 26 60 37 27 88 30 102
REMARK Flexibility Score: inf
ROOT
ATOM      1  C   UNL     1       2.199  -2.461  -0.917  1.00  0.00     0.188 C 
ENDROOT
BRANCH   1   2
ATOM      2  C   UNL     1       2.515  -1.478   0.193  1.00  0.00     0.188 C 
BRANCH   2   3
ATOM      3  O   UNL     1       3.746  -0.857  -0.134  1.00  0.00    -0.376 OA
BRANCH   3   4
ATOM      4  C   UNL     1       4.623  -0.564   0.941  1.00  0.00     0.202 C 
BRANCH   4   5
ATOM      5  C   UNL     1       4.171   0.596   1.812  1.00  0.00     0.261 C 
BRANCH   5   6
ATOM      6  O   UNL     1       2.819   1.048   1.601  1.00  0.00    -0.460 OA
BRANCH   6   7
ATOM      7  C   UNL     1       2.216   1.729   0.611  1.00  0.00     0.338 C 
ATOM      8  O   UNL     1       1.001   1.964   0.743  1.00  0.00    -0.246 OA
BRANCH   7   9
ATOM      9  C   UNL     1       2.845   2.229  -0.644  1.00  0.00     0.060 A 
ATOM     10  C   UNL     1       3.939   1.663  -1.297  1.00  0.00     0.016 A 
ATOM     11  C   UNL     1       2.198   3.303  -1.283  1.00  0.00     0.016 A 
ATOM     12  C   UNL     1       4.372   2.099  -2.535  1.00  0.00     0.010 A 
ATOM     13  C   UNL     1       2.652   3.793  -2.507  1.00  0.00     0.010 A 
ATOM     14  C   UNL     1       3.756   3.192  -3.119  1.00  0.00    -0.014 A 
BRANCH  14  15
ATOM     15  C   UNL     1       4.488   3.856  -4.197  1.00  0.00     0.031 A 
ATOM     16  C   UNL     1       5.301   5.045  -3.808  1.00  0.00     0.074 A 
ATOM     17  C   UNL     1       4.540   3.310  -5.420  1.00  0.00     0.049 A 
ATOM     18  N   UNL     1       5.878   5.941  -4.553  1.00  0.00    -0.248 NA
ATOM     19  C   UNL     1       5.489   5.248  -2.358  1.00  0.00     0.031 C 
ATOM     20  C   UNL     1       3.952   2.023  -5.795  1.00  0.00     0.029 A 
ATOM     21  N   UNL     1       5.122   3.767  -6.567  1.00  0.00    -0.354 N 
ATOM     22  C   UNL     1       6.431   6.852  -3.666  1.00  0.00     0.074 A 
ATOM     23  C   UNL     1       6.154   6.394  -2.329  1.00  0.00     0.031 C 
ATOM     24  C   UNL     1       4.178   1.808  -7.101  1.00  0.00     0.029 A 
ATOM     25  C   UNL     1       4.837   2.984  -7.657  1.00  0.00     0.049 A 
ATOM     26  H   UNL     1       5.686   4.573  -6.608  1.00  0.00     0.167 HD
ATOM     27  C   UNL     1       7.082   7.997  -3.974  1.00  0.00     0.037 A 
ATOM     28  C   UNL     1       5.019   3.255  -8.961  1.00  0.00     0.037 A 
ATOM     29  C   UNL     1       7.318   8.387  -5.336  1.00  0.00     0.049 A 
ATOM     30  C   UNL     1       5.646   4.582  -9.301  1.00  0.00     0.074 A 
ATOM     31  C   UNL     1       7.887   9.542  -5.829  1.00  0.00     0.029 A 
ATOM     32  N   UNL     1       6.976   7.599  -6.433  1.00  0.00    -0.354 N 
ATOM     33  N   UNL     1       6.067   5.525  -8.487  1.00  0.00    -0.248 NA
ATOM     34  C   UNL     1       5.804   4.898 -10.722  1.00  0.00     0.031 C 
ATOM     35  C   UNL     1       7.836   9.476  -7.226  1.00  0.00     0.029 A 
ATOM     36  C   UNL     1       7.301   8.249  -7.605  1.00  0.00     0.049 A 
ATOM     37  H   UNL     1       6.562   6.707  -6.380  1.00  0.00     0.167 HD
ATOM     38  C   UNL     1       6.562   6.538  -9.291  1.00  0.00     0.074 A 
ATOM     39  C   UNL     1       6.387   6.090 -10.662  1.00  0.00     0.031 C 
ATOM     40  C   UNL     1       7.114   7.728  -8.940  1.00  0.00     0.037 A 
BRANCH  27  41
ATOM     41  C   UNL     1       7.422   8.909  -2.833  1.00  0.00     0.064 A 
ATOM     42  C   UNL     1       8.367   8.573  -1.850  1.00  0.00     0.173 A 
ATOM     43  C   UNL     1       6.694  10.097  -2.655  1.00  0.00     0.173 A 
ATOM     44  F   UNL     1       9.063   7.430  -1.946  1.00  0.00    -0.203 F 
ATOM     45  C   UNL     1       8.528   9.359  -0.710  1.00  0.00     0.198 A 
ATOM     46  C   UNL     1       6.883  10.898  -1.532  1.00  0.00     0.198 A 
ATOM     47  F   UNL     1       5.767  10.463  -3.553  1.00  0.00    -0.203 F 
ATOM     48  F   UNL     1       9.365   8.965   0.261  1.00  0.00    -0.200 F 
ATOM     49  C   UNL     1       7.787  10.520  -0.552  1.00  0.00     0.200 A 
ATOM     50  F   UNL     1       6.164  12.019  -1.383  1.00  0.00    -0.200 F 
ATOM     51  F   UNL     1       7.924  11.260   0.557  1.00  0.00    -0.200 F 
ENDBRANCH  27  41
BRANCH  28  52
ATOM     52  C   UNL     1       4.523   2.303  -9.987  1.00  0.00     0.064 A 
ATOM     53  C   UNL     1       5.403   1.592 -10.811  1.00  0.00     0.173 A 
ATOM     54  C   UNL     1       3.149   2.037 -10.123  1.00  0.00     0.173 A 
ATOM     55  F   UNL     1       6.722   1.817 -10.734  1.00  0.00    -0.203 F 
ATOM     56  C   UNL     1       4.931   0.652 -11.729  1.00  0.00     0.198 A 
ATOM     57  C   UNL     1       2.681   1.077 -11.019  1.00  0.00     0.198 A 
ATOM     58  F   UNL     1       2.259   2.687  -9.358  1.00  0.00    -0.203 F 
ATOM     59  F   UNL     1       5.793   0.000 -12.521  1.00  0.00    -0.200 F 
ATOM     60  C   UNL     1       3.572   0.388 -11.824  1.00  0.00     0.200 A 
ATOM     61  F   UNL     1       1.369   0.814 -11.091  1.00  0.00    -0.200 F 
ATOM     62  F   UNL     1       3.123  -0.529 -12.691  1.00  0.00    -0.200 F 
ENDBRANCH  28  52
BRANCH  40  63
ATOM     63  C   UNL     1       7.619   8.593 -10.051  1.00  0.00     0.064 A 
ATOM     64  C   UNL     1       6.749   9.336 -10.858  1.00  0.00     0.173 A 
ATOM     65  C   UNL     1       9.001   8.765 -10.221  1.00  0.00     0.173 A 
ATOM     66  F   UNL     1       5.421   9.190 -10.735  1.00  0.00    -0.203 F 
ATOM     67  C   UNL     1       7.249  10.227 -11.801  1.00  0.00     0.198 A 
ATOM     68  C   UNL     1       9.495   9.678 -11.142  1.00  0.00     0.198 A 
ATOM     69  F   UNL     1       9.867   8.077  -9.460  1.00  0.00    -0.203 F 
ATOM     70  F   UNL     1       6.404  10.917 -12.580  1.00  0.00    -0.200 F 
ATOM     71  C   UNL     1       8.619  10.408 -11.932  1.00  0.00     0.200 A 
ATOM     72  F   UNL     1      10.817   9.867 -11.252  1.00  0.00    -0.200 F 
ATOM     73  F   UNL     1       9.096  11.292 -12.819  1.00  0.00    -0.200 F 
ENDBRANCH  40  63
ENDBRANCH  14  15
ENDBRANCH   7   9
ENDBRANCH   6   7
ENDBRANCH   5   6
ENDBRANCH   4   5
ENDBRANCH   3   4
ENDBRANCH   2   3
ENDBRANCH   1   2
BRANCH   1  74
ATOM     74  O   UNL     1       3.163  -3.492  -1.081  1.00  0.00    -0.377 OA
BRANCH  74  75
ATOM     75  C   UNL     1       4.520  -3.138  -1.290  1.00  0.00     0.188 C 
BRANCH  75  76
ATOM     76  C   UNL     1       5.034  -2.603  -2.619  1.00  0.00     0.188 C 
BRANCH  76  77
ATOM     77  O   UNL     1       4.143  -2.393  -3.688  1.00  0.00    -0.376 OA
BRANCH  77  78
ATOM     78  C   UNL     1       3.208  -3.404  -4.048  1.00  0.00     0.202 C 
BRANCH  78  79
ATOM     79  C   UNL     1       3.585  -4.899  -4.040  1.00  0.00     0.261 C 
BRANCH  79  80
ATOM     80  O   UNL     1       3.562  -5.527  -2.732  1.00  0.00    -0.459 OA
BRANCH  80  81
ATOM     81  C   UNL     1       4.698  -6.115  -2.282  1.00  0.00     0.365 C 
ATOM     82  O   UNL     1       5.748  -6.112  -2.938  1.00  0.00    -0.245 OA
BRANCH  81  83
ATOM     83  C   UNL     1       4.675  -6.694  -0.833  1.00  0.00     0.295 C 
ATOM     84  C   UNL     1       5.198  -5.790   0.312  1.00  0.00     0.078 C 
ATOM     85  N   UNL     1       3.473  -7.461  -0.409  1.00  0.00    -0.313 N 
ATOM     86  C   UNL     1       5.388  -6.512   1.649  1.00  0.00     0.016 C 
ATOM     87  C   UNL     1       3.843  -8.328   0.736  1.00  0.00     0.188 C 
ATOM     88  H   UNL     1       3.189  -8.054  -1.189  1.00  0.00     0.349 HD
ATOM     89  C   UNL     1       5.185  -8.001   1.458  1.00  0.00     0.048 C 
ATOM     90  C   UNL     1       3.975  -9.782   0.253  1.00  0.00     0.065 C 
ATOM     91  C   UNL     1       5.251  -8.803   2.756  1.00  0.00     0.010 C 
ATOM     92  C   UNL     1       4.161 -10.721   1.450  1.00  0.00     0.006 C 
ATOM     93  C   UNL     1       5.274 -10.295   2.416  1.00  0.00     0.001 C 
BRANCH  85  94
ATOM     94  C   UNL     1       2.230  -6.656  -0.213  1.00  0.00     0.244 C 
ATOM     95  C   UNL     1       1.961  -5.904   1.137  1.00  0.00     0.328 C 
ATOM     96  C   UNL     1       0.936  -7.465  -0.542  1.00  0.00     0.064 C 
ATOM     97  N   UNL     1       0.581  -6.103   1.655  1.00  0.00    -0.330 N 
ATOM     98  C   UNL     1      -0.207  -6.433  -0.694  1.00  0.00     0.071 C 
ATOM     99  C   UNL     1       0.516  -8.376   0.624  1.00  0.00     0.071 C 
ATOM    100  C   UNL     1      -0.397  -5.678   0.632  1.00  0.00     0.262 C 
ATOM    101  C   UNL     1       0.397  -7.547   1.914  1.00  0.00     0.262 C 
ATOM    102  H   UNL     1       0.442  -5.557   2.505  1.00  0.00     0.348 HD
ENDBRANCH  85  94
ENDBRANCH  81  83
ENDBRANCH  80  81
ENDBRANCH  79  80
ENDBRANCH  78  79
ENDBRANCH  77  78
ENDBRANCH  76  77
ENDBRANCH  75  76
ENDBRANCH  74  75
ENDBRANCH   1  74
TORSDOF 21
