REMARK SMILES Cc1cscc1C(=O)Nc1cc(Br)ccc1C(=O)OCCOCCOCCOCCOC(=O)c1ccc(-c2c3nc(c(-c4c(F)c(F)c(F)c(F)c4F)c4ccc([nH]4)c(-c4c(F)c(F)c(F)c(F)c4F)c4nc(c(-c5c(F)c(F)c(F)c(F)c5F)c5ccc2[nH]5)C=C4)C=C3)cc1
REMARK SMILES IDX 25 1 24 2 23 3 22 4 21 5 20 6 19 7 17 8 18 9 16 10 10 11
REMARK SMILES IDX 11 12 12 13 15 14 13 15 14 16 9 17 7 18 8 19 6 21 1 22 2 23
REMARK SMILES IDX 3 24 4 25 5 26 26 27 27 28 28 29 29 30 30 31 31 32 32 33
REMARK SMILES IDX 33 34 34 35 35 36 96 37 36 38 95 39 37 40 38 41 39 42 89 43
REMARK SMILES IDX 40 44 94 45 88 46 90 47 41 48 93 49 87 50 86 51 42 53 74 54
REMARK SMILES IDX 54 55 73 56 55 57 58 58 72 59 91 60 56 61 57 62 71 64 92 65
REMARK SMILES IDX 59 66 43 67 44 68 52 69 45 70 46 71 50 72 53 73 47 74 48 75
REMARK SMILES IDX 51 76 49 77 75 78 76 79 84 80 77 81 78 82 82 83 85 84 79 85
REMARK SMILES IDX 80 86 83 87 81 88 60 89 61 90 69 91 62 92 63 93 67 94 70 95
REMARK SMILES IDX 64 96 65 97 68 98 66 99
REMARK H PARENT 9 20 90 52 58 63
REMARK Flexibility Score: inf
ROOT
ATOM      1  O   UNL     1       3.145   2.646   3.217  1.00  0.00    -0.377 OA
ENDROOT
BRANCH   1   2
ATOM      2  C   UNL     1       3.914   1.456   3.268  1.00  0.00     0.188 C 
BRANCH   2   3
ATOM      3  C   UNL     1       5.411   1.632   3.573  1.00  0.00     0.188 C 
BRANCH   3   4
ATOM      4  O   UNL     1       5.718   2.894   4.135  1.00  0.00    -0.376 OA
BRANCH   4   5
ATOM      5  C   UNL     1       6.224   3.933   3.319  1.00  0.00     0.202 C 
BRANCH   5   6
ATOM      6  C   UNL     1       5.541   4.334   1.997  1.00  0.00     0.261 C 
BRANCH   6   7
ATOM      7  O   UNL     1       4.996   3.281   1.190  1.00  0.00    -0.460 OA
BRANCH   7   8
ATOM      8  C   UNL     1       5.878   2.496   0.542  1.00  0.00     0.340 C 
ATOM      9  O   UNL     1       7.091   2.630   0.569  1.00  0.00    -0.246 OA
BRANCH   8  10
ATOM     10  C   UNL     1       5.197   1.346  -0.130  1.00  0.00     0.083 A 
ATOM     11  C   UNL     1       3.859   1.321  -0.594  1.00  0.00     0.057 A 
ATOM     12  C   UNL     1       3.478   0.303  -1.471  1.00  0.00     0.042 A 
ATOM     13  C   UNL     1       4.318  -0.794  -1.677  1.00  0.00     0.020 A 
ATOM     14  C   UNL     1       5.989   0.195  -0.271  1.00  0.00     0.019 A 
ATOM     15  Br  UNL     1       3.770  -2.198  -2.817  1.00  0.00    -0.051 Br
ATOM     16  C   UNL     1       5.534  -0.892  -1.010  1.00  0.00     0.017 A 
BRANCH  11  17
ATOM     17  N   UNL     1       2.938   2.280  -0.147  1.00  0.00    -0.321 N 
ATOM     18  C   UNL     1       1.568   2.349  -0.034  1.00  0.00     0.256 C 
ATOM     19  O   UNL     1       1.121   3.488   0.155  1.00  0.00    -0.269 OA
ATOM     20  H   UNL     1       3.379   3.105   0.162  1.00  0.00     0.170 HD
BRANCH  18  21
ATOM     21  C   UNL     1       0.629   1.203  -0.076  1.00  0.00     0.053 A 
ATOM     22  C   UNL     1       1.879  -0.991   0.810  1.00  0.00     0.046 C 
ATOM     23  C   UNL     1       0.725  -0.216   0.269  1.00  0.00    -0.028 A 
ATOM     24  C   UNL     1      -0.483  -0.871   0.070  1.00  0.00     0.069 A 
ATOM     25  S   UNL     1      -1.748   0.161  -0.387  1.00  0.00    -0.151 S 
ATOM     26  C   UNL     1      -0.700   1.498  -0.379  1.00  0.00     0.079 A 
ENDBRANCH  18  21
ENDBRANCH  11  17
ENDBRANCH   8  10
ENDBRANCH   7   8
ENDBRANCH   6   7
ENDBRANCH   5   6
ENDBRANCH   4   5
ENDBRANCH   3   4
ENDBRANCH   2   3
ENDBRANCH   1   2
BRANCH   1  27
ATOM     27  C   UNL     1       2.938   3.399   4.414  1.00  0.00     0.188 C 
BRANCH  27  28
ATOM     28  C   UNL     1       3.525   2.978   5.785  1.00  0.00     0.188 C 
BRANCH  28  29
ATOM     29  O   UNL     1       3.794   1.592   5.910  1.00  0.00    -0.376 OA
BRANCH  29  30
ATOM     30  C   UNL     1       2.958   0.818   6.748  1.00  0.00     0.202 C 
BRANCH  30  31
ATOM     31  C   UNL     1       1.499   0.663   6.304  1.00  0.00     0.261 C 
BRANCH  31  32
ATOM     32  O   UNL     1       0.792   1.884   6.037  1.00  0.00    -0.460 OA
BRANCH  32  33
ATOM     33  C   UNL     1       0.552   2.701   7.083  1.00  0.00     0.338 C 
ATOM     34  O   UNL     1       0.866   2.520   8.250  1.00  0.00    -0.246 OA
BRANCH  33  35
ATOM     35  C   UNL     1      -0.003   3.960   6.549  1.00  0.00     0.060 A 
ATOM     36  C   UNL     1       0.695   5.158   6.753  1.00  0.00     0.016 A 
ATOM     37  C   UNL     1      -1.202   3.951   5.833  1.00  0.00     0.016 A 
ATOM     38  C   UNL     1       0.175   6.358   6.267  1.00  0.00     0.010 A 
ATOM     39  C   UNL     1      -1.731   5.156   5.366  1.00  0.00     0.010 A 
ATOM     40  C   UNL     1      -1.061   6.368   5.608  1.00  0.00    -0.014 A 
BRANCH  40  41
ATOM     41  C   UNL     1      -1.744   7.656   5.335  1.00  0.00     0.031 A 
ATOM     42  C   UNL     1      -2.815   8.112   6.286  1.00  0.00     0.074 A 
ATOM     43  C   UNL     1      -1.419   8.410   4.271  1.00  0.00     0.049 A 
ATOM     44  N   UNL     1      -3.594   9.161   6.227  1.00  0.00    -0.248 NA
ATOM     45  C   UNL     1      -3.040   7.261   7.466  1.00  0.00     0.031 C 
ATOM     46  C   UNL     1      -0.377   8.094   3.298  1.00  0.00     0.029 A 
ATOM     47  N   UNL     1      -1.951   9.595   3.826  1.00  0.00    -0.354 N 
ATOM     48  C   UNL     1      -4.405   9.091   7.352  1.00  0.00     0.074 A 
ATOM     49  C   UNL     1      -4.048   7.881   8.059  1.00  0.00     0.031 C 
ATOM     50  C   UNL     1      -0.352   9.057   2.360  1.00  0.00     0.029 A 
ATOM     51  C   UNL     1      -1.402  10.034   2.646  1.00  0.00     0.049 A 
ATOM     52  H   UNL     1      -2.657  10.084   4.307  1.00  0.00     0.167 HD
ATOM     53  C   UNL     1      -5.358   9.962   7.761  1.00  0.00     0.037 A 
ATOM     54  C   UNL     1      -1.734  11.087   1.874  1.00  0.00     0.037 A 
ATOM     55  C   UNL     1      -5.715  11.161   7.048  1.00  0.00     0.049 A 
ATOM     56  C   UNL     1      -2.855  11.999   2.308  1.00  0.00     0.074 A 
ATOM     57  C   UNL     1      -6.652  12.120   7.389  1.00  0.00     0.029 A 
ATOM     58  N   UNL     1      -5.159  11.556   5.840  1.00  0.00    -0.354 N 
ATOM     59  N   UNL     1      -3.597  11.948   3.388  1.00  0.00    -0.248 NA
ATOM     60  C   UNL     1      -3.181  13.120   1.414  1.00  0.00     0.031 C 
ATOM     61  C   UNL     1      -6.711  13.060   6.355  1.00  0.00     0.029 A 
ATOM     62  C   UNL     1      -5.758  12.728   5.405  1.00  0.00     0.049 A 
ATOM     63  H   UNL     1      -4.445  11.076   5.362  1.00  0.00     0.167 HD
ATOM     64  C   UNL     1      -4.453  13.041   3.319  1.00  0.00     0.074 A 
ATOM     65  C   UNL     1      -4.128  13.747   2.098  1.00  0.00     0.031 C 
ATOM     66  C   UNL     1      -5.421  13.425   4.189  1.00  0.00     0.037 A 
BRANCH  53  67
ATOM     67  C   UNL     1      -6.107   9.629   9.019  1.00  0.00     0.064 A 
ATOM     68  C   UNL     1      -5.492   9.659  10.280  1.00  0.00     0.173 A 
ATOM     69  C   UNL     1      -7.470   9.297   8.965  1.00  0.00     0.173 A 
ATOM     70  F   UNL     1      -4.188   9.955  10.388  1.00  0.00    -0.203 F 
ATOM     71  C   UNL     1      -6.203   9.338  11.433  1.00  0.00     0.198 A 
ATOM     72  C   UNL     1      -8.187   9.012  10.123  1.00  0.00     0.198 A 
ATOM     73  F   UNL     1      -8.110   9.257   7.786  1.00  0.00    -0.203 F 
ATOM     74  F   UNL     1      -5.580   9.318  12.620  1.00  0.00    -0.200 F 
ATOM     75  C   UNL     1      -7.551   9.023  11.355  1.00  0.00     0.200 A 
ATOM     76  F   UNL     1      -9.493   8.723  10.047  1.00  0.00    -0.200 F 
ATOM     77  F   UNL     1      -8.237   8.722  12.467  1.00  0.00    -0.200 F 
ENDBRANCH  53  67
BRANCH  54  78
ATOM     78  C   UNL     1      -1.007  11.333   0.599  1.00  0.00     0.064 A 
ATOM     79  C   UNL     1      -0.195  12.464   0.434  1.00  0.00     0.173 A 
ATOM     80  C   UNL     1      -1.128  10.455  -0.489  1.00  0.00     0.173 A 
ATOM     81  F   UNL     1      -0.070  13.350   1.434  1.00  0.00    -0.203 F 
ATOM     82  C   UNL     1       0.453  12.716  -0.773  1.00  0.00     0.198 A 
ATOM     83  C   UNL     1      -0.453  10.691  -1.685  1.00  0.00     0.198 A 
ATOM     84  F   UNL     1      -1.899   9.363  -0.388  1.00  0.00    -0.203 F 
ATOM     85  F   UNL     1       1.181  13.832  -0.920  1.00  0.00    -0.200 F 
ATOM     86  C   UNL     1       0.330  11.825  -1.829  1.00  0.00     0.200 A 
ATOM     87  F   UNL     1      -0.567   9.823  -2.699  1.00  0.00    -0.200 F 
ATOM     88  F   UNL     1       0.956  12.067  -2.989  1.00  0.00    -0.200 F 
ENDBRANCH  54  78
BRANCH  66  89
ATOM     89  C   UNL     1      -6.171  14.692   3.879  1.00  0.00     0.064 A 
ATOM     90  C   UNL     1      -7.076  14.776   2.811  1.00  0.00     0.173 A 
ATOM     91  C   UNL     1      -6.012  15.825   4.692  1.00  0.00     0.173 A 
ATOM     92  F   UNL     1      -7.257  13.726   1.994  1.00  0.00    -0.203 F 
ATOM     93  C   UNL     1      -7.770  15.955   2.550  1.00  0.00     0.198 A 
ATOM     94  C   UNL     1      -6.735  16.991   4.451  1.00  0.00     0.198 A 
ATOM     95  F   UNL     1      -5.168  15.799   5.734  1.00  0.00    -0.203 F 
ATOM     96  F   UNL     1      -8.588  16.029   1.491  1.00  0.00    -0.200 F 
ATOM     97  C   UNL     1      -7.606  17.058   3.375  1.00  0.00     0.200 A 
ATOM     98  F   UNL     1      -6.589  18.048   5.262  1.00  0.00    -0.200 F 
ATOM     99  F   UNL     1      -8.282  18.189   3.128  1.00  0.00    -0.200 F 
ENDBRANCH  66  89
ENDBRANCH  40  41
ENDBRANCH  33  35
ENDBRANCH  32  33
ENDBRANCH  31  32
ENDBRANCH  30  31
ENDBRANCH  29  30
ENDBRANCH  28  29
ENDBRANCH  27  28
ENDBRANCH   1  27
TORSDOF 22
