REMARK SMILES O=C(OCCOCCOCCOCCOC(=O)[C@H]1C[C@H](O)CN1S(=O)(=O)c1ccc2c(c1)OCCO2)c1ccc(-c2c3nc(c(-c4c(F)c(F)c(F)c(F)c4F)c4ccc([nH]4)c(-c4c(F)c(F)c(F)c(F)c4F)c4nc(c(-c5c(F)c(F)c(F)c(F)c5F)c5ccc2[nH]5)C=C4)C=C3)cc1
REMARK SMILES IDX 9 1 8 2 7 3 6 4 5 5 4 6 3 7 2 8 1 9 37 10 38 11 99 12 39 13
REMARK SMILES IDX 98 14 40 15 41 16 42 17 92 18 43 19 97 20 91 21 93 22 44 23
REMARK SMILES IDX 96 24 90 25 89 26 45 28 77 29 57 30 76 31 58 32 61 33 75 34
REMARK SMILES IDX 94 35 59 36 60 37 74 39 95 40 62 41 46 42 47 43 55 44 48 45
REMARK SMILES IDX 49 46 53 47 56 48 50 49 51 50 54 51 52 52 78 53 79 54 87 55
REMARK SMILES IDX 80 56 81 57 85 58 88 59 82 60 83 61 86 62 84 63 63 64 64 65
REMARK SMILES IDX 72 66 65 67 66 68 70 69 73 70 67 71 68 72 71 73 69 74 10 75
REMARK SMILES IDX 11 76 12 77 13 78 14 79 15 80 16 81 17 82 18 83 19 84 23 85
REMARK SMILES IDX 20 86 22 87 24 88 25 89 26 90 27 91 28 92 32 93 29 94 31 95
REMARK SMILES IDX 30 96 33 97 36 98 34 99 35 100 21 101
REMARK H PARENT 93 27 61 38 21 102
REMARK Flexibility Score: inf
ROOT
ATOM      1  O   UNL     1       3.306   3.582  -0.610  1.00  0.00    -0.377 OA
ENDROOT
BRANCH   1   2
ATOM      2  C   UNL     1       2.283   2.659  -0.241  1.00  0.00     0.188 C 
BRANCH   2   3
ATOM      3  C   UNL     1       2.511   1.254  -0.773  1.00  0.00     0.188 C 
BRANCH   3   4
ATOM      4  O   UNL     1       3.782   0.809  -0.338  1.00  0.00    -0.376 OA
BRANCH   4   5
ATOM      5  C   UNL     1       4.620   0.113  -1.242  1.00  0.00     0.202 C 
BRANCH   5   6
ATOM      6  C   UNL     1       4.124  -1.268  -1.631  1.00  0.00     0.261 C 
BRANCH   6   7
ATOM      7  O   UNL     1       2.775  -1.564  -1.227  1.00  0.00    -0.460 OA
BRANCH   7   8
ATOM      8  C   UNL     1       2.247  -1.878  -0.021  1.00  0.00     0.338 C 
ATOM      9  O   UNL     1       1.039  -2.104   0.043  1.00  0.00    -0.246 OA
BRANCH   8  10
ATOM     10  C   UNL     1       3.030  -2.017   1.239  1.00  0.00     0.060 A 
ATOM     11  C   UNL     1       4.117  -1.232   1.603  1.00  0.00     0.016 A 
ATOM     12  C   UNL     1       2.562  -2.943   2.184  1.00  0.00     0.016 A 
ATOM     13  C   UNL     1       4.809  -1.423   2.777  1.00  0.00     0.010 A 
ATOM     14  C   UNL     1       3.215  -3.111   3.410  1.00  0.00     0.010 A 
ATOM     15  C   UNL     1       4.374  -2.376   3.680  1.00  0.00    -0.014 A 
BRANCH  15  16
ATOM     16  C   UNL     1       5.311  -2.704   4.761  1.00  0.00     0.031 A 
ATOM     17  C   UNL     1       6.082  -3.980   4.623  1.00  0.00     0.074 A 
ATOM     18  C   UNL     1       5.625  -1.769   5.675  1.00  0.00     0.049 A 
ATOM     19  N   UNL     1       6.943  -4.521   5.437  1.00  0.00    -0.248 NA
ATOM     20  C   UNL     1       5.869  -4.744   3.378  1.00  0.00     0.031 C 
ATOM     21  C   UNL     1       5.055  -0.417   5.734  1.00  0.00     0.029 A 
ATOM     22  N   UNL     1       6.538  -1.787   6.692  1.00  0.00    -0.354 N 
ATOM     23  C   UNL     1       7.344  -5.698   4.821  1.00  0.00     0.074 A 
ATOM     24  C   UNL     1       6.629  -5.807   3.573  1.00  0.00     0.031 C 
ATOM     25  C   UNL     1       5.645   0.266   6.727  1.00  0.00     0.029 A 
ATOM     26  C   UNL     1       6.559  -0.627   7.426  1.00  0.00     0.049 A 
ATOM     27  H   UNL     1       7.122  -2.557   6.880  1.00  0.00     0.167 HD
ATOM     28  C   UNL     1       8.236  -6.605   5.275  1.00  0.00     0.037 A 
ATOM     29  C   UNL     1       7.210  -0.356   8.571  1.00  0.00     0.037 A 
ATOM     30  C   UNL     1       8.923  -6.449   6.526  1.00  0.00     0.049 A 
ATOM     31  C   UNL     1       8.085  -1.446   9.133  1.00  0.00     0.074 A 
ATOM     32  C   UNL     1       9.760  -7.332   7.176  1.00  0.00     0.029 A 
ATOM     33  N   UNL     1       8.844  -5.305   7.315  1.00  0.00    -0.354 N 
ATOM     34  N   UNL     1       8.371  -2.623   8.624  1.00  0.00    -0.248 NA
ATOM     35  C   UNL     1       8.714  -1.184  10.431  1.00  0.00     0.031 C 
ATOM     36  C   UNL     1      10.150  -6.740   8.383  1.00  0.00     0.029 A 
ATOM     37  C   UNL     1       9.609  -5.463   8.454  1.00  0.00     0.049 A 
ATOM     38  H   UNL     1       8.320  -4.502   7.093  1.00  0.00     0.167 HD
ATOM     39  C   UNL     1       9.227  -3.235   9.526  1.00  0.00     0.074 A 
ATOM     40  C   UNL     1       9.435  -2.283  10.601  1.00  0.00     0.031 C 
ATOM     41  C   UNL     1       9.786  -4.471   9.486  1.00  0.00     0.037 A 
BRANCH  28  42
ATOM     42  C   UNL     1       8.427  -7.844   4.455  1.00  0.00     0.064 A 
ATOM     43  C   UNL     1       9.076  -7.823   3.211  1.00  0.00     0.173 A 
ATOM     44  C   UNL     1       7.896  -9.066   4.896  1.00  0.00     0.173 A 
ATOM     45  F   UNL     1       9.563  -6.673   2.723  1.00  0.00    -0.203 F 
ATOM     46  C   UNL     1       9.161  -8.973   2.427  1.00  0.00     0.198 A 
ATOM     47  C   UNL     1       8.008 -10.219   4.123  1.00  0.00     0.198 A 
ATOM     48  F   UNL     1       7.247  -9.137   6.068  1.00  0.00    -0.203 F 
ATOM     49  F   UNL     1       9.726  -8.914   1.213  1.00  0.00    -0.200 F 
ATOM     50  C   UNL     1       8.633 -10.170   2.886  1.00  0.00     0.200 A 
ATOM     51  F   UNL     1       7.494 -11.374   4.568  1.00  0.00    -0.200 F 
ATOM     52  F   UNL     1       8.708 -11.272   2.128  1.00  0.00    -0.200 F 
ENDBRANCH  28  42
BRANCH  29  53
ATOM     53  C   UNL     1       6.987   0.927   9.292  1.00  0.00     0.064 A 
ATOM     54  C   UNL     1       8.037   1.819   9.552  1.00  0.00     0.173 A 
ATOM     55  C   UNL     1       5.715   1.269   9.783  1.00  0.00     0.173 A 
ATOM     56  F   UNL     1       9.276   1.538   9.124  1.00  0.00    -0.203 F 
ATOM     57  C   UNL     1       7.831   2.978  10.302  1.00  0.00     0.198 A 
ATOM     58  C   UNL     1       5.503   2.446  10.498  1.00  0.00     0.198 A 
ATOM     59  F   UNL     1       4.670   0.456   9.571  1.00  0.00    -0.203 F 
ATOM     60  F   UNL     1       8.868   3.776  10.594  1.00  0.00    -0.200 F 
ATOM     61  C   UNL     1       6.565   3.292  10.771  1.00  0.00     0.200 A 
ATOM     62  F   UNL     1       4.273   2.749  10.935  1.00  0.00    -0.200 F 
ATOM     63  F   UNL     1       6.371   4.400  11.499  1.00  0.00    -0.200 F 
ENDBRANCH  29  53
BRANCH  41  64
ATOM     64  C   UNL     1      10.703  -4.826  10.616  1.00  0.00     0.064 A 
ATOM     65  C   UNL     1      10.219  -5.071  11.908  1.00  0.00     0.173 A 
ATOM     66  C   UNL     1      12.081  -4.956  10.386  1.00  0.00     0.173 A 
ATOM     67  F   UNL     1       8.911  -4.942  12.176  1.00  0.00    -0.203 F 
ATOM     68  C   UNL     1      11.089  -5.400  12.941  1.00  0.00     0.198 A 
ATOM     69  C   UNL     1      12.941  -5.325  11.413  1.00  0.00     0.198 A 
ATOM     70  F   UNL     1      12.587  -4.742   9.163  1.00  0.00    -0.203 F 
ATOM     71  F   UNL     1      10.615  -5.570  14.183  1.00  0.00    -0.200 F 
ATOM     72  C   UNL     1      12.447  -5.536  12.691  1.00  0.00     0.200 A 
ATOM     73  F   UNL     1      14.250  -5.475  11.166  1.00  0.00    -0.200 F 
ATOM     74  F   UNL     1      13.282  -5.863  13.687  1.00  0.00    -0.200 F 
ENDBRANCH  41  64
ENDBRANCH  15  16
ENDBRANCH   8  10
ENDBRANCH   7   8
ENDBRANCH   6   7
ENDBRANCH   5   6
ENDBRANCH   4   5
ENDBRANCH   3   4
ENDBRANCH   2   3
ENDBRANCH   1   2
BRANCH   1  75
ATOM     75  C   UNL     1       4.666   3.282  -0.298  1.00  0.00     0.188 C 
BRANCH  75  76
ATOM     76  C   UNL     1       5.063   2.907   1.145  1.00  0.00     0.188 C 
BRANCH  76  77
ATOM     77  O   UNL     1       3.967   2.682   2.013  1.00  0.00    -0.376 OA
BRANCH  77  78
ATOM     78  C   UNL     1       3.737   3.660   3.014  1.00  0.00     0.202 C 
BRANCH  78  79
ATOM     79  C   UNL     1       3.253   5.069   2.619  1.00  0.00     0.261 C 
BRANCH  79  80
ATOM     80  O   UNL     1       3.501   5.534   1.289  1.00  0.00    -0.462 OA
BRANCH  80  81
ATOM     81  C   UNL     1       4.742   6.002   1.022  1.00  0.00     0.324 C 
ATOM     82  O   UNL     1       5.706   5.891   1.774  1.00  0.00    -0.250 OA
BRANCH  81  83
ATOM     83  C   UNL     1       4.821   6.745  -0.313  1.00  0.00     0.185 C 
ATOM     84  C   UNL     1       3.891   6.331  -1.472  1.00  0.00     0.065 C 
ATOM     85  N   UNL     1       4.712   8.238  -0.209  1.00  0.00    -0.181 NA
ATOM     86  C   UNL     1       3.284   7.607  -2.023  1.00  0.00     0.131 C 
ATOM     87  C   UNL     1       4.275   8.666  -1.571  1.00  0.00     0.135 C 
BRANCH  85  88
ATOM     88  S   UNL     1       3.760   8.775   1.111  1.00  0.00     0.244 S 
ATOM     89  O   UNL     1       2.372   8.548   0.788  1.00  0.00    -0.207 OA
ATOM     90  O   UNL     1       4.319   8.268   2.348  1.00  0.00    -0.207 OA
BRANCH  88  91
ATOM     91  C   UNL     1       4.072  10.500   1.115  1.00  0.00     0.086 A 
ATOM     92  C   UNL     1       5.038  11.028   1.980  1.00  0.00     0.026 A 
ATOM     93  C   UNL     1       3.308  11.309   0.284  1.00  0.00     0.072 A 
ATOM     94  C   UNL     1       5.232  12.403   2.017  1.00  0.00     0.052 A 
ATOM     95  C   UNL     1       3.562  12.664   0.273  1.00  0.00     0.162 A 
ATOM     96  C   UNL     1       4.482  13.220   1.173  1.00  0.00     0.161 A 
ATOM     97  O   UNL     1       2.862  13.393  -0.652  1.00  0.00    -0.486 OA
ATOM     98  O   UNL     1       4.684  14.572   1.278  1.00  0.00    -0.486 OA
ATOM     99  C   UNL     1       3.408  14.709  -0.770  1.00  0.00     0.271 C 
ATOM    100  C   UNL     1       3.629  15.287   0.618  1.00  0.00     0.271 C 
ENDBRANCH  88  91
ENDBRANCH  85  88
BRANCH  86 101
ATOM    101  O   UNL     1       3.133   7.607  -3.435  1.00  0.00    -0.392 OA
ATOM    102  H   UNL     1       3.999   7.473  -3.852  1.00  0.00     0.211 HD
ENDBRANCH  86 101
ENDBRANCH  81  83
ENDBRANCH  80  81
ENDBRANCH  79  80
ENDBRANCH  78  79
ENDBRANCH  77  78
ENDBRANCH  76  77
ENDBRANCH  75  76
ENDBRANCH   1  75
TORSDOF 23
