REMARK SMILES C[C@@H](C(=O)OCCOCCOCCOCCOC(=O)c1ccc(-c2c3nc(c(-c4c(F)c(F)c(F)c(F)c4F)c4ccc([nH]4)c(-c4c(F)c(F)c(F)c(F)c4F)c4nc(c(-c5c(F)c(F)c(F)c(F)c5F)c5ccc2[nH]5)C=C4)C=C3)cc1)c1ccc(C[C@H]2CCCC2=O)cc1F
REMARK SMILES IDX 10 1 9 2 8 3 7 4 6 5 5 6 3 7 4 8 2 9 1 10 83 11 84 12 95 13
REMARK SMILES IDX 85 14 94 15 96 16 86 17 87 18 88 19 89 20 92 21 90 22 91 23
REMARK SMILES IDX 93 24 11 25 12 26 13 27 14 28 15 29 16 30 17 31 18 32 19 33
REMARK SMILES IDX 20 34 21 35 82 36 22 37 81 38 23 39 24 40 25 41 75 42 26 43
REMARK SMILES IDX 80 44 74 45 76 46 27 47 79 48 73 49 72 50 28 52 60 53 40 54
REMARK SMILES IDX 59 55 41 56 44 57 58 58 77 59 42 60 43 61 57 63 78 64 45 65
REMARK SMILES IDX 29 66 30 67 38 68 31 69 32 70 36 71 39 72 33 73 34 74 37 75
REMARK SMILES IDX 35 76 61 77 62 78 70 79 63 80 64 81 68 82 71 83 65 84 66 85
REMARK SMILES IDX 69 86 67 87 46 88 47 89 55 90 48 91 49 92 53 93 56 94 50 95
REMARK SMILES IDX 51 96 54 97 52 98
REMARK H PARENT 76 51 44 62
REMARK Flexibility Score: inf
ROOT
ATOM      1  C   UNL     1       1.172  -2.889  -0.655  1.00  0.00     0.188 C 
ENDROOT
BRANCH   1   2
ATOM      2  C   UNL     1       0.560  -3.495  -1.931  1.00  0.00     0.188 C 
BRANCH   2   3
ATOM      3  O   UNL     1       1.460  -4.178  -2.774  1.00  0.00    -0.376 OA
BRANCH   3   4
ATOM      4  C   UNL     1       2.418  -3.449  -3.521  1.00  0.00     0.202 C 
BRANCH   4   5
ATOM      5  C   UNL     1       2.572  -1.909  -3.595  1.00  0.00     0.261 C 
BRANCH   5   6
ATOM      6  O   UNL     1       1.992  -1.062  -2.591  1.00  0.00    -0.463 OA
BRANCH   6   7
ATOM      7  C   UNL     1       0.848  -0.401  -2.918  1.00  0.00     0.313 C 
ATOM      8  O   UNL     1       0.274  -0.540  -3.994  1.00  0.00    -0.252 OA
BRANCH   7   9
ATOM      9  C   UNL     1       0.369   0.590  -1.837  1.00  0.00     0.129 C 
ATOM     10  C   UNL     1       1.120   0.638  -0.500  1.00  0.00     0.025 C 
BRANCH   9  11
ATOM     11  C   UNL     1      -1.141   0.535  -1.623  1.00  0.00     0.002 A 
ATOM     12  C   UNL     1      -1.911   1.694  -1.772  1.00  0.00     0.008 A 
ATOM     13  C   UNL     1      -1.826  -0.639  -1.289  1.00  0.00     0.127 A 
ATOM     14  C   UNL     1      -3.305   1.650  -1.638  1.00  0.00     0.004 A 
ATOM     15  C   UNL     1      -3.208  -0.701  -1.176  1.00  0.00     0.043 A 
ATOM     16  F   UNL     1      -1.173  -1.763  -1.012  1.00  0.00    -0.207 F 
ATOM     17  C   UNL     1      -3.967   0.450  -1.345  1.00  0.00    -0.044 A 
BRANCH  17  18
ATOM     18  C   UNL     1      -5.463   0.389  -1.168  1.00  0.00     0.047 C 
BRANCH  18  19
ATOM     19  C   UNL     1      -5.980   0.797   0.215  1.00  0.00     0.060 C 
ATOM     20  C   UNL     1      -5.437   0.014   1.414  1.00  0.00     0.012 C 
ATOM     21  C   UNL     1      -5.587   2.214   0.555  1.00  0.00     0.136 C 
ATOM     22  C   UNL     1      -4.293   0.837   1.996  1.00  0.00     0.009 C 
ATOM     23  C   UNL     1      -4.633   2.294   1.715  1.00  0.00     0.076 C 
ATOM     24  O   UNL     1      -5.993   3.196  -0.057  1.00  0.00    -0.299 OA
ENDBRANCH  18  19
ENDBRANCH  17  18
ENDBRANCH   9  11
ENDBRANCH   7   9
ENDBRANCH   6   7
ENDBRANCH   5   6
ENDBRANCH   4   5
ENDBRANCH   3   4
ENDBRANCH   2   3
ENDBRANCH   1   2
BRANCH   1  25
ATOM     25  O   UNL     1       2.580  -2.976  -0.581  1.00  0.00    -0.377 OA
BRANCH  25  26
ATOM     26  C   UNL     1       3.127  -4.217  -0.166  1.00  0.00     0.188 C 
BRANCH  26  27
ATOM     27  C   UNL     1       2.258  -5.495  -0.134  1.00  0.00     0.188 C 
BRANCH  27  28
ATOM     28  O   UNL     1       0.938  -5.315   0.357  1.00  0.00    -0.376 OA
BRANCH  28  29
ATOM     29  C   UNL     1       0.639  -5.645   1.703  1.00  0.00     0.202 C 
BRANCH  29  30
ATOM     30  C   UNL     1       1.302  -4.807   2.806  1.00  0.00     0.261 C 
BRANCH  30  31
ATOM     31  O   UNL     1       2.736  -4.762   2.799  1.00  0.00    -0.460 OA
BRANCH  31  32
ATOM     32  C   UNL     1       3.407  -5.934   2.889  1.00  0.00     0.338 C 
ATOM     33  O   UNL     1       2.946  -7.040   3.045  1.00  0.00    -0.246 OA
BRANCH  32  34
ATOM     34  C   UNL     1       4.819  -5.645   2.548  1.00  0.00     0.060 A 
ATOM     35  C   UNL     1       5.395  -6.288   1.444  1.00  0.00     0.016 A 
ATOM     36  C   UNL     1       5.551  -4.711   3.285  1.00  0.00     0.016 A 
ATOM     37  C   UNL     1       6.716  -6.019   1.089  1.00  0.00     0.010 A 
ATOM     38  C   UNL     1       6.884  -4.467   2.951  1.00  0.00     0.010 A 
ATOM     39  C   UNL     1       7.480  -5.145   1.873  1.00  0.00    -0.014 A 
BRANCH  39  40
ATOM     40  C   UNL     1       8.953  -5.128   1.716  1.00  0.00     0.031 A 
ATOM     41  C   UNL     1       9.763  -5.999   2.635  1.00  0.00     0.074 A 
ATOM     42  C   UNL     1       9.555  -4.384   0.774  1.00  0.00     0.049 A 
ATOM     43  N   UNL     1      11.060  -6.123   2.741  1.00  0.00    -0.248 NA
ATOM     44  C   UNL     1       8.999  -6.846   3.567  1.00  0.00     0.031 C 
ATOM     45  C   UNL     1       8.873  -3.545  -0.207  1.00  0.00     0.029 A 
ATOM     46  N   UNL     1      10.889  -4.213   0.499  1.00  0.00    -0.354 N 
ATOM     47  C   UNL     1      11.266  -7.049   3.755  1.00  0.00     0.074 A 
ATOM     48  C   UNL     1       9.965  -7.434   4.254  1.00  0.00     0.031 C 
ATOM     49  C   UNL     1       9.796  -2.936  -0.973  1.00  0.00     0.029 A 
ATOM     50  C   UNL     1      11.131  -3.314  -0.510  1.00  0.00     0.049 A 
ATOM     51  H   UNL     1      11.604  -4.689   0.979  1.00  0.00     0.167 HD
ATOM     52  C   UNL     1      12.438  -7.538   4.224  1.00  0.00     0.037 A 
ATOM     53  C   UNL     1      12.300  -2.837  -0.983  1.00  0.00     0.037 A 
ATOM     54  C   UNL     1      13.728  -7.148   3.724  1.00  0.00     0.049 A 
ATOM     55  C   UNL     1      13.594  -3.333  -0.383  1.00  0.00     0.074 A 
ATOM     56  C   UNL     1      14.976  -7.597   4.116  1.00  0.00     0.029 A 
ATOM     57  N   UNL     1      13.935  -6.204   2.729  1.00  0.00    -0.354 N 
ATOM     58  N   UNL     1      13.785  -4.227   0.558  1.00  0.00    -0.248 NA
ATOM     59  C   UNL     1      14.835  -2.753  -0.914  1.00  0.00     0.031 C 
ATOM     60  C   UNL     1      15.941  -6.875   3.406  1.00  0.00     0.029 A 
ATOM     61  C   UNL     1      15.294  -6.031   2.518  1.00  0.00     0.049 A 
ATOM     62  H   UNL     1      13.223  -5.727   2.244  1.00  0.00     0.167 HD
ATOM     63  C   UNL     1      15.163  -4.343   0.704  1.00  0.00     0.074 A 
ATOM     64  C   UNL     1      15.759  -3.435  -0.254  1.00  0.00     0.031 C 
ATOM     65  C   UNL     1      15.871  -5.130   1.552  1.00  0.00     0.037 A 
BRANCH  52  66
ATOM     66  C   UNL     1      12.376  -8.515   5.362  1.00  0.00     0.064 A 
ATOM     67  C   UNL     1      11.871  -9.814   5.201  1.00  0.00     0.173 A 
ATOM     68  C   UNL     1      12.850  -8.149   6.632  1.00  0.00     0.173 A 
ATOM     69  F   UNL     1      11.387 -10.208   4.013  1.00  0.00    -0.203 F 
ATOM     70  C   UNL     1      11.818 -10.700   6.274  1.00  0.00     0.198 A 
ATOM     71  C   UNL     1      12.828  -9.049   7.693  1.00  0.00     0.198 A 
ATOM     72  F   UNL     1      13.342  -6.919   6.842  1.00  0.00    -0.203 F 
ATOM     73  F   UNL     1      11.282 -11.918   6.109  1.00  0.00    -0.200 F 
ATOM     74  C   UNL     1      12.305 -10.321   7.516  1.00  0.00     0.200 A 
ATOM     75  F   UNL     1      13.311  -8.684   8.889  1.00  0.00    -0.200 F 
ATOM     76  F   UNL     1      12.261 -11.178   8.545  1.00  0.00    -0.200 F 
ENDBRANCH  52  66
BRANCH  53  77
ATOM     77  C   UNL     1      12.310  -1.824  -2.072  1.00  0.00     0.064 A 
ATOM     78  C   UNL     1      12.837  -2.125  -3.336  1.00  0.00     0.173 A 
ATOM     79  C   UNL     1      11.825  -0.524  -1.863  1.00  0.00     0.173 A 
ATOM     80  F   UNL     1      13.339  -3.345  -3.578  1.00  0.00    -0.203 F 
ATOM     81  C   UNL     1      12.898  -1.161  -4.341  1.00  0.00     0.198 A 
ATOM     82  C   UNL     1      11.857   0.430  -2.879  1.00  0.00     0.198 A 
ATOM     83  F   UNL     1      11.316  -0.179  -0.672  1.00  0.00    -0.203 F 
ATOM     84  F   UNL     1      13.458  -1.461  -5.521  1.00  0.00    -0.200 F 
ATOM     85  C   UNL     1      12.403   0.114  -4.113  1.00  0.00     0.200 A 
ATOM     86  F   UNL     1      11.367   1.657  -2.658  1.00  0.00    -0.200 F 
ATOM     87  F   UNL     1      12.461   1.040  -5.080  1.00  0.00    -0.200 F 
ENDBRANCH  53  77
BRANCH  65  88
ATOM     88  C   UNL     1      17.370  -5.088   1.451  1.00  0.00     0.064 A 
ATOM     89  C   UNL     1      18.111  -3.968   1.856  1.00  0.00     0.173 A 
ATOM     90  C   UNL     1      18.079  -6.208   0.985  1.00  0.00     0.173 A 
ATOM     91  F   UNL     1      17.483  -2.868   2.298  1.00  0.00    -0.203 F 
ATOM     92  C   UNL     1      19.501  -3.959   1.770  1.00  0.00     0.198 A 
ATOM     93  C   UNL     1      19.470  -6.209   0.936  1.00  0.00     0.198 A 
ATOM     94  F   UNL     1      17.421  -7.311   0.595  1.00  0.00    -0.203 F 
ATOM     95  F   UNL     1      20.184  -2.858   2.111  1.00  0.00    -0.200 F 
ATOM     96  C   UNL     1      20.179  -5.082   1.319  1.00  0.00     0.200 A 
ATOM     97  F   UNL     1      20.123  -7.303   0.519  1.00  0.00    -0.200 F 
ATOM     98  F   UNL     1      21.517  -5.075   1.247  1.00  0.00    -0.200 F 
ENDBRANCH  65  88
ENDBRANCH  39  40
ENDBRANCH  32  34
ENDBRANCH  31  32
ENDBRANCH  30  31
ENDBRANCH  29  30
ENDBRANCH  28  29
ENDBRANCH  27  28
ENDBRANCH  26  27
ENDBRANCH  25  26
ENDBRANCH   1  25
TORSDOF 23
