REMARK SMILES CCC[NH2+][C@@]1(C(=O)OCCOCCOCCOCCOC(=O)c2ccc(-c3c4nc(c(-c5c(F)c(F)c(F)c(F)c5F)c5ccc([nH]5)c(-c5c(F)c(F)c(F)c(F)c5F)c5nc(c(-c6c(F)c(F)c(F)c(F)c6F)c6ccc3[nH]6)C=C5)C=C4)cc2)CC[C@@H](Sc2ccc(Cl)cc2)C1
REMARK SMILES IDX 13 1 12 2 11 3 10 4 9 5 8 6 6 7 7 8 5 9 86 10 97 11 87 12
REMARK SMILES IDX 88 13 4 14 3 17 2 18 1 19 89 20 90 21 91 22 96 23 92 24
REMARK SMILES IDX 95 25 93 26 94 27 14 28 15 29 16 30 17 31 18 32 19 33 20 34
REMARK SMILES IDX 21 35 22 36 23 37 24 38 85 39 25 40 84 41 26 42 27 43 28 44
REMARK SMILES IDX 78 45 29 46 83 47 77 48 79 49 30 50 82 51 76 52 75 53 31 55
REMARK SMILES IDX 63 56 43 57 62 58 44 59 47 60 61 61 80 62 45 63 46 64 60 66
REMARK SMILES IDX 81 67 48 68 32 69 33 70 41 71 34 72 35 73 39 74 42 75 36 76
REMARK SMILES IDX 37 77 40 78 38 79 64 80 65 81 73 82 66 83 67 84 71 85 74 86
REMARK SMILES IDX 68 87 69 88 72 89 70 90 49 91 50 92 58 93 51 94 52 95 56 96
REMARK SMILES IDX 59 97 53 98 54 99 57 100 55 101
REMARK H PARENT 4 15 4 16 79 54 47 65
REMARK Flexibility Score: inf
ROOT
ATOM      1  C   UNL     1       2.841  -2.390  -3.773  1.00  0.00     0.188 C 
ENDROOT
BRANCH   1   2
ATOM      2  C   UNL     1       3.751  -1.676  -2.769  1.00  0.00     0.188 C 
BRANCH   2   3
ATOM      3  O   UNL     1       5.097  -2.092  -2.675  1.00  0.00    -0.376 OA
BRANCH   3   4
ATOM      4  C   UNL     1       5.398  -3.451  -2.391  1.00  0.00     0.202 C 
BRANCH   4   5
ATOM      5  C   UNL     1       4.493  -4.407  -1.572  1.00  0.00     0.261 C 
BRANCH   5   6
ATOM      6  O   UNL     1       3.079  -4.474  -1.867  1.00  0.00    -0.459 OA
BRANCH   6   7
ATOM      7  C   UNL     1       2.246  -4.013  -0.898  1.00  0.00     0.368 C 
ATOM      8  O   UNL     1       2.640  -3.534   0.165  1.00  0.00    -0.245 OA
BRANCH   7   9
ATOM      9  C   UNL     1       0.713  -4.120  -1.220  1.00  0.00     0.195 C 
ATOM     10  C   UNL     1       0.173  -5.319  -0.411  1.00  0.00     0.082 C 
ATOM     11  C   UNL     1       0.238  -4.486  -2.640  1.00  0.00     0.096 C 
ATOM     12  C   UNL     1       0.384  -6.533  -1.315  1.00  0.00     0.022 C 
ATOM     13  C   UNL     1       0.224  -6.010  -2.738  1.00  0.00     0.059 C 
BRANCH   9  14
ATOM     14  N   UNL     1       0.051  -2.869  -0.695  1.00  0.00    -0.332 N 
ATOM     15  H   UNL     1      -0.955  -3.035  -0.650  1.00  0.00     0.347 HD
ATOM     16  H   UNL     1       0.464  -2.682   0.219  1.00  0.00     0.347 HD
BRANCH  14  17
ATOM     17  C   UNL     1       0.283  -1.675  -1.512  1.00  0.00     0.261 C 
BRANCH  17  18
ATOM     18  C   UNL     1      -0.204  -0.358  -0.903  1.00  0.00     0.058 C 
ATOM     19  C   UNL     1       0.587   0.062   0.328  1.00  0.00     0.010 C 
ENDBRANCH  17  18
ENDBRANCH  14  17
ENDBRANCH   9  14
BRANCH  13  20
ATOM     20  S   UNL     1      -1.193  -6.677  -3.713  1.00  0.00    -0.122 SA
BRANCH  20  21
ATOM     21  C   UNL     1      -2.613  -6.320  -2.693  1.00  0.00     0.008 A 
ATOM     22  C   UNL     1      -3.240  -7.367  -2.010  1.00  0.00     0.016 A 
ATOM     23  C   UNL     1      -3.175  -5.040  -2.629  1.00  0.00     0.016 A 
ATOM     24  C   UNL     1      -4.372  -7.125  -1.224  1.00  0.00     0.021 A 
ATOM     25  C   UNL     1      -4.287  -4.788  -1.820  1.00  0.00     0.021 A 
ATOM     26  C   UNL     1      -4.878  -5.832  -1.117  1.00  0.00     0.041 A 
ATOM     27  Cl  UNL     1      -6.253  -5.527  -0.130  1.00  0.00    -0.084 Cl
ENDBRANCH  20  21
ENDBRANCH  13  20
ENDBRANCH   7   9
ENDBRANCH   6   7
ENDBRANCH   5   6
ENDBRANCH   4   5
ENDBRANCH   3   4
ENDBRANCH   2   3
ENDBRANCH   1   2
BRANCH   1  28
ATOM     28  O   UNL     1       3.385  -3.544  -4.376  1.00  0.00    -0.377 OA
BRANCH  28  29
ATOM     29  C   UNL     1       4.151  -3.354  -5.557  1.00  0.00     0.188 C 
BRANCH  29  30
ATOM     30  C   UNL     1       4.708  -1.952  -5.868  1.00  0.00     0.188 C 
BRANCH  30  31
ATOM     31  O   UNL     1       3.761  -0.902  -5.729  1.00  0.00    -0.376 OA
BRANCH  31  32
ATOM     32  C   UNL     1       3.030  -0.455  -6.860  1.00  0.00     0.202 C 
BRANCH  32  33
ATOM     33  C   UNL     1       2.126  -1.447  -7.611  1.00  0.00     0.261 C 
BRANCH  33  34
ATOM     34  O   UNL     1       2.740  -2.645  -8.113  1.00  0.00    -0.460 OA
BRANCH  34  35
ATOM     35  C   UNL     1       3.793  -2.536  -8.948  1.00  0.00     0.338 C 
ATOM     36  O   UNL     1       4.269  -1.512  -9.407  1.00  0.00    -0.246 OA
BRANCH  35  37
ATOM     37  C   UNL     1       4.420  -3.875  -9.033  1.00  0.00     0.060 A 
ATOM     38  C   UNL     1       5.740  -4.038  -8.587  1.00  0.00     0.016 A 
ATOM     39  C   UNL     1       3.695  -4.974  -9.498  1.00  0.00     0.016 A 
ATOM     40  C   UNL     1       6.338  -5.298  -8.609  1.00  0.00     0.010 A 
ATOM     41  C   UNL     1       4.308  -6.229  -9.555  1.00  0.00     0.010 A 
ATOM     42  C   UNL     1       5.638  -6.394  -9.129  1.00  0.00    -0.014 A 
BRANCH  42  43
ATOM     43  C   UNL     1       6.352  -7.666  -9.392  1.00  0.00     0.031 A 
ATOM     44  C   UNL     1       6.881  -7.912 -10.777  1.00  0.00     0.074 A 
ATOM     45  C   UNL     1       6.543  -8.577  -8.421  1.00  0.00     0.049 A 
ATOM     46  N   UNL     1       7.472  -8.970 -11.268  1.00  0.00    -0.248 NA
ATOM     47  C   UNL     1       6.720  -6.811 -11.742  1.00  0.00     0.031 C 
ATOM     48  C   UNL     1       6.126  -8.430  -7.029  1.00  0.00     0.029 A 
ATOM     49  N   UNL     1       7.129  -9.818  -8.468  1.00  0.00    -0.354 N 
ATOM     50  C   UNL     1       7.743  -8.668 -12.596  1.00  0.00     0.074 A 
ATOM     51  C   UNL     1       7.236  -7.336 -12.843  1.00  0.00     0.031 C 
ATOM     52  C   UNL     1       6.452  -9.548  -6.356  1.00  0.00     0.029 A 
ATOM     53  C   UNL     1       7.064 -10.503  -7.279  1.00  0.00     0.049 A 
ATOM     54  H   UNL     1       7.556 -10.182  -9.277  1.00  0.00     0.167 HD
ATOM     55  C   UNL     1       8.361  -9.434 -13.524  1.00  0.00     0.037 A 
ATOM     56  C   UNL     1       7.426 -11.768  -6.985  1.00  0.00     0.037 A 
ATOM     57  C   UNL     1       8.866 -10.758 -13.273  1.00  0.00     0.049 A 
ATOM     58  C   UNL     1       8.030 -12.632  -8.068  1.00  0.00     0.074 A 
ATOM     59  C   UNL     1       9.533 -11.604 -14.141  1.00  0.00     0.029 A 
ATOM     60  N   UNL     1       8.746 -11.434 -12.068  1.00  0.00    -0.354 N 
ATOM     61  N   UNL     1       8.316 -12.329  -9.311  1.00  0.00    -0.248 NA
ATOM     62  C   UNL     1       8.359 -14.019  -7.703  1.00  0.00     0.031 C 
ATOM     63  C   UNL     1       9.757 -12.817 -13.484  1.00  0.00     0.029 A 
ATOM     64  C   UNL     1       9.292 -12.702 -12.184  1.00  0.00     0.049 A 
ATOM     65  H   UNL     1       8.334 -11.068 -11.253  1.00  0.00     0.167 HD
ATOM     66  C   UNL     1       8.886 -13.470  -9.863  1.00  0.00     0.074 A 
ATOM     67  C   UNL     1       8.925 -14.466  -8.814  1.00  0.00     0.031 C 
ATOM     68  C   UNL     1       9.334 -13.679 -11.126  1.00  0.00     0.037 A 
BRANCH  55  69
ATOM     69  C   UNL     1       8.502  -8.881 -14.911  1.00  0.00     0.064 A 
ATOM     70  C   UNL     1       9.396  -7.842 -15.208  1.00  0.00     0.173 A 
ATOM     71  C   UNL     1       7.778  -9.448 -15.972  1.00  0.00     0.173 A 
ATOM     72  F   UNL     1      10.099  -7.255 -14.227  1.00  0.00    -0.203 F 
ATOM     73  C   UNL     1       9.552  -7.384 -16.514  1.00  0.00     0.198 A 
ATOM     74  C   UNL     1       7.959  -9.009 -17.279  1.00  0.00     0.198 A 
ATOM     75  F   UNL     1       6.910 -10.445 -15.741  1.00  0.00    -0.203 F 
ATOM     76  F   UNL     1      10.387  -6.368 -16.770  1.00  0.00    -0.200 F 
ATOM     77  C   UNL     1       8.843  -7.975 -17.549  1.00  0.00     0.200 A 
ATOM     78  F   UNL     1       7.284  -9.591 -18.280  1.00  0.00    -0.200 F 
ATOM     79  F   UNL     1       9.010  -7.547 -18.808  1.00  0.00    -0.200 F 
ENDBRANCH  55  69
BRANCH  56  80
ATOM     80  C   UNL     1       7.198 -12.324  -5.623  1.00  0.00     0.064 A 
ATOM     81  C   UNL     1       8.272 -12.721  -4.812  1.00  0.00     0.173 A 
ATOM     82  C   UNL     1       5.901 -12.532  -5.129  1.00  0.00     0.173 A 
ATOM     83  F   UNL     1       9.531 -12.570  -5.248  1.00  0.00    -0.203 F 
ATOM     84  C   UNL     1       8.057 -13.334  -3.579  1.00  0.00     0.198 A 
ATOM     85  C   UNL     1       5.689 -13.112  -3.879  1.00  0.00     0.198 A 
ATOM     86  F   UNL     1       4.837 -12.178  -5.863  1.00  0.00    -0.203 F 
ATOM     87  F   UNL     1       9.101 -13.767  -2.858  1.00  0.00    -0.200 F 
ATOM     88  C   UNL     1       6.766 -13.525  -3.111  1.00  0.00     0.200 A 
ATOM     89  F   UNL     1       4.439 -13.283  -3.427  1.00  0.00    -0.200 F 
ATOM     90  F   UNL     1       6.560 -14.121  -1.929  1.00  0.00    -0.200 F 
ENDBRANCH  56  80
BRANCH  68  91
ATOM     91  C   UNL     1       9.941 -15.019 -11.435  1.00  0.00     0.064 A 
ATOM     92  C   UNL     1       9.165 -16.186 -11.498  1.00  0.00     0.173 A 
ATOM     93  C   UNL     1      11.313 -15.129 -11.714  1.00  0.00     0.173 A 
ATOM     94  F   UNL     1       7.852 -16.139 -11.229  1.00  0.00    -0.203 F 
ATOM     95  C   UNL     1       9.745 -17.416 -11.797  1.00  0.00     0.198 A 
ATOM     96  C   UNL     1      11.882 -16.354 -12.049  1.00  0.00     0.198 A 
ATOM     97  F   UNL     1      12.100 -14.043 -11.679  1.00  0.00    -0.203 F 
ATOM     98  F   UNL     1       8.994 -18.526 -11.796  1.00  0.00    -0.200 F 
ATOM     99  C   UNL     1      11.100 -17.498 -12.081  1.00  0.00     0.200 A 
ATOM    100  F   UNL     1      13.188 -16.427 -12.342  1.00  0.00    -0.200 F 
ATOM    101  F   UNL     1      11.654 -18.682 -12.378  1.00  0.00    -0.200 F 
ENDBRANCH  68  91
ENDBRANCH  42  43
ENDBRANCH  35  37
ENDBRANCH  34  35
ENDBRANCH  33  34
ENDBRANCH  32  33
ENDBRANCH  31  32
ENDBRANCH  30  31
ENDBRANCH  29  30
ENDBRANCH  28  29
ENDBRANCH   1  28
TORSDOF 25
