REMARK SMILES CC(C)(C)c1cc2c(cc1Cl)C=C(C(=O)OCCOCCOCCOCCOC(=O)c1ccc(-c3c4nc(c(-c5c(F)c(F)c(F)c(F)c5F)c5ccc([nH]5)c(-c5c(F)c(F)c(F)c(F)c5F)c5nc(c(-c6c(F)c(F)c(F)c(F)c6F)c6ccc3[nH]6)C=C5)C=C4)cc1)[C@@H](C(F)(F)F)O2
REMARK SMILES IDX 23 1 22 2 21 3 20 4 19 5 18 6 17 7 16 8 14 9 15 10 13 11
REMARK SMILES IDX 5 12 6 13 10 14 7 15 9 16 11 17 8 18 99 19 12 20 94 21 2 22
REMARK SMILES IDX 1 23 3 24 4 25 95 26 96 27 97 28 98 29 24 30 25 31 26 32
REMARK SMILES IDX 27 33 28 34 29 35 30 36 31 37 32 38 93 39 33 40 92 41 34 42
REMARK SMILES IDX 35 43 36 44 86 45 37 46 91 47 85 48 87 49 38 50 90 51 84 52
REMARK SMILES IDX 83 53 39 55 71 56 51 57 70 58 52 59 55 60 69 61 88 62 53 63
REMARK SMILES IDX 54 64 68 66 89 67 56 68 40 69 41 70 49 71 42 72 43 73 47 74
REMARK SMILES IDX 50 75 44 76 45 77 48 78 46 79 72 80 73 81 81 82 74 83 75 84
REMARK SMILES IDX 79 85 82 86 76 87 77 88 80 89 78 90 57 91 58 92 66 93 59 94
REMARK SMILES IDX 60 95 64 96 67 97 61 98 62 99 65 100 63 101
REMARK H PARENT 87 54 55 65
REMARK Flexibility Score: inf
ROOT
ATOM      1  C   UNL     1      -0.936   9.037   6.574  1.00  0.00     0.188 C 
ENDROOT
BRANCH   1   2
ATOM      2  O   UNL     1      -0.229   8.335   5.552  1.00  0.00    -0.377 OA
BRANCH   2   3
ATOM      3  C   UNL     1       0.165   6.999   5.814  1.00  0.00     0.188 C 
BRANCH   3   4
ATOM      4  C   UNL     1       1.414   6.889   6.706  1.00  0.00     0.188 C 
BRANCH   4   5
ATOM      5  O   UNL     1       1.815   8.135   7.277  1.00  0.00    -0.376 OA
BRANCH   5   6
ATOM      6  C   UNL     1       2.960   8.756   6.700  1.00  0.00     0.202 C 
BRANCH   6   7
ATOM      7  C   UNL     1       2.730   9.408   5.330  1.00  0.00     0.261 C 
BRANCH   7   8
ATOM      8  O   UNL     1       2.333   8.490   4.298  1.00  0.00    -0.460 OA
BRANCH   8   9
ATOM      9  C   UNL     1       3.226   7.545   3.944  1.00  0.00     0.338 C 
ATOM     10  O   UNL     1       4.370   7.433   4.347  1.00  0.00    -0.246 OA
BRANCH   9  11
ATOM     11  C   UNL     1       2.532   6.554   3.097  1.00  0.00     0.087 C 
ATOM     12  C   UNL     1       0.921   2.328   0.812  1.00  0.00    -0.020 A 
ATOM     13  C   UNL     1       0.696   3.724   0.663  1.00  0.00     0.053 A 
ATOM     14  C   UNL     1       1.641   1.946   1.962  1.00  0.00     0.045 A 
ATOM     15  C   UNL     1       1.251   4.680   1.519  1.00  0.00     0.128 A 
ATOM     16  C   UNL     1       2.203   2.913   2.820  1.00  0.00     0.032 A 
ATOM     17  Cl  UNL     1       1.912   0.321   2.481  1.00  0.00    -0.084 Cl
ATOM     18  C   UNL     1       2.049   4.276   2.576  1.00  0.00     0.019 A 
ATOM     19  O   UNL     1       0.979   5.983   1.223  1.00  0.00    -0.475 OA
ATOM     20  C   UNL     1       2.739   5.263   3.385  1.00  0.00     0.027 C 
ATOM     21  C   UNL     1       1.587   7.035   2.025  1.00  0.00     0.316 C 
BRANCH  12  22
ATOM     22  C   UNL     1       0.388   1.413  -0.321  1.00  0.00    -0.012 C 
ATOM     23  C   UNL     1       0.785  -0.077  -0.283  1.00  0.00     0.016 C 
ATOM     24  C   UNL     1       0.925   1.934  -1.684  1.00  0.00     0.016 C 
ATOM     25  C   UNL     1      -1.155   1.462  -0.339  1.00  0.00     0.016 C 
ENDBRANCH  12  22
BRANCH  21  26
ATOM     26  C   UNL     1       2.252   8.035   1.067  1.00  0.00     0.430 C 
ATOM     27  F   UNL     1       1.397   8.421   0.089  1.00  0.00    -0.167 F 
ATOM     28  F   UNL     1       2.646   9.164   1.701  1.00  0.00    -0.167 F 
ATOM     29  F   UNL     1       3.343   7.508   0.468  1.00  0.00    -0.167 F 
ENDBRANCH  21  26
ENDBRANCH   9  11
ENDBRANCH   8   9
ENDBRANCH   7   8
ENDBRANCH   6   7
ENDBRANCH   5   6
ENDBRANCH   4   5
ENDBRANCH   3   4
ENDBRANCH   2   3
ENDBRANCH   1   2
BRANCH   1  30
ATOM     30  C   UNL     1      -0.973   8.547   8.039  1.00  0.00     0.188 C 
BRANCH  30  31
ATOM     31  O   UNL     1      -1.240   7.154   8.178  1.00  0.00    -0.376 OA
BRANCH  31  32
ATOM     32  C   UNL     1      -2.505   6.805   8.727  1.00  0.00     0.202 C 
BRANCH  32  33
ATOM     33  C   UNL     1      -3.636   6.833   7.693  1.00  0.00     0.261 C 
BRANCH  33  34
ATOM     34  O   UNL     1      -3.908   8.128   7.136  1.00  0.00    -0.460 OA
BRANCH  34  35
ATOM     35  C   UNL     1      -4.288   9.106   7.988  1.00  0.00     0.338 C 
ATOM     36  O   UNL     1      -4.489   9.010   9.185  1.00  0.00    -0.246 OA
BRANCH  35  37
ATOM     37  C   UNL     1      -4.224  10.381   7.247  1.00  0.00     0.060 A 
ATOM     38  C   UNL     1      -4.866  10.515   6.012  1.00  0.00     0.016 A 
ATOM     39  C   UNL     1      -3.477  11.439   7.779  1.00  0.00     0.016 A 
ATOM     40  C   UNL     1      -4.789  11.726   5.324  1.00  0.00     0.010 A 
ATOM     41  C   UNL     1      -3.389  12.645   7.083  1.00  0.00     0.010 A 
ATOM     42  C   UNL     1      -4.067  12.804   5.864  1.00  0.00    -0.014 A 
BRANCH  42  43
ATOM     43  C   UNL     1      -4.194  14.149   5.259  1.00  0.00     0.031 A 
ATOM     44  C   UNL     1      -3.174  14.701   4.315  1.00  0.00     0.074 A 
ATOM     45  C   UNL     1      -5.273  14.878   5.598  1.00  0.00     0.049 A 
ATOM     46  N   UNL     1      -3.183  15.845   3.677  1.00  0.00    -0.248 NA
ATOM     47  C   UNL     1      -1.991  13.871   4.050  1.00  0.00     0.031 C 
ATOM     48  C   UNL     1      -6.322  14.438   6.519  1.00  0.00     0.029 A 
ATOM     49  N   UNL     1      -5.669  16.132   5.212  1.00  0.00    -0.354 N 
ATOM     50  C   UNL     1      -2.025  15.866   2.916  1.00  0.00     0.074 A 
ATOM     51  C   UNL     1      -1.312  14.636   3.203  1.00  0.00     0.031 C 
ATOM     52  C   UNL     1      -7.247  15.402   6.621  1.00  0.00     0.029 A 
ATOM     53  C   UNL     1      -6.847  16.533   5.790  1.00  0.00     0.049 A 
ATOM     54  H   UNL     1      -5.158  16.690   4.582  1.00  0.00     0.167 HD
ATOM     55  C   UNL     1      -1.609  16.821   2.048  1.00  0.00     0.037 A 
ATOM     56  C   UNL     1      -7.532  17.684   5.663  1.00  0.00     0.037 A 
ATOM     57  C   UNL     1      -2.315  18.053   1.788  1.00  0.00     0.049 A 
ATOM     58  C   UNL     1      -7.019  18.745   4.735  1.00  0.00     0.074 A 
ATOM     59  C   UNL     1      -1.981  19.069   0.907  1.00  0.00     0.029 A 
ATOM     60  N   UNL     1      -3.489  18.445   2.415  1.00  0.00    -0.354 N 
ATOM     61  N   UNL     1      -5.951  18.731   3.975  1.00  0.00    -0.248 NA
ATOM     62  C   UNL     1      -7.812  19.977   4.637  1.00  0.00     0.031 C 
ATOM     63  C   UNL     1      -2.925  20.093   1.036  1.00  0.00     0.029 A 
ATOM     64  C   UNL     1      -3.878  19.696   1.958  1.00  0.00     0.049 A 
ATOM     65  H   UNL     1      -3.975  17.913   3.086  1.00  0.00     0.167 HD
ATOM     66  C   UNL     1      -5.955  19.938   3.292  1.00  0.00     0.074 A 
ATOM     67  C   UNL     1      -7.140  20.655   3.716  1.00  0.00     0.031 C 
ATOM     68  C   UNL     1      -5.056  20.405   2.391  1.00  0.00     0.037 A 
BRANCH  55  69
ATOM     69  C   UNL     1      -0.332  16.581   1.297  1.00  0.00     0.064 A 
ATOM     70  C   UNL     1      -0.269  15.650   0.250  1.00  0.00     0.173 A 
ATOM     71  C   UNL     1       0.809  17.355   1.557  1.00  0.00     0.173 A 
ATOM     72  F   UNL     1      -1.332  14.883  -0.037  1.00  0.00    -0.203 F 
ATOM     73  C   UNL     1       0.892  15.498  -0.505  1.00  0.00     0.198 A 
ATOM     74  C   UNL     1       1.960  17.217   0.785  1.00  0.00     0.198 A 
ATOM     75  F   UNL     1       0.798  18.267   2.540  1.00  0.00    -0.203 F 
ATOM     76  F   UNL     1       0.934  14.589  -1.490  1.00  0.00    -0.200 F 
ATOM     77  C   UNL     1       2.001  16.288  -0.244  1.00  0.00     0.200 A 
ATOM     78  F   UNL     1       3.026  17.992   1.028  1.00  0.00    -0.200 F 
ATOM     79  F   UNL     1       3.110  16.155  -0.985  1.00  0.00    -0.200 F 
ENDBRANCH  55  69
BRANCH  56  80
ATOM     80  C   UNL     1      -8.801  17.858   6.410  1.00  0.00     0.064 A 
ATOM     81  C   UNL     1     -10.033  17.831   5.744  1.00  0.00     0.173 A 
ATOM     82  C   UNL     1      -8.810  18.012   7.804  1.00  0.00     0.173 A 
ATOM     83  F   UNL     1     -10.069  17.701   4.410  1.00  0.00    -0.203 F 
ATOM     84  C   UNL     1     -11.229  17.957   6.445  1.00  0.00     0.198 A 
ATOM     85  C   UNL     1     -10.008  18.113   8.506  1.00  0.00     0.198 A 
ATOM     86  F   UNL     1      -7.655  18.035   8.485  1.00  0.00    -0.203 F 
ATOM     87  F   UNL     1     -12.394  17.954   5.782  1.00  0.00    -0.200 F 
ATOM     88  C   UNL     1     -11.216  18.090   7.826  1.00  0.00     0.200 A 
ATOM     89  F   UNL     1      -9.992  18.224   9.841  1.00  0.00    -0.200 F 
ATOM     90  F   UNL     1     -12.369  18.196   8.500  1.00  0.00    -0.200 F 
ENDBRANCH  56  80
BRANCH  68  91
ATOM     91  C   UNL     1      -5.328  21.753   1.788  1.00  0.00     0.064 A 
ATOM     92  C   UNL     1      -5.184  22.933   2.532  1.00  0.00     0.173 A 
ATOM     93  C   UNL     1      -5.704  21.867   0.441  1.00  0.00     0.173 A 
ATOM     94  F   UNL     1      -4.843  22.877   3.828  1.00  0.00    -0.203 F 
ATOM     95  C   UNL     1      -5.429  24.177   1.956  1.00  0.00     0.198 A 
ATOM     96  C   UNL     1      -5.920  23.114  -0.140  1.00  0.00     0.198 A 
ATOM     97  F   UNL     1      -5.851  20.770  -0.316  1.00  0.00    -0.203 F 
ATOM     98  F   UNL     1      -5.331  25.288   2.698  1.00  0.00    -0.200 F 
ATOM     99  C   UNL     1      -5.790  24.267   0.620  1.00  0.00     0.200 A 
ATOM    100  F   UNL     1      -6.257  23.200  -1.434  1.00  0.00    -0.200 F 
ATOM    101  F   UNL     1      -6.020  25.465   0.065  1.00  0.00    -0.200 F 
ENDBRANCH  68  91
ENDBRANCH  42  43
ENDBRANCH  35  37
ENDBRANCH  34  35
ENDBRANCH  33  34
ENDBRANCH  32  33
ENDBRANCH  31  32
ENDBRANCH  30  31
ENDBRANCH   1  30
TORSDOF 22
