REMARK SMILES Cc1nccn1C1(C(=O)OCCOCCOCCOCCOC(=O)c2ccc(-c3c4nc(c(-c5c(F)c(F)c(F)c(F)c5F)c5ccc([nH]5)c(-c5c(F)c(F)c(F)c(F)c5F)c5nc(c(-c6c(F)c(F)c(F)c(F)c6F)c6ccc3[nH]6)C=C5)C=C4)cc2)CCN(C(=O)[C@@H]2C[C@H]2c2ccccc2)CC1
REMARK SMILES IDX 16 1 15 2 14 3 13 4 12 5 11 6 10 7 8 8 9 9 7 10 88 11 103 12
REMARK SMILES IDX 89 13 102 14 90 15 91 16 92 17 6 18 1 19 2 20 3 21 4 22 5 23
REMARK SMILES IDX 93 24 94 25 95 26 96 27 97 28 101 29 98 30 100 31 99 32
REMARK SMILES IDX 17 33 18 34 19 35 20 36 21 37 22 38 23 39 24 40 25 41 26 42
REMARK SMILES IDX 87 43 27 44 86 45 28 46 29 47 30 48 80 49 31 50 85 51 79 52
REMARK SMILES IDX 81 53 32 54 84 55 78 56 77 57 33 59 65 60 45 61 64 62 46 63
REMARK SMILES IDX 49 64 63 65 82 66 47 67 48 68 62 70 83 71 50 72 34 73 35 74
REMARK SMILES IDX 43 75 36 76 37 77 41 78 44 79 38 80 39 81 42 82 40 83 66 84
REMARK SMILES IDX 67 85 75 86 68 87 69 88 73 89 76 90 70 91 71 92 74 93 72 94
REMARK SMILES IDX 51 95 52 96 60 97 53 98 54 99 58 100 61 101 55 102 56 103
REMARK SMILES IDX 59 104 57 105
REMARK H PARENT 81 58 49 69
REMARK Flexibility Score: inf
ROOT
ATOM      1  O   UNL     1      -1.343   5.965   2.606  1.00  0.00    -0.377 OA
ENDROOT
BRANCH   1   2
ATOM      2  C   UNL     1      -1.566   4.569   2.521  1.00  0.00     0.188 C 
BRANCH   2   3
ATOM      3  C   UNL     1      -1.076   3.744   3.726  1.00  0.00     0.188 C 
BRANCH   3   4
ATOM      4  O   UNL     1      -0.241   4.294   4.739  1.00  0.00    -0.376 OA
BRANCH   4   5
ATOM      5  C   UNL     1       0.605   5.391   4.444  1.00  0.00     0.202 C 
BRANCH   5   6
ATOM      6  C   UNL     1       1.682   5.194   3.369  1.00  0.00     0.261 C 
BRANCH   6   7
ATOM      7  O   UNL     1       1.373   4.196   2.379  1.00  0.00    -0.461 OA
BRANCH   7   8
ATOM      8  C   UNL     1       2.018   3.002   2.474  1.00  0.00     0.332 C 
ATOM      9  O   UNL     1       2.876   2.770   3.323  1.00  0.00    -0.249 OA
BRANCH   8  10
ATOM     10  C   UNL     1       1.617   1.961   1.358  1.00  0.00     0.146 C 
ATOM     11  C   UNL     1       0.522   2.542   0.405  1.00  0.00     0.062 C 
ATOM     12  C   UNL     1       2.984   1.786   0.635  1.00  0.00     0.062 C 
ATOM     13  C   UNL     1       0.614   2.171  -1.070  1.00  0.00     0.122 C 
ATOM     14  C   UNL     1       2.926   1.458  -0.846  1.00  0.00     0.122 C 
ATOM     15  N   UNL     1       1.982   2.311  -1.534  1.00  0.00    -0.342 N 
ATOM     16  C   UNL     1       2.211   2.990  -2.727  1.00  0.00     0.226 C 
ATOM     17  O   UNL     1       1.322   3.125  -3.565  1.00  0.00    -0.275 OA
BRANCH  10  18
ATOM     18  N   UNL     1       1.103   0.724   2.022  1.00  0.00    -0.318 N 
ATOM     19  C   UNL     1       1.232  -1.152   0.247  1.00  0.00     0.087 C 
ATOM     20  C   UNL     1       0.762  -0.518   1.497  1.00  0.00     0.106 A 
ATOM     21  N   UNL     1      -0.018  -1.185   2.328  1.00  0.00    -0.242 NA
ATOM     22  C   UNL     1      -0.046  -0.478   3.481  1.00  0.00     0.131 A 
ATOM     23  C   UNL     1       0.693   0.664   3.344  1.00  0.00     0.108 A 
ENDBRANCH  10  18
BRANCH  16  24
ATOM     24  C   UNL     1       3.477   3.744  -2.965  1.00  0.00     0.087 C 
ATOM     25  C   UNL     1       4.797   3.110  -3.296  1.00  0.00     0.023 C 
ATOM     26  C   UNL     1       4.629   3.859  -1.996  1.00  0.00     0.032 C 
BRANCH  26  27
ATOM     27  C   UNL     1       5.253   5.194  -1.709  1.00  0.00    -0.044 A 
ATOM     28  C   UNL     1       6.647   5.341  -1.673  1.00  0.00     0.004 A 
ATOM     29  C   UNL     1       4.468   6.283  -1.293  1.00  0.00     0.004 A 
ATOM     30  C   UNL     1       7.237   6.516  -1.206  1.00  0.00     0.000 A 
ATOM     31  C   UNL     1       5.053   7.462  -0.830  1.00  0.00     0.000 A 
ATOM     32  C   UNL     1       6.439   7.573  -0.775  1.00  0.00     0.000 A 
ENDBRANCH  26  27
ENDBRANCH  16  24
ENDBRANCH   8  10
ENDBRANCH   7   8
ENDBRANCH   6   7
ENDBRANCH   5   6
ENDBRANCH   4   5
ENDBRANCH   3   4
ENDBRANCH   2   3
ENDBRANCH   1   2
BRANCH   1  33
ATOM     33  C   UNL     1      -2.494   6.718   2.955  1.00  0.00     0.188 C 
BRANCH  33  34
ATOM     34  C   UNL     1      -3.157   6.356   4.299  1.00  0.00     0.188 C 
BRANCH  34  35
ATOM     35  O   UNL     1      -3.455   4.967   4.443  1.00  0.00    -0.376 OA
BRANCH  35  36
ATOM     36  C   UNL     1      -4.814   4.550   4.434  1.00  0.00     0.202 C 
BRANCH  36  37
ATOM     37  C   UNL     1      -5.318   4.204   3.034  1.00  0.00     0.261 C 
BRANCH  37  38
ATOM     38  O   UNL     1      -5.140   5.258   2.095  1.00  0.00    -0.460 OA
BRANCH  38  39
ATOM     39  C   UNL     1      -5.741   6.422   2.410  1.00  0.00     0.338 C 
ATOM     40  O   UNL     1      -6.378   6.682   3.412  1.00  0.00    -0.246 OA
BRANCH  39  41
ATOM     41  C   UNL     1      -5.581   7.353   1.289  1.00  0.00     0.060 A 
ATOM     42  C   UNL     1      -6.125   8.623   1.477  1.00  0.00     0.016 A 
ATOM     43  C   UNL     1      -5.203   6.871   0.026  1.00  0.00     0.016 A 
ATOM     44  C   UNL     1      -6.587   9.283   0.369  1.00  0.00     0.010 A 
ATOM     45  C   UNL     1      -5.672   7.528  -1.082  1.00  0.00     0.010 A 
ATOM     46  C   UNL     1      -6.463   8.652  -0.873  1.00  0.00    -0.014 A 
BRANCH  46  47
ATOM     47  C   UNL     1      -7.330   9.126  -1.921  1.00  0.00     0.031 A 
ATOM     48  C   UNL     1      -6.862  10.318  -2.638  1.00  0.00     0.074 A 
ATOM     49  C   UNL     1      -8.472   8.482  -2.220  1.00  0.00     0.049 A 
ATOM     50  N   UNL     1      -7.417  11.482  -2.680  1.00  0.00    -0.248 NA
ATOM     51  C   UNL     1      -5.565  10.225  -3.318  1.00  0.00     0.031 C 
ATOM     52  C   UNL     1      -8.911   7.151  -1.796  1.00  0.00     0.029 A 
ATOM     53  N   UNL     1      -9.447   8.876  -3.077  1.00  0.00    -0.354 N 
ATOM     54  C   UNL     1      -6.617  12.242  -3.520  1.00  0.00     0.074 A 
ATOM     55  C   UNL     1      -5.430  11.466  -3.782  1.00  0.00     0.031 C 
ATOM     56  C   UNL     1      -9.950   6.767  -2.572  1.00  0.00     0.029 A 
ATOM     57  C   UNL     1     -10.308   7.863  -3.458  1.00  0.00     0.049 A 
ATOM     58  H   UNL     1      -9.534   9.802  -3.400  1.00  0.00     0.167 HD
ATOM     59  C   UNL     1      -7.079  13.375  -4.107  1.00  0.00     0.037 A 
ATOM     60  C   UNL     1     -11.169   7.917  -4.502  1.00  0.00     0.037 A 
ATOM     61  C   UNL     1      -8.238  13.901  -3.439  1.00  0.00     0.049 A 
ATOM     62  C   UNL     1     -11.373   9.353  -4.841  1.00  0.00     0.074 A 
ATOM     63  C   UNL     1      -8.490  14.330  -2.148  1.00  0.00     0.029 A 
ATOM     64  N   UNL     1      -9.473  13.730  -4.016  1.00  0.00    -0.354 N 
ATOM     65  N   UNL     1     -12.039  10.197  -4.102  1.00  0.00    -0.248 NA
ATOM     66  C   UNL     1     -10.468   9.958  -5.811  1.00  0.00     0.031 C 
ATOM     67  C   UNL     1      -9.830  13.928  -1.874  1.00  0.00     0.029 A 
ATOM     68  C   UNL     1     -10.315  13.300  -3.020  1.00  0.00     0.049 A 
ATOM     69  H   UNL     1      -9.708  13.886  -4.959  1.00  0.00     0.167 HD
ATOM     70  C   UNL     1     -11.351  11.396  -4.222  1.00  0.00     0.074 A 
ATOM     71  C   UNL     1     -10.457  11.215  -5.360  1.00  0.00     0.031 C 
ATOM     72  C   UNL     1     -11.358  12.323  -3.219  1.00  0.00     0.037 A 
BRANCH  59  73
ATOM     73  C   UNL     1      -6.640  13.823  -5.468  1.00  0.00     0.064 A 
ATOM     74  C   UNL     1      -6.914  15.133  -5.893  1.00  0.00     0.173 A 
ATOM     75  C   UNL     1      -6.194  12.928  -6.466  1.00  0.00     0.173 A 
ATOM     76  F   UNL     1      -7.386  16.045  -5.030  1.00  0.00    -0.203 F 
ATOM     77  C   UNL     1      -6.786  15.509  -7.231  1.00  0.00     0.198 A 
ATOM     78  C   UNL     1      -6.008  13.323  -7.787  1.00  0.00     0.198 A 
ATOM     79  F   UNL     1      -6.027  11.621  -6.222  1.00  0.00    -0.203 F 
ATOM     80  F   UNL     1      -7.163  16.736  -7.615  1.00  0.00    -0.200 F 
ATOM     81  C   UNL     1      -6.330  14.606  -8.176  1.00  0.00     0.200 A 
ATOM     82  F   UNL     1      -5.586  12.427  -8.690  1.00  0.00    -0.200 F 
ATOM     83  F   UNL     1      -6.249  14.954  -9.466  1.00  0.00    -0.200 F 
ENDBRANCH  59  73
BRANCH  60  84
ATOM     84  C   UNL     1     -11.602   6.814  -5.391  1.00  0.00     0.064 A 
ATOM     85  C   UNL     1     -12.680   6.986  -6.273  1.00  0.00     0.173 A 
ATOM     86  C   UNL     1     -10.822   5.654  -5.581  1.00  0.00     0.173 A 
ATOM     87  F   UNL     1     -13.446   8.084  -6.198  1.00  0.00    -0.203 F 
ATOM     88  C   UNL     1     -12.950   6.067  -7.292  1.00  0.00     0.198 A 
ATOM     89  C   UNL     1     -11.104   4.728  -6.585  1.00  0.00     0.198 A 
ATOM     90  F   UNL     1      -9.714   5.436  -4.860  1.00  0.00    -0.203 F 
ATOM     91  F   UNL     1     -13.947   6.302  -8.156  1.00  0.00    -0.200 F 
ATOM     92  C   UNL     1     -12.159   4.941  -7.450  1.00  0.00     0.200 A 
ATOM     93  F   UNL     1     -10.309   3.660  -6.744  1.00  0.00    -0.200 F 
ATOM     94  F   UNL     1     -12.385   4.087  -8.457  1.00  0.00    -0.200 F 
ENDBRANCH  60  84
BRANCH  72  95
ATOM     95  C   UNL     1     -12.337  12.135  -2.097  1.00  0.00     0.064 A 
ATOM     96  C   UNL     1     -12.318  11.027  -1.232  1.00  0.00     0.173 A 
ATOM     97  C   UNL     1     -13.227  13.175  -1.796  1.00  0.00     0.173 A 
ATOM     98  F   UNL     1     -11.416  10.049  -1.385  1.00  0.00    -0.203 F 
ATOM     99  C   UNL     1     -13.192  10.941  -0.150  1.00  0.00     0.198 A 
ATOM    100  C   UNL     1     -14.073  13.103  -0.693  1.00  0.00     0.198 A 
ATOM    101  F   UNL     1     -13.243  14.286  -2.549  1.00  0.00    -0.203 F 
ATOM    102  F   UNL     1     -13.165   9.866   0.651  1.00  0.00    -0.200 F 
ATOM    103  C   UNL     1     -14.065  11.981   0.121  1.00  0.00     0.200 A 
ATOM    104  F   UNL     1     -14.879  14.134  -0.402  1.00  0.00    -0.200 F 
ATOM    105  F   UNL     1     -14.878  11.917   1.185  1.00  0.00    -0.200 F 
ENDBRANCH  72  95
ENDBRANCH  46  47
ENDBRANCH  39  41
ENDBRANCH  38  39
ENDBRANCH  37  38
ENDBRANCH  36  37
ENDBRANCH  35  36
ENDBRANCH  34  35
ENDBRANCH  33  34
ENDBRANCH   1  33
TORSDOF 23
