REMARK SMILES O=C(OCCOCCOCCOCCOC(=O)[C@H]1[C@H]2CC[C@H](C2)[C@@H]1C(=O)N1CCN(c2cccc(Cl)c2)CC1)c1ccc(-c2c3nc(c(-c4c(F)c(F)c(F)c(F)c4F)c4ccc([nH]4)c(-c4c(F)c(F)c(F)c(F)c4F)c4nc(c(-c5c(F)c(F)c(F)c(F)c5F)c5ccc2[nH]5)C=C4)C=C3)cc1
REMARK SMILES IDX 9 1 8 2 7 3 6 4 5 5 4 6 3 7 2 8 1 9 40 10 41 11 102 12 42 13
REMARK SMILES IDX 101 14 43 15 44 16 45 17 95 18 46 19 100 20 94 21 96 22
REMARK SMILES IDX 47 23 99 24 93 25 92 26 48 28 80 29 60 30 79 31 61 32 64 33
REMARK SMILES IDX 78 34 97 35 62 36 63 37 77 39 98 40 65 41 49 42 50 43 58 44
REMARK SMILES IDX 51 45 52 46 56 47 59 48 53 49 54 50 57 51 55 52 81 53 82 54
REMARK SMILES IDX 90 55 83 56 84 57 88 58 91 59 85 60 86 61 89 62 87 63 66 64
REMARK SMILES IDX 67 65 75 66 68 67 69 68 73 69 76 70 70 71 71 72 74 73 72 74
REMARK SMILES IDX 10 75 11 76 12 77 13 78 14 79 15 80 16 81 17 82 18 83 19 84
REMARK SMILES IDX 24 85 20 86 23 87 22 88 21 89 25 90 26 91 27 92 28 93 39 94
REMARK SMILES IDX 29 95 38 96 30 97 31 98 32 99 37 100 33 101 35 102 34 103
REMARK SMILES IDX 36 104
REMARK H PARENT 96 27 64 38
REMARK Flexibility Score: inf
ROOT
ATOM      1  O   UNL     1       5.959  -3.032   0.210  1.00  0.00    -0.377 OA
ENDROOT
BRANCH   1   2
ATOM      2  C   UNL     1       5.953  -1.606   0.345  1.00  0.00     0.188 C 
BRANCH   2   3
ATOM      3  C   UNL     1       5.141  -0.825  -0.703  1.00  0.00     0.188 C 
BRANCH   3   4
ATOM      4  O   UNL     1       3.744  -1.108  -0.615  1.00  0.00    -0.376 OA
BRANCH   4   5
ATOM      5  C   UNL     1       3.004  -1.380  -1.805  1.00  0.00     0.202 C 
BRANCH   5   6
ATOM      6  C   UNL     1       2.812  -0.206  -2.748  1.00  0.00     0.261 C 
BRANCH   6   7
ATOM      7  O   UNL     1       3.690   0.898  -2.502  1.00  0.00    -0.460 OA
BRANCH   7   8
ATOM      8  C   UNL     1       3.653   1.830  -1.525  1.00  0.00     0.338 C 
ATOM      9  O   UNL     1       4.561   2.661  -1.487  1.00  0.00    -0.246 OA
BRANCH   8  10
ATOM     10  C   UNL     1       2.582   1.948  -0.492  1.00  0.00     0.060 A 
ATOM     11  C   UNL     1       1.855   0.898   0.066  1.00  0.00     0.016 A 
ATOM     12  C   UNL     1       2.376   3.232   0.036  1.00  0.00     0.016 A 
ATOM     13  C   UNL     1       0.935   1.088   1.077  1.00  0.00     0.010 A 
ATOM     14  C   UNL     1       1.452   3.446   1.058  1.00  0.00     0.010 A 
ATOM     15  C   UNL     1       0.717   2.367   1.557  1.00  0.00    -0.014 A 
BRANCH  15  16
ATOM     16  C   UNL     1      -0.467   2.553   2.395  1.00  0.00     0.031 A 
ATOM     17  C   UNL     1      -1.677   3.109   1.725  1.00  0.00     0.074 A 
ATOM     18  C   UNL     1      -0.482   2.078   3.649  1.00  0.00     0.049 A 
ATOM     19  N   UNL     1      -2.800   3.515   2.242  1.00  0.00    -0.248 NA
ATOM     20  C   UNL     1      -1.611   3.217   0.256  1.00  0.00     0.031 C 
ATOM     21  C   UNL     1       0.609   1.334   4.284  1.00  0.00     0.029 A 
ATOM     22  N   UNL     1      -1.454   2.136   4.606  1.00  0.00    -0.354 N 
ATOM     23  C   UNL     1      -3.545   3.985   1.171  1.00  0.00     0.074 A 
ATOM     24  C   UNL     1      -2.761   3.803  -0.026  1.00  0.00     0.031 C 
ATOM     25  C   UNL     1       0.251   1.024   5.540  1.00  0.00     0.029 A 
ATOM     26  C   UNL     1      -1.047   1.629   5.813  1.00  0.00     0.049 A 
ATOM     27  H   UNL     1      -2.353   2.503   4.445  1.00  0.00     0.167 HD
ATOM     28  C   UNL     1      -4.773   4.546   1.215  1.00  0.00     0.037 A 
ATOM     29  C   UNL     1      -1.641   1.729   7.015  1.00  0.00     0.037 A 
ATOM     30  C   UNL     1      -5.497   4.695   2.447  1.00  0.00     0.049 A 
ATOM     31  C   UNL     1      -2.956   2.459   7.071  1.00  0.00     0.074 A 
ATOM     32  C   UNL     1      -6.718   5.295   2.673  1.00  0.00     0.029 A 
ATOM     33  N   UNL     1      -5.037   4.229   3.676  1.00  0.00    -0.354 N 
ATOM     34  N   UNL     1      -3.635   3.006   6.087  1.00  0.00    -0.248 NA
ATOM     35  C   UNL     1      -3.579   2.606   8.388  1.00  0.00     0.031 C 
ATOM     36  C   UNL     1      -6.965   5.248   4.050  1.00  0.00     0.029 A 
ATOM     37  C   UNL     1      -5.935   4.554   4.673  1.00  0.00     0.049 A 
ATOM     38  H   UNL     1      -4.194   3.740   3.814  1.00  0.00     0.167 HD
ATOM     39  C   UNL     1      -4.777   3.545   6.658  1.00  0.00     0.074 A 
ATOM     40  C   UNL     1      -4.697   3.251   8.079  1.00  0.00     0.031 C 
ATOM     41  C   UNL     1      -5.799   4.218   6.073  1.00  0.00     0.037 A 
BRANCH  28  42
ATOM     42  C   UNL     1      -5.298   5.129  -0.063  1.00  0.00     0.064 A 
ATOM     43  C   UNL     1      -5.640   4.338  -1.172  1.00  0.00     0.173 A 
ATOM     44  C   UNL     1      -5.361   6.524  -0.214  1.00  0.00     0.173 A 
ATOM     45  F   UNL     1      -5.561   3.000  -1.097  1.00  0.00    -0.203 F 
ATOM     46  C   UNL     1      -5.972   4.920  -2.394  1.00  0.00     0.198 A 
ATOM     47  C   UNL     1      -5.728   7.101  -1.427  1.00  0.00     0.198 A 
ATOM     48  F   UNL     1      -5.032   7.330   0.806  1.00  0.00    -0.203 F 
ATOM     49  F   UNL     1      -6.201   4.145  -3.463  1.00  0.00    -0.200 F 
ATOM     50  C   UNL     1      -6.017   6.300  -2.520  1.00  0.00     0.200 A 
ATOM     51  F   UNL     1      -5.772   8.436  -1.544  1.00  0.00    -0.200 F 
ATOM     52  F   UNL     1      -6.314   6.859  -3.702  1.00  0.00    -0.200 F 
ENDBRANCH  28  42
BRANCH  29  53
ATOM     53  C   UNL     1      -0.950   1.212   8.225  1.00  0.00     0.064 A 
ATOM     54  C   UNL     1      -1.459   0.131   8.954  1.00  0.00     0.173 A 
ATOM     55  C   UNL     1       0.269   1.767   8.653  1.00  0.00     0.173 A 
ATOM     56  F   UNL     1      -2.626  -0.426   8.599  1.00  0.00    -0.203 F 
ATOM     57  C   UNL     1      -0.780  -0.372  10.065  1.00  0.00     0.198 A 
ATOM     58  C   UNL     1       0.961   1.244   9.743  1.00  0.00     0.198 A 
ATOM     59  F   UNL     1       0.806   2.802   7.991  1.00  0.00    -0.203 F 
ATOM     60  F   UNL     1      -1.304  -1.389  10.763  1.00  0.00    -0.200 F 
ATOM     61  C   UNL     1       0.433   0.178  10.452  1.00  0.00     0.200 A 
ATOM     62  F   UNL     1       2.142   1.768  10.098  1.00  0.00    -0.200 F 
ATOM     63  F   UNL     1       1.091  -0.317  11.509  1.00  0.00    -0.200 F 
ENDBRANCH  29  53
BRANCH  41  64
ATOM     64  C   UNL     1      -6.930   4.636   6.960  1.00  0.00     0.064 A 
ATOM     65  C   UNL     1      -6.807   5.710   7.852  1.00  0.00     0.173 A 
ATOM     66  C   UNL     1      -8.181   4.015   6.833  1.00  0.00     0.173 A 
ATOM     67  F   UNL     1      -5.625   6.322   8.015  1.00  0.00    -0.203 F 
ATOM     68  C   UNL     1      -7.901   6.143   8.592  1.00  0.00     0.198 A 
ATOM     69  C   UNL     1      -9.280   4.474   7.548  1.00  0.00     0.198 A 
ATOM     70  F   UNL     1      -8.344   2.989   5.983  1.00  0.00    -0.203 F 
ATOM     71  F   UNL     1      -7.760   7.152   9.463  1.00  0.00    -0.200 F 
ATOM     72  C   UNL     1      -9.138   5.535   8.429  1.00  0.00     0.200 A 
ATOM     73  F   UNL     1     -10.478   3.900   7.373  1.00  0.00    -0.200 F 
ATOM     74  F   UNL     1     -10.197   5.975   9.122  1.00  0.00    -0.200 F 
ENDBRANCH  41  64
ENDBRANCH  15  16
ENDBRANCH   8  10
ENDBRANCH   7   8
ENDBRANCH   6   7
ENDBRANCH   5   6
ENDBRANCH   4   5
ENDBRANCH   3   4
ENDBRANCH   2   3
ENDBRANCH   1   2
BRANCH   1  75
ATOM     75  C   UNL     1       4.712  -3.595  -0.169  1.00  0.00     0.188 C 
BRANCH  75  76
ATOM     76  C   UNL     1       3.551  -3.583   0.865  1.00  0.00     0.188 C 
BRANCH  76  77
ATOM     77  O   UNL     1       3.576  -2.466   1.739  1.00  0.00    -0.376 OA
BRANCH  77  78
ATOM     78  C   UNL     1       3.991  -2.599   3.093  1.00  0.00     0.202 C 
BRANCH  78  79
ATOM     79  C   UNL     1       5.125  -3.531   3.568  1.00  0.00     0.261 C 
BRANCH  79  80
ATOM     80  O   UNL     1       5.555  -4.513   2.635  1.00  0.00    -0.463 OA
BRANCH  80  81
ATOM     81  C   UNL     1       4.999  -5.759   2.701  1.00  0.00     0.310 C 
ATOM     82  O   UNL     1       4.262  -6.169   3.569  1.00  0.00    -0.252 OA
BRANCH  81  83
ATOM     83  C   UNL     1       5.370  -6.462   1.412  1.00  0.00     0.115 C 
ATOM     84  C   UNL     1       6.873  -6.728   1.254  1.00  0.00     0.004 C 
ATOM     85  C   UNL     1       4.651  -7.777   1.057  1.00  0.00     0.096 C 
ATOM     86  C   UNL     1       7.370  -7.554   2.428  1.00  0.00     0.005 C 
ATOM     87  C   UNL     1       6.874  -7.767   0.143  1.00  0.00     0.009 C 
ATOM     88  C   UNL     1       5.877  -8.683   0.860  1.00  0.00     0.003 C 
ATOM     89  C   UNL     1       6.581  -8.860   2.241  1.00  0.00     0.005 C 
BRANCH  85  90
ATOM     90  C   UNL     1       3.623  -7.445  -0.078  1.00  0.00     0.226 C 
ATOM     91  O   UNL     1       2.546  -6.943   0.279  1.00  0.00    -0.275 OA
ATOM     92  N   UNL     1       3.950  -7.423  -1.427  1.00  0.00    -0.339 N 
ATOM     93  C   UNL     1       3.166  -6.551  -2.334  1.00  0.00     0.141 C 
ATOM     94  C   UNL     1       4.617  -8.509  -2.154  1.00  0.00     0.141 C 
ATOM     95  C   UNL     1       4.010  -6.008  -3.518  1.00  0.00     0.138 C 
ATOM     96  C   UNL     1       5.484  -7.994  -3.320  1.00  0.00     0.138 C 
ATOM     97  N   UNL     1       4.689  -7.118  -4.199  1.00  0.00    -0.368 N 
BRANCH  97  98
ATOM     98  C   UNL     1       5.121  -7.019  -5.513  1.00  0.00     0.038 A 
ATOM     99  C   UNL     1       5.051  -8.158  -6.335  1.00  0.00     0.026 A 
ATOM    100  C   UNL     1       5.645  -5.848  -6.071  1.00  0.00     0.046 A 
ATOM    101  C   UNL     1       5.489  -8.140  -7.661  1.00  0.00     0.004 A 
ATOM    102  C   UNL     1       6.098  -5.832  -7.396  1.00  0.00     0.043 A 
ATOM    103  C   UNL     1       6.021  -6.972  -8.194  1.00  0.00     0.020 A 
ATOM    104  Cl  UNL     1       6.775  -4.391  -8.053  1.00  0.00    -0.084 Cl
ENDBRANCH  97  98
ENDBRANCH  85  90
ENDBRANCH  81  83
ENDBRANCH  80  81
ENDBRANCH  79  80
ENDBRANCH  78  79
ENDBRANCH  77  78
ENDBRANCH  76  77
ENDBRANCH  75  76
ENDBRANCH   1  75
TORSDOF 22
