REMARK SMILES Cc1cccc(Nc2ccccc2C(=O)OCCOCCOCCOCCOC(=O)c2ccc(-c3c4nc(c(-c5c(F)c(F)c(F)c(F)c5F)c5ccc([nH]5)c(-c5c(F)c(F)c(F)c(F)c5F)c5nc(c(-c6c(F)c(F)c(F)c(F)c6F)c6ccc3[nH]6)C=C5)C=C4)cc2)c1C
REMARK SMILES IDX 22 1 21 2 20 3 19 4 18 5 17 6 16 7 14 8 15 9 13 10 8 11 9 12
REMARK SMILES IDX 10 13 12 14 11 15 7 16 6 18 1 19 2 20 3 21 94 22 4 23 95 24
REMARK SMILES IDX 5 25 23 26 24 27 25 28 26 29 27 30 28 31 29 32 30 33 31 34
REMARK SMILES IDX 32 35 93 36 33 37 92 38 34 39 35 40 36 41 86 42 37 43 91 44
REMARK SMILES IDX 85 45 87 46 38 47 90 48 84 49 83 50 39 52 71 53 51 54 70 55
REMARK SMILES IDX 52 56 55 57 69 58 88 59 53 60 54 61 68 63 89 64 56 65 40 66
REMARK SMILES IDX 41 67 49 68 42 69 43 70 47 71 50 72 44 73 45 74 48 75 46 76
REMARK SMILES IDX 72 77 73 78 81 79 74 80 75 81 79 82 82 83 76 84 77 85 80 86
REMARK SMILES IDX 78 87 57 88 58 89 66 90 59 91 60 92 64 93 67 94 61 95 62 96
REMARK SMILES IDX 65 97 63 98
REMARK H PARENT 7 17 87 51 55 62
REMARK Flexibility Score: inf
ROOT
ATOM      1  O   UNL     1      -1.073  -3.360   3.389  1.00  0.00    -0.377 OA
ENDROOT
BRANCH   1   2
ATOM      2  C   UNL     1       0.249  -3.852   3.572  1.00  0.00     0.188 C 
BRANCH   2   3
ATOM      3  C   UNL     1       1.347  -2.979   4.231  1.00  0.00     0.188 C 
BRANCH   3   4
ATOM      4  O   UNL     1       0.878  -1.802   4.858  1.00  0.00    -0.376 OA
BRANCH   4   5
ATOM      5  C   UNL     1       1.023  -0.545   4.230  1.00  0.00     0.202 C 
BRANCH   5   6
ATOM      6  C   UNL     1       0.691  -0.353   2.748  1.00  0.00     0.261 C 
BRANCH   6   7
ATOM      7  O   UNL     1       0.770  -1.518   1.929  1.00  0.00    -0.460 OA
BRANCH   7   8
ATOM      8  C   UNL     1       1.971  -1.779   1.372  1.00  0.00     0.340 C 
ATOM      9  O   UNL     1       3.016  -1.198   1.626  1.00  0.00    -0.246 OA
BRANCH   8  10
ATOM     10  C   UNL     1       1.900  -3.018   0.550  1.00  0.00     0.083 A 
ATOM     11  C   UNL     1       0.870  -3.337  -0.362  1.00  0.00     0.053 A 
ATOM     12  C   UNL     1       0.941  -4.591  -1.005  1.00  0.00     0.027 A 
ATOM     13  C   UNL     1       1.984  -5.490  -0.763  1.00  0.00     0.002 A 
ATOM     14  C   UNL     1       2.947  -3.932   0.789  1.00  0.00     0.018 A 
ATOM     15  C   UNL     1       2.988  -5.161   0.137  1.00  0.00     0.001 A 
BRANCH  11  16
ATOM     16  N   UNL     1      -0.183  -2.490  -0.781  1.00  0.00    -0.355 N 
ATOM     17  H   UNL     1      -0.957  -2.969  -1.156  1.00  0.00     0.167 HD
BRANCH  16  18
ATOM     18  C   UNL     1      -0.329  -1.088  -0.762  1.00  0.00     0.042 A 
ATOM     19  C   UNL     1       1.810   2.041  -0.389  1.00  0.00     0.044 C 
ATOM     20  C   UNL     1       0.605   1.150  -0.542  1.00  0.00    -0.046 A 
ATOM     21  C   UNL     1      -0.650   1.627  -0.136  1.00  0.00     0.004 A 
ATOM     22  C   UNL     1       0.742  -0.192  -0.968  1.00  0.00    -0.025 A 
ATOM     23  C   UNL     1      -1.750   0.778  -0.096  1.00  0.00     0.002 A 
ATOM     24  C   UNL     1       2.023  -0.641  -1.629  1.00  0.00     0.047 C 
ATOM     25  C   UNL     1      -1.579  -0.577  -0.369  1.00  0.00     0.026 A 
ENDBRANCH  16  18
ENDBRANCH  11  16
ENDBRANCH   8  10
ENDBRANCH   7   8
ENDBRANCH   6   7
ENDBRANCH   5   6
ENDBRANCH   4   5
ENDBRANCH   3   4
ENDBRANCH   2   3
ENDBRANCH   1   2
BRANCH   1  26
ATOM     26  C   UNL     1      -1.705  -2.599   4.410  1.00  0.00     0.188 C 
BRANCH  26  27
ATOM     27  C   UNL     1      -1.391  -2.854   5.902  1.00  0.00     0.188 C 
BRANCH  27  28
ATOM     28  O   UNL     1      -0.484  -3.914   6.143  1.00  0.00    -0.376 OA
BRANCH  28  29
ATOM     29  C   UNL     1      -0.995  -5.149   6.605  1.00  0.00     0.202 C 
BRANCH  29  30
ATOM     30  C   UNL     1      -2.045  -5.869   5.747  1.00  0.00     0.261 C 
BRANCH  30  31
ATOM     31  O   UNL     1      -3.184  -5.094   5.345  1.00  0.00    -0.460 OA
BRANCH  31  32
ATOM     32  C   UNL     1      -4.018  -4.665   6.314  1.00  0.00     0.338 C 
ATOM     33  O   UNL     1      -3.929  -4.866   7.515  1.00  0.00    -0.246 OA
BRANCH  32  34
ATOM     34  C   UNL     1      -4.976  -3.736   5.687  1.00  0.00     0.060 A 
ATOM     35  C   UNL     1      -4.998  -2.394   6.092  1.00  0.00     0.016 A 
ATOM     36  C   UNL     1      -5.839  -4.191   4.687  1.00  0.00     0.016 A 
ATOM     37  C   UNL     1      -5.907  -1.508   5.517  1.00  0.00     0.010 A 
ATOM     38  C   UNL     1      -6.767  -3.310   4.133  1.00  0.00     0.010 A 
ATOM     39  C   UNL     1      -6.827  -1.974   4.571  1.00  0.00    -0.014 A 
BRANCH  39  40
ATOM     40  C   UNL     1      -7.986  -1.131   4.200  1.00  0.00     0.031 A 
ATOM     41  C   UNL     1      -9.290  -1.371   4.906  1.00  0.00     0.074 A 
ATOM     42  C   UNL     1      -7.884  -0.172   3.266  1.00  0.00     0.049 A 
ATOM     43  N   UNL     1     -10.457  -0.814   4.716  1.00  0.00    -0.248 NA
ATOM     44  C   UNL     1      -9.271  -2.388   5.970  1.00  0.00     0.031 C 
ATOM     45  C   UNL     1      -6.665   0.178   2.543  1.00  0.00     0.029 A 
ATOM     46  N   UNL     1      -8.838   0.674   2.756  1.00  0.00    -0.354 N 
ATOM     47  C   UNL     1     -11.314  -1.424   5.623  1.00  0.00     0.074 A 
ATOM     48  C   UNL     1     -10.541  -2.412   6.341  1.00  0.00     0.031 C 
ATOM     49  C   UNL     1      -6.948   1.154   1.663  1.00  0.00     0.029 A 
ATOM     50  C   UNL     1      -8.375   1.468   1.738  1.00  0.00     0.049 A 
ATOM     51  H   UNL     1      -9.764   0.706   3.088  1.00  0.00     0.167 HD
ATOM     52  C   UNL     1     -12.628  -1.177   5.837  1.00  0.00     0.037 A 
ATOM     53  C   UNL     1      -9.039   2.326   0.938  1.00  0.00     0.037 A 
ATOM     54  C   UNL     1     -13.390  -0.194   5.113  1.00  0.00     0.049 A 
ATOM     55  C   UNL     1     -10.516   2.539   1.148  1.00  0.00     0.074 A 
ATOM     56  C   UNL     1     -14.716   0.162   5.276  1.00  0.00     0.029 A 
ATOM     57  N   UNL     1     -12.894   0.577   4.070  1.00  0.00    -0.354 N 
ATOM     58  N   UNL     1     -11.316   1.990   2.030  1.00  0.00    -0.248 NA
ATOM     59  C   UNL     1     -11.182   3.495   0.252  1.00  0.00     0.031 C 
ATOM     60  C   UNL     1     -15.043   1.093   4.285  1.00  0.00     0.029 A 
ATOM     61  C   UNL     1     -13.900   1.377   3.552  1.00  0.00     0.049 A 
ATOM     62  H   UNL     1     -11.965   0.558   3.746  1.00  0.00     0.167 HD
ATOM     63  C   UNL     1     -12.570   2.549   1.814  1.00  0.00     0.074 A 
ATOM     64  C   UNL     1     -12.421   3.492   0.725  1.00  0.00     0.031 C 
ATOM     65  C   UNL     1     -13.738   2.307   2.461  1.00  0.00     0.037 A 
BRANCH  52  66
ATOM     66  C   UNL     1     -13.330  -2.025   6.860  1.00  0.00     0.064 A 
ATOM     67  C   UNL     1     -13.037  -1.940   8.230  1.00  0.00     0.173 A 
ATOM     68  C   UNL     1     -14.313  -2.942   6.459  1.00  0.00     0.173 A 
ATOM     69  F   UNL     1     -12.094  -1.091   8.668  1.00  0.00    -0.203 F 
ATOM     70  C   UNL     1     -13.668  -2.772   9.152  1.00  0.00     0.198 A 
ATOM     71  C   UNL     1     -14.970  -3.744   7.387  1.00  0.00     0.198 A 
ATOM     72  F   UNL     1     -14.637  -3.064   5.162  1.00  0.00    -0.203 F 
ATOM     73  F   UNL     1     -13.321  -2.721  10.446  1.00  0.00    -0.200 F 
ATOM     74  C   UNL     1     -14.639  -3.668   8.731  1.00  0.00     0.200 A 
ATOM     75  F   UNL     1     -15.918  -4.600   6.979  1.00  0.00    -0.200 F 
ATOM     76  F   UNL     1     -15.246  -4.468   9.619  1.00  0.00    -0.200 F 
ENDBRANCH  52  66
BRANCH  53  77
ATOM     77  C   UNL     1      -8.306   3.031  -0.146  1.00  0.00     0.064 A 
ATOM     78  C   UNL     1      -8.085   4.413  -0.096  1.00  0.00     0.173 A 
ATOM     79  C   UNL     1      -7.799   2.329  -1.251  1.00  0.00     0.173 A 
ATOM     80  F   UNL     1      -8.572   5.132   0.926  1.00  0.00    -0.203 F 
ATOM     81  C   UNL     1      -7.390   5.068  -1.111  1.00  0.00     0.198 A 
ATOM     82  C   UNL     1      -7.079   2.980  -2.250  1.00  0.00     0.198 A 
ATOM     83  F   UNL     1      -7.985   1.005  -1.349  1.00  0.00    -0.203 F 
ATOM     84  F   UNL     1      -7.223   6.397  -1.055  1.00  0.00    -0.200 F 
ATOM     85  C   UNL     1      -6.879   4.350  -2.182  1.00  0.00     0.200 A 
ATOM     86  F   UNL     1      -6.575   2.279  -3.274  1.00  0.00    -0.200 F 
ATOM     87  F   UNL     1      -6.198   4.979  -3.149  1.00  0.00    -0.200 F 
ENDBRANCH  53  77
BRANCH  65  88
ATOM     88  C   UNL     1     -14.946   3.093   2.032  1.00  0.00     0.064 A 
ATOM     89  C   UNL     1     -15.570   2.877   0.794  1.00  0.00     0.173 A 
ATOM     90  C   UNL     1     -15.517   4.043   2.894  1.00  0.00     0.173 A 
ATOM     91  F   UNL     1     -15.060   1.989  -0.073  1.00  0.00    -0.203 F 
ATOM     92  C   UNL     1     -16.700   3.603   0.424  1.00  0.00     0.198 A 
ATOM     93  C   UNL     1     -16.668   4.740   2.536  1.00  0.00     0.198 A 
ATOM     94  F   UNL     1     -14.968   4.284   4.094  1.00  0.00    -0.203 F 
ATOM     95  F   UNL     1     -17.247   3.416  -0.786  1.00  0.00    -0.200 F 
ATOM     96  C   UNL     1     -17.253   4.526   1.298  1.00  0.00     0.200 A 
ATOM     97  F   UNL     1     -17.211   5.618   3.391  1.00  0.00    -0.200 F 
ATOM     98  F   UNL     1     -18.347   5.215   0.944  1.00  0.00    -0.200 F 
ENDBRANCH  65  88
ENDBRANCH  39  40
ENDBRANCH  32  34
ENDBRANCH  31  32
ENDBRANCH  30  31
ENDBRANCH  29  30
ENDBRANCH  28  29
ENDBRANCH  27  28
ENDBRANCH  26  27
ENDBRANCH   1  26
TORSDOF 22
