REMARK SMILES O=C(CCc1nc(-c2ccccc2)c(-c2ccccc2)o1)OCCOCCOCCOCCOC(=O)c1ccc(-c2c3nc(c(-c4c(F)c(F)c(F)c(F)c4F)c4ccc([nH]4)c(-c4c(F)c(F)c(F)c(F)c4F)c4nc(c(-c5c(F)c(F)c(F)c(F)c5F)c5ccc2[nH]5)C=C4)C=C3)cc1
REMARK SMILES IDX 27 1 26 2 25 3 24 4 23 5 22 6 2 7 1 8 3 9 4 10 5 11 6 12
REMARK SMILES IDX 21 13 7 14 14 15 8 16 9 17 13 18 10 19 12 20 11 21 15 22
REMARK SMILES IDX 16 23 20 24 17 25 19 26 18 27 28 28 29 29 30 30 31 31 32 32
REMARK SMILES IDX 33 33 34 34 35 35 36 36 37 37 38 38 99 39 39 40 98 41 40 42
REMARK SMILES IDX 41 43 42 44 92 45 43 46 97 47 91 48 93 49 44 50 96 51 90 52
REMARK SMILES IDX 89 53 45 55 77 56 57 57 76 58 58 59 61 60 75 61 94 62 59 63
REMARK SMILES IDX 60 64 74 66 95 67 62 68 46 69 47 70 55 71 48 72 49 73 53 74
REMARK SMILES IDX 56 75 50 76 51 77 54 78 52 79 78 80 79 81 87 82 80 83 81 84
REMARK SMILES IDX 85 85 88 86 82 87 83 88 86 89 84 90 63 91 64 92 72 93 65 94
REMARK SMILES IDX 66 95 70 96 73 97 67 98 68 99 71 100 69 101
REMARK H PARENT 93 54 61 65
REMARK Flexibility Score: inf
ROOT
ATOM      1  C   UNL     1       2.089   0.639  -2.570  1.00  0.00     0.188 C 
ENDROOT
BRANCH   1   2
ATOM      2  C   UNL     1       2.433   1.541  -1.378  1.00  0.00     0.188 C 
BRANCH   2   3
ATOM      3  O   UNL     1       3.788   1.592  -0.954  1.00  0.00    -0.376 OA
BRANCH   3   4
ATOM      4  C   UNL     1       4.451   0.398  -0.555  1.00  0.00     0.202 C 
BRANCH   4   5
ATOM      5  C   UNL     1       3.645  -0.828  -0.118  1.00  0.00     0.261 C 
BRANCH   5   6
ATOM      6  O   UNL     1       2.446  -0.615   0.638  1.00  0.00    -0.463 OA
BRANCH   6   7
ATOM      7  C   UNL     1       2.422  -0.267   1.940  1.00  0.00     0.306 C 
ATOM      8  O   UNL     1       1.528  -0.678   2.675  1.00  0.00    -0.252 OA
BRANCH   7   9
ATOM      9  C   UNL     1       3.393   0.780   2.411  1.00  0.00     0.132 C 
BRANCH   9  10
ATOM     10  C   UNL     1       4.514   0.262   3.301  1.00  0.00     0.109 C 
BRANCH  10  11
ATOM     11  C   UNL     1       5.353  -0.803   2.689  1.00  0.00     0.196 A 
ATOM     12  N   UNL     1       5.093  -2.093   2.620  1.00  0.00    -0.213 NA
ATOM     13  O   UNL     1       6.489  -0.417   2.017  1.00  0.00    -0.440 OA
ATOM     14  C   UNL     1       6.107  -2.596   1.839  1.00  0.00     0.117 A 
ATOM     15  C   UNL     1       6.952  -1.577   1.439  1.00  0.00     0.162 A 
BRANCH  14  16
ATOM     16  C   UNL     1       6.161  -3.959   1.361  1.00  0.00     0.004 A 
ATOM     17  C   UNL     1       7.295  -4.746   1.585  1.00  0.00     0.010 A 
ATOM     18  C   UNL     1       5.105  -4.472   0.595  1.00  0.00     0.010 A 
ATOM     19  C   UNL     1       7.380  -6.024   1.032  1.00  0.00     0.001 A 
ATOM     20  C   UNL     1       5.199  -5.744   0.030  1.00  0.00     0.001 A 
ATOM     21  C   UNL     1       6.338  -6.517   0.248  1.00  0.00     0.000 A 
ENDBRANCH  14  16
BRANCH  15  22
ATOM     22  C   UNL     1       8.068  -1.472   0.510  1.00  0.00     0.020 A 
ATOM     23  C   UNL     1       9.252  -0.821   0.871  1.00  0.00     0.012 A 
ATOM     24  C   UNL     1       7.997  -2.090  -0.751  1.00  0.00     0.012 A 
ATOM     25  C   UNL     1      10.354  -0.828   0.010  1.00  0.00     0.001 A 
ATOM     26  C   UNL     1       9.097  -2.092  -1.613  1.00  0.00     0.001 A 
ATOM     27  C   UNL     1      10.280  -1.470  -1.226  1.00  0.00     0.000 A 
ENDBRANCH  15  22
ENDBRANCH  10  11
ENDBRANCH   9  10
ENDBRANCH   7   9
ENDBRANCH   6   7
ENDBRANCH   5   6
ENDBRANCH   4   5
ENDBRANCH   3   4
ENDBRANCH   2   3
ENDBRANCH   1   2
BRANCH   1  28
ATOM     28  O   UNL     1       3.089  -0.328  -2.848  1.00  0.00    -0.377 OA
BRANCH  28  29
ATOM     29  C   UNL     1       3.909  -0.058  -3.975  1.00  0.00     0.188 C 
BRANCH  29  30
ATOM     30  C   UNL     1       4.742   1.238  -3.945  1.00  0.00     0.188 C 
BRANCH  30  31
ATOM     31  O   UNL     1       3.999   2.429  -3.818  1.00  0.00    -0.376 OA
BRANCH  31  32
ATOM     32  C   UNL     1       3.308   3.045  -4.883  1.00  0.00     0.202 C 
BRANCH  32  33
ATOM     33  C   UNL     1       3.099   2.485  -6.304  1.00  0.00     0.261 C 
BRANCH  33  34
ATOM     34  O   UNL     1       3.527   1.154  -6.583  1.00  0.00    -0.460 OA
BRANCH  34  35
ATOM     35  C   UNL     1       4.756   1.009  -7.130  1.00  0.00     0.338 C 
ATOM     36  O   UNL     1       5.533   1.898  -7.434  1.00  0.00    -0.246 OA
BRANCH  35  37
ATOM     37  C   UNL     1       5.112  -0.429  -7.086  1.00  0.00     0.060 A 
ATOM     38  C   UNL     1       6.331  -0.795  -6.499  1.00  0.00     0.016 A 
ATOM     39  C   UNL     1       4.244  -1.411  -7.573  1.00  0.00     0.016 A 
ATOM     40  C   UNL     1       6.699  -2.139  -6.424  1.00  0.00     0.010 A 
ATOM     41  C   UNL     1       4.625  -2.755  -7.522  1.00  0.00     0.010 A 
ATOM     42  C   UNL     1       5.867  -3.123  -6.974  1.00  0.00    -0.014 A 
BRANCH  42  43
ATOM     43  C   UNL     1       6.383  -4.500  -7.172  1.00  0.00     0.031 A 
ATOM     44  C   UNL     1       7.020  -4.831  -8.494  1.00  0.00     0.074 A 
ATOM     45  C   UNL     1       6.293  -5.437  -6.212  1.00  0.00     0.049 A 
ATOM     46  N   UNL     1       7.477  -5.974  -8.937  1.00  0.00    -0.248 NA
ATOM     47  C   UNL     1       7.160  -3.717  -9.447  1.00  0.00     0.031 C 
ATOM     48  C   UNL     1       5.740  -5.234  -4.876  1.00  0.00     0.029 A 
ATOM     49  N   UNL     1       6.659  -6.762  -6.228  1.00  0.00    -0.354 N 
ATOM     50  C   UNL     1       7.952  -5.718 -10.217  1.00  0.00     0.074 A 
ATOM     51  C   UNL     1       7.711  -4.319 -10.490  1.00  0.00     0.031 C 
ATOM     52  C   UNL     1       5.779  -6.401  -4.207  1.00  0.00     0.029 A 
ATOM     53  C   UNL     1       6.327  -7.439  -5.079  1.00  0.00     0.049 A 
ATOM     54  H   UNL     1       7.114  -7.186  -6.991  1.00  0.00     0.167 HD
ATOM     55  C   UNL     1       8.540  -6.572 -11.085  1.00  0.00     0.037 A 
ATOM     56  C   UNL     1       6.427  -8.751  -4.785  1.00  0.00     0.037 A 
ATOM     57  C   UNL     1       8.779  -7.965 -10.818  1.00  0.00     0.049 A 
ATOM     58  C   UNL     1       7.008  -9.700  -5.808  1.00  0.00     0.074 A 
ATOM     59  C   UNL     1       9.394  -8.904 -11.626  1.00  0.00     0.029 A 
ATOM     60  N   UNL     1       8.400  -8.619  -9.656  1.00  0.00    -0.354 N 
ATOM     61  N   UNL     1       7.491  -9.443  -7.000  1.00  0.00    -0.248 NA
ATOM     62  C   UNL     1       7.054 -11.124  -5.442  1.00  0.00     0.031 C 
ATOM     63  C   UNL     1       9.339 -10.141 -10.976  1.00  0.00     0.029 A 
ATOM     64  C   UNL     1       8.739  -9.960  -9.741  1.00  0.00     0.049 A 
ATOM     65  H   UNL     1       7.956  -8.195  -8.887  1.00  0.00     0.167 HD
ATOM     66  C   UNL     1       7.921 -10.663  -7.510  1.00  0.00     0.074 A 
ATOM     67  C   UNL     1       7.659 -11.658  -6.493  1.00  0.00     0.031 C 
ATOM     68  C   UNL     1       8.480 -10.936  -8.715  1.00  0.00     0.037 A 
BRANCH  55  69
ATOM     69  C   UNL     1       8.947  -6.033 -12.423  1.00  0.00     0.064 A 
ATOM     70  C   UNL     1      10.055  -5.186 -12.569  1.00  0.00     0.173 A 
ATOM     71  C   UNL     1       8.251  -6.414 -13.580  1.00  0.00     0.173 A 
ATOM     72  F   UNL     1      10.742  -4.780 -11.491  1.00  0.00    -0.203 F 
ATOM     73  C   UNL     1      10.444  -4.730 -13.826  1.00  0.00     0.198 A 
ATOM     74  C   UNL     1       8.658  -5.977 -14.836  1.00  0.00     0.198 A 
ATOM     75  F   UNL     1       7.183  -7.222 -13.491  1.00  0.00    -0.203 F 
ATOM     76  F   UNL     1      11.486  -3.895 -13.941  1.00  0.00    -0.200 F 
ATOM     77  C   UNL     1       9.752  -5.133 -14.959  1.00  0.00     0.200 A 
ATOM     78  F   UNL     1       7.994  -6.375 -15.930  1.00  0.00    -0.200 F 
ATOM     79  F   UNL     1      10.136  -4.704 -16.169  1.00  0.00    -0.200 F 
ENDBRANCH  55  69
BRANCH  56  80
ATOM     80  C   UNL     1       5.932  -9.272  -3.482  1.00  0.00     0.064 A 
ATOM     81  C   UNL     1       6.811  -9.825  -2.540  1.00  0.00     0.173 A 
ATOM     82  C   UNL     1       4.562  -9.287  -3.180  1.00  0.00     0.173 A 
ATOM     83  F   UNL     1       8.127  -9.858  -2.792  1.00  0.00    -0.203 F 
ATOM     84  C   UNL     1       6.336 -10.399  -1.362  1.00  0.00     0.198 A 
ATOM     85  C   UNL     1       4.092  -9.832  -1.987  1.00  0.00     0.198 A 
ATOM     86  F   UNL     1       3.676  -8.778  -4.049  1.00  0.00    -0.203 F 
ATOM     87  F   UNL     1       7.195 -10.969  -0.505  1.00  0.00    -0.200 F 
ATOM     88  C   UNL     1       4.978 -10.399  -1.084  1.00  0.00     0.200 A 
ATOM     89  F   UNL     1       2.779  -9.819  -1.719  1.00  0.00    -0.200 F 
ATOM     90  F   UNL     1       4.523 -10.952   0.048  1.00  0.00    -0.200 F 
ENDBRANCH  56  80
BRANCH  68  91
ATOM     91  C   UNL     1       8.878 -12.358  -8.990  1.00  0.00     0.064 A 
ATOM     92  C   UNL     1       7.922 -13.357  -9.226  1.00  0.00     0.173 A 
ATOM     93  C   UNL     1      10.233 -12.715  -9.069  1.00  0.00     0.173 A 
ATOM     94  F   UNL     1       6.613 -13.070  -9.149  1.00  0.00    -0.203 F 
ATOM     95  C   UNL     1       8.308 -14.666  -9.505  1.00  0.00     0.198 A 
ATOM     96  C   UNL     1      10.615 -14.017  -9.380  1.00  0.00     0.198 A 
ATOM     97  F   UNL     1      11.188 -11.795  -8.862  1.00  0.00    -0.203 F 
ATOM     98  F   UNL     1       7.377 -15.613  -9.682  1.00  0.00    -0.200 F 
ATOM     99  C   UNL     1       9.653 -14.992  -9.591  1.00  0.00     0.200 A 
ATOM    100  F   UNL     1      11.915 -14.327  -9.477  1.00  0.00    -0.200 F 
ATOM    101  F   UNL     1      10.022 -16.250  -9.870  1.00  0.00    -0.200 F 
ENDBRANCH  68  91
ENDBRANCH  42  43
ENDBRANCH  35  37
ENDBRANCH  34  35
ENDBRANCH  33  34
ENDBRANCH  32  33
ENDBRANCH  31  32
ENDBRANCH  30  31
ENDBRANCH  29  30
ENDBRANCH  28  29
ENDBRANCH   1  28
TORSDOF 24
