REMARK SMILES O=C(OCCOCCOCCOCCOC(=O)[C@H]1C[C@H](O)CN1C(=O)c1ccccc1O)c1ccc(-c2c3nc(c(-c4c(F)c(F)c(F)c(F)c4F)c4ccc([nH]4)c(-c4c(F)c(F)c(F)c(F)c4F)c4nc(c(-c5c(F)c(F)c(F)c(F)c5F)c5ccc2[nH]5)C=C4)C=C3)cc1
REMARK SMILES IDX 10 1 9 2 8 3 7 4 6 5 5 6 4 7 3 8 2 9 1 10 33 11 34 12 95 13
REMARK SMILES IDX 35 14 94 15 36 16 37 17 38 18 88 19 39 20 93 21 87 22 89 23
REMARK SMILES IDX 40 24 92 25 86 26 85 27 41 29 73 30 53 31 72 32 54 33 57 34
REMARK SMILES IDX 71 35 90 36 55 37 56 38 70 40 91 41 58 42 42 43 43 44 51 45
REMARK SMILES IDX 44 46 45 47 49 48 52 49 46 50 47 51 50 52 48 53 74 54 75 55
REMARK SMILES IDX 83 56 76 57 77 58 81 59 84 60 78 61 79 62 82 63 80 64 59 65
REMARK SMILES IDX 60 66 68 67 61 68 62 69 66 70 69 71 63 72 64 73 67 74 65 75
REMARK SMILES IDX 11 76 12 77 13 78 14 79 15 80 16 81 17 82 18 83 19 84 23 85
REMARK SMILES IDX 20 86 22 87 24 88 25 89 26 90 27 91 31 92 28 93 30 94 29 95
REMARK SMILES IDX 32 96 21 98
REMARK H PARENT 89 28 57 39 32 97 21 99
REMARK Flexibility Score: inf
ROOT
ATOM      1  C   UNL     1       4.798  -2.556   1.805  1.00  0.00     0.188 C 
ENDROOT
BRANCH   1   2
ATOM      2  O   UNL     1       3.519  -2.444   2.408  1.00  0.00    -0.377 OA
BRANCH   2   3
ATOM      3  C   UNL     1       2.486  -1.775   1.697  1.00  0.00     0.188 C 
BRANCH   3   4
ATOM      4  C   UNL     1       2.744  -0.279   1.560  1.00  0.00     0.188 C 
BRANCH   4   5
ATOM      5  O   UNL     1       3.791  -0.140   0.606  1.00  0.00    -0.376 OA
BRANCH   5   6
ATOM      6  C   UNL     1       4.457   1.095   0.548  1.00  0.00     0.202 C 
BRANCH   6   7
ATOM      7  C   UNL     1       3.753   2.144  -0.306  1.00  0.00     0.261 C 
BRANCH   7   8
ATOM      8  O   UNL     1       2.328   1.948  -0.413  1.00  0.00    -0.460 OA
BRANCH   8   9
ATOM      9  C   UNL     1       1.702   1.357  -1.462  1.00  0.00     0.338 C 
ATOM     10  O   UNL     1       0.480   1.444  -1.607  1.00  0.00    -0.246 OA
BRANCH   9  11
ATOM     11  C   UNL     1       2.490   0.643  -2.486  1.00  0.00     0.060 A 
ATOM     12  C   UNL     1       3.254  -0.475  -2.163  1.00  0.00     0.016 A 
ATOM     13  C   UNL     1       2.407   1.042  -3.819  1.00  0.00     0.016 A 
ATOM     14  C   UNL     1       4.114  -1.045  -3.089  1.00  0.00     0.010 A 
ATOM     15  C   UNL     1       3.155   0.368  -4.789  1.00  0.00     0.010 A 
ATOM     16  C   UNL     1       4.058  -0.648  -4.422  1.00  0.00    -0.014 A 
BRANCH  16  17
ATOM     17  C   UNL     1       4.977  -1.250  -5.419  1.00  0.00     0.031 A 
ATOM     18  C   UNL     1       5.881  -0.341  -6.197  1.00  0.00     0.074 A 
ATOM     19  C   UNL     1       5.034  -2.585  -5.600  1.00  0.00     0.049 A 
ATOM     20  N   UNL     1       6.542  -0.567  -7.301  1.00  0.00    -0.248 NA
ATOM     21  C   UNL     1       6.047   1.023  -5.667  1.00  0.00     0.031 C 
ATOM     22  C   UNL     1       4.293  -3.583  -4.825  1.00  0.00     0.029 A 
ATOM     23  N   UNL     1       5.759  -3.337  -6.490  1.00  0.00    -0.354 N 
ATOM     24  C   UNL     1       7.119   0.648  -7.646  1.00  0.00     0.074 A 
ATOM     25  C   UNL     1       6.759   1.602  -6.621  1.00  0.00     0.031 C 
ATOM     26  C   UNL     1       4.634  -4.811  -5.241  1.00  0.00     0.029 A 
ATOM     27  C   UNL     1       5.513  -4.686  -6.394  1.00  0.00     0.049 A 
ATOM     28  H   UNL     1       6.393  -2.948  -7.135  1.00  0.00     0.167 HD
ATOM     29  C   UNL     1       7.861   0.932  -8.741  1.00  0.00     0.037 A 
ATOM     30  C   UNL     1       5.896  -5.699  -7.195  1.00  0.00     0.037 A 
ATOM     31  C   UNL     1       8.248  -0.060  -9.707  1.00  0.00     0.049 A 
ATOM     32  C   UNL     1       6.695  -5.359  -8.423  1.00  0.00     0.074 A 
ATOM     33  C   UNL     1       8.966   0.096 -10.877  1.00  0.00     0.029 A 
ATOM     34  N   UNL     1       7.958  -1.414  -9.588  1.00  0.00    -0.354 N 
ATOM     35  N   UNL     1       7.139  -4.190  -8.822  1.00  0.00    -0.248 NA
ATOM     36  C   UNL     1       7.008  -6.465  -9.336  1.00  0.00     0.031 C 
ATOM     37  C   UNL     1       9.086  -1.162 -11.480  1.00  0.00     0.029 A 
ATOM     38  C   UNL     1       8.475  -2.106 -10.667  1.00  0.00     0.049 A 
ATOM     39  H   UNL     1       7.457  -1.820  -8.844  1.00  0.00     0.167 HD
ATOM     40  C   UNL     1       7.778  -4.416 -10.031  1.00  0.00     0.074 A 
ATOM     41  C   UNL     1       7.691  -5.841 -10.286  1.00  0.00     0.031 C 
ATOM     42  C   UNL     1       8.369  -3.528 -10.868  1.00  0.00     0.037 A 
BRANCH  29  43
ATOM     43  C   UNL     1       8.217   2.370  -8.976  1.00  0.00     0.064 A 
ATOM     44  C   UNL     1       9.166   3.046  -8.197  1.00  0.00     0.173 A 
ATOM     45  C   UNL     1       7.556   3.097  -9.980  1.00  0.00     0.173 A 
ATOM     46  F   UNL     1       9.804   2.407  -7.205  1.00  0.00    -0.203 F 
ATOM     47  C   UNL     1       9.417   4.404  -8.391  1.00  0.00     0.198 A 
ATOM     48  C   UNL     1       7.828   4.447 -10.189  1.00  0.00     0.198 A 
ATOM     49  F   UNL     1       6.634   2.501 -10.750  1.00  0.00    -0.203 F 
ATOM     50  F   UNL     1      10.281   5.045  -7.592  1.00  0.00    -0.200 F 
ATOM     51  C   UNL     1       8.749   5.102  -9.387  1.00  0.00     0.200 A 
ATOM     52  F   UNL     1       7.182   5.118 -11.152  1.00  0.00    -0.200 F 
ATOM     53  F   UNL     1       8.981   6.410  -9.563  1.00  0.00    -0.200 F 
ENDBRANCH  29  43
BRANCH  30  54
ATOM     54  C   UNL     1       5.455  -7.092  -6.909  1.00  0.00     0.064 A 
ATOM     55  C   UNL     1       6.379  -8.091  -6.573  1.00  0.00     0.173 A 
ATOM     56  C   UNL     1       4.099  -7.455  -6.956  1.00  0.00     0.173 A 
ATOM     57  F   UNL     1       7.689  -7.807  -6.541  1.00  0.00    -0.203 F 
ATOM     58  C   UNL     1       5.965  -9.395  -6.301  1.00  0.00     0.198 A 
ATOM     59  C   UNL     1       3.683  -8.750  -6.651  1.00  0.00     0.198 A 
ATOM     60  F   UNL     1       3.170  -6.544  -7.280  1.00  0.00    -0.203 F 
ATOM     61  F   UNL     1       6.875 -10.340  -6.022  1.00  0.00    -0.200 F 
ATOM     62  C   UNL     1       4.618  -9.721  -6.330  1.00  0.00     0.200 A 
ATOM     63  F   UNL     1       2.378  -9.053  -6.665  1.00  0.00    -0.200 F 
ATOM     64  F   UNL     1       4.221 -10.972  -6.057  1.00  0.00    -0.200 F 
ENDBRANCH  30  54
BRANCH  42  65
ATOM     65  C   UNL     1       8.977  -4.085 -12.117  1.00  0.00     0.064 A 
ATOM     66  C   UNL     1       8.181  -4.455 -13.210  1.00  0.00     0.173 A 
ATOM     67  C   UNL     1      10.369  -4.191 -12.240  1.00  0.00     0.173 A 
ATOM     68  F   UNL     1       6.844  -4.384 -13.126  1.00  0.00    -0.203 F 
ATOM     69  C   UNL     1       8.761  -4.925 -14.383  1.00  0.00     0.198 A 
ATOM     70  C   UNL     1      10.945  -4.639 -13.423  1.00  0.00     0.198 A 
ATOM     71  F   UNL     1      11.166  -3.843 -11.219  1.00  0.00    -0.203 F 
ATOM     72  F   UNL     1       7.984  -5.303 -15.407  1.00  0.00    -0.200 F 
ATOM     73  C   UNL     1      10.142  -5.008 -14.492  1.00  0.00     0.200 A 
ATOM     74  F   UNL     1      12.279  -4.711 -13.531  1.00  0.00    -0.200 F 
ATOM     75  F   UNL     1      10.699  -5.450 -15.627  1.00  0.00    -0.200 F 
ENDBRANCH  42  65
ENDBRANCH  16  17
ENDBRANCH   9  11
ENDBRANCH   8   9
ENDBRANCH   7   8
ENDBRANCH   6   7
ENDBRANCH   5   6
ENDBRANCH   4   5
ENDBRANCH   3   4
ENDBRANCH   2   3
ENDBRANCH   1   2
BRANCH   1  76
ATOM     76  C   UNL     1       5.065  -3.752   0.885  1.00  0.00     0.188 C 
BRANCH  76  77
ATOM     77  O   UNL     1       3.971  -4.312   0.180  1.00  0.00    -0.376 OA
BRANCH  77  78
ATOM     78  C   UNL     1       3.012  -5.051   0.946  1.00  0.00     0.202 C 
BRANCH  78  79
ATOM     79  C   UNL     1       3.470  -5.758   2.233  1.00  0.00     0.261 C 
BRANCH  79  80
ATOM     80  O   UNL     1       3.889  -4.810   3.236  1.00  0.00    -0.462 OA
BRANCH  80  81
ATOM     81  C   UNL     1       4.292  -5.328   4.410  1.00  0.00     0.329 C 
ATOM     82  O   UNL     1       4.224  -6.531   4.665  1.00  0.00    -0.250 OA
BRANCH  81  83
ATOM     83  C   UNL     1       4.989  -4.335   5.376  1.00  0.00     0.198 C 
ATOM     84  C   UNL     1       6.460  -4.836   5.472  1.00  0.00     0.071 C 
ATOM     85  N   UNL     1       5.145  -2.860   5.258  1.00  0.00    -0.322 N 
ATOM     86  C   UNL     1       7.315  -3.634   5.083  1.00  0.00     0.136 C 
ATOM     87  C   UNL     1       6.495  -2.495   5.645  1.00  0.00     0.152 C 
BRANCH  85  88
ATOM     88  C   UNL     1       4.058  -1.995   5.265  1.00  0.00     0.258 C 
ATOM     89  O   UNL     1       2.922  -2.438   5.450  1.00  0.00    -0.269 OA
BRANCH  88  90
ATOM     90  C   UNL     1       4.221  -0.494   5.111  1.00  0.00     0.081 A 
ATOM     91  C   UNL     1       3.226   0.295   5.724  1.00  0.00     0.018 A 
ATOM     92  C   UNL     1       5.192   0.188   4.351  1.00  0.00     0.128 A 
ATOM     93  C   UNL     1       3.219   1.693   5.616  1.00  0.00     0.001 A 
ATOM     94  C   UNL     1       5.209   1.592   4.278  1.00  0.00     0.047 A 
ATOM     95  C   UNL     1       4.218   2.342   4.902  1.00  0.00     0.004 A 
BRANCH  92  96
ATOM     96  O   UNL     1       6.119  -0.471   3.588  1.00  0.00    -0.507 OA
ATOM     97  H   UNL     1       6.153  -1.407   3.598  1.00  0.00     0.293 HD
ENDBRANCH  92  96
ENDBRANCH  88  90
ENDBRANCH  85  88
BRANCH  86  98
ATOM     98  O   UNL     1       8.624  -3.703   5.613  1.00  0.00    -0.391 OA
ATOM     99  H   UNL     1       8.579  -3.786   6.578  1.00  0.00     0.211 HD
ENDBRANCH  86  98
ENDBRANCH  81  83
ENDBRANCH  80  81
ENDBRANCH  79  80
ENDBRANCH  78  79
ENDBRANCH  77  78
ENDBRANCH  76  77
ENDBRANCH   1  76
TORSDOF 24
