REMARK SMILES CC(C)C[C@@H](NC(=O)Cn1nc(O)ccc1=O)C(=O)OCCOCCOCCOCCOC(=O)c1ccc(-c2c3nc(c(-c4c(F)c(F)c(F)c(F)c4F)c4ccc([nH]4)c(-c4c(F)c(F)c(F)c(F)c4F)c4nc(c(-c5c(F)c(F)c(F)c(F)c5F)c5ccc2[nH]5)C=C4)C=C3)cc1
REMARK SMILES IDX 25 1 24 2 23 3 22 4 21 5 20 6 18 7 19 8 5 9 4 10 2 11 1 12
REMARK SMILES IDX 3 13 6 14 7 15 8 17 9 18 10 19 11 20 16 21 12 22 15 23 17 24
REMARK SMILES IDX 14 25 13 26 26 28 27 29 28 30 29 31 30 32 31 33 32 34 33 35
REMARK SMILES IDX 34 36 35 37 36 38 97 39 37 40 96 41 38 42 39 43 40 44 90 45
REMARK SMILES IDX 41 46 95 47 89 48 91 49 42 50 94 51 88 52 87 53 43 55 75 56
REMARK SMILES IDX 55 57 74 58 56 59 59 60 73 61 92 62 57 63 58 64 72 66 93 67
REMARK SMILES IDX 60 68 44 69 45 70 53 71 46 72 47 73 51 74 54 75 48 76 49 77
REMARK SMILES IDX 52 78 50 79 76 80 77 81 85 82 78 83 79 84 83 85 86 86 80 87
REMARK SMILES IDX 81 88 84 89 82 90 61 91 62 92 70 93 63 94 64 95 68 96 71 97
REMARK SMILES IDX 65 98 66 99 69 100 67 101
REMARK H PARENT 6 16 13 27 91 54 59 65
REMARK Flexibility Score: inf
ROOT
ATOM      1  C   UNL     1      -3.640   0.046   1.252  1.00  0.00     0.188 C 
ENDROOT
BRANCH   1   2
ATOM      2  C   UNL     1      -4.282   1.183   0.440  1.00  0.00     0.188 C 
BRANCH   2   3
ATOM      3  O   UNL     1      -5.458   0.971  -0.331  1.00  0.00    -0.376 OA
BRANCH   3   4
ATOM      4  C   UNL     1      -5.595  -0.184  -1.142  1.00  0.00     0.202 C 
BRANCH   4   5
ATOM      5  C   UNL     1      -4.976  -0.191  -2.550  1.00  0.00     0.261 C 
BRANCH   5   6
ATOM      6  O   UNL     1      -3.665  -0.796  -2.637  1.00  0.00    -0.462 OA
BRANCH   6   7
ATOM      7  C   UNL     1      -2.571  -0.052  -2.378  1.00  0.00     0.328 C 
ATOM      8  O   UNL     1      -2.594   1.163  -2.217  1.00  0.00    -0.250 OA
BRANCH   7   9
ATOM      9  C   UNL     1      -1.280  -0.894  -2.178  1.00  0.00     0.192 C 
BRANCH   9  10
ATOM     10  C   UNL     1      -0.902  -1.058  -0.684  1.00  0.00     0.040 C 
BRANCH  10  11
ATOM     11  C   UNL     1       0.598  -1.182  -0.338  1.00  0.00    -0.015 C 
ATOM     12  C   UNL     1       1.298   0.177  -0.386  1.00  0.00     0.007 C 
ATOM     13  C   UNL     1       0.762  -1.764   1.077  1.00  0.00     0.007 C 
ENDBRANCH  10  11
ENDBRANCH   9  10
BRANCH   9  14
ATOM     14  N   UNL     1      -1.034  -2.126  -2.963  1.00  0.00    -0.341 N 
ATOM     15  C   UNL     1      -1.568  -3.360  -3.141  1.00  0.00     0.242 C 
ATOM     16  H   UNL     1      -0.237  -2.015  -3.531  1.00  0.00     0.164 HD
ATOM     17  O   UNL     1      -0.794  -4.179  -3.659  1.00  0.00    -0.273 OA
BRANCH  15  18
ATOM     18  C   UNL     1      -2.999  -3.792  -2.823  1.00  0.00     0.248 C 
BRANCH  18  19
ATOM     19  N   UNL     1      -3.213  -4.356  -1.496  1.00  0.00    -0.217 N 
ATOM     20  N   UNL     1      -3.204  -5.727  -1.349  1.00  0.00    -0.131 NA
ATOM     21  C   UNL     1      -3.541  -3.504  -0.469  1.00  0.00     0.267 A 
ATOM     22  C   UNL     1      -3.478  -6.147  -0.166  1.00  0.00     0.229 A 
ATOM     23  C   UNL     1      -3.814  -4.066   0.862  1.00  0.00     0.079 A 
ATOM     24  O   UNL     1      -3.622  -2.301  -0.612  1.00  0.00    -0.268 OA
ATOM     25  C   UNL     1      -3.791  -5.384   1.032  1.00  0.00     0.075 A 
BRANCH  22  26
ATOM     26  O   UNL     1      -3.501  -7.455   0.079  1.00  0.00    -0.492 OA
ATOM     27  H   UNL     1      -3.316  -8.063  -0.609  1.00  0.00     0.295 HD
ENDBRANCH  22  26
ENDBRANCH  18  19
ENDBRANCH  15  18
ENDBRANCH   9  14
ENDBRANCH   7   9
ENDBRANCH   6   7
ENDBRANCH   5   6
ENDBRANCH   4   5
ENDBRANCH   3   4
ENDBRANCH   2   3
ENDBRANCH   1   2
BRANCH   1  28
ATOM     28  O   UNL     1      -4.299  -0.801   2.180  1.00  0.00    -0.377 OA
BRANCH  28  29
ATOM     29  C   UNL     1      -5.704  -0.905   2.175  1.00  0.00     0.188 C 
BRANCH  29  30
ATOM     30  C   UNL     1      -6.426   0.285   2.797  1.00  0.00     0.188 C 
BRANCH  30  31
ATOM     31  O   UNL     1      -5.558   1.378   3.052  1.00  0.00    -0.376 OA
BRANCH  31  32
ATOM     32  C   UNL     1      -5.062   1.509   4.378  1.00  0.00     0.202 C 
BRANCH  32  33
ATOM     33  C   UNL     1      -4.042   0.472   4.884  1.00  0.00     0.261 C 
BRANCH  33  34
ATOM     34  O   UNL     1      -4.444  -0.909   4.950  1.00  0.00    -0.460 OA
BRANCH  34  35
ATOM     35  C   UNL     1      -5.558  -1.248   5.630  1.00  0.00     0.338 C 
ATOM     36  O   UNL     1      -6.319  -0.514   6.223  1.00  0.00    -0.246 OA
BRANCH  35  37
ATOM     37  C   UNL     1      -5.788  -2.696   5.402  1.00  0.00     0.060 A 
ATOM     38  C   UNL     1      -4.797  -3.632   5.708  1.00  0.00     0.016 A 
ATOM     39  C   UNL     1      -7.011  -3.119   4.866  1.00  0.00     0.016 A 
ATOM     40  C   UNL     1      -5.042  -4.995   5.499  1.00  0.00     0.010 A 
ATOM     41  C   UNL     1      -7.250  -4.481   4.645  1.00  0.00     0.010 A 
ATOM     42  C   UNL     1      -6.277  -5.434   4.983  1.00  0.00    -0.014 A 
BRANCH  42  43
ATOM     43  C   UNL     1      -6.616  -6.882   5.010  1.00  0.00     0.031 A 
ATOM     44  C   UNL     1      -6.623  -7.745   3.784  1.00  0.00     0.074 A 
ATOM     45  C   UNL     1      -6.938  -7.425   6.200  1.00  0.00     0.049 A 
ATOM     46  N   UNL     1      -6.698  -9.051   3.697  1.00  0.00    -0.248 NA
ATOM     47  C   UNL     1      -6.528  -7.064   2.489  1.00  0.00     0.031 C 
ATOM     48  C   UNL     1      -7.025  -6.684   7.458  1.00  0.00     0.029 A 
ATOM     49  N   UNL     1      -7.248  -8.715   6.547  1.00  0.00    -0.354 N 
ATOM     50  C   UNL     1      -6.580  -9.353   2.347  1.00  0.00     0.074 A 
ATOM     51  C   UNL     1      -6.487  -8.089   1.645  1.00  0.00     0.031 C 
ATOM     52  C   UNL     1      -7.345  -7.534   8.444  1.00  0.00     0.029 A 
ATOM     53  C   UNL     1      -7.507  -8.873   7.885  1.00  0.00     0.049 A 
ATOM     54  H   UNL     1      -7.282  -9.455   5.899  1.00  0.00     0.167 HD
ATOM     55  C   UNL     1      -6.548 -10.573   1.755  1.00  0.00     0.037 A 
ATOM     56  C   UNL     1      -7.833  -9.973   8.589  1.00  0.00     0.037 A 
ATOM     57  C   UNL     1      -6.769 -11.819   2.444  1.00  0.00     0.049 A 
ATOM     58  C   UNL     1      -7.908 -11.301   7.888  1.00  0.00     0.074 A 
ATOM     59  C   UNL     1      -6.768 -13.103   1.925  1.00  0.00     0.029 A 
ATOM     60  N   UNL     1      -7.086 -11.933   3.789  1.00  0.00    -0.354 N 
ATOM     61  N   UNL     1      -7.654 -11.589   6.635  1.00  0.00    -0.248 NA
ATOM     62  C   UNL     1      -8.306 -12.458   8.702  1.00  0.00     0.031 C 
ATOM     63  C   UNL     1      -7.168 -13.982   2.935  1.00  0.00     0.029 A 
ATOM     64  C   UNL     1      -7.342 -13.259   4.104  1.00  0.00     0.049 A 
ATOM     65  H   UNL     1      -7.124 -11.184   4.426  1.00  0.00     0.167 HD
ATOM     66  C   UNL     1      -7.841 -12.960   6.513  1.00  0.00     0.074 A 
ATOM     67  C   UNL     1      -8.210 -13.448   7.825  1.00  0.00     0.031 C 
ATOM     68  C   UNL     1      -7.719 -13.739   5.410  1.00  0.00     0.037 A 
BRANCH  55  69
ATOM     69  C   UNL     1      -6.275 -10.633   0.280  1.00  0.00     0.064 A 
ATOM     70  C   UNL     1      -4.990 -10.387  -0.223  1.00  0.00     0.173 A 
ATOM     71  C   UNL     1      -7.265 -11.033  -0.630  1.00  0.00     0.173 A 
ATOM     72  F   UNL     1      -3.994 -10.047   0.609  1.00  0.00    -0.203 F 
ATOM     73  C   UNL     1      -4.716 -10.491  -1.584  1.00  0.00     0.198 A 
ATOM     74  C   UNL     1      -6.977 -11.181  -1.986  1.00  0.00     0.198 A 
ATOM     75  F   UNL     1      -8.505 -11.311  -0.200  1.00  0.00    -0.203 F 
ATOM     76  F   UNL     1      -3.493 -10.188  -2.042  1.00  0.00    -0.200 F 
ATOM     77  C   UNL     1      -5.706 -10.899  -2.464  1.00  0.00     0.200 A 
ATOM     78  F   UNL     1      -7.930 -11.602  -2.829  1.00  0.00    -0.200 F 
ATOM     79  F   UNL     1      -5.436 -11.024  -3.770  1.00  0.00    -0.200 F 
ENDBRANCH  55  69
BRANCH  56  80
ATOM     80  C   UNL     1      -8.075  -9.854  10.050  1.00  0.00     0.064 A 
ATOM     81  C   UNL     1      -7.179 -10.406  10.974  1.00  0.00     0.173 A 
ATOM     82  C   UNL     1      -9.179  -9.147  10.550  1.00  0.00     0.173 A 
ATOM     83  F   UNL     1      -6.118 -11.105  10.544  1.00  0.00    -0.203 F 
ATOM     84  C   UNL     1      -7.380 -10.259  12.345  1.00  0.00     0.198 A 
ATOM     85  C   UNL     1      -9.361  -8.974  11.919  1.00  0.00     0.198 A 
ATOM     86  F   UNL     1     -10.062  -8.595   9.705  1.00  0.00    -0.203 F 
ATOM     87  F   UNL     1      -6.524 -10.821  13.209  1.00  0.00    -0.200 F 
ATOM     88  C   UNL     1      -8.464  -9.534  12.816  1.00  0.00     0.200 A 
ATOM     89  F   UNL     1     -10.399  -8.256  12.369  1.00  0.00    -0.200 F 
ATOM     90  F   UNL     1      -8.645  -9.375  14.134  1.00  0.00    -0.200 F 
ENDBRANCH  56  80
BRANCH  68  91
ATOM     91  C   UNL     1      -7.987 -15.210   5.560  1.00  0.00     0.064 A 
ATOM     92  C   UNL     1      -9.282 -15.702   5.780  1.00  0.00     0.173 A 
ATOM     93  C   UNL     1      -6.949 -16.143   5.406  1.00  0.00     0.173 A 
ATOM     94  F   UNL     1     -10.307 -14.853   5.946  1.00  0.00    -0.203 F 
ATOM     95  C   UNL     1      -9.526 -17.071   5.855  1.00  0.00     0.198 A 
ATOM     96  C   UNL     1      -7.202 -17.512   5.447  1.00  0.00     0.198 A 
ATOM     97  F   UNL     1      -5.693 -15.728   5.186  1.00  0.00    -0.203 F 
ATOM     98  F   UNL     1     -10.765 -17.515   6.105  1.00  0.00    -0.200 F 
ATOM     99  C   UNL     1      -8.489 -17.974   5.677  1.00  0.00     0.200 A 
ATOM    100  F   UNL     1      -6.202 -18.383   5.255  1.00  0.00    -0.200 F 
ATOM    101  F   UNL     1      -8.729 -19.291   5.729  1.00  0.00    -0.200 F 
ENDBRANCH  68  91
ENDBRANCH  42  43
ENDBRANCH  35  37
ENDBRANCH  34  35
ENDBRANCH  33  34
ENDBRANCH  32  33
ENDBRANCH  31  32
ENDBRANCH  30  31
ENDBRANCH  29  30
ENDBRANCH  28  29
ENDBRANCH   1  28
TORSDOF 26
