REMARK SMILES O=C(OCCOCCOCCOCCOC(=O)c1ccc(-c2c3nc(c(-c4c(F)c(F)c(F)c(F)c4F)c4ccc([nH]4)c(-c4c(F)c(F)c(F)c(F)c4F)c4nc(c(-c5c(F)c(F)c(F)c(F)c5F)c5ccc2[nH]5)C=C4)C=C3)cc1)C1=NN(c2ccc(S(=O)(=O)[O-])cc2)C(=O)/C1=C\Nc1ccccc1
REMARK SMILES IDX 9 1 8 2 7 3 6 4 5 5 4 6 3 7 2 8 1 9 81 10 82 11 96 12 83 13
REMARK SMILES IDX 94 14 97 15 95 16 84 17 85 18 93 19 86 20 92 21 87 22 88 23
REMARK SMILES IDX 89 24 90 25 91 26 98 27 99 29 100 30 104 31 101 32 103 33
REMARK SMILES IDX 102 34 10 35 11 36 12 37 13 38 14 39 15 40 16 41 17 42 18 43
REMARK SMILES IDX 19 44 80 45 20 46 79 47 21 48 22 49 23 50 73 51 24 52 78 53
REMARK SMILES IDX 72 54 74 55 25 56 77 57 71 58 70 59 26 61 58 62 38 63 57 64
REMARK SMILES IDX 39 65 42 66 56 67 75 68 40 69 41 70 55 72 76 73 43 74 27 75
REMARK SMILES IDX 28 76 36 77 29 78 30 79 34 80 37 81 31 82 32 83 35 84 33 85
REMARK SMILES IDX 59 86 60 87 68 88 61 89 62 90 66 91 69 92 63 93 64 94 67 95
REMARK SMILES IDX 65 96 44 97 45 98 53 99 46 100 47 101 51 102 54 103 48 104
REMARK SMILES IDX 49 105 52 106 50 107
REMARK H PARENT 98 28 74 60 42 71
REMARK Flexibility Score: inf
ROOT
ATOM      1  O   UNL     1       2.009   0.922  -3.502  1.00  0.00    -0.377 OA
ENDROOT
BRANCH   1   2
ATOM      2  C   UNL     1       1.486   0.777  -2.184  1.00  0.00     0.188 C 
BRANCH   2   3
ATOM      3  C   UNL     1       2.211  -0.224  -1.285  1.00  0.00     0.188 C 
BRANCH   3   4
ATOM      4  O   UNL     1       3.566   0.160  -1.033  1.00  0.00    -0.376 OA
BRANCH   4   5
ATOM      5  C   UNL     1       4.527  -0.883  -1.234  1.00  0.00     0.202 C 
BRANCH   5   6
ATOM      6  C   UNL     1       4.589  -1.823  -0.041  1.00  0.00     0.261 C 
BRANCH   6   7
ATOM      7  O   UNL     1       5.013  -1.031   1.077  1.00  0.00    -0.458 OA
BRANCH   7   8
ATOM      8  C   UNL     1       3.986  -0.434   1.704  1.00  0.00     0.359 C 
ATOM      9  O   UNL     1       2.812  -0.762   1.704  1.00  0.00    -0.244 OA
BRANCH   8  10
ATOM     10  C   UNL     1       4.448   0.762   2.455  1.00  0.00     0.183 C 
ATOM     11  N   UNL     1       4.129   0.881   3.714  1.00  0.00    -0.157 NA
ATOM     12  C   UNL     1       5.159   1.941   1.930  1.00  0.00     0.093 C 
ATOM     13  N   UNL     1       4.524   2.148   4.084  1.00  0.00    -0.196 N 
ATOM     14  C   UNL     1       5.202   2.859   3.093  1.00  0.00     0.282 C 
ATOM     15  C   UNL     1       5.658   2.310   0.740  1.00  0.00     0.099 C 
ATOM     16  O   UNL     1       5.704   3.974   3.103  1.00  0.00    -0.267 OA
BRANCH  13  17
ATOM     17  C   UNL     1       4.012   2.645   5.294  1.00  0.00     0.069 A 
ATOM     18  C   UNL     1       3.536   1.752   6.268  1.00  0.00     0.030 A 
ATOM     19  C   UNL     1       3.886   4.023   5.505  1.00  0.00     0.030 A 
ATOM     20  C   UNL     1       2.963   2.227   7.444  1.00  0.00     0.021 A 
ATOM     21  C   UNL     1       3.288   4.506   6.666  1.00  0.00     0.021 A 
ATOM     22  C   UNL     1       2.847   3.604   7.634  1.00  0.00     0.054 A 
BRANCH  22  23
ATOM     23  S   UNL     1       2.134   4.186   9.139  1.00  0.00     0.124 S 
ATOM     24  O   UNL     1       0.782   3.682   9.213  1.00  0.00    -0.237 OA
ATOM     25  O   UNL     1       3.103   3.958  10.189  1.00  0.00    -0.237 OA
ATOM     26  O   UNL     1       2.049   5.790   8.984  1.00  0.00    -0.744 OA
ENDBRANCH  22  23
ENDBRANCH  13  17
BRANCH  15  27
ATOM     27  N   UNL     1       6.269   3.519   0.464  1.00  0.00    -0.361 N 
ATOM     28  H   UNL     1       6.512   4.064   1.247  1.00  0.00     0.166 HD
BRANCH  27  29
ATOM     29  C   UNL     1       6.588   4.070  -0.783  1.00  0.00     0.038 A 
ATOM     30  C   UNL     1       7.606   3.557  -1.589  1.00  0.00     0.026 A 
ATOM     31  C   UNL     1       5.896   5.205  -1.225  1.00  0.00     0.026 A 
ATOM     32  C   UNL     1       7.921   4.163  -2.812  1.00  0.00     0.002 A 
ATOM     33  C   UNL     1       6.178   5.786  -2.464  1.00  0.00     0.002 A 
ATOM     34  C   UNL     1       7.194   5.266  -3.257  1.00  0.00     0.000 A 
ENDBRANCH  27  29
ENDBRANCH  15  27
ENDBRANCH   8  10
ENDBRANCH   7   8
ENDBRANCH   6   7
ENDBRANCH   5   6
ENDBRANCH   4   5
ENDBRANCH   3   4
ENDBRANCH   2   3
ENDBRANCH   1   2
BRANCH   1  35
ATOM     35  C   UNL     1       3.393   1.233  -3.642  1.00  0.00     0.188 C 
BRANCH  35  36
ATOM     36  C   UNL     1       3.990   2.400  -2.826  1.00  0.00     0.188 C 
BRANCH  36  37
ATOM     37  O   UNL     1       3.025   3.120  -2.085  1.00  0.00    -0.376 OA
BRANCH  37  38
ATOM     38  C   UNL     1       2.678   4.416  -2.535  1.00  0.00     0.202 C 
BRANCH  38  39
ATOM     39  C   UNL     1       2.221   4.629  -3.986  1.00  0.00     0.261 C 
BRANCH  39  40
ATOM     40  O   UNL     1       2.896   3.843  -4.978  1.00  0.00    -0.460 OA
BRANCH  40  41
ATOM     41  C   UNL     1       4.020   4.330  -5.552  1.00  0.00     0.338 C 
ATOM     42  O   UNL     1       4.540   5.414  -5.378  1.00  0.00    -0.246 OA
BRANCH  41  43
ATOM     43  C   UNL     1       4.608   3.207  -6.323  1.00  0.00     0.060 A 
ATOM     44  C   UNL     1       5.822   2.641  -5.903  1.00  0.00     0.016 A 
ATOM     45  C   UNL     1       3.892   2.633  -7.375  1.00  0.00     0.016 A 
ATOM     46  C   UNL     1       6.317   1.491  -6.527  1.00  0.00     0.010 A 
ATOM     47  C   UNL     1       4.401   1.503  -8.015  1.00  0.00     0.010 A 
ATOM     48  C   UNL     1       5.618   0.930  -7.602  1.00  0.00    -0.014 A 
BRANCH  48  49
ATOM     49  C   UNL     1       6.193  -0.159  -8.428  1.00  0.00     0.031 A 
ATOM     50  C   UNL     1       6.896   0.227  -9.696  1.00  0.00     0.074 A 
ATOM     51  C   UNL     1       5.990  -1.453  -8.122  1.00  0.00     0.049 A 
ATOM     52  N   UNL     1       7.220  -0.509 -10.725  1.00  0.00    -0.248 NA
ATOM     53  C   UNL     1       7.261   1.647  -9.827  1.00  0.00     0.031 C 
ATOM     54  C   UNL     1       5.362  -1.947  -6.899  1.00  0.00     0.029 A 
ATOM     55  N   UNL     1       6.246  -2.590  -8.852  1.00  0.00    -0.354 N 
ATOM     56  C   UNL     1       7.787   0.365 -11.643  1.00  0.00     0.074 A 
ATOM     57  C   UNL     1       7.775   1.683 -11.047  1.00  0.00     0.031 C 
ATOM     58  C   UNL     1       5.232  -3.283  -6.984  1.00  0.00     0.029 A 
ATOM     59  C   UNL     1       5.715  -3.728  -8.291  1.00  0.00     0.049 A 
ATOM     60  H   UNL     1       6.759  -2.590  -9.692  1.00  0.00     0.167 HD
ATOM     61  C   UNL     1       8.256   0.088 -12.881  1.00  0.00     0.037 A 
ATOM     62  C   UNL     1       5.574  -4.967  -8.806  1.00  0.00     0.037 A 
ATOM     63  C   UNL     1       8.272  -1.229 -13.457  1.00  0.00     0.049 A 
ATOM     64  C   UNL     1       6.053  -5.237 -10.214  1.00  0.00     0.074 A 
ATOM     65  C   UNL     1       8.779  -1.629 -14.679  1.00  0.00     0.029 A 
ATOM     66  N   UNL     1       7.742  -2.357 -12.850  1.00  0.00    -0.354 N 
ATOM     67  N   UNL     1       6.620  -4.418 -11.068  1.00  0.00    -0.248 NA
ATOM     68  C   UNL     1       5.858  -6.598 -10.735  1.00  0.00     0.031 C 
ATOM     69  C   UNL     1       8.505  -2.990 -14.837  1.00  0.00     0.029 A 
ATOM     70  C   UNL     1       7.875  -3.448 -13.691  1.00  0.00     0.049 A 
ATOM     71  H   UNL     1       7.332  -2.379 -11.955  1.00  0.00     0.167 HD
ATOM     72  C   UNL     1       6.864  -5.167 -12.213  1.00  0.00     0.074 A 
ATOM     73  C   UNL     1       6.403  -6.511 -11.940  1.00  0.00     0.031 C 
ATOM     74  C   UNL     1       7.415  -4.779 -13.390  1.00  0.00     0.037 A 
BRANCH  61  75
ATOM     75  C   UNL     1       8.752   1.229 -13.717  1.00  0.00     0.064 A 
ATOM     76  C   UNL     1       9.971   1.868 -13.452  1.00  0.00     0.173 A 
ATOM     77  C   UNL     1       8.021   1.645 -14.840  1.00  0.00     0.173 A 
ATOM     78  F   UNL     1      10.697   1.519 -12.380  1.00  0.00    -0.203 F 
ATOM     79  C   UNL     1      10.436   2.889 -14.277  1.00  0.00     0.198 A 
ATOM     80  C   UNL     1       8.501   2.648 -15.677  1.00  0.00     0.198 A 
ATOM     81  F   UNL     1       6.847   1.066 -15.136  1.00  0.00    -0.203 F 
ATOM     82  F   UNL     1      11.590   3.508 -13.989  1.00  0.00    -0.200 F 
ATOM     83  C   UNL     1       9.707   3.271 -15.393  1.00  0.00     0.200 A 
ATOM     84  F   UNL     1       7.799   3.008 -16.761  1.00  0.00    -0.200 F 
ATOM     85  F   UNL     1      10.165   4.242 -16.195  1.00  0.00    -0.200 F 
ENDBRANCH  61  75
BRANCH  62  86
ATOM     86  C   UNL     1       4.889  -6.037  -8.029  1.00  0.00     0.064 A 
ATOM     87  C   UNL     1       5.581  -7.178  -7.599  1.00  0.00     0.173 A 
ATOM     88  C   UNL     1       3.516  -5.966  -7.744  1.00  0.00     0.173 A 
ATOM     89  F   UNL     1       6.887  -7.310  -7.873  1.00  0.00    -0.203 F 
ATOM     90  C   UNL     1       4.924  -8.215  -6.938  1.00  0.00     0.198 A 
ATOM     91  C   UNL     1       2.867  -6.989  -7.054  1.00  0.00     0.198 A 
ATOM     92  F   UNL     1       2.802  -4.901  -8.138  1.00  0.00    -0.203 F 
ATOM     93  F   UNL     1       5.600  -9.319  -6.592  1.00  0.00    -0.200 F 
ATOM     94  C   UNL     1       3.569  -8.117  -6.661  1.00  0.00     0.200 A 
ATOM     95  F   UNL     1       1.560  -6.884  -6.779  1.00  0.00    -0.200 F 
ATOM     96  F   UNL     1       2.938  -9.115  -6.027  1.00  0.00    -0.200 F 
ENDBRANCH  62  86
BRANCH  74  97
ATOM     97  C   UNL     1       7.576  -5.821 -14.457  1.00  0.00     0.064 A 
ATOM     98  C   UNL     1       6.477  -6.305 -15.181  1.00  0.00     0.173 A 
ATOM     99  C   UNL     1       8.852  -6.290 -14.804  1.00  0.00     0.173 A 
ATOM    100  F   UNL     1       5.236  -5.898 -14.876  1.00  0.00    -0.203 F 
ATOM    101  C   UNL     1       6.649  -7.234 -16.203  1.00  0.00     0.198 A 
ATOM    102  C   UNL     1       9.023  -7.196 -15.846  1.00  0.00     0.198 A 
ATOM    103  F   UNL     1       9.936  -5.851 -14.147  1.00  0.00    -0.203 F 
ATOM    104  F   UNL     1       5.581  -7.713 -16.857  1.00  0.00    -0.200 F 
ATOM    105  C   UNL     1       7.921  -7.671 -16.541  1.00  0.00     0.200 A 
ATOM    106  F   UNL     1      10.254  -7.605 -16.182  1.00  0.00    -0.200 F 
ATOM    107  F   UNL     1       8.085  -8.555 -17.536  1.00  0.00    -0.200 F 
ENDBRANCH  74  97
ENDBRANCH  48  49
ENDBRANCH  41  43
ENDBRANCH  40  41
ENDBRANCH  39  40
ENDBRANCH  38  39
ENDBRANCH  37  38
ENDBRANCH  36  37
ENDBRANCH  35  36
ENDBRANCH   1  35
TORSDOF 24
