REMARK SMILES CC(C)Oc1ccc(-c2ccc(/C(=C\c3ccc(S(C)(=O)=O)cc3)C(=O)OCCOCCOCCOCCOC(=O)c3ccc(-c4c5nc(c(-c6c(F)c(F)c(F)c(F)c6F)c6ccc([nH]6)c(-c6c(F)c(F)c(F)c(F)c6F)c6nc(c(-c7c(F)c(F)c(F)c(F)c7F)c7ccc4[nH]7)C=C6)C=C5)cc3)cc2)cc1
REMARK SMILES IDX 32 1 31 2 30 3 29 4 28 5 27 6 25 7 26 8 13 9 14 10 12 11
REMARK SMILES IDX 9 12 10 13 106 14 11 15 105 16 8 17 5 18 6 19 108 20 7 21
REMARK SMILES IDX 107 22 4 23 2 24 1 25 3 26 15 27 16 28 24 29 17 30 23 31
REMARK SMILES IDX 18 32 19 33 20 34 21 35 22 36 33 37 34 38 35 39 36 40 37 41
REMARK SMILES IDX 38 42 39 43 40 44 41 45 42 46 43 47 104 48 44 49 103 50
REMARK SMILES IDX 45 51 46 52 47 53 97 54 48 55 102 56 96 57 98 58 49 59
REMARK SMILES IDX 101 60 95 61 94 62 50 64 82 65 62 66 81 67 63 68 66 69 80 70
REMARK SMILES IDX 99 71 64 72 65 73 79 75 100 76 67 77 51 78 52 79 60 80 53 81
REMARK SMILES IDX 54 82 58 83 61 84 55 85 56 86 59 87 57 88 83 89 84 90 92 91
REMARK SMILES IDX 85 92 86 93 90 94 93 95 87 96 88 97 91 98 89 99 68 100
REMARK SMILES IDX 69 101 77 102 70 103 71 104 75 105 78 106 72 107 73 108
REMARK SMILES IDX 76 109 74 110
REMARK H PARENT 98 63 66 74
REMARK Flexibility Score: inf
ROOT
ATOM      1  C   UNL     1      -4.549   2.087  -9.156  1.00  0.00     0.188 C 
ENDROOT
BRANCH   1   2
ATOM      2  C   UNL     1      -5.373   0.859  -8.717  1.00  0.00     0.188 C 
BRANCH   2   3
ATOM      3  O   UNL     1      -6.268   0.352  -9.695  1.00  0.00    -0.376 OA
BRANCH   3   4
ATOM      4  C   UNL     1      -7.653   0.456  -9.414  1.00  0.00     0.202 C 
BRANCH   4   5
ATOM      5  C   UNL     1      -8.227   1.878  -9.420  1.00  0.00     0.261 C 
BRANCH   5   6
ATOM      6  O   UNL     1      -7.493   2.826  -8.629  1.00  0.00    -0.460 OA
BRANCH   6   7
ATOM      7  C   UNL     1      -7.624   2.761  -7.278  1.00  0.00     0.338 C 
ATOM      8  O   UNL     1      -8.356   1.986  -6.683  1.00  0.00    -0.246 OA
BRANCH   7   9
ATOM      9  C   UNL     1      -6.621   3.676  -6.617  1.00  0.00     0.067 C 
ATOM     10  C   UNL     1      -6.415   4.855  -7.264  1.00  0.00     0.024 C 
BRANCH   9  11
ATOM     11  C   UNL     1      -5.893   3.212  -5.388  1.00  0.00    -0.011 A 
ATOM     12  C   UNL     1      -4.137   2.349  -3.280  1.00  0.00    -0.018 A 
ATOM     13  C   UNL     1      -4.537   3.684  -3.409  1.00  0.00     0.009 A 
ATOM     14  C   UNL     1      -4.691   1.436  -4.181  1.00  0.00     0.009 A 
ATOM     15  C   UNL     1      -5.432   4.092  -4.406  1.00  0.00     0.009 A 
ATOM     16  C   UNL     1      -5.561   1.860  -5.200  1.00  0.00     0.009 A 
BRANCH  12  17
ATOM     17  C   UNL     1      -3.228   1.932  -2.196  1.00  0.00    -0.018 A 
ATOM     18  C   UNL     1      -1.530   1.160  -0.073  1.00  0.00     0.119 A 
ATOM     19  C   UNL     1      -2.554   2.074   0.148  1.00  0.00     0.047 A 
ATOM     20  C   UNL     1      -1.366   0.601  -1.336  1.00  0.00     0.047 A 
ATOM     21  C   UNL     1      -3.388   2.457  -0.902  1.00  0.00     0.012 A 
ATOM     22  C   UNL     1      -2.198   0.996  -2.394  1.00  0.00     0.012 A 
BRANCH  18  23
ATOM     23  O   UNL     1      -0.823   0.755   1.020  1.00  0.00    -0.491 OA
BRANCH  23  24
ATOM     24  C   UNL     1       0.584   1.040   1.057  1.00  0.00     0.167 C 
ATOM     25  C   UNL     1       1.405   0.014   0.283  1.00  0.00     0.052 C 
ATOM     26  C   UNL     1       0.956   2.480   0.708  1.00  0.00     0.052 C 
ENDBRANCH  23  24
ENDBRANCH  18  23
ENDBRANCH  12  17
ENDBRANCH   9  11
BRANCH  10  27
ATOM     27  C   UNL     1      -5.593   5.992  -6.821  1.00  0.00    -0.025 A 
ATOM     28  C   UNL     1      -6.290   7.137  -6.412  1.00  0.00     0.009 A 
ATOM     29  C   UNL     1      -4.208   5.912  -6.615  1.00  0.00     0.009 A 
ATOM     30  C   UNL     1      -5.652   8.116  -5.656  1.00  0.00     0.021 A 
ATOM     31  C   UNL     1      -3.562   6.890  -5.848  1.00  0.00     0.021 A 
ATOM     32  C   UNL     1      -4.302   7.960  -5.335  1.00  0.00     0.067 A 
BRANCH  32  33
ATOM     33  S   UNL     1      -3.610   9.015  -4.080  1.00  0.00     0.175 S 
ATOM     34  C   UNL     1      -3.432  10.585  -4.875  1.00  0.00     0.163 C 
ATOM     35  O   UNL     1      -4.620   9.145  -3.046  1.00  0.00    -0.224 OA
ATOM     36  O   UNL     1      -2.285   8.518  -3.763  1.00  0.00    -0.224 OA
ENDBRANCH  32  33
ENDBRANCH  10  27
ENDBRANCH   7   9
ENDBRANCH   6   7
ENDBRANCH   5   6
ENDBRANCH   4   5
ENDBRANCH   3   4
ENDBRANCH   2   3
ENDBRANCH   1   2
BRANCH   1  37
ATOM     37  O   UNL     1      -4.757   2.646 -10.445  1.00  0.00    -0.377 OA
BRANCH  37  38
ATOM     38  C   UNL     1      -4.975   1.775 -11.550  1.00  0.00     0.188 C 
BRANCH  38  39
ATOM     39  C   UNL     1      -4.270   0.398 -11.612  1.00  0.00     0.188 C 
BRANCH  39  40
ATOM     40  O   UNL     1      -3.350   0.157 -10.560  1.00  0.00    -0.376 OA
BRANCH  40  41
ATOM     41  C   UNL     1      -1.969   0.225 -10.868  1.00  0.00     0.202 C 
BRANCH  41  42
ATOM     42  C   UNL     1      -1.426   1.576 -11.352  1.00  0.00     0.261 C 
BRANCH  42  43
ATOM     43  O   UNL     1      -2.099   2.168 -12.475  1.00  0.00    -0.460 OA
BRANCH  43  44
ATOM     44  C   UNL     1      -2.045   1.526 -13.662  1.00  0.00     0.338 C 
ATOM     45  O   UNL     1      -1.475   0.479 -13.914  1.00  0.00    -0.246 OA
BRANCH  44  46
ATOM     46  C   UNL     1      -2.976   2.229 -14.570  1.00  0.00     0.060 A 
ATOM     47  C   UNL     1      -4.109   1.560 -15.057  1.00  0.00     0.016 A 
ATOM     48  C   UNL     1      -2.760   3.572 -14.880  1.00  0.00     0.016 A 
ATOM     49  C   UNL     1      -5.034   2.241 -15.854  1.00  0.00     0.010 A 
ATOM     50  C   UNL     1      -3.668   4.241 -15.702  1.00  0.00     0.010 A 
ATOM     51  C   UNL     1      -4.802   3.577 -16.203  1.00  0.00    -0.014 A 
BRANCH  51  52
ATOM     52  C   UNL     1      -5.647   4.253 -17.216  1.00  0.00     0.031 A 
ATOM     53  C   UNL     1      -5.154   4.303 -18.634  1.00  0.00     0.074 A 
ATOM     54  C   UNL     1      -6.809   4.841 -16.881  1.00  0.00     0.049 A 
ATOM     55  N   UNL     1      -5.638   4.950 -19.662  1.00  0.00    -0.248 NA
ATOM     56  C   UNL     1      -3.944   3.519 -18.928  1.00  0.00     0.031 C 
ATOM     57  C   UNL     1      -7.415   4.820 -15.552  1.00  0.00     0.029 A 
ATOM     58  N   UNL     1      -7.675   5.594 -17.636  1.00  0.00    -0.354 N 
ATOM     59  C   UNL     1      -4.789   4.659 -20.721  1.00  0.00     0.074 A 
ATOM     60  C   UNL     1      -3.745   3.798 -20.207  1.00  0.00     0.031 C 
ATOM     61  C   UNL     1      -8.545   5.548 -15.578  1.00  0.00     0.029 A 
ATOM     62  C   UNL     1      -8.716   6.124 -16.912  1.00  0.00     0.049 A 
ATOM     63  H   UNL     1      -7.561   5.740 -18.602  1.00  0.00     0.167 HD
ATOM     64  C   UNL     1      -4.876   5.070 -22.007  1.00  0.00     0.037 A 
ATOM     65  C   UNL     1      -9.669   7.004 -17.278  1.00  0.00     0.037 A 
ATOM     66  C   UNL     1      -5.912   5.933 -22.510  1.00  0.00     0.049 A 
ATOM     67  C   UNL     1      -9.681   7.534 -18.692  1.00  0.00     0.074 A 
ATOM     68  C   UNL     1      -6.100   6.390 -23.802  1.00  0.00     0.029 A 
ATOM     69  N   UNL     1      -6.926   6.479 -21.739  1.00  0.00    -0.354 N 
ATOM     70  N   UNL     1      -8.895   7.233 -19.698  1.00  0.00    -0.248 NA
ATOM     71  C   UNL     1     -10.709   8.535 -19.019  1.00  0.00     0.031 C 
ATOM     72  C   UNL     1      -7.192   7.263 -23.800  1.00  0.00     0.029 A 
ATOM     73  C   UNL     1      -7.721   7.302 -22.520  1.00  0.00     0.049 A 
ATOM     74  H   UNL     1      -7.062   6.308 -20.779  1.00  0.00     0.167 HD
ATOM     75  C   UNL     1      -9.347   7.984 -20.777  1.00  0.00     0.074 A 
ATOM     76  C   UNL     1     -10.488   8.742 -20.310  1.00  0.00     0.031 C 
ATOM     77  C   UNL     1      -8.859   8.045 -22.041  1.00  0.00     0.037 A 
BRANCH  64  78
ATOM     78  C   UNL     1      -3.807   4.618 -22.957  1.00  0.00     0.064 A 
ATOM     79  C   UNL     1      -3.716   3.285 -23.386  1.00  0.00     0.173 A 
ATOM     80  C   UNL     1      -2.886   5.540 -23.479  1.00  0.00     0.173 A 
ATOM     81  F   UNL     1      -4.562   2.362 -22.905  1.00  0.00    -0.203 F 
ATOM     82  C   UNL     1      -2.731   2.889 -24.287  1.00  0.00     0.198 A 
ATOM     83  C   UNL     1      -1.923   5.146 -24.403  1.00  0.00     0.198 A 
ATOM     84  F   UNL     1      -2.931   6.827 -23.103  1.00  0.00    -0.203 F 
ATOM     85  F   UNL     1      -2.636   1.602 -24.650  1.00  0.00    -0.200 F 
ATOM     86  C   UNL     1      -1.842   3.821 -24.801  1.00  0.00     0.200 A 
ATOM     87  F   UNL     1      -1.073   6.051 -24.909  1.00  0.00    -0.200 F 
ATOM     88  F   UNL     1      -0.902   3.440 -25.677  1.00  0.00    -0.200 F 
ENDBRANCH  64  78
BRANCH  65  89
ATOM     89  C   UNL     1     -10.673   7.480 -16.288  1.00  0.00     0.064 A 
ATOM     90  C   UNL     1     -12.035   7.181 -16.439  1.00  0.00     0.173 A 
ATOM     91  C   UNL     1     -10.301   8.278 -15.196  1.00  0.00     0.173 A 
ATOM     92  F   UNL     1     -12.447   6.447 -17.483  1.00  0.00    -0.203 F 
ATOM     93  C   UNL     1     -12.986   7.679 -15.549  1.00  0.00     0.198 A 
ATOM     94  C   UNL     1     -11.248   8.748 -14.288  1.00  0.00     0.198 A 
ATOM     95  F   UNL     1      -9.013   8.602 -15.007  1.00  0.00    -0.203 F 
ATOM     96  F   UNL     1     -14.286   7.425 -15.751  1.00  0.00    -0.200 F 
ATOM     97  C   UNL     1     -12.591   8.457 -14.472  1.00  0.00     0.200 A 
ATOM     98  F   UNL     1     -10.861   9.490 -13.242  1.00  0.00    -0.200 F 
ATOM     99  F   UNL     1     -13.506   8.937 -13.618  1.00  0.00    -0.200 F 
ENDBRANCH  65  89
BRANCH  77 100
ATOM    100  C   UNL     1      -9.565   8.940 -23.019  1.00  0.00     0.064 A 
ATOM    101  C   UNL     1      -9.476  10.337 -22.934  1.00  0.00     0.173 A 
ATOM    102  C   UNL     1     -10.283   8.393 -24.095  1.00  0.00     0.173 A 
ATOM    103  F   UNL     1      -8.814  10.910 -21.917  1.00  0.00    -0.203 F 
ATOM    104  C   UNL     1     -10.093  11.153 -23.878  1.00  0.00     0.198 A 
ATOM    105  C   UNL     1     -10.870   9.211 -25.055  1.00  0.00     0.198 A 
ATOM    106  F   UNL     1     -10.392   7.063 -24.228  1.00  0.00    -0.203 F 
ATOM    107  F   UNL     1     -10.028  12.486 -23.754  1.00  0.00    -0.200 F 
ATOM    108  C   UNL     1     -10.780  10.590 -24.944  1.00  0.00     0.200 A 
ATOM    109  F   UNL     1     -11.519   8.665 -26.093  1.00  0.00    -0.200 F 
ATOM    110  F   UNL     1     -11.358  11.377 -25.861  1.00  0.00    -0.200 F 
ENDBRANCH  77 100
ENDBRANCH  51  52
ENDBRANCH  44  46
ENDBRANCH  43  44
ENDBRANCH  42  43
ENDBRANCH  41  42
ENDBRANCH  40  41
ENDBRANCH  39  40
ENDBRANCH  38  39
ENDBRANCH  37  38
ENDBRANCH   1  37
TORSDOF 26
