REMARK SMILES O=C(OCCOCCOCCOCCOC(=O)c1ccc(-c2c3nc(c(-c4c(F)c(F)c(F)c(F)c4F)c4ccc([nH]4)c(-c4c(F)c(F)c(F)c(F)c4F)c4nc(c(-c5c(F)c(F)c(F)c(F)c5F)c5ccc2[nH]5)C=C4)C=C3)cc1)c1ccc(Oc2cc(-c3ccccc3)nc(-c3cnccn3)n2)cc1
REMARK SMILES IDX 8 1 7 2 6 3 5 4 4 5 3 6 2 7 1 8 81 9 82 10 105 11 83 12
REMARK SMILES IDX 104 13 84 14 85 15 86 16 87 17 103 18 88 19 96 20 95 21
REMARK SMILES IDX 89 22 90 23 94 24 91 25 93 26 92 27 97 28 98 29 102 30 99 31
REMARK SMILES IDX 101 32 100 33 9 34 10 35 11 36 12 37 13 38 14 39 15 40 16 41
REMARK SMILES IDX 17 42 18 43 19 44 80 45 20 46 79 47 21 48 22 49 23 50 73 51
REMARK SMILES IDX 24 52 78 53 72 54 74 55 25 56 77 57 71 58 70 59 26 61 58 62
REMARK SMILES IDX 38 63 57 64 39 65 42 66 56 67 75 68 40 69 41 70 55 72 76 73
REMARK SMILES IDX 43 74 27 75 28 76 36 77 29 78 30 79 34 80 37 81 31 82 32 83
REMARK SMILES IDX 35 84 33 85 59 86 60 87 68 88 61 89 62 90 66 91 69 92 63 93
REMARK SMILES IDX 64 94 67 95 65 96 44 97 45 98 53 99 46 100 47 101 51 102
REMARK SMILES IDX 54 103 48 104 49 105 52 106 50 107
REMARK H PARENT 74 60 42 71
REMARK Flexibility Score: inf
ROOT
ATOM      1  C   UNL     1       1.829   0.971  -2.685  1.00  0.00     0.188 C 
ENDROOT
BRANCH   1   2
ATOM      2  C   UNL     1       2.297   0.014  -1.589  1.00  0.00     0.188 C 
BRANCH   2   3
ATOM      3  O   UNL     1       3.583   0.381  -1.093  1.00  0.00    -0.376 OA
BRANCH   3   4
ATOM      4  C   UNL     1       4.491  -0.655  -0.738  1.00  0.00     0.202 C 
BRANCH   4   5
ATOM      5  C   UNL     1       4.020  -1.646   0.317  1.00  0.00     0.261 C 
BRANCH   5   6
ATOM      6  O   UNL     1       2.697  -1.430   0.829  1.00  0.00    -0.460 OA
BRANCH   6   7
ATOM      7  C   UNL     1       2.187  -0.404   1.541  1.00  0.00     0.338 C 
ATOM      8  O   UNL     1       0.970  -0.355   1.714  1.00  0.00    -0.246 OA
BRANCH   7   9
ATOM      9  C   UNL     1       3.022   0.599   2.247  1.00  0.00     0.060 A 
ATOM     10  C   UNL     1       4.042   1.381   1.699  1.00  0.00     0.019 A 
ATOM     11  C   UNL     1       2.605   0.887   3.547  1.00  0.00     0.019 A 
ATOM     12  C   UNL     1       4.756   2.295   2.476  1.00  0.00     0.048 A 
ATOM     13  C   UNL     1       3.255   1.860   4.297  1.00  0.00     0.048 A 
ATOM     14  C   UNL     1       4.396   2.498   3.797  1.00  0.00     0.129 A 
BRANCH  14  15
ATOM     15  O   UNL     1       5.223   3.337   4.512  1.00  0.00    -0.439 OA
BRANCH  15  16
ATOM     16  C   UNL     1       4.983   3.414   5.863  1.00  0.00     0.223 A 
ATOM     17  C   UNL     1       5.052   2.288   6.652  1.00  0.00     0.098 A 
ATOM     18  N   UNL     1       4.542   4.602   6.277  1.00  0.00    -0.191 NA
ATOM     19  C   UNL     1       4.431   2.387   7.876  1.00  0.00     0.078 A 
ATOM     20  C   UNL     1       4.059   4.636   7.524  1.00  0.00     0.184 A 
ATOM     21  N   UNL     1       3.962   3.566   8.344  1.00  0.00    -0.226 NA
BRANCH  19  22
ATOM     22  C   UNL     1       4.090   1.184   8.655  1.00  0.00     0.000 A 
ATOM     23  C   UNL     1       2.795   1.024   9.185  1.00  0.00     0.010 A 
ATOM     24  C   UNL     1       5.001   0.129   8.831  1.00  0.00     0.010 A 
ATOM     25  C   UNL     1       2.429  -0.137   9.871  1.00  0.00     0.001 A 
ATOM     26  C   UNL     1       4.638  -1.032   9.523  1.00  0.00     0.001 A 
ATOM     27  C   UNL     1       3.354  -1.163  10.044  1.00  0.00     0.000 A 
ENDBRANCH  19  22
BRANCH  20  28
ATOM     28  C   UNL     1       3.692   5.952   8.040  1.00  0.00     0.126 A 
ATOM     29  C   UNL     1       4.364   6.491   9.131  1.00  0.00     0.143 A 
ATOM     30  N   UNL     1       2.756   6.678   7.362  1.00  0.00    -0.250 NA
ATOM     31  N   UNL     1       4.157   7.755   9.581  1.00  0.00    -0.261 NA
ATOM     32  C   UNL     1       2.546   7.935   7.811  1.00  0.00     0.132 A 
ATOM     33  C   UNL     1       3.237   8.463   8.889  1.00  0.00     0.131 A 
ENDBRANCH  20  28
ENDBRANCH  15  16
ENDBRANCH  14  15
ENDBRANCH   7   9
ENDBRANCH   6   7
ENDBRANCH   5   6
ENDBRANCH   4   5
ENDBRANCH   3   4
ENDBRANCH   2   3
ENDBRANCH   1   2
BRANCH   1  34
ATOM     34  O   UNL     1       2.565   0.899  -3.905  1.00  0.00    -0.377 OA
BRANCH  34  35
ATOM     35  C   UNL     1       3.981   0.892  -3.780  1.00  0.00     0.188 C 
BRANCH  35  36
ATOM     36  C   UNL     1       4.678   2.104  -3.119  1.00  0.00     0.188 C 
BRANCH  36  37
ATOM     37  O   UNL     1       3.791   3.031  -2.510  1.00  0.00    -0.376 OA
BRANCH  37  38
ATOM     38  C   UNL     1       3.684   4.296  -3.153  1.00  0.00     0.202 C 
BRANCH  38  39
ATOM     39  C   UNL     1       2.995   4.315  -4.528  1.00  0.00     0.261 C 
BRANCH  39  40
ATOM     40  O   UNL     1       3.480   3.357  -5.484  1.00  0.00    -0.460 OA
BRANCH  40  41
ATOM     41  C   UNL     1       4.694   3.566  -6.055  1.00  0.00     0.338 C 
ATOM     42  O   UNL     1       5.422   4.512  -5.898  1.00  0.00    -0.246 OA
BRANCH  41  43
ATOM     43  C   UNL     1       5.079   2.277  -6.702  1.00  0.00     0.060 A 
ATOM     44  C   UNL     1       6.309   1.696  -6.352  1.00  0.00     0.016 A 
ATOM     45  C   UNL     1       4.172   1.565  -7.495  1.00  0.00     0.016 A 
ATOM     46  C   UNL     1       6.615   0.394  -6.768  1.00  0.00     0.010 A 
ATOM     47  C   UNL     1       4.495   0.277  -7.937  1.00  0.00     0.010 A 
ATOM     48  C   UNL     1       5.718  -0.317  -7.579  1.00  0.00    -0.014 A 
BRANCH  48  49
ATOM     49  C   UNL     1       6.125  -1.589  -8.229  1.00  0.00     0.031 A 
ATOM     50  C   UNL     1       6.794  -1.499  -9.572  1.00  0.00     0.074 A 
ATOM     51  C   UNL     1       5.873  -2.794  -7.682  1.00  0.00     0.049 A 
ATOM     52  N   UNL     1       7.135  -2.451 -10.400  1.00  0.00    -0.248 NA
ATOM     53  C   UNL     1       7.115  -0.142 -10.047  1.00  0.00     0.031 C 
ATOM     54  C   UNL     1       5.259  -3.025  -6.377  1.00  0.00     0.029 A 
ATOM     55  N   UNL     1       6.082  -4.060  -8.182  1.00  0.00    -0.354 N 
ATOM     56  C   UNL     1       7.697  -1.810 -11.495  1.00  0.00     0.074 A 
ATOM     57  C   UNL     1       7.647  -0.389 -11.234  1.00  0.00     0.031 C 
ATOM     58  C   UNL     1       5.111  -4.351  -6.192  1.00  0.00     0.029 A 
ATOM     59  C   UNL     1       5.584  -5.061  -7.382  1.00  0.00     0.049 A 
ATOM     60  H   UNL     1       6.546  -4.232  -9.033  1.00  0.00     0.167 HD
ATOM     61  C   UNL     1       8.204  -2.356 -12.623  1.00  0.00     0.037 A 
ATOM     62  C   UNL     1       5.483  -6.388  -7.606  1.00  0.00     0.037 A 
ATOM     63  C   UNL     1       8.252  -3.766 -12.891  1.00  0.00     0.049 A 
ATOM     64  C   UNL     1       5.984  -6.963  -8.913  1.00  0.00     0.074 A 
ATOM     65  C   UNL     1       8.795  -4.415 -13.986  1.00  0.00     0.029 A 
ATOM     66  N   UNL     1       7.718  -4.743 -12.067  1.00  0.00    -0.354 N 
ATOM     67  N   UNL     1       6.572  -6.357  -9.916  1.00  0.00    -0.248 NA
ATOM     68  C   UNL     1       5.797  -8.409  -9.123  1.00  0.00     0.031 C 
ATOM     69  C   UNL     1       8.535  -5.782 -13.853  1.00  0.00     0.029 A 
ATOM     70  C   UNL     1       7.879  -5.988 -12.651  1.00  0.00     0.049 A 
ATOM     71  H   UNL     1       7.288  -4.577 -11.197  1.00  0.00     0.167 HD
ATOM     72  C   UNL     1       6.840  -7.344 -10.859  1.00  0.00     0.074 A 
ATOM     73  C   UNL     1       6.372  -8.594 -10.302  1.00  0.00     0.031 C 
ATOM     74  C   UNL     1       7.416  -7.225 -12.080  1.00  0.00     0.037 A 
BRANCH  61  75
ATOM     75  C   UNL     1       8.723  -1.426 -13.675  1.00  0.00     0.064 A 
ATOM     76  C   UNL     1       9.943  -0.752 -13.524  1.00  0.00     0.173 A 
ATOM     77  C   UNL     1       8.018  -1.259 -14.875  1.00  0.00     0.173 A 
ATOM     78  F   UNL     1      10.642  -0.867 -12.385  1.00  0.00    -0.203 F 
ATOM     79  C   UNL     1      10.437   0.062 -14.539  1.00  0.00     0.198 A 
ATOM     80  C   UNL     1       8.526  -0.464 -15.897  1.00  0.00     0.198 A 
ATOM     81  F   UNL     1       6.845  -1.882 -15.063  1.00  0.00    -0.203 F 
ATOM     82  F   UNL     1      11.592   0.720 -14.366  1.00  0.00    -0.200 F 
ATOM     83  C   UNL     1       9.734   0.197 -15.728  1.00  0.00     0.200 A 
ATOM     84  F   UNL     1       7.851  -0.342 -17.048  1.00  0.00    -0.200 F 
ATOM     85  F   UNL     1      10.220   0.967 -16.711  1.00  0.00    -0.200 F 
ENDBRANCH  61  75
BRANCH  62  86
ATOM     86  C   UNL     1       4.827  -7.283  -6.610  1.00  0.00     0.064 A 
ATOM     87  C   UNL     1       5.546  -8.294  -5.955  1.00  0.00     0.173 A 
ATOM     88  C   UNL     1       3.450  -7.199  -6.356  1.00  0.00     0.173 A 
ATOM     89  F   UNL     1       6.858  -8.441  -6.190  1.00  0.00    -0.203 F 
ATOM     90  C   UNL     1       4.908  -9.203  -5.112  1.00  0.00     0.198 A 
ATOM     91  C   UNL     1       2.819  -8.089  -5.487  1.00  0.00     0.198 A 
ATOM     92  F   UNL     1       2.710  -6.260  -6.964  1.00  0.00    -0.203 F 
ATOM     93  F   UNL     1       5.608 -10.201  -4.555  1.00  0.00    -0.200 F 
ATOM     94  C   UNL     1       3.546  -9.098  -4.876  1.00  0.00     0.200 A 
ATOM     95  F   UNL     1       1.504  -7.979  -5.258  1.00  0.00    -0.200 F 
ATOM     96  F   UNL     1       2.932  -9.978  -4.074  1.00  0.00    -0.200 F 
ENDBRANCH  62  86
BRANCH  74  97
ATOM     97  C   UNL     1       7.597  -8.474 -12.894  1.00  0.00     0.064 A 
ATOM     98  C   UNL     1       6.509  -9.116 -13.504  1.00  0.00     0.173 A 
ATOM     99  C   UNL     1       8.880  -8.994 -13.124  1.00  0.00     0.173 A 
ATOM    100  F   UNL     1       5.261  -8.665 -13.304  1.00  0.00    -0.203 F 
ATOM    101  C   UNL     1       6.698 -10.241 -14.302  1.00  0.00     0.198 A 
ATOM    102  C   UNL     1       9.068 -10.101 -13.947  1.00  0.00     0.198 A 
ATOM    103  F   UNL     1       9.955  -8.412 -12.572  1.00  0.00    -0.203 F 
ATOM    104  F   UNL     1       5.640 -10.860 -14.845  1.00  0.00    -0.200 F 
ATOM    105  C   UNL     1       7.977 -10.727 -14.531  1.00  0.00     0.200 A 
ATOM    106  F   UNL     1      10.306 -10.559 -14.181  1.00  0.00    -0.200 F 
ATOM    107  F   UNL     1       8.158 -11.801 -15.312  1.00  0.00    -0.200 F 
ENDBRANCH  74  97
ENDBRANCH  48  49
ENDBRANCH  41  43
ENDBRANCH  40  41
ENDBRANCH  39  40
ENDBRANCH  38  39
ENDBRANCH  37  38
ENDBRANCH  36  37
ENDBRANCH  35  36
ENDBRANCH  34  35
ENDBRANCH   1  34
TORSDOF 24
