REMARK SMILES CC1(C)Oc2ccc(NC(=O)[C@H]3CC=CC[C@@H]3C(=O)OCCOCCOCCOCCOC(=O)c3ccc(-c4c5nc(c(-c6c(F)c(F)c(F)c(F)c6F)c6ccc([nH]6)c(-c6c(F)c(F)c(F)c(F)c6F)c6nc(c(-c7c(F)c(F)c(F)c(F)c7F)c7ccc4[nH]7)C=C6)C=C5)cc3)cc2NC1=O
REMARK SMILES IDX 26 1 25 2 24 3 23 4 22 5 21 6 20 7 18 8 19 9 17 10 12 11
REMARK SMILES IDX 13 12 14 13 16 14 15 15 10 16 9 17 11 19 8 20 1 21 2 22 3 23
REMARK SMILES IDX 4 24 101 25 5 26 100 27 102 28 6 29 99 30 7 32 98 33 27 34
REMARK SMILES IDX 28 35 29 36 30 37 31 38 32 39 33 40 34 41 35 42 36 43 97 44
REMARK SMILES IDX 37 45 96 46 38 47 39 48 40 49 90 50 41 51 95 52 89 53 91 54
REMARK SMILES IDX 42 55 94 56 88 57 87 58 43 60 75 61 55 62 74 63 56 64 59 65
REMARK SMILES IDX 73 66 92 67 57 68 58 69 72 71 93 72 60 73 44 74 45 75 53 76
REMARK SMILES IDX 46 77 47 78 51 79 54 80 48 81 49 82 52 83 50 84 76 85 77 86
REMARK SMILES IDX 85 87 78 88 79 89 83 90 86 91 80 92 81 93 84 94 82 95 61 96
REMARK SMILES IDX 62 97 70 98 63 99 64 100 68 101 71 102 65 103 66 104 69 105
REMARK SMILES IDX 67 106
REMARK H PARENT 9 18 100 31 91 59 59 70
REMARK Flexibility Score: inf
ROOT
ATOM      1  O   UNL     1       2.311  -6.629   6.809  1.00  0.00    -0.377 OA
ENDROOT
BRANCH   1   2
ATOM      2  C   UNL     1       1.260  -5.898   7.430  1.00  0.00     0.188 C 
BRANCH   2   3
ATOM      3  C   UNL     1      -0.134  -6.383   7.000  1.00  0.00     0.188 C 
BRANCH   3   4
ATOM      4  O   UNL     1      -0.263  -7.130   5.806  1.00  0.00    -0.376 OA
BRANCH   4   5
ATOM      5  C   UNL     1       0.463  -6.759   4.650  1.00  0.00     0.202 C 
BRANCH   5   6
ATOM      6  C   UNL     1       0.872  -5.302   4.359  1.00  0.00     0.261 C 
BRANCH   6   7
ATOM      7  O   UNL     1       0.354  -4.250   5.193  1.00  0.00    -0.463 OA
BRANCH   7   8
ATOM      8  C   UNL     1      -0.953  -3.907   5.054  1.00  0.00     0.310 C 
ATOM      9  O   UNL     1      -1.716  -4.470   4.282  1.00  0.00    -0.252 OA
BRANCH   8  10
ATOM     10  C   UNL     1      -1.281  -2.648   5.883  1.00  0.00     0.116 C 
ATOM     11  C   UNL     1      -0.814  -2.668   7.373  1.00  0.00     0.097 C 
ATOM     12  C   UNL     1      -1.807  -3.460   8.286  1.00  0.00     0.041 C 
ATOM     13  C   UNL     1      -3.207  -3.602   7.768  1.00  0.00    -0.030 C 
ATOM     14  C   UNL     1      -2.752  -2.270   5.728  1.00  0.00     0.043 C 
ATOM     15  C   UNL     1      -3.642  -3.050   6.630  1.00  0.00    -0.030 C 
BRANCH  11  16
ATOM     16  C   UNL     1      -0.512  -1.294   8.031  1.00  0.00     0.228 C 
ATOM     17  N   UNL     1       0.234  -0.305   7.459  1.00  0.00    -0.326 N 
ATOM     18  H   UNL     1       0.342   0.497   8.018  1.00  0.00     0.169 HD
ATOM     19  O   UNL     1      -0.930  -1.021   9.164  1.00  0.00    -0.274 OA
BRANCH  17  20
ATOM     20  C   UNL     1       0.870  -0.234   6.220  1.00  0.00     0.043 A 
ATOM     21  C   UNL     1       1.193   0.494  -0.020  1.00  0.00     0.067 C 
ATOM     22  C   UNL     1       0.641   0.553   1.404  1.00  0.00     0.182 C 
ATOM     23  C   UNL     1      -0.856   0.177   1.367  1.00  0.00     0.067 C 
ATOM     24  O   UNL     1       1.387  -0.426   2.145  1.00  0.00    -0.476 OA
ATOM     25  C   UNL     1       0.730   1.990   1.968  1.00  0.00     0.268 C 
ATOM     26  C   UNL     1       1.349  -0.261   3.501  1.00  0.00     0.144 A 
ATOM     27  N   UNL     1       0.678   2.051   3.340  1.00  0.00    -0.319 N 
ATOM     28  O   UNL     1       0.715   3.011   1.287  1.00  0.00    -0.270 OA
ATOM     29  C   UNL     1       1.768  -1.335   4.279  1.00  0.00     0.051 A 
ATOM     30  C   UNL     1       0.906   0.912   4.115  1.00  0.00     0.086 A 
ATOM     31  H   UNL     1       0.478   2.908   3.782  1.00  0.00     0.170 HD
ATOM     32  C   UNL     1       1.547  -1.313   5.655  1.00  0.00     0.030 A 
ATOM     33  C   UNL     1       0.682   0.941   5.486  1.00  0.00     0.056 A 
ENDBRANCH  17  20
ENDBRANCH  11  16
ENDBRANCH   8  10
ENDBRANCH   7   8
ENDBRANCH   6   7
ENDBRANCH   5   6
ENDBRANCH   4   5
ENDBRANCH   3   4
ENDBRANCH   2   3
ENDBRANCH   1   2
BRANCH   1  34
ATOM     34  C   UNL     1       2.880  -7.624   7.648  1.00  0.00     0.188 C 
BRANCH  34  35
ATOM     35  C   UNL     1       1.891  -8.687   8.148  1.00  0.00     0.188 C 
BRANCH  35  36
ATOM     36  O   UNL     1       0.923  -8.117   9.029  1.00  0.00    -0.376 OA
BRANCH  36  37
ATOM     37  C   UNL     1       0.979  -8.474  10.401  1.00  0.00     0.202 C 
BRANCH  37  38
ATOM     38  C   UNL     1       1.970  -7.641  11.224  1.00  0.00     0.261 C 
BRANCH  38  39
ATOM     39  O   UNL     1       3.323  -7.651  10.747  1.00  0.00    -0.460 OA
BRANCH  39  40
ATOM     40  C   UNL     1       3.959  -8.846  10.688  1.00  0.00     0.338 C 
ATOM     41  O   UNL     1       3.546  -9.916  11.070  1.00  0.00    -0.246 OA
BRANCH  40  42
ATOM     42  C   UNL     1       5.164  -8.649   9.844  1.00  0.00     0.060 A 
ATOM     43  C   UNL     1       5.991  -7.534  10.016  1.00  0.00     0.016 A 
ATOM     44  C   UNL     1       5.414  -9.563   8.812  1.00  0.00     0.016 A 
ATOM     45  C   UNL     1       7.095  -7.357   9.180  1.00  0.00     0.010 A 
ATOM     46  C   UNL     1       6.505  -9.374   7.962  1.00  0.00     0.010 A 
ATOM     47  C   UNL     1       7.374  -8.292   8.168  1.00  0.00    -0.014 A 
BRANCH  47  48
ATOM     48  C   UNL     1       8.715  -8.306   7.539  1.00  0.00     0.031 A 
ATOM     49  C   UNL     1       8.995  -7.725   6.191  1.00  0.00     0.074 A 
ATOM     50  C   UNL     1       9.693  -8.911   8.239  1.00  0.00     0.049 A 
ATOM     51  N   UNL     1      10.146  -7.607   5.578  1.00  0.00    -0.248 NA
ATOM     52  C   UNL     1       7.847  -7.223   5.425  1.00  0.00     0.031 C 
ATOM     53  C   UNL     1       9.506  -9.550   9.545  1.00  0.00     0.029 A 
ATOM     54  N   UNL     1      11.023  -9.090   7.966  1.00  0.00    -0.354 N 
ATOM     55  C   UNL     1       9.871  -6.997   4.364  1.00  0.00     0.074 A 
ATOM     56  C   UNL     1       8.434  -6.810   4.306  1.00  0.00     0.031 C 
ATOM     57  C   UNL     1      10.680 -10.036   9.967  1.00  0.00     0.029 A 
ATOM     58  C   UNL     1      11.697  -9.754   8.960  1.00  0.00     0.049 A 
ATOM     59  H   UNL     1      11.452  -8.775   7.139  1.00  0.00     0.167 HD
ATOM     60  C   UNL     1      10.749  -6.619   3.402  1.00  0.00     0.037 A 
ATOM     61  C   UNL     1      12.995 -10.089   9.061  1.00  0.00     0.037 A 
ATOM     62  C   UNL     1      12.174  -6.836   3.471  1.00  0.00     0.049 A 
ATOM     63  C   UNL     1      13.938  -9.677   7.971  1.00  0.00     0.074 A 
ATOM     64  C   UNL     1      13.152  -6.439   2.573  1.00  0.00     0.029 A 
ATOM     65  N   UNL     1      12.825  -7.528   4.484  1.00  0.00    -0.354 N 
ATOM     66  N   UNL     1      13.684  -9.007   6.875  1.00  0.00    -0.248 NA
ATOM     67  C   UNL     1      15.347 -10.055   8.136  1.00  0.00     0.031 C 
ATOM     68  C   UNL     1      14.382  -6.936   3.014  1.00  0.00     0.029 A 
ATOM     69  C   UNL     1      14.184  -7.595   4.216  1.00  0.00     0.049 A 
ATOM     70  H   UNL     1      12.386  -7.913   5.276  1.00  0.00     0.167 HD
ATOM     71  C   UNL     1      14.902  -8.859   6.229  1.00  0.00     0.074 A 
ATOM     72  C   UNL     1      15.897  -9.503   7.062  1.00  0.00     0.031 C 
ATOM     73  C   UNL     1      15.166  -8.241   5.052  1.00  0.00     0.037 A 
BRANCH  60  74
ATOM     74  C   UNL     1      10.211  -5.911   2.190  1.00  0.00     0.064 A 
ATOM     75  C   UNL     1       9.741  -4.592   2.268  1.00  0.00     0.173 A 
ATOM     76  C   UNL     1      10.268  -6.512   0.923  1.00  0.00     0.173 A 
ATOM     77  F   UNL     1       9.668  -3.970   3.454  1.00  0.00    -0.203 F 
ATOM     78  C   UNL     1       9.336  -3.905   1.125  1.00  0.00     0.198 A 
ATOM     79  C   UNL     1       9.886  -5.814  -0.221  1.00  0.00     0.198 A 
ATOM     80  F   UNL     1      10.723  -7.767   0.789  1.00  0.00    -0.203 F 
ATOM     81  F   UNL     1       8.870  -2.653   1.228  1.00  0.00    -0.200 F 
ATOM     82  C   UNL     1       9.418  -4.513  -0.118  1.00  0.00     0.200 A 
ATOM     83  F   UNL     1       9.983  -6.396  -1.424  1.00  0.00    -0.200 F 
ATOM     84  F   UNL     1       9.047  -3.843  -1.219  1.00  0.00    -0.200 F 
ENDBRANCH  60  74
BRANCH  61  85
ATOM     85  C   UNL     1      13.463 -10.788  10.281  1.00  0.00     0.064 A 
ATOM     86  C   UNL     1      14.213 -10.108  11.249  1.00  0.00     0.173 A 
ATOM     87  C   UNL     1      13.098 -12.116  10.546  1.00  0.00     0.173 A 
ATOM     88  F   UNL     1      14.587  -8.838  11.034  1.00  0.00    -0.203 F 
ATOM     89  C   UNL     1      14.584 -10.731  12.437  1.00  0.00     0.198 A 
ATOM     90  C   UNL     1      13.449 -12.730  11.746  1.00  0.00     0.198 A 
ATOM     91  F   UNL     1      12.363 -12.801   9.658  1.00  0.00    -0.203 F 
ATOM     92  F   UNL     1      15.314 -10.063  13.341  1.00  0.00    -0.200 F 
ATOM     93  C   UNL     1      14.193 -12.038  12.689  1.00  0.00     0.200 A 
ATOM     94  F   UNL     1      13.050 -13.985  11.996  1.00  0.00    -0.200 F 
ATOM     95  F   UNL     1      14.531 -12.629  13.844  1.00  0.00    -0.200 F 
ENDBRANCH  61  85
BRANCH  73  96
ATOM     96  C   UNL     1      16.593  -8.215   4.590  1.00  0.00     0.064 A 
ATOM     97  C   UNL     1      17.216  -9.361   4.077  1.00  0.00     0.173 A 
ATOM     98  C   UNL     1      17.316  -7.013   4.585  1.00  0.00     0.173 A 
ATOM     99  F   UNL     1      16.572 -10.537   4.077  1.00  0.00    -0.203 F 
ATOM    100  C   UNL     1      18.516  -9.305   3.581  1.00  0.00     0.198 A 
ATOM    101  C   UNL     1      18.605  -6.955   4.064  1.00  0.00     0.198 A 
ATOM    102  F   UNL     1      16.761  -5.888   5.062  1.00  0.00    -0.203 F 
ATOM    103  F   UNL     1      19.103 -10.418   3.120  1.00  0.00    -0.200 F 
ATOM    104  C   UNL     1      19.204  -8.101   3.563  1.00  0.00     0.200 A 
ATOM    105  F   UNL     1      19.263  -5.788   4.035  1.00  0.00    -0.200 F 
ATOM    106  F   UNL     1      20.447  -8.045   3.065  1.00  0.00    -0.200 F 
ENDBRANCH  73  96
ENDBRANCH  47  48
ENDBRANCH  40  42
ENDBRANCH  39  40
ENDBRANCH  38  39
ENDBRANCH  37  38
ENDBRANCH  36  37
ENDBRANCH  35  36
ENDBRANCH  34  35
ENDBRANCH   1  34
TORSDOF 22
