REMARK SMILES C[C@H](CCC(=O)OCCOCCOCCOCCOC(=O)c1ccc(-c2c3nc(c(-c4c(F)c(F)c(F)c(F)c4F)c4ccc([nH]4)c(-c4c(F)c(F)c(F)c(F)c4F)c4nc(c(-c5c(F)c(F)c(F)c(F)c5F)c5ccc2[nH]5)C=C4)C=C3)cc1)NC(=O)OC(C)(C)C
REMARK SMILES IDX 11 1 10 2 9 3 8 4 7 5 5 6 6 7 4 8 3 9 2 10 1 11 85 12 86 13
REMARK SMILES IDX 87 15 88 16 89 17 90 18 91 19 92 20 12 21 13 22 14 23 15 24
REMARK SMILES IDX 16 25 17 26 18 27 19 28 20 29 21 30 22 31 23 32 84 33 24 34
REMARK SMILES IDX 83 35 25 36 26 37 27 38 77 39 28 40 82 41 76 42 78 43 29 44
REMARK SMILES IDX 81 45 75 46 74 47 30 49 62 50 42 51 61 52 43 53 46 54 60 55
REMARK SMILES IDX 79 56 44 57 45 58 59 60 80 61 47 62 31 63 32 64 40 65 33 66
REMARK SMILES IDX 34 67 38 68 41 69 35 70 36 71 39 72 37 73 63 74 64 75 72 76
REMARK SMILES IDX 65 77 66 78 70 79 73 80 67 81 68 82 71 83 69 84 48 85 49 86
REMARK SMILES IDX 57 87 50 88 51 89 55 90 58 91 52 92 53 93 56 94 54 95
REMARK H PARENT 85 14 78 48 46 59
REMARK Flexibility Score: inf
ROOT
ATOM      1  C   UNL     1       4.720   0.909  -0.252  1.00  0.00     0.188 C 
ENDROOT
BRANCH   1   2
ATOM      2  O   UNL     1       5.303   2.190  -0.203  1.00  0.00    -0.376 OA
BRANCH   2   3
ATOM      3  C   UNL     1       4.896   3.204  -1.097  1.00  0.00     0.202 C 
BRANCH   3   4
ATOM      4  C   UNL     1       3.489   3.298  -1.709  1.00  0.00     0.261 C 
BRANCH   4   5
ATOM      5  O   UNL     1       2.558   2.252  -1.407  1.00  0.00    -0.463 OA
BRANCH   5   6
ATOM      6  C   UNL     1       2.257   1.409  -2.413  1.00  0.00     0.305 C 
ATOM      7  O   UNL     1       2.856   1.382  -3.484  1.00  0.00    -0.252 OA
BRANCH   6   8
ATOM      8  C   UNL     1       1.071   0.505  -2.155  1.00  0.00     0.125 C 
BRANCH   8   9
ATOM      9  C   UNL     1       0.405   0.248  -0.799  1.00  0.00     0.036 C 
BRANCH   9  10
ATOM     10  C   UNL     1      -0.115   1.355   0.152  1.00  0.00     0.083 C 
ATOM     11  C   UNL     1       0.013   2.808  -0.285  1.00  0.00     0.031 C 
BRANCH  10  12
ATOM     12  N   UNL     1      -1.529   1.100   0.445  1.00  0.00    -0.319 N 
ATOM     13  C   UNL     1      -2.178   1.283   1.628  1.00  0.00     0.407 C 
ATOM     14  H   UNL     1      -2.073   0.756  -0.301  1.00  0.00     0.167 HD
ATOM     15  O   UNL     1      -3.404   1.190   1.679  1.00  0.00    -0.225 OA
BRANCH  13  16
ATOM     16  O   UNL     1      -1.363   1.565   2.668  1.00  0.00    -0.444 OA
BRANCH  16  17
ATOM     17  C   UNL     1      -1.921   1.814   3.986  1.00  0.00     0.106 C 
ATOM     18  C   UNL     1      -2.734   3.114   3.997  1.00  0.00     0.056 C 
ATOM     19  C   UNL     1      -2.727   0.620   4.513  1.00  0.00     0.056 C 
ATOM     20  C   UNL     1      -0.709   2.003   4.906  1.00  0.00     0.056 C 
ENDBRANCH  16  17
ENDBRANCH  13  16
ENDBRANCH  10  12
ENDBRANCH   9  10
ENDBRANCH   8   9
ENDBRANCH   6   8
ENDBRANCH   5   6
ENDBRANCH   4   5
ENDBRANCH   3   4
ENDBRANCH   2   3
ENDBRANCH   1   2
BRANCH   1  21
ATOM     21  C   UNL     1       3.636   0.668   0.814  1.00  0.00     0.188 C 
BRANCH  21  22
ATOM     22  O   UNL     1       2.979   1.773   1.415  1.00  0.00    -0.377 OA
BRANCH  22  23
ATOM     23  C   UNL     1       3.737   2.796   2.054  1.00  0.00     0.188 C 
BRANCH  23  24
ATOM     24  C   UNL     1       5.171   2.544   2.573  1.00  0.00     0.188 C 
BRANCH  24  25
ATOM     25  O   UNL     1       5.593   1.192   2.550  1.00  0.00    -0.376 OA
BRANCH  25  26
ATOM     26  C   UNL     1       5.603   0.486   3.781  1.00  0.00     0.202 C 
BRANCH  26  27
ATOM     27  C   UNL     1       4.247   0.286   4.475  1.00  0.00     0.261 C 
BRANCH  27  28
ATOM     28  O   UNL     1       3.537   1.490   4.806  1.00  0.00    -0.460 OA
BRANCH  28  29
ATOM     29  C   UNL     1       4.132   2.321   5.684  1.00  0.00     0.338 C 
ATOM     30  O   UNL     1       5.199   2.164   6.255  1.00  0.00    -0.246 OA
BRANCH  29  31
ATOM     31  C   UNL     1       3.345   3.562   5.737  1.00  0.00     0.060 A 
ATOM     32  C   UNL     1       3.929   4.763   5.317  1.00  0.00     0.016 A 
ATOM     33  C   UNL     1       2.047   3.542   6.248  1.00  0.00     0.016 A 
ATOM     34  C   UNL     1       3.234   5.960   5.469  1.00  0.00     0.010 A 
ATOM     35  C   UNL     1       1.347   4.741   6.394  1.00  0.00     0.010 A 
ATOM     36  C   UNL     1       1.966   5.960   6.067  1.00  0.00    -0.014 A 
BRANCH  36  37
ATOM     37  C   UNL     1       1.437   7.234   6.612  1.00  0.00     0.031 A 
ATOM     38  C   UNL     1       1.591   7.479   8.092  1.00  0.00     0.074 A 
ATOM     39  C   UNL     1       0.907   8.180   5.818  1.00  0.00     0.049 A 
ATOM     40  N   UNL     1       1.243   8.517   8.809  1.00  0.00    -0.248 NA
ATOM     41  C   UNL     1       2.221   6.399   8.871  1.00  0.00     0.031 C 
ATOM     42  C   UNL     1       0.741   8.077   4.371  1.00  0.00     0.029 A 
ATOM     43  N   UNL     1       0.420   9.426   6.127  1.00  0.00    -0.354 N 
ATOM     44  C   UNL     1       1.598   8.205  10.116  1.00  0.00     0.074 A 
ATOM     45  C   UNL     1       2.142   6.868  10.105  1.00  0.00     0.031 C 
ATOM     46  C   UNL     1       0.198   9.219   3.913  1.00  0.00     0.029 A 
ATOM     47  C   UNL     1      -0.045  10.121   5.038  1.00  0.00     0.049 A 
ATOM     48  H   UNL     1       0.406   9.787   7.043  1.00  0.00     0.167 HD
ATOM     49  C   UNL     1       1.500   8.973  11.226  1.00  0.00     0.037 A 
ATOM     50  C   UNL     1      -0.608  11.343   4.968  1.00  0.00     0.037 A 
ATOM     51  C   UNL     1       0.975  10.311  11.232  1.00  0.00     0.049 A 
ATOM     52  C   UNL     1      -0.757  12.159   6.230  1.00  0.00     0.074 A 
ATOM     53  C   UNL     1       0.849  11.184  12.297  1.00  0.00     0.029 A 
ATOM     54  N   UNL     1       0.482  10.967  10.114  1.00  0.00    -0.354 N 
ATOM     55  N   UNL     1      -0.391  11.870   7.456  1.00  0.00    -0.248 NA
ATOM     56  C   UNL     1      -1.387  13.479   6.091  1.00  0.00     0.031 C 
ATOM     57  C   UNL     1       0.222  12.345  11.836  1.00  0.00     0.029 A 
ATOM     58  C   UNL     1       0.028  12.227  10.469  1.00  0.00     0.049 A 
ATOM     59  H   UNL     1       0.458  10.594   9.203  1.00  0.00     0.167 HD
ATOM     60  C   UNL     1      -0.704  12.988   8.223  1.00  0.00     0.074 A 
ATOM     61  C   UNL     1      -1.280  13.962   7.320  1.00  0.00     0.031 C 
ATOM     62  C   UNL     1      -0.525  13.192   9.553  1.00  0.00     0.037 A 
BRANCH  49  63
ATOM     63  C   UNL     1       1.940   8.366  12.528  1.00  0.00     0.064 A 
ATOM     64  C   UNL     1       3.287   8.076  12.799  1.00  0.00     0.173 A 
ATOM     65  C   UNL     1       0.997   8.078  13.526  1.00  0.00     0.173 A 
ATOM     66  F   UNL     1       4.229   8.313  11.872  1.00  0.00    -0.203 F 
ATOM     67  C   UNL     1       3.666   7.489  14.003  1.00  0.00     0.198 A 
ATOM     68  C   UNL     1       1.384   7.525  14.743  1.00  0.00     0.198 A 
ATOM     69  F   UNL     1      -0.304   8.334  13.321  1.00  0.00    -0.203 F 
ATOM     70  F   UNL     1       4.949   7.163  14.213  1.00  0.00    -0.200 F 
ATOM     71  C   UNL     1       2.716   7.221  14.977  1.00  0.00     0.200 A 
ATOM     72  F   UNL     1       0.466   7.280  15.688  1.00  0.00    -0.200 F 
ATOM     73  F   UNL     1       3.083   6.662  16.138  1.00  0.00    -0.200 F 
ENDBRANCH  49  63
BRANCH  50  74
ATOM     74  C   UNL     1      -1.064  11.886   3.659  1.00  0.00     0.064 A 
ATOM     75  C   UNL     1      -0.447  13.006   3.083  1.00  0.00     0.173 A 
ATOM     76  C   UNL     1      -2.151  11.320   2.976  1.00  0.00     0.173 A 
ATOM     77  F   UNL     1       0.580  13.600   3.708  1.00  0.00    -0.203 F 
ATOM     78  C   UNL     1      -0.917  13.555   1.891  1.00  0.00     0.198 A 
ATOM     79  C   UNL     1      -2.599  11.850   1.768  1.00  0.00     0.198 A 
ATOM     80  F   UNL     1      -2.779  10.249   3.483  1.00  0.00    -0.203 F 
ATOM     81  F   UNL     1      -0.346  14.661   1.395  1.00  0.00    -0.200 F 
ATOM     82  C   UNL     1      -1.989  12.974   1.232  1.00  0.00     0.200 A 
ATOM     83  F   UNL     1      -3.627  11.277   1.127  1.00  0.00    -0.200 F 
ATOM     84  F   UNL     1      -2.440  13.503   0.086  1.00  0.00    -0.200 F 
ENDBRANCH  50  74
BRANCH  62  85
ATOM     85  C   UNL     1      -0.887  14.545  10.101  1.00  0.00     0.064 A 
ATOM     86  C   UNL     1      -2.215  14.990  10.178  1.00  0.00     0.173 A 
ATOM     87  C   UNL     1       0.118  15.400  10.582  1.00  0.00     0.173 A 
ATOM     88  F   UNL     1      -3.214  14.216   9.726  1.00  0.00    -0.203 F 
ATOM     89  C   UNL     1      -2.519  16.255  10.675  1.00  0.00     0.198 A 
ATOM     90  C   UNL     1      -0.194  16.648  11.115  1.00  0.00     0.198 A 
ATOM     91  F   UNL     1       1.404  15.021  10.546  1.00  0.00    -0.203 F 
ATOM     92  F   UNL     1      -3.789  16.684  10.675  1.00  0.00    -0.200 F 
ATOM     93  C   UNL     1      -1.510  17.080  11.148  1.00  0.00     0.200 A 
ATOM     94  F   UNL     1       0.782  17.433  11.591  1.00  0.00    -0.200 F 
ATOM     95  F   UNL     1      -1.805  18.296  11.628  1.00  0.00    -0.200 F 
ENDBRANCH  62  85
ENDBRANCH  36  37
ENDBRANCH  29  31
ENDBRANCH  28  29
ENDBRANCH  27  28
ENDBRANCH  26  27
ENDBRANCH  25  26
ENDBRANCH  24  25
ENDBRANCH  23  24
ENDBRANCH  22  23
ENDBRANCH  21  22
ENDBRANCH   1  21
TORSDOF 25
