REMARK SMILES C[C@@H](C(=O)OCCOCCOCCOCCOC(=O)c1ccc(-c2c3nc(c(-c4c(F)c(F)c(F)c(F)c4F)c4ccc([nH]4)c(-c4c(F)c(F)c(F)c(F)c4F)c4nc(c(-c5c(F)c(F)c(F)c(F)c5F)c5ccc2[nH]5)C=C4)C=C3)cc1)c1ccc2c3cc(Cl)ccc3n(C(=O)c3ccc(Cl)cc3)c2c1
REMARK SMILES IDX 10 1 9 2 8 3 7 4 6 5 5 6 3 7 4 8 2 9 1 10 83 11 84 12 105 13
REMARK SMILES IDX 85 14 104 15 86 16 94 17 87 18 93 19 88 20 92 21 89 22 91 23
REMARK SMILES IDX 90 24 95 25 96 26 97 27 98 28 103 29 99 30 102 31 100 32
REMARK SMILES IDX 101 33 11 34 12 35 13 36 14 37 15 38 16 39 17 40 18 41 19 42
REMARK SMILES IDX 20 43 21 44 82 45 22 46 81 47 23 48 24 49 25 50 75 51 26 52
REMARK SMILES IDX 80 53 74 54 76 55 27 56 79 57 73 58 72 59 28 61 60 62 40 63
REMARK SMILES IDX 59 64 41 65 44 66 58 67 77 68 42 69 43 70 57 72 78 73 45 74
REMARK SMILES IDX 29 75 30 76 38 77 31 78 32 79 36 80 39 81 33 82 34 83 37 84
REMARK SMILES IDX 35 85 61 86 62 87 70 88 63 89 64 90 68 91 71 92 65 93 66 94
REMARK SMILES IDX 69 95 67 96 46 97 47 98 55 99 48 100 49 101 53 102 56 103
REMARK SMILES IDX 50 104 51 105 54 106 52 107
REMARK H PARENT 76 60 44 71
REMARK Flexibility Score: inf
ROOT
ATOM      1  C   UNL     1       1.034   1.487   2.337  1.00  0.00     0.188 C 
ENDROOT
BRANCH   1   2
ATOM      2  C   UNL     1       0.287   0.796   3.486  1.00  0.00     0.188 C 
BRANCH   2   3
ATOM      3  O   UNL     1       0.999   0.675   4.699  1.00  0.00    -0.376 OA
BRANCH   3   4
ATOM      4  C   UNL     1       2.037  -0.278   4.843  1.00  0.00     0.202 C 
BRANCH   4   5
ATOM      5  C   UNL     1       2.545  -1.256   3.758  1.00  0.00     0.261 C 
BRANCH   5   6
ATOM      6  O   UNL     1       2.097  -1.068   2.409  1.00  0.00    -0.463 OA
BRANCH   6   7
ATOM      7  C   UNL     1       1.250  -1.998   1.907  1.00  0.00     0.313 C 
ATOM      8  O   UNL     1       0.894  -2.991   2.534  1.00  0.00    -0.252 OA
BRANCH   7   9
ATOM      9  C   UNL     1       0.733  -1.671   0.489  1.00  0.00     0.126 C 
ATOM     10  C   UNL     1       1.622  -0.769  -0.379  1.00  0.00     0.025 C 
BRANCH   9  11
ATOM     11  C   UNL     1      -0.767  -1.357   0.491  1.00  0.00    -0.032 A 
ATOM     12  C   UNL     1      -1.349  -0.115   0.213  1.00  0.00     0.005 A 
ATOM     13  C   UNL     1      -1.617  -2.413   0.853  1.00  0.00     0.032 A 
ATOM     14  C   UNL     1      -2.744   0.070   0.256  1.00  0.00     0.011 A 
ATOM     15  C   UNL     1      -3.004  -2.213   0.948  1.00  0.00     0.057 A 
ATOM     16  C   UNL     1      -3.587  -1.007   0.598  1.00  0.00     0.008 A 
ATOM     17  N   UNL     1      -4.001  -3.094   1.371  1.00  0.00    -0.276 N 
ATOM     18  C   UNL     1      -4.996  -1.188   0.683  1.00  0.00     0.009 A 
ATOM     19  C   UNL     1      -5.240  -2.467   1.214  1.00  0.00     0.057 A 
ATOM     20  C   UNL     1      -6.084  -0.342   0.377  1.00  0.00     0.031 A 
ATOM     21  C   UNL     1      -6.545  -2.858   1.567  1.00  0.00     0.029 A 
ATOM     22  C   UNL     1      -7.380  -0.765   0.660  1.00  0.00     0.041 A 
ATOM     23  C   UNL     1      -7.607  -1.992   1.271  1.00  0.00     0.023 A 
ATOM     24  Cl  UNL     1      -8.707   0.259   0.267  1.00  0.00    -0.084 Cl
BRANCH  17  25
ATOM     25  C   UNL     1      -3.688  -4.342   1.957  1.00  0.00     0.262 C 
ATOM     26  O   UNL     1      -2.731  -4.327   2.734  1.00  0.00    -0.268 OA
BRANCH  25  27
ATOM     27  C   UNL     1      -4.291  -5.680   1.696  1.00  0.00     0.040 A 
ATOM     28  C   UNL     1      -3.695  -6.773   2.363  1.00  0.00     0.015 A 
ATOM     29  C   UNL     1      -5.300  -5.937   0.765  1.00  0.00     0.015 A 
ATOM     30  C   UNL     1      -4.105  -8.085   2.127  1.00  0.00     0.021 A 
ATOM     31  C   UNL     1      -5.731  -7.257   0.548  1.00  0.00     0.021 A 
ATOM     32  C   UNL     1      -5.132  -8.322   1.225  1.00  0.00     0.041 A 
ATOM     33  Cl  UNL     1      -5.645  -9.936   0.928  1.00  0.00    -0.084 Cl
ENDBRANCH  25  27
ENDBRANCH  17  25
ENDBRANCH   9  11
ENDBRANCH   7   9
ENDBRANCH   6   7
ENDBRANCH   5   6
ENDBRANCH   4   5
ENDBRANCH   3   4
ENDBRANCH   2   3
ENDBRANCH   1   2
BRANCH   1  34
ATOM     34  O   UNL     1       2.442   1.559   2.451  1.00  0.00    -0.377 OA
BRANCH  34  35
ATOM     35  C   UNL     1       3.013   2.544   3.295  1.00  0.00     0.188 C 
BRANCH  35  36
ATOM     36  C   UNL     1       2.147   3.408   4.235  1.00  0.00     0.188 C 
BRANCH  36  37
ATOM     37  O   UNL     1       0.840   3.694   3.764  1.00  0.00    -0.376 OA
BRANCH  37  38
ATOM     38  C   UNL     1       0.589   4.957   3.170  1.00  0.00     0.202 C 
BRANCH  38  39
ATOM     39  C   UNL     1       1.264   5.247   1.821  1.00  0.00     0.261 C 
BRANCH  39  40
ATOM     40  O   UNL     1       2.696   5.153   1.799  1.00  0.00    -0.460 OA
BRANCH  40  41
ATOM     41  C   UNL     1       3.387   5.997   2.592  1.00  0.00     0.338 C 
ATOM     42  O   UNL     1       2.937   6.870   3.316  1.00  0.00    -0.246 OA
BRANCH  41  43
ATOM     43  C   UNL     1       4.798   5.564   2.585  1.00  0.00     0.060 A 
ATOM     44  C   UNL     1       5.385   5.145   3.787  1.00  0.00     0.016 A 
ATOM     45  C   UNL     1       5.530   5.546   1.395  1.00  0.00     0.016 A 
ATOM     46  C   UNL     1       6.719   4.738   3.808  1.00  0.00     0.010 A 
ATOM     47  C   UNL     1       6.873   5.165   1.422  1.00  0.00     0.010 A 
ATOM     48  C   UNL     1       7.482   4.792   2.635  1.00  0.00    -0.014 A 
BRANCH  48  49
ATOM     49  C   UNL     1       8.957   4.669   2.714  1.00  0.00     0.031 A 
ATOM     50  C   UNL     1       9.770   5.932   2.765  1.00  0.00     0.074 A 
ATOM     51  C   UNL     1       9.562   3.470   2.767  1.00  0.00     0.049 A 
ATOM     52  N   UNL     1      11.069   6.088   2.787  1.00  0.00    -0.248 NA
ATOM     53  C   UNL     1       9.012   7.194   2.796  1.00  0.00     0.031 C 
ATOM     54  C   UNL     1       8.880   2.178   2.785  1.00  0.00     0.029 A 
ATOM     55  N   UNL     1      10.896   3.150   2.814  1.00  0.00    -0.354 N 
ATOM     56  C   UNL     1      11.281   7.460   2.818  1.00  0.00     0.074 A 
ATOM     57  C   UNL     1       9.983   8.095   2.790  1.00  0.00     0.031 C 
ATOM     58  C   UNL     1       9.803   1.201   2.836  1.00  0.00     0.029 A 
ATOM     59  C   UNL     1      11.138   1.798   2.816  1.00  0.00     0.049 A 
ATOM     60  H   UNL     1      11.611   3.825   2.844  1.00  0.00     0.167 HD
ATOM     61  C   UNL     1      12.457   8.129   2.872  1.00  0.00     0.037 A 
ATOM     62  C   UNL     1      12.306   1.127   2.784  1.00  0.00     0.037 A 
ATOM     63  C   UNL     1      13.746   7.493   2.904  1.00  0.00     0.049 A 
ATOM     64  C   UNL     1      13.602   1.899   2.758  1.00  0.00     0.074 A 
ATOM     65  C   UNL     1      14.995   8.083   2.980  1.00  0.00     0.029 A 
ATOM     66  N   UNL     1      13.953   6.123   2.852  1.00  0.00    -0.354 N 
ATOM     67  N   UNL     1      13.799   3.194   2.803  1.00  0.00    -0.248 NA
ATOM     68  C   UNL     1      14.841   1.110   2.676  1.00  0.00     0.031 C 
ATOM     69  C   UNL     1      15.959   7.074   2.905  1.00  0.00     0.029 A 
ATOM     70  C   UNL     1      15.311   5.850   2.859  1.00  0.00     0.049 A 
ATOM     71  H   UNL     1      13.240   5.444   2.814  1.00  0.00     0.167 HD
ATOM     72  C   UNL     1      15.177   3.374   2.793  1.00  0.00     0.074 A 
ATOM     73  C   UNL     1      15.769   2.054   2.747  1.00  0.00     0.031 C 
ATOM     74  C   UNL     1      15.888   4.529   2.824  1.00  0.00     0.037 A 
BRANCH  61  75
ATOM     75  C   UNL     1      12.406   9.629   2.859  1.00  0.00     0.064 A 
ATOM     76  C   UNL     1      11.937  10.367   3.955  1.00  0.00     0.173 A 
ATOM     77  C   UNL     1      12.881  10.340   1.745  1.00  0.00     0.173 A 
ATOM     78  F   UNL     1      11.456   9.737   5.038  1.00  0.00    -0.203 F 
ATOM     79  C   UNL     1      11.927  11.760   3.930  1.00  0.00     0.198 A 
ATOM     80  C   UNL     1      12.900  11.731   1.736  1.00  0.00     0.198 A 
ATOM     81  F   UNL     1      13.341   9.683   0.669  1.00  0.00    -0.203 F 
ATOM     82  F   UNL     1      11.434  12.444   4.971  1.00  0.00    -0.200 F 
ATOM     83  C   UNL     1      12.418  12.440   2.826  1.00  0.00     0.200 A 
ATOM     84  F   UNL     1      13.388  12.386   0.673  1.00  0.00    -0.200 F 
ATOM     85  F   UNL     1      12.422  13.780   2.809  1.00  0.00    -0.200 F 
ENDBRANCH  61  75
BRANCH  62  86
ATOM     86  C   UNL     1      12.312  -0.361   2.778  1.00  0.00     0.064 A 
ATOM     87  C   UNL     1      12.813  -1.084   3.869  1.00  0.00     0.173 A 
ATOM     88  C   UNL     1      11.837  -1.089   1.677  1.00  0.00     0.173 A 
ATOM     89  F   UNL     1      13.306  -0.433   4.933  1.00  0.00    -0.203 F 
ATOM     90  C   UNL     1      12.854  -2.477   3.854  1.00  0.00     0.198 A 
ATOM     91  C   UNL     1      11.849  -2.483   1.676  1.00  0.00     0.198 A 
ATOM     92  F   UNL     1      11.353  -0.447   0.604  1.00  0.00    -0.203 F 
ATOM     93  F   UNL     1      13.383  -3.141   4.891  1.00  0.00    -0.200 F 
ATOM     94  C   UNL     1      12.365  -3.176   2.761  1.00  0.00     0.200 A 
ATOM     95  F   UNL     1      11.366  -3.154   0.621  1.00  0.00    -0.200 F 
ATOM     96  F   UNL     1      12.399  -4.515   2.748  1.00  0.00    -0.200 F 
ENDBRANCH  62  86
BRANCH  74  97
ATOM     97  C   UNL     1      17.387   4.425   2.861  1.00  0.00     0.064 A 
ATOM     98  C   UNL     1      18.129   3.988   1.754  1.00  0.00     0.173 A 
ATOM     99  C   UNL     1      18.095   4.819   4.008  1.00  0.00     0.173 A 
ATOM    100  F   UNL     1      17.503   3.590   0.636  1.00  0.00    -0.203 F 
ATOM    101  C   UNL     1      19.520   3.921   1.805  1.00  0.00     0.198 A 
ATOM    102  C   UNL     1      19.486   4.787   4.042  1.00  0.00     0.198 A 
ATOM    103  F   UNL     1      17.436   5.257   5.092  1.00  0.00    -0.203 F 
ATOM    104  F   UNL     1      20.204   3.450   0.753  1.00  0.00    -0.200 F 
ATOM    105  C   UNL     1      20.197   4.328   2.944  1.00  0.00     0.200 A 
ATOM    106  F   UNL     1      20.138   5.201   5.138  1.00  0.00    -0.200 F 
ATOM    107  F   UNL     1      21.535   4.274   2.986  1.00  0.00    -0.200 F 
ENDBRANCH  74  97
ENDBRANCH  48  49
ENDBRANCH  41  43
ENDBRANCH  40  41
ENDBRANCH  39  40
ENDBRANCH  38  39
ENDBRANCH  37  38
ENDBRANCH  36  37
ENDBRANCH  35  36
ENDBRANCH  34  35
ENDBRANCH   1  34
TORSDOF 23
