REMARK SMILES Cc1ccc(CN(CC(=O)OCCOCCOCCOCCOC(=O)c2ccc(-c3c4nc(c(-c5c(F)c(F)c(F)c(F)c5F)c5ccc([nH]5)c(-c5c(F)c(F)c(F)c(F)c5F)c5nc(c(-c6c(F)c(F)c(F)c(F)c6F)c6ccc3[nH]6)C=C5)C=C4)cc2)C(=O)c2cc3c(s2)CCOC3)cc1
REMARK SMILES IDX 16 1 15 2 14 3 13 4 12 5 11 6 9 7 10 8 8 9 7 10 6 11 5 12
REMARK SMILES IDX 1 13 2 14 3 15 101 16 4 17 100 18 89 19 90 20 91 21 92 22
REMARK SMILES IDX 95 23 93 24 94 25 99 26 96 27 98 28 97 29 17 30 18 31 19 32
REMARK SMILES IDX 20 33 21 34 22 35 23 36 24 37 25 38 26 39 27 40 88 41 28 42
REMARK SMILES IDX 87 43 29 44 30 45 31 46 81 47 32 48 86 49 80 50 82 51 33 52
REMARK SMILES IDX 85 53 79 54 78 55 34 57 66 58 46 59 65 60 47 61 50 62 64 63
REMARK SMILES IDX 83 64 48 65 49 66 63 68 84 69 51 70 35 71 36 72 44 73 37 74
REMARK SMILES IDX 38 75 42 76 45 77 39 78 40 79 43 80 41 81 67 82 68 83 76 84
REMARK SMILES IDX 69 85 70 86 74 87 77 88 71 89 72 90 75 91 73 92 52 93 53 94
REMARK SMILES IDX 61 95 54 96 55 97 59 98 62 99 56 100 57 101 60 102 58 103
REMARK H PARENT 82 56 50 67
REMARK Flexibility Score: inf
ROOT
ATOM      1  C   UNL     1      -4.383   0.585  -2.665  1.00  0.00     0.188 C 
ENDROOT
BRANCH   1   2
ATOM      2  C   UNL     1      -5.020  -0.766  -2.328  1.00  0.00     0.188 C 
BRANCH   2   3
ATOM      3  O   UNL     1      -6.037  -1.251  -3.198  1.00  0.00    -0.376 OA
BRANCH   3   4
ATOM      4  C   UNL     1      -6.268  -2.675  -3.149  1.00  0.00     0.202 C 
BRANCH   4   5
ATOM      5  C   UNL     1      -6.192  -3.430  -1.817  1.00  0.00     0.261 C 
BRANCH   5   6
ATOM      6  O   UNL     1      -4.960  -3.249  -1.125  1.00  0.00    -0.462 OA
BRANCH   6   7
ATOM      7  C   UNL     1      -3.915  -3.933  -1.648  1.00  0.00     0.325 C 
ATOM      8  O   UNL     1      -3.999  -4.847  -2.455  1.00  0.00    -0.250 OA
BRANCH   7   9
ATOM      9  C   UNL     1      -2.624  -3.377  -1.089  1.00  0.00     0.242 C 
BRANCH   9  10
ATOM     10  N   UNL     1      -2.333  -1.972  -1.413  1.00  0.00    -0.323 N 
BRANCH  10  11
ATOM     11  C   UNL     1      -2.404  -1.019  -0.268  1.00  0.00     0.156 C 
BRANCH  11  12
ATOM     12  C   UNL     1      -1.040  -0.610   0.192  1.00  0.00    -0.029 A 
ATOM     13  C   UNL     1       3.126   0.229   0.112  1.00  0.00     0.044 C 
ATOM     14  C   UNL     1       1.665  -0.012   0.314  1.00  0.00    -0.051 A 
ATOM     15  C   UNL     1       1.226  -1.323   0.520  1.00  0.00     0.004 A 
ATOM     16  C   UNL     1       0.733   1.024   0.180  1.00  0.00     0.004 A 
ATOM     17  C   UNL     1      -0.124  -1.616   0.495  1.00  0.00     0.006 A 
ATOM     18  C   UNL     1      -0.625   0.728   0.124  1.00  0.00     0.006 A 
ENDBRANCH  11  12
ENDBRANCH  10  11
BRANCH  10  19
ATOM     19  C   UNL     1      -1.847  -1.538  -2.692  1.00  0.00     0.264 C 
ATOM     20  O   UNL     1      -1.274  -0.453  -2.791  1.00  0.00    -0.268 OA
BRANCH  19  21
ATOM     21  C   UNL     1      -2.251  -2.258  -3.922  1.00  0.00     0.093 A 
ATOM     22  C   UNL     1      -3.407  -2.061  -4.669  1.00  0.00     0.032 A 
ATOM     23  S   UNL     1      -1.157  -3.144  -4.925  1.00  0.00    -0.135 S 
ATOM     24  C   UNL     1      -3.611  -3.027  -5.669  1.00  0.00    -0.008 A 
ATOM     25  C   UNL     1      -2.376  -3.441  -6.088  1.00  0.00     0.013 A 
ATOM     26  C   UNL     1      -4.886  -3.421  -6.355  1.00  0.00     0.196 C 
ATOM     27  C   UNL     1      -2.245  -4.045  -7.445  1.00  0.00     0.075 C 
ATOM     28  O   UNL     1      -4.681  -3.992  -7.659  1.00  0.00    -0.376 OA
ATOM     29  C   UNL     1      -3.529  -4.860  -7.701  1.00  0.00     0.166 C 
ENDBRANCH  19  21
ENDBRANCH  10  19
ENDBRANCH   9  10
ENDBRANCH   7   9
ENDBRANCH   6   7
ENDBRANCH   5   6
ENDBRANCH   4   5
ENDBRANCH   3   4
ENDBRANCH   2   3
ENDBRANCH   1   2
BRANCH   1  30
ATOM     30  O   UNL     1      -5.254   1.703  -2.586  1.00  0.00    -0.377 OA
BRANCH  30  31
ATOM     31  C   UNL     1      -5.717   2.048  -3.880  1.00  0.00     0.188 C 
BRANCH  31  32
ATOM     32  C   UNL     1      -4.627   2.487  -4.829  1.00  0.00     0.188 C 
BRANCH  32  33
ATOM     33  O   UNL     1      -4.394   1.384  -5.707  1.00  0.00    -0.376 OA
BRANCH  33  34
ATOM     34  C   UNL     1      -3.518   1.675  -6.788  1.00  0.00     0.202 C 
BRANCH  34  35
ATOM     35  C   UNL     1      -4.076   2.785  -7.690  1.00  0.00     0.261 C 
BRANCH  35  36
ATOM     36  O   UNL     1      -5.421   2.410  -8.078  1.00  0.00    -0.460 OA
BRANCH  36  37
ATOM     37  C   UNL     1      -6.433   3.180  -7.572  1.00  0.00     0.338 C 
ATOM     38  O   UNL     1      -6.418   4.384  -7.484  1.00  0.00    -0.246 OA
BRANCH  37  39
ATOM     39  C   UNL     1      -7.441   2.307  -6.872  1.00  0.00     0.060 A 
ATOM     40  C   UNL     1      -8.386   2.893  -6.005  1.00  0.00     0.016 A 
ATOM     41  C   UNL     1      -7.264   0.926  -6.835  1.00  0.00     0.016 A 
ATOM     42  C   UNL     1      -9.046   2.124  -5.020  1.00  0.00     0.010 A 
ATOM     43  C   UNL     1      -7.879   0.183  -5.830  1.00  0.00     0.010 A 
ATOM     44  C   UNL     1      -8.752   0.765  -4.883  1.00  0.00    -0.014 A 
BRANCH  44  45
ATOM     45  C   UNL     1      -9.096  -0.086  -3.706  1.00  0.00     0.031 A 
ATOM     46  C   UNL     1      -9.583  -1.514  -3.930  1.00  0.00     0.074 A 
ATOM     47  C   UNL     1      -8.574   0.242  -2.491  1.00  0.00     0.049 A 
ATOM     48  N   UNL     1      -9.745  -2.439  -3.029  1.00  0.00    -0.248 NA
ATOM     49  C   UNL     1      -9.922  -2.022  -5.261  1.00  0.00     0.031 C 
ATOM     50  C   UNL     1      -8.122  -0.755  -1.537  1.00  0.00     0.029 A 
ATOM     51  N   UNL     1      -8.098   1.429  -1.914  1.00  0.00    -0.354 N 
ATOM     52  C   UNL     1      -9.805  -3.670  -3.663  1.00  0.00     0.074 A 
ATOM     53  C   UNL     1     -10.062  -3.336  -5.041  1.00  0.00     0.031 C 
ATOM     54  C   UNL     1      -7.383  -0.213  -0.565  1.00  0.00     0.029 A 
ATOM     55  C   UNL     1      -7.708   1.169  -0.578  1.00  0.00     0.049 A 
ATOM     56  H   UNL     1      -8.043   2.302  -2.365  1.00  0.00     0.167 HD
ATOM     57  C   UNL     1      -9.479  -4.828  -2.998  1.00  0.00     0.037 A 
ATOM     58  C   UNL     1      -8.326   1.737   0.495  1.00  0.00     0.037 A 
ATOM     59  C   UNL     1      -9.280  -4.635  -1.534  1.00  0.00     0.049 A 
ATOM     60  C   UNL     1      -9.121   0.673   1.283  1.00  0.00     0.074 A 
ATOM     61  C   UNL     1      -8.432  -5.183  -0.583  1.00  0.00     0.029 A 
ATOM     62  N   UNL     1     -10.013  -3.661  -0.831  1.00  0.00    -0.354 N 
ATOM     63  N   UNL     1      -9.311  -0.551   0.825  1.00  0.00    -0.248 NA
ATOM     64  C   UNL     1      -9.682   0.791   2.622  1.00  0.00     0.031 C 
ATOM     65  C   UNL     1      -8.498  -4.378   0.597  1.00  0.00     0.029 A 
ATOM     66  C   UNL     1      -9.523  -3.451   0.447  1.00  0.00     0.049 A 
ATOM     67  H   UNL     1     -10.787  -3.183  -1.206  1.00  0.00     0.167 HD
ATOM     68  C   UNL     1      -9.942  -1.357   1.709  1.00  0.00     0.074 A 
ATOM     69  C   UNL     1     -10.167  -0.455   2.830  1.00  0.00     0.031 C 
ATOM     70  C   UNL     1     -10.273  -2.662   1.437  1.00  0.00     0.037 A 
BRANCH  57  71
ATOM     71  C   UNL     1      -9.142  -6.173  -3.701  1.00  0.00     0.064 A 
ATOM     72  C   UNL     1      -9.102  -7.390  -2.975  1.00  0.00     0.173 A 
ATOM     73  C   UNL     1      -8.737  -6.316  -5.052  1.00  0.00     0.173 A 
ATOM     74  F   UNL     1      -9.490  -7.440  -1.694  1.00  0.00    -0.203 F 
ATOM     75  C   UNL     1      -8.664  -8.608  -3.530  1.00  0.00     0.198 A 
ATOM     76  C   UNL     1      -8.384  -7.551  -5.629  1.00  0.00     0.198 A 
ATOM     77  F   UNL     1      -8.599  -5.260  -5.862  1.00  0.00    -0.203 F 
ATOM     78  F   UNL     1      -8.567  -9.699  -2.756  1.00  0.00    -0.200 F 
ATOM     79  C   UNL     1      -8.322  -8.693  -4.862  1.00  0.00     0.200 A 
ATOM     80  F   UNL     1      -8.075  -7.614  -6.933  1.00  0.00    -0.200 F 
ATOM     81  F   UNL     1      -7.926  -9.857  -5.398  1.00  0.00    -0.200 F 
ENDBRANCH  57  71
BRANCH  58  82
ATOM     82  C   UNL     1      -8.380   3.226   0.279  1.00  0.00     0.064 A 
ATOM     83  C   UNL     1      -7.090   3.830   0.242  1.00  0.00     0.173 A 
ATOM     84  C   UNL     1      -9.316   3.723  -0.647  1.00  0.00     0.173 A 
ATOM     85  F   UNL     1      -6.156   3.452   1.131  1.00  0.00    -0.203 F 
ATOM     86  C   UNL     1      -6.679   4.614  -0.844  1.00  0.00     0.198 A 
ATOM     87  C   UNL     1      -8.900   4.517  -1.730  1.00  0.00     0.198 A 
ATOM     88  F   UNL     1     -10.568   3.244  -0.649  1.00  0.00    -0.203 F 
ATOM     89  F   UNL     1      -5.389   4.966  -0.973  1.00  0.00    -0.200 F 
ATOM     90  C   UNL     1      -7.572   4.903  -1.860  1.00  0.00     0.200 A 
ATOM     91  F   UNL     1      -9.754   4.781  -2.731  1.00  0.00    -0.200 F 
ATOM     92  F   UNL     1      -7.139   5.476  -2.994  1.00  0.00    -0.200 F 
ENDBRANCH  58  82
BRANCH  70  93
ATOM     93  C   UNL     1     -11.422  -3.377   2.109  1.00  0.00     0.064 A 
ATOM     94  C   UNL     1     -12.539  -2.683   2.594  1.00  0.00     0.173 A 
ATOM     95  C   UNL     1     -11.556  -4.789   2.060  1.00  0.00     0.173 A 
ATOM     96  F   UNL     1     -12.602  -1.345   2.556  1.00  0.00    -0.203 F 
ATOM     97  C   UNL     1     -13.671  -3.345   3.063  1.00  0.00     0.198 A 
ATOM     98  C   UNL     1     -12.716  -5.442   2.461  1.00  0.00     0.198 A 
ATOM     99  F   UNL     1     -10.590  -5.587   1.586  1.00  0.00    -0.203 F 
ATOM    100  F   UNL     1     -14.690  -2.632   3.558  1.00  0.00    -0.200 F 
ATOM    101  C   UNL     1     -13.765  -4.721   2.983  1.00  0.00     0.200 A 
ATOM    102  F   UNL     1     -12.815  -6.771   2.311  1.00  0.00    -0.200 F 
ATOM    103  F   UNL     1     -14.877  -5.348   3.386  1.00  0.00    -0.200 F 
ENDBRANCH  70  93
ENDBRANCH  44  45
ENDBRANCH  37  39
ENDBRANCH  36  37
ENDBRANCH  35  36
ENDBRANCH  34  35
ENDBRANCH  33  34
ENDBRANCH  32  33
ENDBRANCH  31  32
ENDBRANCH  30  31
ENDBRANCH   1  30
TORSDOF 25
