REMARK SMILES NS(=O)(=O)c1ccc(-n2nc(NC(=O)NCCCC(=O)OCCOCCOCCOCCOC(=O)c3ccc(-c4c5nc(c(-c6c(F)c(F)c(F)c(F)c6F)c6ccc([nH]6)c(-c6c(F)c(F)c(F)c(F)c6F)c6nc(c(-c7c(F)c(F)c(F)c(F)c7F)c7ccc4[nH]7)C=C6)C=C5)cc3)cc2-c2ccccc2)cc1
REMARK SMILES IDX 25 1 24 2 23 3 22 4 21 5 19 6 20 7 18 8 17 9 16 10 15 11
REMARK SMILES IDX 12 12 13 13 14 15 11 17 9 18 10 19 100 20 99 21 8 22 5 23
REMARK SMILES IDX 6 24 108 25 7 26 107 27 2 28 3 29 4 30 1 31 101 34 102 35
REMARK SMILES IDX 106 36 103 37 105 38 104 39 26 40 27 41 28 42 29 43 30 44
REMARK SMILES IDX 31 45 32 46 33 47 34 48 35 49 36 50 37 51 98 52 38 53 97 54
REMARK SMILES IDX 39 55 40 56 41 57 91 58 42 59 96 60 90 61 92 62 43 63 95 64
REMARK SMILES IDX 89 65 88 66 44 68 76 69 56 70 75 71 57 72 60 73 74 74 93 75
REMARK SMILES IDX 58 76 59 77 73 79 94 80 61 81 45 82 46 83 54 84 47 85 48 86
REMARK SMILES IDX 52 87 55 88 49 89 50 90 53 91 51 92 77 93 78 94 86 95 79 96
REMARK SMILES IDX 80 97 84 98 87 99 81 100 82 101 85 102 83 103 62 104 63 105
REMARK SMILES IDX 71 106 64 107 65 108 69 109 72 110 66 111 67 112 70 113
REMARK SMILES IDX 68 114
REMARK H PARENT 12 14 15 16 1 32 1 33 92 67 60 78
REMARK Flexibility Score: inf
ROOT
ATOM      1  C   UNL     1       4.671   2.485  -1.592  1.00  0.00     0.188 C 
ENDROOT
BRANCH   1   2
ATOM      2  O   UNL     1       5.207   3.736  -1.178  1.00  0.00    -0.376 OA
BRANCH   2   3
ATOM      3  C   UNL     1       4.641   4.933  -1.685  1.00  0.00     0.202 C 
BRANCH   3   4
ATOM      4  C   UNL     1       5.286   5.457  -2.981  1.00  0.00     0.261 C 
BRANCH   4   5
ATOM      5  O   UNL     1       5.699   4.465  -3.941  1.00  0.00    -0.463 OA
BRANCH   5   6
ATOM      6  C   UNL     1       6.899   3.876  -3.701  1.00  0.00     0.305 C 
ATOM      7  O   UNL     1       7.628   4.133  -2.750  1.00  0.00    -0.252 OA
BRANCH   6   8
ATOM      8  C   UNL     1       7.321   2.933  -4.810  1.00  0.00     0.124 C 
BRANCH   8   9
ATOM      9  C   UNL     1       6.403   1.782  -5.218  1.00  0.00     0.033 C 
BRANCH   9  10
ATOM     10  C   UNL     1       5.154   2.069  -6.058  1.00  0.00     0.118 C 
BRANCH  10  11
ATOM     11  N   UNL     1       5.386   2.756  -7.296  1.00  0.00    -0.338 N 
ATOM     12  N   UNL     1       3.812   1.770  -8.792  1.00  0.00    -0.291 N 
ATOM     13  C   UNL     1       4.750   2.673  -8.471  1.00  0.00     0.320 C 
ATOM     14  H   UNL     1       3.681   1.725  -9.767  1.00  0.00     0.173 HD
ATOM     15  O   UNL     1       5.149   3.421  -9.373  1.00  0.00    -0.248 OA
ATOM     16  H   UNL     1       6.137   3.393  -7.278  1.00  0.00     0.165 HD
BRANCH  12  17
ATOM     17  C   UNL     1       2.980   0.887  -8.135  1.00  0.00     0.157 A 
ATOM     18  N   UNL     1       1.774  -0.215  -6.727  1.00  0.00    -0.231 N 
ATOM     19  N   UNL     1       2.479   0.948  -6.894  1.00  0.00    -0.149 NA
ATOM     20  C   UNL     1       1.732  -0.956  -7.909  1.00  0.00     0.076 A 
ATOM     21  C   UNL     1       2.468  -0.232  -8.822  1.00  0.00     0.078 A 
BRANCH  18  22
ATOM     22  C   UNL     1       1.226  -0.533  -5.440  1.00  0.00     0.065 A 
ATOM     23  C   UNL     1      -0.050  -1.310  -2.130  1.00  0.00     0.082 A 
ATOM     24  C   UNL     1       0.643  -2.615  -3.179  1.00  0.00     0.024 A 
ATOM     25  C   UNL     1      -0.142   0.399  -2.760  1.00  0.00     0.024 A 
ATOM     26  C   UNL     1       1.234  -2.221  -4.844  1.00  0.00     0.030 A 
ATOM     27  C   UNL     1       0.553   0.790  -4.401  1.00  0.00     0.030 A 
BRANCH  23  28
ATOM     28  S   UNL     1      -0.768  -1.810  -0.598  1.00  0.00     0.238 S 
ATOM     29  O   UNL     1      -0.184  -3.084  -0.250  1.00  0.00    -0.207 OA
ATOM     30  O   UNL     1      -2.191  -1.568  -0.647  1.00  0.00    -0.207 OA
BRANCH  28  31
ATOM     31  N   UNL     1      -0.180  -0.705   0.524  1.00  0.00    -0.225 NA
ATOM     32  H   UNL     1      -0.552  -0.926   1.447  1.00  0.00     0.137 HD
ATOM     33  H   UNL     1      -0.469   0.237   0.258  1.00  0.00     0.137 HD
ENDBRANCH  28  31
ENDBRANCH  23  28
ENDBRANCH  18  22
BRANCH  20  34
ATOM     34  C   UNL     1       0.887  -2.108  -8.203  1.00  0.00     0.000 A 
ATOM     35  C   UNL     1      -0.453  -1.903  -8.540  1.00  0.00     0.010 A 
ATOM     36  C   UNL     1       1.394  -3.406  -8.242  1.00  0.00     0.010 A 
ATOM     37  C   UNL     1      -1.323  -2.974  -8.718  1.00  0.00     0.001 A 
ATOM     38  C   UNL     1       0.531  -4.486  -8.458  1.00  0.00     0.001 A 
ATOM     39  C   UNL     1      -0.834  -4.272  -8.650  1.00  0.00     0.000 A 
ENDBRANCH  20  34
ENDBRANCH  12  17
ENDBRANCH  10  11
ENDBRANCH   9  10
ENDBRANCH   8   9
ENDBRANCH   6   8
ENDBRANCH   5   6
ENDBRANCH   4   5
ENDBRANCH   3   4
ENDBRANCH   2   3
ENDBRANCH   1   2
BRANCH   1  40
ATOM     40  C   UNL     1       3.813   2.415  -2.856  1.00  0.00     0.188 C 
BRANCH  40  41
ATOM     41  O   UNL     1       2.711   3.279  -2.983  1.00  0.00    -0.377 OA
BRANCH  41  42
ATOM     42  C   UNL     1       1.543   3.077  -2.217  1.00  0.00     0.188 C 
BRANCH  42  43
ATOM     43  C   UNL     1       1.581   2.237  -0.938  1.00  0.00     0.188 C 
BRANCH  43  44
ATOM     44  O   UNL     1       1.413   0.820  -0.955  1.00  0.00    -0.376 OA
BRANCH  44  45
ATOM     45  C   UNL     1       2.184  -0.140  -1.677  1.00  0.00     0.202 C 
BRANCH  45  46
ATOM     46  C   UNL     1       1.768  -0.698  -3.210  1.00  0.00     0.261 C 
BRANCH  46  47
ATOM     47  O   UNL     1      -0.059  -0.992  -4.032  1.00  0.00    -0.460 OA
BRANCH  47  48
ATOM     48  C   UNL     1      -1.385  -1.466  -4.181  1.00  0.00     0.338 C 
ATOM     49  O   UNL     1      -1.921  -2.431  -3.639  1.00  0.00    -0.246 OA
BRANCH  48  50
ATOM     50  C   UNL     1      -2.233  -0.492  -4.877  1.00  0.00     0.060 A 
ATOM     51  C   UNL     1      -3.519  -0.207  -4.406  1.00  0.00     0.016 A 
ATOM     52  C   UNL     1      -1.825  -0.077  -6.126  1.00  0.00     0.016 A 
ATOM     53  C   UNL     1      -4.470   0.211  -5.321  1.00  0.00     0.010 A 
ATOM     54  C   UNL     1      -2.743   0.379  -7.017  1.00  0.00     0.010 A 
ATOM     55  C   UNL     1      -4.077   0.326  -6.653  1.00  0.00    -0.014 A 
BRANCH  55  56
ATOM     56  C   UNL     1      -4.990   0.000  -7.730  1.00  0.00     0.031 A 
ATOM     57  C   UNL     1      -5.237   1.042  -8.740  1.00  0.00     0.074 A 
ATOM     58  C   UNL     1      -5.294  -1.286  -8.003  1.00  0.00     0.049 A 
ATOM     59  N   UNL     1      -6.277   1.799  -8.809  1.00  0.00    -0.248 NA
ATOM     60  C   UNL     1      -4.179   1.386  -9.703  1.00  0.00     0.031 C 
ATOM     61  C   UNL     1      -4.767  -2.513  -7.397  1.00  0.00     0.029 A 
ATOM     62  N   UNL     1      -6.095  -1.753  -8.996  1.00  0.00    -0.354 N 
ATOM     63  C   UNL     1      -6.083   2.579  -9.937  1.00  0.00     0.074 A 
ATOM     64  C   UNL     1      -4.683   2.493 -10.248  1.00  0.00     0.031 C 
ATOM     65  C   UNL     1      -5.134  -3.576  -8.153  1.00  0.00     0.029 A 
ATOM     66  C   UNL     1      -6.012  -3.119  -9.217  1.00  0.00     0.049 A 
ATOM     67  H   UNL     1      -6.689  -1.167  -9.518  1.00  0.00     0.167 HD
ATOM     68  C   UNL     1      -7.128   2.986 -10.706  1.00  0.00     0.037 A 
ATOM     69  C   UNL     1      -6.594  -3.788 -10.244  1.00  0.00     0.037 A 
ATOM     70  C   UNL     1      -8.391   2.716 -10.057  1.00  0.00     0.049 A 
ATOM     71  C   UNL     1      -7.684  -2.917 -10.770  1.00  0.00     0.074 A 
ATOM     72  C   UNL     1      -8.914   3.010  -8.810  1.00  0.00     0.029 A 
ATOM     73  N   UNL     1      -9.166   1.687 -10.542  1.00  0.00    -0.354 N 
ATOM     74  N   UNL     1      -8.787  -2.651 -10.125  1.00  0.00    -0.248 NA
ATOM     75  C   UNL     1      -7.360  -1.989 -11.847  1.00  0.00     0.031 C 
ATOM     76  C   UNL     1      -9.617   1.833  -8.415  1.00  0.00     0.029 A 
ATOM     77  C   UNL     1      -9.539   0.920  -9.466  1.00  0.00     0.049 A 
ATOM     78  H   UNL     1      -9.407   1.530 -11.484  1.00  0.00     0.167 HD
ATOM     79  C   UNL     1      -9.053  -1.321 -10.411  1.00  0.00     0.074 A 
ATOM     80  C   UNL     1      -8.216  -1.003 -11.563  1.00  0.00     0.031 C 
ATOM     81  C   UNL     1      -9.695  -0.517  -9.512  1.00  0.00     0.037 A 
BRANCH  68  82
ATOM     82  C   UNL     1      -7.027   3.319 -12.172  1.00  0.00     0.064 A 
ATOM     83  C   UNL     1      -8.098   3.994 -12.785  1.00  0.00     0.173 A 
ATOM     84  C   UNL     1      -6.041   2.818 -13.051  1.00  0.00     0.173 A 
ATOM     85  F   UNL     1      -9.110   4.476 -12.049  1.00  0.00    -0.203 F 
ATOM     86  C   UNL     1      -8.194   4.119 -14.172  1.00  0.00     0.198 A 
ATOM     87  C   UNL     1      -6.102   3.010 -14.429  1.00  0.00     0.198 A 
ATOM     88  F   UNL     1      -5.042   2.030 -12.637  1.00  0.00    -0.203 F 
ATOM     89  F   UNL     1      -9.292   4.662 -14.713  1.00  0.00    -0.200 F 
ATOM     90  C   UNL     1      -7.193   3.634 -14.993  1.00  0.00     0.200 A 
ATOM     91  F   UNL     1      -5.129   2.515 -15.207  1.00  0.00    -0.200 F 
ATOM     92  F   UNL     1      -7.303   3.717 -16.325  1.00  0.00    -0.200 F 
ENDBRANCH  68  82
BRANCH  69  93
ATOM     93  C   UNL     1      -6.166  -5.030 -10.931  1.00  0.00     0.064 A 
ATOM     94  C   UNL     1      -7.035  -5.698 -11.812  1.00  0.00     0.173 A 
ATOM     95  C   UNL     1      -4.822  -5.452 -10.948  1.00  0.00     0.173 A 
ATOM     96  F   UNL     1      -8.323  -5.335 -11.895  1.00  0.00    -0.203 F 
ATOM     97  C   UNL     1      -6.583  -6.701 -12.675  1.00  0.00     0.198 A 
ATOM     98  C   UNL     1      -4.375  -6.465 -11.799  1.00  0.00     0.198 A 
ATOM     99  F   UNL     1      -3.893  -4.830 -10.210  1.00  0.00    -0.203 F 
ATOM    100  F   UNL     1      -7.431  -7.261 -13.549  1.00  0.00    -0.200 F 
ATOM    101  C   UNL     1      -5.251  -7.078 -12.674  1.00  0.00     0.200 A 
ATOM    102  F   UNL     1      -3.076  -6.798 -11.809  1.00  0.00    -0.200 F 
ATOM    103  F   UNL     1      -4.806  -7.998 -13.540  1.00  0.00    -0.200 F 
ENDBRANCH  69  93
BRANCH  81 104
ATOM    104  C   UNL     1     -10.381  -1.161  -8.337  1.00  0.00     0.064 A 
ATOM    105  C   UNL     1      -9.726  -1.947  -7.373  1.00  0.00     0.173 A 
ATOM    106  C   UNL     1     -11.726  -0.843  -8.096  1.00  0.00     0.173 A 
ATOM    107  F   UNL     1      -8.416  -2.206  -7.465  1.00  0.00    -0.203 F 
ATOM    108  C   UNL     1     -10.399  -2.431  -6.252  1.00  0.00     0.198 A 
ATOM    109  C   UNL     1     -12.384  -1.292  -6.954  1.00  0.00     0.198 A 
ATOM    110  F   UNL     1     -12.392  -0.049  -8.950  1.00  0.00    -0.203 F 
ATOM    111  F   UNL     1      -9.752  -3.192  -5.357  1.00  0.00    -0.200 F 
ATOM    112  C   UNL     1     -11.725  -2.096  -6.039  1.00  0.00     0.200 A 
ATOM    113  F   UNL     1     -13.652  -0.922  -6.727  1.00  0.00    -0.200 F 
ATOM    114  F   UNL     1     -12.360  -2.523  -4.939  1.00  0.00    -0.200 F 
ENDBRANCH  81 104
ENDBRANCH  55  56
ENDBRANCH  48  50
ENDBRANCH  47  48
ENDBRANCH  46  47
ENDBRANCH  45  46
ENDBRANCH  44  45
ENDBRANCH  43  44
ENDBRANCH  42  43
ENDBRANCH  41  42
ENDBRANCH  40  41
ENDBRANCH   1  40
TORSDOF 28
