REMARK SMILES NS(=O)(=O)CCNC(=O)N1[C@@H]2CC[C@H]1C[C@H](CC(=O)OCCOCCOCCOCCOC(=O)c1ccc(-c3c4nc(c(-c5c(F)c(F)c(F)c(F)c5F)c5ccc([nH]5)c(-c5c(F)c(F)c(F)c(F)c5F)c5nc(c(-c6c(F)c(F)c(F)c(F)c6F)c6ccc3[nH]6)C=C5)C=C4)cc1)C2
REMARK SMILES IDX 24 1 23 2 22 3 21 4 20 5 18 6 19 7 17 8 16 9 10 10 11 11
REMARK SMILES IDX 14 12 12 13 98 14 13 15 15 16 8 17 7 18 9 20 6 21 5 22 2 23
REMARK SMILES IDX 3 24 4 25 1 26 25 29 26 30 27 31 28 32 29 33 30 34 31 35
REMARK SMILES IDX 32 36 33 37 34 38 35 39 36 40 97 41 37 42 96 43 38 44 39 45
REMARK SMILES IDX 40 46 90 47 41 48 95 49 89 50 91 51 42 52 94 53 88 54 87 55
REMARK SMILES IDX 43 57 75 58 55 59 74 60 56 61 59 62 73 63 92 64 57 65 58 66
REMARK SMILES IDX 72 68 93 69 60 70 44 71 45 72 53 73 46 74 47 75 51 76 54 77
REMARK SMILES IDX 48 78 49 79 52 80 50 81 76 82 77 83 85 84 78 85 79 86 83 87
REMARK SMILES IDX 86 88 80 89 81 90 84 91 82 92 61 93 62 94 70 95 63 96 64 97
REMARK SMILES IDX 68 98 71 99 65 100 66 101 69 102 67 103
REMARK H PARENT 7 19 1 27 1 28 91 56 59 67
REMARK Flexibility Score: inf
ROOT
ATOM      1  C   UNL     1       3.663  -8.825  -4.733  1.00  0.00     0.188 C 
ENDROOT
BRANCH   1   2
ATOM      2  O   UNL     1       2.525  -9.651  -4.679  1.00  0.00    -0.376 OA
BRANCH   2   3
ATOM      3  C   UNL     1       1.627  -9.554  -3.591  1.00  0.00     0.202 C 
BRANCH   3   4
ATOM      4  C   UNL     1       1.437  -8.308  -2.699  1.00  0.00     0.261 C 
BRANCH   4   5
ATOM      5  O   UNL     1       2.145  -7.106  -3.035  1.00  0.00    -0.463 OA
BRANCH   5   6
ATOM      6  C   UNL     1       3.109  -6.708  -2.176  1.00  0.00     0.306 C 
ATOM      7  O   UNL     1       3.459  -7.356  -1.194  1.00  0.00    -0.252 OA
BRANCH   6   8
ATOM      8  C   UNL     1       3.772  -5.382  -2.513  1.00  0.00     0.126 C 
BRANCH   8   9
ATOM      9  C   UNL     1       3.356  -4.511  -3.715  1.00  0.00     0.004 C 
ATOM     10  N   UNL     1       2.213  -1.928  -4.197  1.00  0.00    -0.319 N 
ATOM     11  C   UNL     1       3.587  -2.111  -4.628  1.00  0.00     0.087 C 
ATOM     12  C   UNL     1       1.477  -3.067  -4.709  1.00  0.00     0.087 C 
ATOM     13  C   UNL     1       3.453  -2.618  -6.067  1.00  0.00     0.027 C 
ATOM     14  C   UNL     1       4.169  -3.180  -3.686  1.00  0.00     0.029 C 
ATOM     15  C   UNL     1       2.042  -3.220  -6.133  1.00  0.00     0.027 C 
ATOM     16  C   UNL     1       1.833  -4.281  -3.834  1.00  0.00     0.029 C 
BRANCH  10  17
ATOM     17  C   UNL     1       1.843  -0.866  -3.448  1.00  0.00     0.317 C 
ATOM     18  N   UNL     1       0.720  -0.887  -2.699  1.00  0.00    -0.337 N 
ATOM     19  H   UNL     1       0.310  -0.003  -2.566  1.00  0.00     0.165 HD
ATOM     20  O   UNL     1       2.533   0.153  -3.375  1.00  0.00    -0.249 OA
BRANCH  18  21
ATOM     21  C   UNL     1       0.004  -1.978  -2.053  1.00  0.00     0.135 C 
BRANCH  21  22
ATOM     22  C   UNL     1       0.762  -2.554  -0.865  1.00  0.00     0.175 C 
BRANCH  22  23
ATOM     23  S   UNL     1       0.499  -1.628   0.635  1.00  0.00     0.210 S 
ATOM     24  O   UNL     1       1.403  -2.122   1.652  1.00  0.00    -0.213 OA
ATOM     25  O   UNL     1      -0.914  -1.491   0.876  1.00  0.00    -0.213 OA
BRANCH  23  26
ATOM     26  N   UNL     1       1.058  -0.102   0.244  1.00  0.00    -0.229 NA
ATOM     27  H   UNL     1       0.951   0.515   1.048  1.00  0.00     0.137 HD
ATOM     28  H   UNL     1       0.520   0.266  -0.541  1.00  0.00     0.137 HD
ENDBRANCH  23  26
ENDBRANCH  22  23
ENDBRANCH  21  22
ENDBRANCH  18  21
ENDBRANCH  10  17
ENDBRANCH   8   9
ENDBRANCH   6   8
ENDBRANCH   5   6
ENDBRANCH   4   5
ENDBRANCH   3   4
ENDBRANCH   2   3
ENDBRANCH   1   2
BRANCH   1  29
ATOM     29  C   UNL     1       3.473  -7.552  -5.564  1.00  0.00     0.188 C 
BRANCH  29  30
ATOM     30  O   UNL     1       2.162  -7.038  -5.752  1.00  0.00    -0.377 OA
BRANCH  30  31
ATOM     31  C   UNL     1       1.176  -7.826  -6.416  1.00  0.00     0.188 C 
BRANCH  31  32
ATOM     32  C   UNL     1       1.587  -8.995  -7.334  1.00  0.00     0.188 C 
BRANCH  32  33
ATOM     33  O   UNL     1       2.929  -8.955  -7.783  1.00  0.00    -0.376 OA
BRANCH  33  34
ATOM     34  C   UNL     1       3.197  -8.364  -9.045  1.00  0.00     0.202 C 
BRANCH  34  35
ATOM     35  C   UNL     1       2.781  -6.900  -9.264  1.00  0.00     0.261 C 
BRANCH  35  36
ATOM     36  O   UNL     1       1.380  -6.606  -9.134  1.00  0.00    -0.460 OA
BRANCH  36  37
ATOM     37  C   UNL     1       0.521  -7.266  -9.938  1.00  0.00     0.338 C 
ATOM     38  O   UNL     1       0.787  -8.073 -10.808  1.00  0.00    -0.246 OA
BRANCH  37  39
ATOM     39  C   UNL     1      -0.848  -6.971  -9.468  1.00  0.00     0.060 A 
ATOM     40  C   UNL     1      -1.631  -8.012  -8.955  1.00  0.00     0.016 A 
ATOM     41  C   UNL     1      -1.358  -5.675  -9.555  1.00  0.00     0.016 A 
ATOM     42  C   UNL     1      -2.947  -7.766  -8.561  1.00  0.00     0.010 A 
ATOM     43  C   UNL     1      -2.683  -5.434  -9.179  1.00  0.00     0.010 A 
ATOM     44  C   UNL     1      -3.494  -6.486  -8.715  1.00  0.00    -0.014 A 
BRANCH  44  45
ATOM     45  C   UNL     1      -4.958  -6.292  -8.583  1.00  0.00     0.031 A 
ATOM     46  C   UNL     1      -5.789  -6.256  -9.837  1.00  0.00     0.074 A 
ATOM     47  C   UNL     1      -5.545  -6.174  -7.380  1.00  0.00     0.049 A 
ATOM     48  N   UNL     1      -7.071  -6.041  -9.983  1.00  0.00    -0.248 NA
ATOM     49  C   UNL     1      -5.072  -6.494 -11.101  1.00  0.00     0.031 C 
ATOM     50  C   UNL     1      -4.858  -6.243  -6.093  1.00  0.00     0.029 A 
ATOM     51  N   UNL     1      -6.861  -5.960  -7.049  1.00  0.00    -0.354 N 
ATOM     52  C   UNL     1      -7.311  -6.108 -11.350  1.00  0.00     0.074 A 
ATOM     53  C   UNL     1      -6.039  -6.352 -11.993  1.00  0.00     0.031 C 
ATOM     54  C   UNL     1      -5.756  -6.061  -5.109  1.00  0.00     0.029 A 
ATOM     55  C   UNL     1      -7.074  -5.824  -5.699  1.00  0.00     0.049 A 
ATOM     56  H   UNL     1      -7.583  -5.909  -7.716  1.00  0.00     0.167 HD
ATOM     57  C   UNL     1      -8.488  -5.985 -12.008  1.00  0.00     0.037 A 
ATOM     58  C   UNL     1      -8.199  -5.516  -5.024  1.00  0.00     0.037 A 
ATOM     59  C   UNL     1      -9.751  -5.740 -11.363  1.00  0.00     0.049 A 
ATOM     60  C   UNL     1      -9.482  -5.297  -5.788  1.00  0.00     0.074 A 
ATOM     61  C   UNL     1     -11.003  -5.615 -11.939  1.00  0.00     0.029 A 
ATOM     62  N   UNL     1      -9.921  -5.573  -9.996  1.00  0.00    -0.354 N 
ATOM     63  N   UNL     1      -9.707  -5.386  -7.077  1.00  0.00    -0.248 NA
ATOM     64  C   UNL     1     -10.671  -4.938  -5.000  1.00  0.00     0.031 C 
ATOM     65  C   UNL     1     -11.919  -5.306 -10.929  1.00  0.00     0.029 A 
ATOM     66  C   UNL     1     -11.252  -5.313  -9.714  1.00  0.00     0.049 A 
ATOM     67  H   UNL     1      -9.202  -5.630  -9.326  1.00  0.00     0.167 HD
ATOM     68  C   UNL     1     -11.063  -5.132  -7.249  1.00  0.00     0.074 A 
ATOM     69  C   UNL     1     -11.613  -4.899  -5.931  1.00  0.00     0.031 C 
ATOM     70  C   UNL     1     -11.789  -5.096  -8.395  1.00  0.00     0.037 A 
BRANCH  57  71
ATOM     71  C   UNL     1      -8.462  -6.078 -13.506  1.00  0.00     0.064 A 
ATOM     72  C   UNL     1      -8.197  -7.285 -14.171  1.00  0.00     0.173 A 
ATOM     73  C   UNL     1      -8.744  -4.948 -14.290  1.00  0.00     0.173 A 
ATOM     74  F   UNL     1      -7.906  -8.392 -13.470  1.00  0.00    -0.203 F 
ATOM     75  C   UNL     1      -8.191  -7.351 -15.562  1.00  0.00     0.198 A 
ATOM     76  C   UNL     1      -8.771  -5.026 -15.679  1.00  0.00     0.198 A 
ATOM     77  F   UNL     1      -9.006  -3.769 -13.706  1.00  0.00    -0.203 F 
ATOM     78  F   UNL     1      -7.886  -8.504 -16.175  1.00  0.00    -0.200 F 
ATOM     79  C   UNL     1      -8.486  -6.225 -16.314  1.00  0.00     0.200 A 
ATOM     80  F   UNL     1      -9.072  -3.939 -16.404  1.00  0.00    -0.200 F 
ATOM     81  F   UNL     1      -8.491  -6.293 -17.653  1.00  0.00    -0.200 F 
ENDBRANCH  57  71
BRANCH  58  82
ATOM     82  C   UNL     1      -8.169  -5.372  -3.543  1.00  0.00     0.064 A 
ATOM     83  C   UNL     1      -8.877  -6.252  -2.713  1.00  0.00     0.173 A 
ATOM     84  C   UNL     1      -7.463  -4.326  -2.928  1.00  0.00     0.173 A 
ATOM     85  F   UNL     1      -9.589  -7.253  -3.252  1.00  0.00    -0.203 F 
ATOM     86  C   UNL     1      -8.903  -6.077  -1.330  1.00  0.00     0.198 A 
ATOM     87  C   UNL     1      -7.461  -4.173  -1.543  1.00  0.00     0.198 A 
ATOM     88  F   UNL     1      -6.769  -3.454  -3.673  1.00  0.00    -0.203 F 
ATOM     89  F   UNL     1      -9.637  -6.899  -0.567  1.00  0.00    -0.200 F 
ATOM     90  C   UNL     1      -8.191  -5.041  -0.746  1.00  0.00     0.200 A 
ATOM     91  F   UNL     1      -6.759  -3.179  -0.983  1.00  0.00    -0.200 F 
ATOM     92  F   UNL     1      -8.216  -4.874   0.583  1.00  0.00    -0.200 F 
ENDBRANCH  58  82
BRANCH  70  93
ATOM     93  C   UNL     1     -13.267  -4.848  -8.275  1.00  0.00     0.064 A 
ATOM     94  C   UNL     1     -13.783  -3.601  -7.893  1.00  0.00     0.173 A 
ATOM     95  C   UNL     1     -14.182  -5.864  -8.594  1.00  0.00     0.173 A 
ATOM     96  F   UNL     1     -12.954  -2.598  -7.566  1.00  0.00    -0.203 F 
ATOM     97  C   UNL     1     -15.157  -3.390  -7.803  1.00  0.00     0.198 A 
ATOM     98  C   UNL     1     -15.555  -5.639  -8.540  1.00  0.00     0.198 A 
ATOM     99  F   UNL     1     -13.745  -7.073  -8.976  1.00  0.00    -0.203 F 
ATOM    100  F   UNL     1     -15.626  -2.207  -7.382  1.00  0.00    -0.200 F 
ATOM    101  C   UNL     1     -16.041  -4.406  -8.136  1.00  0.00     0.200 A 
ATOM    102  F   UNL     1     -16.407  -6.616  -8.881  1.00  0.00    -0.200 F 
ATOM    103  F   UNL     1     -17.363  -4.198  -8.059  1.00  0.00    -0.200 F 
ENDBRANCH  70  93
ENDBRANCH  44  45
ENDBRANCH  37  39
ENDBRANCH  36  37
ENDBRANCH  35  36
ENDBRANCH  34  35
ENDBRANCH  33  34
ENDBRANCH  32  33
ENDBRANCH  31  32
ENDBRANCH  30  31
ENDBRANCH  29  30
ENDBRANCH   1  29
TORSDOF 26
