REMARK SMILES Cc1[nH]c(=O)sc1S(=O)(=O)N[C@@H]1CCCCC[C@@H]1C(=O)OCCOCCOCCOCCOC(=O)c1ccc(-c2c3nc(c(-c4c(F)c(F)c(F)c(F)c4F)c4ccc([nH]4)c(-c4c(F)c(F)c(F)c(F)c4F)c4nc(c(-c5c(F)c(F)c(F)c(F)c5F)c5ccc2[nH]5)C=C4)C=C3)cc1
REMARK SMILES IDX 26 1 25 2 24 3 23 4 22 5 21 6 19 7 20 8 18 9 12 10 11 11
REMARK SMILES IDX 8 13 9 14 10 15 7 16 1 17 2 18 3 19 4 20 6 22 5 23 13 24
REMARK SMILES IDX 14 25 17 27 16 28 15 29 27 31 28 32 29 33 30 34 31 35 32 36
REMARK SMILES IDX 33 37 34 38 35 39 36 40 37 41 98 42 38 43 97 44 39 45 40 46
REMARK SMILES IDX 41 47 91 48 42 49 96 50 90 51 92 52 43 53 95 54 89 55 88 56
REMARK SMILES IDX 44 58 76 59 56 60 75 61 57 62 60 63 74 64 93 65 58 66 59 67
REMARK SMILES IDX 73 69 94 70 61 71 45 72 46 73 54 74 47 75 48 76 52 77 55 78
REMARK SMILES IDX 49 79 50 80 53 81 51 82 77 83 78 84 86 85 79 86 80 87 84 88
REMARK SMILES IDX 87 89 81 90 82 91 85 92 83 93 62 94 63 95 71 96 64 97 65 98
REMARK SMILES IDX 69 99 72 100 66 101 67 102 70 103 68 104
REMARK H PARENT 11 12 3 21 92 57 60 68
REMARK Flexibility Score: 100.00
ROOT
ATOM      1  C   UNL     1       2.296  -1.395  -2.952  1.00  0.00     0.188 C 
ENDROOT
BRANCH   1   2
ATOM      2  C   UNL     1       2.889  -0.277  -3.833  1.00  0.00     0.188 C 
BRANCH   2   3
ATOM      3  O   UNL     1       4.242   0.134  -3.699  1.00  0.00    -0.376 OA
BRANCH   3   4
ATOM      4  C   UNL     1       4.852   0.383  -2.444  1.00  0.00     0.202 C 
BRANCH   4   5
ATOM      5  C   UNL     1       4.129   1.075  -1.285  1.00  0.00     0.261 C 
BRANCH   5   6
ATOM      6  O   UNL     1       2.743   0.768  -1.115  1.00  0.00    -0.463 OA
BRANCH   6   7
ATOM      7  C   UNL     1       1.882   1.638  -1.684  1.00  0.00     0.310 C 
ATOM      8  O   UNL     1       2.224   2.608  -2.357  1.00  0.00    -0.252 OA
BRANCH   7   9
ATOM      9  C   UNL     1       0.419   1.359  -1.362  1.00  0.00     0.117 C 
BRANCH   9  10
ATOM     10  C   UNL     1      -0.077   2.633  -0.651  1.00  0.00     0.084 C 
BRANCH  10  11
ATOM     11  N   UNL     1       0.969   3.024   0.333  1.00  0.00    -0.206 NA
ATOM     12  H   UNL     1       1.660   2.275   0.272  1.00  0.00     0.141 HD
BRANCH  11  13
ATOM     13  S   UNL     1       0.845   3.330   1.968  1.00  0.00     0.252 S 
ATOM     14  O   UNL     1      -0.180   4.346   2.084  1.00  0.00    -0.206 OA
ATOM     15  O   UNL     1       2.208   3.653   2.345  1.00  0.00    -0.206 OA
BRANCH  13  16
ATOM     16  C   UNL     1       0.374   1.889   2.814  1.00  0.00     0.158 A 
ATOM     17  C   UNL     1       2.284   0.335   2.009  1.00  0.00     0.067 C 
ATOM     18  C   UNL     1       1.055   0.726   2.764  1.00  0.00     0.046 A 
ATOM     19  N   UNL     1       0.460  -0.262   3.521  1.00  0.00    -0.315 N 
ATOM     20  C   UNL     1      -0.665   0.086   4.218  1.00  0.00     0.305 A 
ATOM     21  H   UNL     1       0.827  -1.175   3.559  1.00  0.00     0.170 HD
ATOM     22  S   UNL     1      -1.006   1.772   3.894  1.00  0.00    -0.061 S 
ATOM     23  O   UNL     1      -1.333  -0.645   4.935  1.00  0.00    -0.257 OA
ENDBRANCH  13  16
ENDBRANCH  11  13
ENDBRANCH  10  11
BRANCH  10  24
ATOM     24  C   UNL     1      -1.509   2.581  -0.121  1.00  0.00     0.021 C 
BRANCH  24  25
ATOM     25  C   UNL     1      -2.485   1.740  -0.955  1.00  0.00     0.002 CG0
ATOM     26  G   UNL     1      -2.487   0.262  -0.555  1.00  0.00     0.000 G0
ENDBRANCH  24  25
ENDBRANCH  10  24
ENDBRANCH   9  10
BRANCH   9  27
ATOM     27  C   UNL     1       0.067   0.079  -0.581  1.00  0.00     0.017 C 
BRANCH  27  28
ATOM     28  C   UNL     1      -1.267  -0.532  -1.016  1.00  0.00     0.001 C 
BRANCH  28  29
ATOM     29  C   UNL     1      -2.487   0.262  -0.555  1.00  0.00     0.000 CG0
ATOM     30  G   UNL     1      -2.485   1.740  -0.955  1.00  0.00     0.000 G0
ENDBRANCH  28  29
ENDBRANCH  27  28
ENDBRANCH   9  27
ENDBRANCH   7   9
ENDBRANCH   6   7
ENDBRANCH   5   6
ENDBRANCH   4   5
ENDBRANCH   3   4
ENDBRANCH   2   3
ENDBRANCH   1   2
BRANCH   1  31
ATOM     31  O   UNL     1       3.071  -1.739  -1.822  1.00  0.00    -0.377 OA
BRANCH  31  32
ATOM     32  C   UNL     1       4.057  -2.747  -2.007  1.00  0.00     0.188 C 
BRANCH  32  33
ATOM     33  C   UNL     1       4.741  -2.949  -3.391  1.00  0.00     0.188 C 
BRANCH  33  34
ATOM     34  O   UNL     1       3.947  -2.632  -4.526  1.00  0.00    -0.376 OA
BRANCH  34  35
ATOM     35  C   UNL     1       3.346  -3.586  -5.388  1.00  0.00     0.202 C 
BRANCH  35  36
ATOM     36  C   UNL     1       2.240  -4.482  -4.819  1.00  0.00     0.261 C 
BRANCH  36  37
ATOM     37  O   UNL     1       2.567  -4.965  -3.532  1.00  0.00    -0.460 OA
BRANCH  37  38
ATOM     38  C   UNL     1       3.675  -5.733  -3.523  1.00  0.00     0.338 C 
ATOM     39  O   UNL     1       4.300  -6.132  -4.490  1.00  0.00    -0.246 OA
BRANCH  38  40
ATOM     40  C   UNL     1       4.029  -6.023  -2.117  1.00  0.00     0.060 A 
ATOM     41  C   UNL     1       5.152  -6.837  -2.015  1.00  0.00     0.016 A 
ATOM     42  C   UNL     1       2.928  -6.133  -1.264  1.00  0.00     0.016 A 
ATOM     43  C   UNL     1       4.922  -8.090  -1.525  1.00  0.00     0.010 A 
ATOM     44  C   UNL     1       2.675  -7.386  -0.811  1.00  0.00     0.010 A 
ATOM     45  C   UNL     1       3.626  -8.367  -1.088  1.00  0.00    -0.014 A 
BRANCH  45  46
ATOM     46  C   UNL     1       3.219  -9.739  -0.981  1.00  0.00     0.031 A 
ATOM     47  C   UNL     1       3.437 -10.254   0.376  1.00  0.00     0.074 A 
ATOM     48  C   UNL     1       2.584 -10.341  -2.002  1.00  0.00     0.049 A 
ATOM     49  N   UNL     1       4.385 -11.032   0.781  1.00  0.00    -0.248 NA
ATOM     50  C   UNL     1       2.698  -9.583   1.461  1.00  0.00     0.031 C 
ATOM     51  C   UNL     1       2.084  -9.762  -3.255  1.00  0.00     0.029 A 
ATOM     52  N   UNL     1       2.150 -11.624  -2.061  1.00  0.00    -0.354 N 
ATOM     53  C   UNL     1       4.203 -11.098   2.156  1.00  0.00     0.074 A 
ATOM     54  C   UNL     1       3.427  -9.949   2.512  1.00  0.00     0.031 C 
ATOM     55  C   UNL     1       1.225 -10.634  -3.835  1.00  0.00     0.029 A 
ATOM     56  C   UNL     1       1.212 -11.860  -3.059  1.00  0.00     0.049 A 
ATOM     57  H   UNL     1       2.471 -12.326  -1.451  1.00  0.00     0.167 HD
ATOM     58  C   UNL     1       4.358 -12.270   2.826  1.00  0.00     0.037 A 
ATOM     59  C   UNL     1       0.419 -12.960  -3.099  1.00  0.00     0.037 A 
ATOM     60  C   UNL     1       5.118 -13.207   2.034  1.00  0.00     0.049 A 
ATOM     61  C   UNL     1       1.038 -13.972  -2.191  1.00  0.00     0.074 A 
ATOM     62  C   UNL     1       6.397 -13.213   1.510  1.00  0.00     0.029 A 
ATOM     63  N   UNL     1       4.421 -14.164   1.334  1.00  0.00    -0.354 N 
ATOM     64  N   UNL     1       2.189 -14.545  -2.426  1.00  0.00    -0.248 NA
ATOM     65  C   UNL     1       0.629 -13.954  -0.791  1.00  0.00     0.031 C 
ATOM     66  C   UNL     1       6.280 -13.847   0.238  1.00  0.00     0.029 A 
ATOM     67  C   UNL     1       4.953 -14.247   0.073  1.00  0.00     0.049 A 
ATOM     68  H   UNL     1       3.669 -14.698   1.679  1.00  0.00     0.167 HD
ATOM     69  C   UNL     1       2.826 -14.597  -1.190  1.00  0.00     0.074 A 
ATOM     70  C   UNL     1       1.792 -14.271  -0.213  1.00  0.00     0.031 C 
ATOM     71  C   UNL     1       4.189 -14.607  -1.101  1.00  0.00     0.037 A 
BRANCH  58  72
ATOM     72  C   UNL     1       3.479 -12.697   3.985  1.00  0.00     0.064 A 
ATOM     73  C   UNL     1       3.787 -13.907   4.632  1.00  0.00     0.173 A 
ATOM     74  C   UNL     1       2.220 -12.143   4.323  1.00  0.00     0.173 A 
ATOM     75  F   UNL     1       4.957 -14.523   4.407  1.00  0.00    -0.203 F 
ATOM     76  C   UNL     1       2.868 -14.560   5.457  1.00  0.00     0.198 A 
ATOM     77  C   UNL     1       1.327 -12.771   5.186  1.00  0.00     0.198 A 
ATOM     78  F   UNL     1       1.732 -11.026   3.776  1.00  0.00    -0.203 F 
ATOM     79  F   UNL     1       3.161 -15.773   5.943  1.00  0.00    -0.200 F 
ATOM     80  C   UNL     1       1.633 -13.998   5.723  1.00  0.00     0.200 A 
ATOM     81  F   UNL     1       0.135 -12.204   5.422  1.00  0.00    -0.200 F 
ATOM     82  F   UNL     1       0.725 -14.653   6.456  1.00  0.00    -0.200 F 
ENDBRANCH  58  72
BRANCH  59  83
ATOM     83  C   UNL     1      -0.996 -13.031  -3.531  1.00  0.00     0.064 A 
ATOM     84  C   UNL     1      -1.597 -14.256  -3.858  1.00  0.00     0.173 A 
ATOM     85  C   UNL     1      -1.863 -11.929  -3.381  1.00  0.00     0.173 A 
ATOM     86  F   UNL     1      -0.849 -15.364  -3.966  1.00  0.00    -0.203 F 
ATOM     87  C   UNL     1      -2.983 -14.374  -4.017  1.00  0.00     0.198 A 
ATOM     88  C   UNL     1      -3.243 -12.046  -3.546  1.00  0.00     0.198 A 
ATOM     89  F   UNL     1      -1.397 -10.738  -2.979  1.00  0.00    -0.203 F 
ATOM     90  F   UNL     1      -3.528 -15.570  -4.279  1.00  0.00    -0.200 F 
ATOM     91  C   UNL     1      -3.805 -13.270  -3.854  1.00  0.00     0.200 A 
ATOM     92  F   UNL     1      -4.028 -10.978  -3.344  1.00  0.00    -0.200 F 
ATOM     93  F   UNL     1      -5.136 -13.392  -3.952  1.00  0.00    -0.200 F 
ENDBRANCH  59  83
BRANCH  71  94
ATOM     94  C   UNL     1       4.964 -14.784  -2.378  1.00  0.00     0.064 A 
ATOM     95  C   UNL     1       4.980 -13.835  -3.417  1.00  0.00     0.173 A 
ATOM     96  C   UNL     1       5.843 -15.867  -2.484  1.00  0.00     0.173 A 
ATOM     97  F   UNL     1       4.241 -12.722  -3.338  1.00  0.00    -0.203 F 
ATOM     98  C   UNL     1       5.810 -13.989  -4.526  1.00  0.00     0.198 A 
ATOM     99  C   UNL     1       6.698 -16.000  -3.575  1.00  0.00     0.198 A 
ATOM    100  F   UNL     1       5.914 -16.771  -1.495  1.00  0.00    -0.203 F 
ATOM    101  F   UNL     1       5.801 -13.071  -5.505  1.00  0.00    -0.200 F 
ATOM    102  C   UNL     1       6.675 -15.067  -4.600  1.00  0.00     0.200 A 
ATOM    103  F   UNL     1       7.570 -17.016  -3.616  1.00  0.00    -0.200 F 
ATOM    104  F   UNL     1       7.509 -15.191  -5.642  1.00  0.00    -0.200 F 
ENDBRANCH  71  94
ENDBRANCH  45  46
ENDBRANCH  38  40
ENDBRANCH  37  38
ENDBRANCH  36  37
ENDBRANCH  35  36
ENDBRANCH  34  35
ENDBRANCH  33  34
ENDBRANCH  32  33
ENDBRANCH  31  32
ENDBRANCH   1  31
TORSDOF 23
