REMARK SMILES CCCOC(=O)c1c(NC(=O)[C@@H]2CC=CC[C@H]2C(=O)OCCOCCOCCOCCOC(=O)c2ccc(-c3c4nc(c(-c5c(F)c(F)c(F)c(F)c5F)c5ccc([nH]5)c(-c5c(F)c(F)c(F)c(F)c5F)c5nc(c(-c6c(F)c(F)c(F)c(F)c6F)c6ccc3[nH]6)C=C5)C=C4)cc2)sc2c1CCCC2
REMARK SMILES IDX 24 1 23 2 22 3 21 4 20 5 18 6 19 7 17 8 12 9 13 10 14 11
REMARK SMILES IDX 16 12 15 13 10 14 9 15 11 17 8 18 7 19 100 20 98 21 99 22
REMARK SMILES IDX 101 23 104 24 102 25 103 26 5 27 6 28 4 29 3 30 2 31 1 32
REMARK SMILES IDX 25 33 26 34 27 35 28 36 29 37 30 38 31 39 32 40 33 41 34 42
REMARK SMILES IDX 35 43 36 44 97 45 37 46 96 47 38 48 39 49 40 50 90 51 41 52
REMARK SMILES IDX 95 53 89 54 91 55 42 56 94 57 88 58 87 59 43 61 75 62 55 63
REMARK SMILES IDX 74 64 56 65 59 66 73 67 92 68 57 69 58 70 72 72 93 73 60 74
REMARK SMILES IDX 44 75 45 76 53 77 46 78 47 79 51 80 54 81 48 82 49 83 52 84
REMARK SMILES IDX 50 85 76 86 77 87 85 88 78 89 79 90 83 91 86 92 80 93 81 94
REMARK SMILES IDX 84 95 82 96 61 97 62 98 70 99 63 100 64 101 68 102 71 103
REMARK SMILES IDX 65 104 66 105 69 106 67 107
REMARK H PARENT 9 16 91 60 59 71
REMARK Flexibility Score: inf
ROOT
ATOM      1  C   UNL     1       3.853   2.571  -0.159  1.00  0.00     0.188 C 
ENDROOT
BRANCH   1   2
ATOM      2  O   UNL     1       3.148   3.494  -0.990  1.00  0.00    -0.376 OA
BRANCH   2   3
ATOM      3  C   UNL     1       1.884   3.999  -0.597  1.00  0.00     0.202 C 
BRANCH   3   4
ATOM      4  C   UNL     1       0.679   3.092  -0.896  1.00  0.00     0.261 C 
BRANCH   4   5
ATOM      5  O   UNL     1       0.711   1.759  -0.337  1.00  0.00    -0.463 OA
BRANCH   5   6
ATOM      6  C   UNL     1       1.207   0.790  -1.152  1.00  0.00     0.310 C 
ATOM      7  O   UNL     1       1.620   1.010  -2.288  1.00  0.00    -0.252 OA
BRANCH   6   8
ATOM      8  C   UNL     1       1.196  -0.637  -0.569  1.00  0.00     0.116 C 
ATOM      9  C   UNL     1       0.699  -0.822   0.903  1.00  0.00     0.097 C 
ATOM     10  C   UNL     1       0.160  -2.238   1.201  1.00  0.00     0.041 C 
ATOM     11  C   UNL     1      -0.639  -2.867   0.118  1.00  0.00    -0.030 C 
ATOM     12  C   UNL     1       0.421  -1.453  -1.635  1.00  0.00     0.043 C 
ATOM     13  C   UNL     1      -0.503  -2.522  -1.162  1.00  0.00    -0.030 C 
BRANCH   9  14
ATOM     14  C   UNL     1       1.819  -0.699   1.923  1.00  0.00     0.229 C 
ATOM     15  N   UNL     1       1.659  -0.255   3.195  1.00  0.00    -0.317 N 
ATOM     16  H   UNL     1       2.459  -0.428   3.742  1.00  0.00     0.170 HD
ATOM     17  O   UNL     1       2.960  -1.092   1.639  1.00  0.00    -0.274 OA
BRANCH  15  18
ATOM     18  C   UNL     1       0.675   0.374   3.921  1.00  0.00     0.110 A 
ATOM     19  C   UNL     1      -0.633   0.809   3.816  1.00  0.00     0.098 A 
ATOM     20  C   UNL     1      -1.034   1.561   4.995  1.00  0.00    -0.017 A 
ATOM     21  S   UNL     1       1.341   0.763   5.467  1.00  0.00    -0.122 S 
ATOM     22  C   UNL     1      -0.050   1.585   5.955  1.00  0.00     0.011 A 
ATOM     23  C   UNL     1      -2.374   2.210   5.229  1.00  0.00     0.038 C 
ATOM     24  C   UNL     1      -0.150   2.299   7.263  1.00  0.00     0.047 C 
ATOM     25  C   UNL     1      -2.347   3.199   6.404  1.00  0.00     0.005 C 
ATOM     26  C   UNL     1      -1.608   2.615   7.613  1.00  0.00     0.006 C 
BRANCH  19  27
ATOM     27  C   UNL     1      -1.585   0.582   2.748  1.00  0.00     0.341 C 
ATOM     28  O   UNL     1      -2.183  -0.474   2.607  1.00  0.00    -0.246 OA
BRANCH  27  29
ATOM     29  O   UNL     1      -1.852   1.735   2.071  1.00  0.00    -0.462 OA
BRANCH  29  30
ATOM     30  C   UNL     1      -3.135   1.808   1.438  1.00  0.00     0.233 C 
BRANCH  30  31
ATOM     31  C   UNL     1      -3.052   1.634  -0.071  1.00  0.00     0.038 C 
ATOM     32  C   UNL     1      -2.729   0.211  -0.483  1.00  0.00     0.007 C 
ENDBRANCH  30  31
ENDBRANCH  29  30
ENDBRANCH  27  29
ENDBRANCH  19  27
ENDBRANCH  15  18
ENDBRANCH   9  14
ENDBRANCH   6   8
ENDBRANCH   5   6
ENDBRANCH   4   5
ENDBRANCH   3   4
ENDBRANCH   2   3
ENDBRANCH   1   2
BRANCH   1  33
ATOM     33  C   UNL     1       3.244   2.065   1.153  1.00  0.00     0.188 C 
BRANCH  33  34
ATOM     34  O   UNL     1       2.558   3.046   1.913  1.00  0.00    -0.377 OA
BRANCH  34  35
ATOM     35  C   UNL     1       3.258   3.594   3.016  1.00  0.00     0.188 C 
BRANCH  35  36
ATOM     36  C   UNL     1       4.701   4.014   2.723  1.00  0.00     0.188 C 
BRANCH  36  37
ATOM     37  O   UNL     1       5.540   2.883   2.492  1.00  0.00    -0.376 OA
BRANCH  37  38
ATOM     38  C   UNL     1       6.319   2.414   3.588  1.00  0.00     0.202 C 
BRANCH  38  39
ATOM     39  C   UNL     1       5.544   1.760   4.744  1.00  0.00     0.261 C 
BRANCH  39  40
ATOM     40  O   UNL     1       4.660   2.623   5.486  1.00  0.00    -0.460 OA
BRANCH  40  41
ATOM     41  C   UNL     1       5.165   3.754   6.019  1.00  0.00     0.338 C 
ATOM     42  O   UNL     1       6.323   4.122   6.024  1.00  0.00    -0.246 OA
BRANCH  41  43
ATOM     43  C   UNL     1       4.026   4.587   6.454  1.00  0.00     0.060 A 
ATOM     44  C   UNL     1       3.865   5.864   5.904  1.00  0.00     0.016 A 
ATOM     45  C   UNL     1       3.135   4.116   7.417  1.00  0.00     0.016 A 
ATOM     46  C   UNL     1       2.820   6.684   6.333  1.00  0.00     0.010 A 
ATOM     47  C   UNL     1       2.105   4.950   7.862  1.00  0.00     0.010 A 
ATOM     48  C   UNL     1       1.950   6.245   7.339  1.00  0.00    -0.014 A 
BRANCH  48  49
ATOM     49  C   UNL     1       1.015   7.206   7.979  1.00  0.00     0.031 A 
ATOM     50  C   UNL     1       1.368   7.743   9.341  1.00  0.00     0.074 A 
ATOM     51  C   UNL     1      -0.102   7.630   7.358  1.00  0.00     0.049 A 
ATOM     52  N   UNL     1       0.748   8.633  10.073  1.00  0.00    -0.248 NA
ATOM     53  C   UNL     1       2.580   7.190   9.967  1.00  0.00     0.031 C 
ATOM     54  C   UNL     1      -0.569   7.179   6.048  1.00  0.00     0.029 A 
ATOM     55  N   UNL     1      -1.043   8.551   7.750  1.00  0.00    -0.354 N 
ATOM     56  C   UNL     1       1.494   8.743  11.239  1.00  0.00     0.074 A 
ATOM     57  C   UNL     1       2.573   7.787  11.148  1.00  0.00     0.031 C 
ATOM     58  C   UNL     1      -1.697   7.842   5.735  1.00  0.00     0.029 A 
ATOM     59  C   UNL     1      -2.037   8.756   6.825  1.00  0.00     0.049 A 
ATOM     60  H   UNL     1      -1.007   9.021   8.615  1.00  0.00     0.167 HD
ATOM     61  C   UNL     1       1.321   9.588  12.282  1.00  0.00     0.037 A 
ATOM     62  C   UNL     1      -3.092   9.596   6.854  1.00  0.00     0.037 A 
ATOM     63  C   UNL     1       0.265  10.557  12.371  1.00  0.00     0.049 A 
ATOM     64  C   UNL     1      -3.274  10.518   8.035  1.00  0.00     0.074 A 
ATOM     65  C   UNL     1       0.023  11.482  13.371  1.00  0.00     0.029 A 
ATOM     66  N   UNL     1      -0.729  10.725  11.419  1.00  0.00    -0.354 N 
ATOM     67  N   UNL     1      -2.527  10.656   9.104  1.00  0.00    -0.248 NA
ATOM     68  C   UNL     1      -4.443  11.411   8.005  1.00  0.00     0.031 C 
ATOM     69  C   UNL     1      -1.142  12.185  13.042  1.00  0.00     0.029 A 
ATOM     70  C   UNL     1      -1.599  11.727  11.816  1.00  0.00     0.049 A 
ATOM     71  H   UNL     1      -0.804  10.209  10.584  1.00  0.00     0.167 HD
ATOM     72  C   UNL     1      -3.118  11.663   9.858  1.00  0.00     0.074 A 
ATOM     73  C   UNL     1      -4.274  12.117   9.114  1.00  0.00     0.031 C 
ATOM     74  C   UNL     1      -2.742  12.166  11.060  1.00  0.00     0.037 A 
BRANCH  61  75
ATOM     75  C   UNL     1       2.307   9.491  13.408  1.00  0.00     0.064 A 
ATOM     76  C   UNL     1       3.636   9.918  13.259  1.00  0.00     0.173 A 
ATOM     77  C   UNL     1       1.921   8.960  14.647  1.00  0.00     0.173 A 
ATOM     78  F   UNL     1       4.058  10.412  12.085  1.00  0.00    -0.203 F 
ATOM     79  C   UNL     1       4.551   9.783  14.299  1.00  0.00     0.198 A 
ATOM     80  C   UNL     1       2.832   8.854  15.694  1.00  0.00     0.198 A 
ATOM     81  F   UNL     1       0.663   8.536  14.839  1.00  0.00    -0.203 F 
ATOM     82  F   UNL     1       5.830  10.141  14.114  1.00  0.00    -0.200 F 
ATOM     83  C   UNL     1       4.148   9.257  15.517  1.00  0.00     0.200 A 
ATOM     84  F   UNL     1       2.440   8.351  16.873  1.00  0.00    -0.200 F 
ATOM     85  F   UNL     1       5.031   9.125  16.516  1.00  0.00    -0.200 F 
ENDBRANCH  61  75
BRANCH  62  86
ATOM     86  C   UNL     1      -4.053   9.636   5.719  1.00  0.00     0.064 A 
ATOM     87  C   UNL     1      -4.135  10.756   4.878  1.00  0.00     0.173 A 
ATOM     88  C   UNL     1      -4.937   8.575   5.476  1.00  0.00     0.173 A 
ATOM     89  F   UNL     1      -3.330  11.809   5.086  1.00  0.00    -0.203 F 
ATOM     90  C   UNL     1      -5.080  10.824   3.856  1.00  0.00     0.198 A 
ATOM     91  C   UNL     1      -5.864   8.632   4.437  1.00  0.00     0.198 A 
ATOM     92  F   UNL     1      -4.902   7.481   6.251  1.00  0.00    -0.203 F 
ATOM     93  F   UNL     1      -5.172  11.928   3.103  1.00  0.00    -0.200 F 
ATOM     94  C   UNL     1      -5.941   9.760   3.634  1.00  0.00     0.200 A 
ATOM     95  F   UNL     1      -6.688   7.598   4.220  1.00  0.00    -0.200 F 
ATOM     96  F   UNL     1      -6.852   9.826   2.653  1.00  0.00    -0.200 F 
ENDBRANCH  62  86
BRANCH  74  97
ATOM     97  C   UNL     1      -3.575  13.276  11.634  1.00  0.00     0.064 A 
ATOM     98  C   UNL     1      -4.860  13.040  12.145  1.00  0.00     0.173 A 
ATOM     99  C   UNL     1      -3.067  14.582  11.709  1.00  0.00     0.173 A 
ATOM    100  F   UNL     1      -5.395  11.812  12.085  1.00  0.00    -0.203 F 
ATOM    101  C   UNL     1      -5.617  14.078  12.682  1.00  0.00     0.198 A 
ATOM    102  C   UNL     1      -3.816  15.611  12.274  1.00  0.00     0.198 A 
ATOM    103  F   UNL     1      -1.839  14.858  11.244  1.00  0.00    -0.203 F 
ATOM    104  F   UNL     1      -6.862  13.839  13.118  1.00  0.00    -0.200 F 
ATOM    105  C   UNL     1      -5.093  15.360  12.752  1.00  0.00     0.200 A 
ATOM    106  F   UNL     1      -3.302  16.846  12.353  1.00  0.00    -0.200 F 
ATOM    107  F   UNL     1      -5.822  16.356  13.273  1.00  0.00    -0.200 F 
ENDBRANCH  74  97
ENDBRANCH  48  49
ENDBRANCH  41  43
ENDBRANCH  40  41
ENDBRANCH  39  40
ENDBRANCH  38  39
ENDBRANCH  37  38
ENDBRANCH  36  37
ENDBRANCH  35  36
ENDBRANCH  34  35
ENDBRANCH  33  34
ENDBRANCH   1  33
TORSDOF 26
