REMARK SMILES Cc1cc(C(=O)N[C@@H]2C(=O)N3C(C(=O)OCCOCCOCCOCCOC(=O)c4ccc(-c5c6nc(c(-c7c(F)c(F)c(F)c(F)c7F)c7ccc([nH]7)c(-c7c(F)c(F)c(F)c(F)c7F)c7nc(c(-c8c(F)c(F)c(F)c(F)c8F)c8ccc5[nH]8)C=C7)C=C6)cc4)=C(CSc4nnc(C)s4)CS[C@H]23)n(C)n1
REMARK SMILES IDX 20 1 19 2 18 3 17 4 16 5 15 6 13 7 14 8 12 9 8 10 9 11
REMARK SMILES IDX 104 12 10 13 11 14 103 15 102 16 93 17 7 18 5 19 6 20 4 22
REMARK SMILES IDX 1 23 2 24 3 25 107 26 105 27 106 28 94 29 95 30 96 31 97 32
REMARK SMILES IDX 101 33 98 34 99 35 100 36 21 37 22 38 23 39 24 40 25 41
REMARK SMILES IDX 26 42 27 43 28 44 29 45 30 46 31 47 92 48 32 49 91 50 33 51
REMARK SMILES IDX 34 52 35 53 85 54 36 55 90 56 84 57 86 58 37 59 89 60 83 61
REMARK SMILES IDX 82 62 38 64 70 65 50 66 69 67 51 68 54 69 68 70 87 71 52 72
REMARK SMILES IDX 53 73 67 75 88 76 55 77 39 78 40 79 48 80 41 81 42 82 46 83
REMARK SMILES IDX 49 84 43 85 44 86 47 87 45 88 71 89 72 90 80 91 73 92 74 93
REMARK SMILES IDX 78 94 81 95 75 96 76 97 79 98 77 99 56 100 57 101 65 102
REMARK SMILES IDX 58 103 59 104 63 105 66 106 60 107 61 108 64 109 62 110
REMARK H PARENT 7 21 86 63 54 74
REMARK Flexibility Score: inf
ROOT
ATOM      1  C   UNL     1      -4.029  -0.745  -0.610  1.00  0.00     0.188 C 
ENDROOT
BRANCH   1   2
ATOM      2  C   UNL     1      -2.984   0.392  -0.781  1.00  0.00     0.188 C 
BRANCH   2   3
ATOM      3  O   UNL     1      -3.445   1.514  -1.512  1.00  0.00    -0.376 OA
BRANCH   3   4
ATOM      4  C   UNL     1      -2.946   1.777  -2.804  1.00  0.00     0.202 C 
BRANCH   4   5
ATOM      5  C   UNL     1      -3.121   0.728  -3.910  1.00  0.00     0.261 C 
BRANCH   5   6
ATOM      6  O   UNL     1      -3.276  -0.628  -3.480  1.00  0.00    -0.459 OA
BRANCH   6   7
ATOM      7  C   UNL     1      -2.144  -1.347  -3.330  1.00  0.00     0.355 C 
ATOM      8  O   UNL     1      -1.009  -0.935  -3.532  1.00  0.00    -0.244 OA
BRANCH   7   9
ATOM      9  C   UNL     1      -2.415  -2.740  -2.832  1.00  0.00     0.132 C 
ATOM     10  C   UNL     1      -0.267  -4.141  -0.573  1.00  0.00     0.206 C 
ATOM     11  C   UNL     1      -1.029  -2.794  -0.702  1.00  0.00     0.253 C 
ATOM     12  C   UNL     1      -1.191  -4.583  -1.750  1.00  0.00     0.181 C 
ATOM     13  O   UNL     1      -1.161  -1.811  -0.025  1.00  0.00    -0.272 OA
ATOM     14  N   UNL     1      -1.525  -3.197  -1.904  1.00  0.00    -0.289 N 
ATOM     15  S   UNL     1      -2.721  -5.458  -1.350  1.00  0.00    -0.129 SA
ATOM     16  C   UNL     1      -3.447  -5.054  -2.955  1.00  0.00     0.106 C 
ATOM     17  C   UNL     1      -3.379  -3.571  -3.320  1.00  0.00    -0.019 C 
BRANCH  10  18
ATOM     18  N   UNL     1      -0.300  -4.938   0.677  1.00  0.00    -0.336 N 
ATOM     19  C   UNL     1      -0.004  -6.286   0.815  1.00  0.00     0.270 C 
ATOM     20  O   UNL     1      -0.091  -6.783   1.935  1.00  0.00    -0.268 OA
ATOM     21  H   UNL     1      -0.560  -4.458   1.497  1.00  0.00     0.164 HD
BRANCH  19  22
ATOM     22  C   UNL     1       0.309  -7.046  -0.380  1.00  0.00     0.126 A 
ATOM     23  C   UNL     1       0.397  -7.421  -3.995  1.00  0.00     0.069 C 
ATOM     24  C   UNL     1       0.447  -7.593  -2.523  1.00  0.00     0.060 A 
ATOM     25  C   UNL     1       0.944  -6.688  -1.561  1.00  0.00     0.059 A 
ATOM     26  N   UNL     1      -0.112  -8.650  -1.933  1.00  0.00    -0.178 NA
ATOM     27  N   UNL     1      -0.043  -8.357  -0.613  1.00  0.00    -0.263 N 
ATOM     28  C   UNL     1      -0.341  -9.410   0.328  1.00  0.00     0.174 C 
ENDBRANCH  19  22
ENDBRANCH  10  18
BRANCH  17  29
ATOM     29  C   UNL     1      -4.415  -3.211  -4.359  1.00  0.00     0.111 C 
BRANCH  29  30
ATOM     30  S   UNL     1      -5.946  -2.419  -3.816  1.00  0.00    -0.089 SA
BRANCH  30  31
ATOM     31  C   UNL     1      -6.489  -3.149  -2.327  1.00  0.00     0.174 A 
ATOM     32  N   UNL     1      -5.838  -4.066  -1.652  1.00  0.00    -0.132 NA
ATOM     33  S   UNL     1      -7.960  -2.672  -1.571  1.00  0.00    -0.091 S 
ATOM     34  N   UNL     1      -6.414  -4.345  -0.428  1.00  0.00    -0.143 NA
ATOM     35  C   UNL     1      -7.492  -3.620  -0.218  1.00  0.00     0.115 A 
ATOM     36  C   UNL     1      -8.261  -3.591   1.053  1.00  0.00     0.081 C 
ENDBRANCH  30  31
ENDBRANCH  29  30
ENDBRANCH  17  29
ENDBRANCH   7   9
ENDBRANCH   6   7
ENDBRANCH   5   6
ENDBRANCH   4   5
ENDBRANCH   3   4
ENDBRANCH   2   3
ENDBRANCH   1   2
BRANCH   1  37
ATOM     37  O   UNL     1      -5.435  -0.539  -0.702  1.00  0.00    -0.377 OA
BRANCH  37  38
ATOM     38  C   UNL     1      -5.906   0.708  -1.171  1.00  0.00     0.188 C 
BRANCH  38  39
ATOM     39  C   UNL     1      -5.779   1.833  -0.129  1.00  0.00     0.188 C 
BRANCH  39  40
ATOM     40  O   UNL     1      -4.963   1.527   0.984  1.00  0.00    -0.376 OA
BRANCH  40  41
ATOM     41  C   UNL     1      -5.436   0.702   2.036  1.00  0.00     0.202 C 
BRANCH  41  42
ATOM     42  C   UNL     1      -6.638  -0.267   1.967  1.00  0.00     0.261 C 
BRANCH  42  43
ATOM     43  O   UNL     1      -7.651  -0.067   0.976  1.00  0.00    -0.460 OA
BRANCH  43  44
ATOM     44  C   UNL     1      -8.553   0.914   1.169  1.00  0.00     0.338 C 
ATOM     45  O   UNL     1      -8.629   1.678   2.111  1.00  0.00    -0.246 OA
BRANCH  44  46
ATOM     46  C   UNL     1      -9.352   1.011  -0.074  1.00  0.00     0.060 A 
ATOM     47  C   UNL     1      -9.230   2.148  -0.885  1.00  0.00     0.016 A 
ATOM     48  C   UNL     1     -10.201  -0.033  -0.450  1.00  0.00     0.016 A 
ATOM     49  C   UNL     1      -9.970   2.254  -2.061  1.00  0.00     0.010 A 
ATOM     50  C   UNL     1     -10.958   0.082  -1.618  1.00  0.00     0.010 A 
ATOM     51  C   UNL     1     -10.873   1.243  -2.409  1.00  0.00    -0.014 A 
BRANCH  51  52
ATOM     52  C   UNL     1     -11.888   1.501  -3.458  1.00  0.00     0.031 A 
ATOM     53  C   UNL     1     -13.271   1.895  -3.019  1.00  0.00     0.074 A 
ATOM     54  C   UNL     1     -11.589   1.424  -4.766  1.00  0.00     0.049 A 
ATOM     55  N   UNL     1     -14.343   2.119  -3.735  1.00  0.00    -0.248 NA
ATOM     56  C   UNL     1     -13.473   2.050  -1.569  1.00  0.00     0.031 C 
ATOM     57  C   UNL     1     -10.274   1.105  -5.316  1.00  0.00     0.029 A 
ATOM     58  N   UNL     1     -12.385   1.604  -5.870  1.00  0.00    -0.354 N 
ATOM     59  C   UNL     1     -15.344   2.428  -2.824  1.00  0.00     0.074 A 
ATOM     60  C   UNL     1     -14.766   2.325  -1.503  1.00  0.00     0.031 C 
ATOM     61  C   UNL     1     -10.355   1.102  -6.659  1.00  0.00     0.029 A 
ATOM     62  C   UNL     1     -11.735   1.379  -7.059  1.00  0.00     0.049 A 
ATOM     63  H   UNL     1     -13.331   1.869  -5.815  1.00  0.00     0.167 HD
ATOM     64  C   UNL     1     -16.629   2.778  -3.067  1.00  0.00     0.037 A 
ATOM     65  C   UNL     1     -12.211   1.373  -8.320  1.00  0.00     0.037 A 
ATOM     66  C   UNL     1     -17.201   2.878  -4.384  1.00  0.00     0.049 A 
ATOM     67  C   UNL     1     -13.669   1.677  -8.561  1.00  0.00     0.074 A 
ATOM     68  C   UNL     1     -18.488   3.239  -4.739  1.00  0.00     0.029 A 
ATOM     69  N   UNL     1     -16.522   2.602  -5.562  1.00  0.00    -0.354 N 
ATOM     70  N   UNL     1     -14.607   1.991  -7.700  1.00  0.00    -0.248 NA
ATOM     71  C   UNL     1     -14.135   1.628  -9.955  1.00  0.00     0.031 C 
ATOM     72  C   UNL     1     -18.608   3.113  -6.127  1.00  0.00     0.029 A 
ATOM     73  C   UNL     1     -17.375   2.751  -6.644  1.00  0.00     0.049 A 
ATOM     74  H   UNL     1     -15.575   2.339  -5.621  1.00  0.00     0.167 HD
ATOM     75  C   UNL     1     -15.759   2.211  -8.447  1.00  0.00     0.074 A 
ATOM     76  C   UNL     1     -15.399   2.007  -9.834  1.00  0.00     0.031 C 
ATOM     77  C   UNL     1     -17.001   2.553  -8.023  1.00  0.00     0.037 A 
BRANCH  64  78
ATOM     78  C   UNL     1     -17.512   3.038  -1.880  1.00  0.00     0.064 A 
ATOM     79  C   UNL     1     -17.323   4.147  -1.041  1.00  0.00     0.173 A 
ATOM     80  C   UNL     1     -18.577   2.172  -1.588  1.00  0.00     0.173 A 
ATOM     81  F   UNL     1     -16.310   4.999  -1.265  1.00  0.00    -0.203 F 
ATOM     82  C   UNL     1     -18.142   4.358   0.065  1.00  0.00     0.198 A 
ATOM     83  C   UNL     1     -19.418   2.408  -0.504  1.00  0.00     0.198 A 
ATOM     84  F   UNL     1     -18.807   1.098  -2.358  1.00  0.00    -0.203 F 
ATOM     85  F   UNL     1     -17.903   5.389   0.887  1.00  0.00    -0.200 F 
ATOM     86  C   UNL     1     -19.194   3.494   0.327  1.00  0.00     0.200 A 
ATOM     87  F   UNL     1     -20.444   1.579  -0.263  1.00  0.00    -0.200 F 
ATOM     88  F   UNL     1     -19.986   3.702   1.388  1.00  0.00    -0.200 F 
ENDBRANCH  64  78
BRANCH  65  89
ATOM     89  C   UNL     1     -11.306   1.053  -9.457  1.00  0.00     0.064 A 
ATOM     90  C   UNL     1     -10.992   2.016 -10.427  1.00  0.00     0.173 A 
ATOM     91  C   UNL     1     -10.755  -0.228  -9.611  1.00  0.00     0.173 A 
ATOM     92  F   UNL     1     -11.514   3.248 -10.339  1.00  0.00    -0.203 F 
ATOM     93  C   UNL     1     -10.182   1.704 -11.517  1.00  0.00     0.198 A 
ATOM     94  C   UNL     1      -9.917  -0.529 -10.683  1.00  0.00     0.198 A 
ATOM     95  F   UNL     1     -11.024  -1.189  -8.715  1.00  0.00    -0.203 F 
ATOM     96  F   UNL     1      -9.943   2.629 -12.457  1.00  0.00    -0.200 F 
ATOM     97  C   UNL     1      -9.639   0.434 -11.640  1.00  0.00     0.200 A 
ATOM     98  F   UNL     1      -9.382  -1.753 -10.790  1.00  0.00    -0.200 F 
ATOM     99  F   UNL     1      -8.855   0.137 -12.686  1.00  0.00    -0.200 F 
ENDBRANCH  65  89
BRANCH  77 100
ATOM    100  C   UNL     1     -18.058   2.779  -9.069  1.00  0.00     0.064 A 
ATOM    101  C   UNL     1     -18.587   1.727  -9.831  1.00  0.00     0.173 A 
ATOM    102  C   UNL     1     -18.583   4.065  -9.278  1.00  0.00     0.173 A 
ATOM    103  F   UNL     1     -18.115   0.480  -9.681  1.00  0.00    -0.203 F 
ATOM    104  C   UNL     1     -19.578   1.958 -10.783  1.00  0.00     0.198 A 
ATOM    105  C   UNL     1     -19.600   4.286 -10.202  1.00  0.00     0.198 A 
ATOM    106  F   UNL     1     -18.121   5.107  -8.570  1.00  0.00    -0.203 F 
ATOM    107  F   UNL     1     -20.029   0.947 -11.537  1.00  0.00    -0.200 F 
ATOM    108  C   UNL     1     -20.090   3.235 -10.960  1.00  0.00     0.200 A 
ATOM    109  F   UNL     1     -20.107   5.517 -10.356  1.00  0.00    -0.200 F 
ATOM    110  F   UNL     1     -21.052   3.453 -11.868  1.00  0.00    -0.200 F 
ENDBRANCH  77 100
ENDBRANCH  51  52
ENDBRANCH  44  46
ENDBRANCH  43  44
ENDBRANCH  42  43
ENDBRANCH  41  42
ENDBRANCH  40  41
ENDBRANCH  39  40
ENDBRANCH  38  39
ENDBRANCH  37  38
ENDBRANCH   1  37
TORSDOF 25
