REMARK SMILES C[C@@](NC(=O)CSCc1ccccc1)(C(=O)OCCOCCOCCOCCOC(=O)c1ccc(-c2c3nc(c(-c4c(F)c(F)c(F)c(F)c4F)c4ccc([nH]4)c(-c4c(F)c(F)c(F)c(F)c4F)c4nc(c(-c5c(F)c(F)c(F)c(F)c5F)c5ccc2[nH]5)C=C4)C=C3)cc1)C1CC1
REMARK SMILES IDX 21 1 20 2 19 3 18 4 17 5 15 6 16 7 2 8 1 9 3 10 4 11 5 13
REMARK SMILES IDX 6 14 7 15 8 16 9 17 10 18 14 19 11 20 13 21 12 22 95 23
REMARK SMILES IDX 96 24 97 25 22 26 23 27 24 28 25 29 26 30 27 31 28 32 29 33
REMARK SMILES IDX 30 34 31 35 32 36 33 37 94 38 34 39 93 40 35 41 36 42 37 43
REMARK SMILES IDX 87 44 38 45 92 46 86 47 88 48 39 49 91 50 85 51 84 52 40 54
REMARK SMILES IDX 72 55 52 56 71 57 53 58 56 59 70 60 89 61 54 62 55 63 69 65
REMARK SMILES IDX 90 66 57 67 41 68 42 69 50 70 43 71 44 72 48 73 51 74 45 75
REMARK SMILES IDX 46 76 49 77 47 78 73 79 74 80 82 81 75 82 76 83 80 84 83 85
REMARK SMILES IDX 77 86 78 87 81 88 79 89 58 90 59 91 67 92 60 93 61 94 65 95
REMARK SMILES IDX 68 96 62 97 63 98 66 99 64 100
REMARK H PARENT 3 12 88 53 56 64
REMARK Flexibility Score: inf
ROOT
ATOM      1  C   UNL     1      -2.280   2.087  -1.672  1.00  0.00     0.188 C 
ENDROOT
BRANCH   1   2
ATOM      2  O   UNL     1      -3.653   1.755  -1.737  1.00  0.00    -0.376 OA
BRANCH   2   3
ATOM      3  C   UNL     1      -4.060   0.400  -1.657  1.00  0.00     0.202 C 
BRANCH   3   4
ATOM      4  C   UNL     1      -3.122  -0.772  -1.969  1.00  0.00     0.261 C 
BRANCH   4   5
ATOM      5  O   UNL     1      -1.740  -0.581  -1.623  1.00  0.00    -0.461 OA
BRANCH   5   6
ATOM      6  C   UNL     1      -0.808  -0.998  -2.513  1.00  0.00     0.331 C 
ATOM      7  O   UNL     1      -1.089  -1.394  -3.643  1.00  0.00    -0.249 OA
BRANCH   6   8
ATOM      8  C   UNL     1       0.666  -0.969  -1.965  1.00  0.00     0.138 C 
ATOM      9  C   UNL     1       0.956  -0.660  -0.479  1.00  0.00     0.048 C 
BRANCH   8  10
ATOM     10  N   UNL     1       1.220  -2.347  -2.189  1.00  0.00    -0.340 N 
ATOM     11  C   UNL     1       0.827  -3.549  -1.663  1.00  0.00     0.230 C 
ATOM     12  H   UNL     1       1.982  -2.394  -2.811  1.00  0.00     0.164 HD
ATOM     13  O   UNL     1       1.715  -4.381  -1.444  1.00  0.00    -0.274 OA
BRANCH  11  14
ATOM     14  C   UNL     1      -0.634  -3.925  -1.474  1.00  0.00     0.169 C 
BRANCH  14  15
ATOM     15  S   UNL     1      -1.439  -3.081  -0.090  1.00  0.00    -0.147 SA
BRANCH  15  16
ATOM     16  C   UNL     1      -1.014  -4.105   1.328  1.00  0.00     0.105 C 
BRANCH  16  17
ATOM     17  C   UNL     1      -1.926  -5.296   1.380  1.00  0.00    -0.038 A 
ATOM     18  C   UNL     1      -3.318  -5.133   1.503  1.00  0.00     0.004 A 
ATOM     19  C   UNL     1      -1.400  -6.578   1.204  1.00  0.00     0.004 A 
ATOM     20  C   UNL     1      -4.170  -6.227   1.380  1.00  0.00     0.000 A 
ATOM     21  C   UNL     1      -2.254  -7.673   1.097  1.00  0.00     0.000 A 
ATOM     22  C   UNL     1      -3.636  -7.495   1.167  1.00  0.00     0.000 A 
ENDBRANCH  16  17
ENDBRANCH  15  16
ENDBRANCH  14  15
ENDBRANCH  11  14
ENDBRANCH   8  10
BRANCH   8  23
ATOM     23  C   UNL     1       1.528  -0.003  -2.837  1.00  0.00     0.026 C 
ATOM     24  C   UNL     1       0.924   1.010  -3.798  1.00  0.00     0.007 C 
ATOM     25  C   UNL     1       1.643   1.498  -2.583  1.00  0.00     0.007 C 
ENDBRANCH   8  23
ENDBRANCH   6   8
ENDBRANCH   5   6
ENDBRANCH   4   5
ENDBRANCH   3   4
ENDBRANCH   2   3
ENDBRANCH   1   2
BRANCH   1  26
ATOM     26  C   UNL     1      -1.495   1.843  -0.367  1.00  0.00     0.188 C 
BRANCH  26  27
ATOM     27  O   UNL     1      -1.997   0.894   0.551  1.00  0.00    -0.377 OA
BRANCH  27  28
ATOM     28  C   UNL     1      -3.068   1.255   1.409  1.00  0.00     0.188 C 
BRANCH  28  29
ATOM     29  C   UNL     1      -3.875   2.545   1.158  1.00  0.00     0.188 C 
BRANCH  29  30
ATOM     30  O   UNL     1      -3.151   3.603   0.559  1.00  0.00    -0.376 OA
BRANCH  30  31
ATOM     31  C   UNL     1      -2.594   4.634   1.355  1.00  0.00     0.202 C 
BRANCH  31  32
ATOM     32  C   UNL     1      -1.599   4.259   2.465  1.00  0.00     0.261 C 
BRANCH  32  33
ATOM     33  O   UNL     1      -2.049   3.285   3.412  1.00  0.00    -0.460 OA
BRANCH  33  34
ATOM     34  C   UNL     1      -3.135   3.606   4.138  1.00  0.00     0.338 C 
ATOM     35  O   UNL     1      -3.767   4.654   4.109  1.00  0.00    -0.246 OA
BRANCH  34  36
ATOM     36  C   UNL     1      -3.567   2.405   4.867  1.00  0.00     0.060 A 
ATOM     37  C   UNL     1      -4.848   1.896   4.625  1.00  0.00     0.016 A 
ATOM     38  C   UNL     1      -2.730   1.821   5.821  1.00  0.00     0.016 A 
ATOM     39  C   UNL     1      -5.331   0.846   5.395  1.00  0.00     0.010 A 
ATOM     40  C   UNL     1      -3.224   0.784   6.613  1.00  0.00     0.010 A 
ATOM     41  C   UNL     1      -4.548   0.343   6.441  1.00  0.00    -0.014 A 
BRANCH  41  42
ATOM     42  C   UNL     1      -5.232  -0.406   7.518  1.00  0.00     0.031 A 
ATOM     43  C   UNL     1      -5.678   0.366   8.730  1.00  0.00     0.074 A 
ATOM     44  C   UNL     1      -5.532  -1.707   7.381  1.00  0.00     0.049 A 
ATOM     45  N   UNL     1      -6.323  -0.044   9.791  1.00  0.00    -0.248 NA
ATOM     46  C   UNL     1      -5.354   1.803   8.746  1.00  0.00     0.031 C 
ATOM     47  C   UNL     1      -5.203  -2.533   6.222  1.00  0.00     0.029 A 
ATOM     48  N   UNL     1      -6.193  -2.556   8.229  1.00  0.00    -0.354 N 
ATOM     49  C   UNL     1      -6.468   1.077  10.599  1.00  0.00     0.074 A 
ATOM     50  C   UNL     1      -5.817   2.178   9.927  1.00  0.00     0.031 C 
ATOM     51  C   UNL     1      -5.667  -3.778   6.432  1.00  0.00     0.029 A 
ATOM     52  C   UNL     1      -6.296  -3.838   7.750  1.00  0.00     0.049 A 
ATOM     53  H   UNL     1      -6.559  -2.274   9.098  1.00  0.00     0.167 HD
ATOM     54  C   UNL     1      -7.098   1.181  11.792  1.00  0.00     0.037 A 
ATOM     55  C   UNL     1      -6.829  -4.931   8.327  1.00  0.00     0.037 A 
ATOM     56  C   UNL     1      -7.750   0.081  12.450  1.00  0.00     0.049 A 
ATOM     57  C   UNL     1      -7.463  -4.804   9.690  1.00  0.00     0.074 A 
ATOM     58  C   UNL     1      -8.431   0.075  13.653  1.00  0.00     0.029 A 
ATOM     59  N   UNL     1      -7.792  -1.216  11.958  1.00  0.00    -0.354 N 
ATOM     60  N   UNL     1      -7.615  -3.740  10.442  1.00  0.00    -0.248 NA
ATOM     61  C   UNL     1      -8.009  -6.034  10.280  1.00  0.00     0.031 C 
ATOM     62  C   UNL     1      -8.826  -1.240  13.922  1.00  0.00     0.029 A 
ATOM     63  C   UNL     1      -8.462  -2.038  12.849  1.00  0.00     0.049 A 
ATOM     64  H   UNL     1      -7.403  -1.509  11.102  1.00  0.00     0.167 HD
ATOM     65  C   UNL     1      -8.309  -4.161  11.570  1.00  0.00     0.074 A 
ATOM     66  C   UNL     1      -8.558  -5.577  11.396  1.00  0.00     0.031 C 
ATOM     67  C   UNL     1      -8.710  -3.444  12.650  1.00  0.00     0.037 A 
BRANCH  54  68
ATOM     68  C   UNL     1      -7.070   2.517  12.479  1.00  0.00     0.064 A 
ATOM     69  C   UNL     1      -7.767   3.629  11.981  1.00  0.00     0.173 A 
ATOM     70  C   UNL     1      -6.339   2.682  13.666  1.00  0.00     0.173 A 
ATOM     71  F   UNL     1      -8.465   3.533  10.839  1.00  0.00    -0.203 F 
ATOM     72  C   UNL     1      -7.708   4.861  12.628  1.00  0.00     0.198 A 
ATOM     73  C   UNL     1      -6.312   3.905  14.329  1.00  0.00     0.198 A 
ATOM     74  F   UNL     1      -5.652   1.653  14.185  1.00  0.00    -0.203 F 
ATOM     75  F   UNL     1      -8.334   5.923  12.102  1.00  0.00    -0.200 F 
ATOM     76  C   UNL     1      -6.988   4.996  13.806  1.00  0.00     0.200 A 
ATOM     77  F   UNL     1      -5.626   4.029  15.474  1.00  0.00    -0.200 F 
ATOM     78  F   UNL     1      -6.938   6.180  14.431  1.00  0.00    -0.200 F 
ENDBRANCH  54  68
BRANCH  55  79
ATOM     79  C   UNL     1      -6.792  -6.240   7.622  1.00  0.00     0.064 A 
ATOM     80  C   UNL     1      -7.971  -6.865   7.191  1.00  0.00     0.173 A 
ATOM     81  C   UNL     1      -5.580  -6.908   7.392  1.00  0.00     0.173 A 
ATOM     82  F   UNL     1      -9.158  -6.279   7.409  1.00  0.00    -0.203 F 
ATOM     83  C   UNL     1      -7.941  -8.117   6.580  1.00  0.00     0.198 A 
ATOM     84  C   UNL     1      -5.548  -8.145   6.752  1.00  0.00     0.198 A 
ATOM     85  F   UNL     1      -4.423  -6.356   7.787  1.00  0.00    -0.203 F 
ATOM     86  F   UNL     1      -9.087  -8.716   6.230  1.00  0.00    -0.200 F 
ATOM     87  C   UNL     1      -6.729  -8.753   6.356  1.00  0.00     0.200 A 
ATOM     88  F   UNL     1      -4.374  -8.751   6.528  1.00  0.00    -0.200 F 
ATOM     89  F   UNL     1      -6.701  -9.958   5.770  1.00  0.00    -0.200 F 
ENDBRANCH  55  79
BRANCH  67  90
ATOM     90  C   UNL     1      -9.517  -4.163  13.695  1.00  0.00     0.064 A 
ATOM     91  C   UNL     1      -8.959  -5.155  14.516  1.00  0.00     0.173 A 
ATOM     92  C   UNL     1     -10.868  -3.834  13.893  1.00  0.00     0.173 A 
ATOM     93  F   UNL     1      -7.676  -5.515  14.364  1.00  0.00    -0.203 F 
ATOM     94  C   UNL     1      -9.734  -5.820  15.463  1.00  0.00     0.198 A 
ATOM     95  C   UNL     1     -11.628  -4.472  14.868  1.00  0.00     0.198 A 
ATOM     96  F   UNL     1     -11.449  -2.883  13.146  1.00  0.00    -0.203 F 
ATOM     97  F   UNL     1      -9.198  -6.812  16.187  1.00  0.00    -0.200 F 
ATOM     98  C   UNL     1     -11.065  -5.474  15.643  1.00  0.00     0.200 A 
ATOM     99  F   UNL     1     -12.908  -4.120  15.054  1.00  0.00    -0.200 F 
ATOM    100  F   UNL     1     -11.808  -6.114  16.556  1.00  0.00    -0.200 F 
ENDBRANCH  67  90
ENDBRANCH  41  42
ENDBRANCH  34  36
ENDBRANCH  33  34
ENDBRANCH  32  33
ENDBRANCH  31  32
ENDBRANCH  30  31
ENDBRANCH  29  30
ENDBRANCH  28  29
ENDBRANCH  27  28
ENDBRANCH  26  27
ENDBRANCH   1  26
TORSDOF 26
