REMARK SMILES COc1cc(C)cc2c1[C@@H](C)[C@@H](CC(=O)N[C@@H](Cc1c[nH]c3ccccc13)C(=O)OCCOCCOCCOCCOC(=O)c1ccc(-c3c4nc(c(-c5c(F)c(F)c(F)c(F)c5F)c5ccc([nH]5)c(-c5c(F)c(F)c(F)c(F)c5F)c5nc(c(-c6c(F)c(F)c(F)c(F)c6F)c6ccc3[nH]6)C=C5)C=C4)cc1)C(=O)O2
REMARK SMILES IDX 35 1 34 2 33 3 32 4 31 5 30 6 28 7 29 8 17 9 16 10 14 11
REMARK SMILES IDX 15 12 13 14 12 15 3 16 4 17 9 18 5 19 8 20 10 21 6 22 7 23
REMARK SMILES IDX 110 24 11 25 108 26 109 27 2 28 1 29 18 30 19 31 20 32 27 33
REMARK SMILES IDX 21 34 22 35 26 36 23 38 25 39 24 40 36 41 37 42 38 43 39 44
REMARK SMILES IDX 40 45 41 46 42 47 43 48 44 49 45 50 46 51 107 52 47 53
REMARK SMILES IDX 106 54 48 55 49 56 50 57 100 58 51 59 105 60 99 61 101 62
REMARK SMILES IDX 52 63 104 64 98 65 97 66 53 68 85 69 65 70 84 71 66 72 69 73
REMARK SMILES IDX 83 74 102 75 67 76 68 77 82 79 103 80 70 81 54 82 55 83
REMARK SMILES IDX 63 84 56 85 57 86 61 87 64 88 58 89 59 90 62 91 60 92 86 93
REMARK SMILES IDX 87 94 95 95 88 96 89 97 93 98 96 99 90 100 91 101 94 102
REMARK SMILES IDX 92 103 71 104 72 105 80 106 73 107 74 108 78 109 81 110
REMARK SMILES IDX 75 111 76 112 79 113 77 114
REMARK H PARENT 16 13 21 37 101 67 69 78
REMARK Flexibility Score: inf
ROOT
ATOM      1  C   UNL     1      -1.067   0.767   7.835  1.00  0.00     0.188 C 
ENDROOT
BRANCH   1   2
ATOM      2  C   UNL     1       0.279   1.497   7.887  1.00  0.00     0.188 C 
BRANCH   2   3
ATOM      3  O   UNL     1       0.885   1.742   9.143  1.00  0.00    -0.376 OA
BRANCH   3   4
ATOM      4  C   UNL     1       0.345   2.734  10.013  1.00  0.00     0.202 C 
BRANCH   4   5
ATOM      5  C   UNL     1      -0.390   3.958   9.454  1.00  0.00     0.261 C 
BRANCH   5   6
ATOM      6  O   UNL     1      -1.516   3.612   8.627  1.00  0.00    -0.462 OA
BRANCH   6   7
ATOM      7  C   UNL     1      -1.661   4.372   7.522  1.00  0.00     0.329 C 
ATOM      8  O   UNL     1      -1.020   5.403   7.324  1.00  0.00    -0.250 OA
BRANCH   7   9
ATOM      9  C   UNL     1      -2.652   3.841   6.472  1.00  0.00     0.196 C 
BRANCH   9  10
ATOM     10  N   UNL     1      -3.194   2.496   6.359  1.00  0.00    -0.342 N 
ATOM     11  C   UNL     1      -3.402   1.774   5.207  1.00  0.00     0.221 C 
ATOM     12  O   UNL     1      -4.380   1.030   5.125  1.00  0.00    -0.275 OA
ATOM     13  H   UNL     1      -3.440   2.052   7.202  1.00  0.00     0.164 HD
BRANCH  11  14
ATOM     14  C   UNL     1      -2.295   1.712   4.152  1.00  0.00     0.116 C 
BRANCH  14  15
ATOM     15  C   UNL     1      -2.300   2.713   2.976  1.00  0.00     0.116 C 
ATOM     16  C   UNL     1       1.032   1.478   1.560  1.00  0.00     0.126 A 
ATOM     17  C   UNL     1       2.297   1.335   2.156  1.00  0.00     0.050 A 
ATOM     18  C   UNL     1       0.037   2.232   2.192  1.00  0.00     0.041 A 
ATOM     19  C   UNL     1       2.596   1.956   3.379  1.00  0.00    -0.044 A 
ATOM     20  C   UNL     1       0.424   2.985   3.307  1.00  0.00     0.138 A 
ATOM     21  C   UNL     1      -1.421   2.304   1.756  1.00  0.00     0.038 C 
ATOM     22  C   UNL     1       3.939   1.762   4.021  1.00  0.00     0.044 C 
ATOM     23  C   UNL     1       1.662   2.831   3.929  1.00  0.00     0.051 A 
ATOM     24  O   UNL     1      -0.414   3.994   3.815  1.00  0.00    -0.426 OA
ATOM     25  C   UNL     1      -1.987   1.036   1.104  1.00  0.00     0.014 C 
ATOM     26  C   UNL     1      -1.731   4.045   3.378  1.00  0.00     0.315 C 
ATOM     27  O   UNL     1      -2.399   5.071   3.437  1.00  0.00    -0.251 OA
BRANCH  16  28
ATOM     28  O   UNL     1       0.753   1.022   0.301  1.00  0.00    -0.496 OA
ATOM     29  C   UNL     1       1.287  -0.251  -0.034  1.00  0.00     0.278 C 
ENDBRANCH  16  28
ENDBRANCH  14  15
ENDBRANCH  11  14
ENDBRANCH   9  10
BRANCH   9  30
ATOM     30  C   UNL     1      -3.769   4.856   6.281  1.00  0.00     0.074 C 
BRANCH  30  31
ATOM     31  C   UNL     1      -4.923   4.929   7.253  1.00  0.00    -0.020 A 
ATOM     32  C   UNL     1      -5.404   6.164   7.683  1.00  0.00     0.087 A 
ATOM     33  C   UNL     1      -6.022   4.029   7.545  1.00  0.00     0.003 A 
ATOM     34  N   UNL     1      -6.708   6.114   7.214  1.00  0.00    -0.361 N 
ATOM     35  C   UNL     1      -7.166   4.841   7.489  1.00  0.00     0.046 A 
ATOM     36  C   UNL     1      -6.249   2.647   7.733  1.00  0.00     0.010 A 
ATOM     37  H   UNL     1      -7.207   6.840   6.775  1.00  0.00     0.166 HD
ATOM     38  C   UNL     1      -8.478   4.366   7.566  1.00  0.00     0.026 A 
ATOM     39  C   UNL     1      -7.558   2.161   7.907  1.00  0.00     0.001 A 
ATOM     40  C   UNL     1      -8.655   3.008   7.815  1.00  0.00     0.002 A 
ENDBRANCH  30  31
ENDBRANCH   9  30
ENDBRANCH   7   9
ENDBRANCH   6   7
ENDBRANCH   5   6
ENDBRANCH   4   5
ENDBRANCH   3   4
ENDBRANCH   2   3
ENDBRANCH   1   2
BRANCH   1  41
ATOM     41  O   UNL     1      -2.047   1.131   8.785  1.00  0.00    -0.377 OA
BRANCH  41  42
ATOM     42  C   UNL     1      -2.072   0.497  10.056  1.00  0.00     0.188 C 
BRANCH  42  43
ATOM     43  C   UNL     1      -1.013  -0.557  10.433  1.00  0.00     0.188 C 
BRANCH  43  44
ATOM     44  O   UNL     1      -0.621  -1.427   9.388  1.00  0.00    -0.376 OA
BRANCH  44  45
ATOM     45  C   UNL     1      -1.342  -2.630   9.165  1.00  0.00     0.202 C 
BRANCH  45  46
ATOM     46  C   UNL     1      -2.846  -2.538   8.859  1.00  0.00     0.261 C 
BRANCH  46  47
ATOM     47  O   UNL     1      -3.687  -2.009   9.897  1.00  0.00    -0.460 OA
BRANCH  47  48
ATOM     48  C   UNL     1      -3.579  -2.498  11.149  1.00  0.00     0.338 C 
ATOM     49  O   UNL     1      -2.912  -3.447  11.521  1.00  0.00    -0.246 OA
BRANCH  48  50
ATOM     50  C   UNL     1      -4.246  -1.537  12.055  1.00  0.00     0.060 A 
ATOM     51  C   UNL     1      -5.552  -1.110  11.806  1.00  0.00     0.016 A 
ATOM     52  C   UNL     1      -3.534  -1.036  13.154  1.00  0.00     0.016 A 
ATOM     53  C   UNL     1      -6.166  -0.223  12.693  1.00  0.00     0.010 A 
ATOM     54  C   UNL     1      -4.145  -0.141  14.034  1.00  0.00     0.010 A 
ATOM     55  C   UNL     1      -5.479   0.238  13.832  1.00  0.00    -0.014 A 
BRANCH  55  56
ATOM     56  C   UNL     1      -6.238   0.899  14.922  1.00  0.00     0.031 A 
ATOM     57  C   UNL     1      -6.198   2.375  15.160  1.00  0.00     0.074 A 
ATOM     58  C   UNL     1      -6.980   0.106  15.717  1.00  0.00     0.049 A 
ATOM     59  N   UNL     1      -6.911   3.087  15.997  1.00  0.00    -0.248 NA
ATOM     60  C   UNL     1      -5.230   3.152  14.377  1.00  0.00     0.031 C 
ATOM     61  C   UNL     1      -7.048  -1.353  15.607  1.00  0.00     0.029 A 
ATOM     62  N   UNL     1      -7.827   0.403  16.753  1.00  0.00    -0.354 N 
ATOM     63  C   UNL     1      -6.508   4.402  15.817  1.00  0.00     0.074 A 
ATOM     64  C   UNL     1      -5.439   4.380  14.838  1.00  0.00     0.031 C 
ATOM     65  C   UNL     1      -7.929  -1.819  16.502  1.00  0.00     0.029 A 
ATOM     66  C   UNL     1      -8.470  -0.698  17.263  1.00  0.00     0.049 A 
ATOM     67  H   UNL     1      -7.961   1.315  17.098  1.00  0.00     0.167 HD
ATOM     68  C   UNL     1      -7.008   5.519  16.400  1.00  0.00     0.037 A 
ATOM     69  C   UNL     1      -9.410  -0.794  18.222  1.00  0.00     0.037 A 
ATOM     70  C   UNL     1      -8.055   5.521  17.395  1.00  0.00     0.049 A 
ATOM     71  C   UNL     1      -9.913   0.456  18.883  1.00  0.00     0.074 A 
ATOM     72  C   UNL     1      -8.649   6.605  18.019  1.00  0.00     0.029 A 
ATOM     73  N   UNL     1      -8.653   4.384  17.922  1.00  0.00    -0.354 N 
ATOM     74  N   UNL     1      -9.595   1.703  18.639  1.00  0.00    -0.248 NA
ATOM     75  C   UNL     1     -10.911   0.287  19.947  1.00  0.00     0.031 C 
ATOM     76  C   UNL     1      -9.565   6.124  18.959  1.00  0.00     0.029 A 
ATOM     77  C   UNL     1      -9.586   4.741  18.884  1.00  0.00     0.049 A 
ATOM     78  H   UNL     1      -8.445   3.460  17.652  1.00  0.00     0.167 HD
ATOM     79  C   UNL     1     -10.368   2.469  19.499  1.00  0.00     0.074 A 
ATOM     80  C   UNL     1     -11.183   1.547  20.262  1.00  0.00     0.031 C 
ATOM     81  C   UNL     1     -10.396   3.817  19.639  1.00  0.00     0.037 A 
BRANCH  68  82
ATOM     82  C   UNL     1      -6.455   6.846  15.965  1.00  0.00     0.064 A 
ATOM     83  C   UNL     1      -6.727   7.361  14.688  1.00  0.00     0.173 A 
ATOM     84  C   UNL     1      -5.731   7.655  16.855  1.00  0.00     0.173 A 
ATOM     85  F   UNL     1      -7.418   6.631  13.800  1.00  0.00    -0.203 F 
ATOM     86  C   UNL     1      -6.279   8.624  14.311  1.00  0.00     0.198 A 
ATOM     87  C   UNL     1      -5.310   8.931  16.485  1.00  0.00     0.198 A 
ATOM     88  F   UNL     1      -5.456   7.221  18.094  1.00  0.00    -0.203 F 
ATOM     89  F   UNL     1      -6.526   9.081  13.075  1.00  0.00    -0.200 F 
ATOM     90  C   UNL     1      -5.579   9.412  15.213  1.00  0.00     0.200 A 
ATOM     91  F   UNL     1      -4.652   9.699  17.364  1.00  0.00    -0.200 F 
ATOM     92  F   UNL     1      -5.166  10.636  14.855  1.00  0.00    -0.200 F 
ENDBRANCH  68  82
BRANCH  69  93
ATOM     93  C   UNL     1      -9.981  -2.125  18.546  1.00  0.00     0.064 A 
ATOM     94  C   UNL     1     -11.295  -2.446  18.179  1.00  0.00     0.173 A 
ATOM     95  C   UNL     1      -9.216  -3.118  19.174  1.00  0.00     0.173 A 
ATOM     96  F   UNL     1     -12.068  -1.524  17.586  1.00  0.00    -0.203 F 
ATOM     97  C   UNL     1     -11.825  -3.708  18.434  1.00  0.00     0.198 A 
ATOM     98  C   UNL     1      -9.737  -4.389  19.404  1.00  0.00     0.198 A 
ATOM     99  F   UNL     1      -7.949  -2.864  19.534  1.00  0.00    -0.203 F 
ATOM    100  F   UNL     1     -13.092  -3.980  18.097  1.00  0.00    -0.200 F 
ATOM    101  C   UNL     1     -11.043  -4.682  19.038  1.00  0.00     0.200 A 
ATOM    102  F   UNL     1      -8.972  -5.333  19.968  1.00  0.00    -0.200 F 
ATOM    103  F   UNL     1     -11.547  -5.902  19.266  1.00  0.00    -0.200 F 
ENDBRANCH  69  93
BRANCH  81 104
ATOM    104  C   UNL     1     -11.347   4.394  20.648  1.00  0.00     0.064 A 
ATOM    105  C   UNL     1     -11.110   4.282  22.025  1.00  0.00     0.173 A 
ATOM    106  C   UNL     1     -12.460   5.141  20.231  1.00  0.00     0.173 A 
ATOM    107  F   UNL     1     -10.069   3.565  22.475  1.00  0.00    -0.203 F 
ATOM    108  C   UNL     1     -11.955   4.893  22.949  1.00  0.00     0.198 A 
ATOM    109  C   UNL     1     -13.286   5.774  21.157  1.00  0.00     0.198 A 
ATOM    110  F   UNL     1     -12.730   5.281  18.925  1.00  0.00    -0.203 F 
ATOM    111  F   UNL     1     -11.724   4.750  24.261  1.00  0.00    -0.200 F 
ATOM    112  C   UNL     1     -13.033   5.648  22.514  1.00  0.00     0.200 A 
ATOM    113  F   UNL     1     -14.318   6.516  20.734  1.00  0.00    -0.200 F 
ATOM    114  F   UNL     1     -13.831   6.255  23.404  1.00  0.00    -0.200 F 
ENDBRANCH  81 104
ENDBRANCH  55  56
ENDBRANCH  48  50
ENDBRANCH  47  48
ENDBRANCH  46  47
ENDBRANCH  45  46
ENDBRANCH  44  45
ENDBRANCH  43  44
ENDBRANCH  42  43
ENDBRANCH  41  42
ENDBRANCH   1  41
TORSDOF 26
