REMARK SMILES CC[C@@H](C)[C@@H](C(=O)OCCOCCOCCOCCOC(=O)c1ccc(-c2c3nc(c(-c4c(F)c(F)c(F)c(F)c4F)c4ccc([nH]4)c(-c4c(F)c(F)c(F)c(F)c4F)c4nc(c(-c5c(F)c(F)c(F)c(F)c5F)c5ccc2[nH]5)C=C4)C=C3)cc1)N1C(=O)/C(=C/c2ccc(O)cc2)SC1=S
REMARK SMILES IDX 13 1 12 2 11 3 10 4 9 5 8 6 6 7 7 8 5 9 3 10 4 11 2 12 1 13
REMARK SMILES IDX 86 14 87 15 99 16 88 17 89 18 98 19 100 20 90 21 91 22 92 23
REMARK SMILES IDX 97 24 93 25 96 26 94 27 95 28 14 30 15 31 16 32 17 33 18 34
REMARK SMILES IDX 19 35 20 36 21 37 22 38 23 39 24 40 85 41 25 42 84 43 26 44
REMARK SMILES IDX 27 45 28 46 78 47 29 48 83 49 77 50 79 51 30 52 82 53 76 54
REMARK SMILES IDX 75 55 31 57 63 58 43 59 62 60 44 61 47 62 61 63 80 64 45 65
REMARK SMILES IDX 46 66 60 68 81 69 48 70 32 71 33 72 41 73 34 74 35 75 39 76
REMARK SMILES IDX 42 77 36 78 37 79 40 80 38 81 64 82 65 83 73 84 66 85 67 86
REMARK SMILES IDX 71 87 74 88 68 89 69 90 72 91 70 92 49 93 50 94 58 95 51 96
REMARK SMILES IDX 52 97 56 98 59 99 53 100 54 101 57 102 55 103
REMARK H PARENT 95 29 79 56 47 67
REMARK Flexibility Score: inf
ROOT
ATOM      1  C   UNL     1       3.281   3.269  -1.527  1.00  0.00     0.188 C 
ENDROOT
BRANCH   1   2
ATOM      2  C   UNL     1       3.204   4.735  -2.003  1.00  0.00     0.188 C 
BRANCH   2   3
ATOM      3  O   UNL     1       3.183   5.676  -0.947  1.00  0.00    -0.376 OA
BRANCH   3   4
ATOM      4  C   UNL     1       1.940   6.206  -0.511  1.00  0.00     0.202 C 
BRANCH   4   5
ATOM      5  C   UNL     1       0.654   5.356  -0.489  1.00  0.00     0.261 C 
BRANCH   5   6
ATOM      6  O   UNL     1       0.727   4.198  -1.330  1.00  0.00    -0.462 OA
BRANCH   6   7
ATOM      7  C   UNL     1      -0.344   3.837  -2.064  1.00  0.00     0.329 C 
ATOM      8  O   UNL     1      -1.421   4.421  -2.043  1.00  0.00    -0.250 OA
BRANCH   7   9
ATOM      9  C   UNL     1      -0.069   2.564  -2.920  1.00  0.00     0.204 C 
BRANCH   9  10
ATOM     10  C   UNL     1       0.151   1.282  -2.035  1.00  0.00     0.020 C 
ATOM     11  C   UNL     1      -0.640   0.115  -2.661  1.00  0.00     0.010 C 
BRANCH  10  12
ATOM     12  C   UNL     1      -0.144   1.320  -0.515  1.00  0.00     0.002 C 
ATOM     13  C   UNL     1       0.555   0.160   0.211  1.00  0.00     0.004 C 
ENDBRANCH  10  12
ENDBRANCH   9  10
BRANCH   9  14
ATOM     14  N   UNL     1       0.908   2.748  -4.099  1.00  0.00    -0.278 N 
ATOM     15  C   UNL     1       0.782   3.932  -4.835  1.00  0.00     0.267 C 
ATOM     16  C   UNL     1       1.726   1.800  -4.719  1.00  0.00     0.149 C 
ATOM     17  O   UNL     1       0.138   4.918  -4.508  1.00  0.00    -0.268 OA
ATOM     18  C   UNL     1       1.536   3.881  -6.120  1.00  0.00     0.081 C 
ATOM     19  S   UNL     1       2.189   2.324  -6.336  1.00  0.00    -0.054 SA
ATOM     20  S   UNL     1       2.365   0.332  -4.238  1.00  0.00    -0.052 S 
ATOM     21  C   UNL     1       1.648   4.907  -6.978  1.00  0.00     0.029 C 
BRANCH  21  22
ATOM     22  C   UNL     1       2.224   4.799  -8.330  1.00  0.00    -0.024 A 
ATOM     23  C   UNL     1       3.462   5.362  -8.657  1.00  0.00     0.012 A 
ATOM     24  C   UNL     1       1.506   4.109  -9.320  1.00  0.00     0.012 A 
ATOM     25  C   UNL     1       3.973   5.227  -9.955  1.00  0.00     0.047 A 
ATOM     26  C   UNL     1       2.017   3.970 -10.612  1.00  0.00     0.047 A 
ATOM     27  C   UNL     1       3.249   4.532 -10.919  1.00  0.00     0.115 A 
BRANCH  27  28
ATOM     28  O   UNL     1       3.785   4.420 -12.167  1.00  0.00    -0.508 OA
ATOM     29  H   UNL     1       4.619   4.806 -12.356  1.00  0.00     0.293 HD
ENDBRANCH  27  28
ENDBRANCH  21  22
ENDBRANCH   9  14
ENDBRANCH   7   9
ENDBRANCH   6   7
ENDBRANCH   5   6
ENDBRANCH   4   5
ENDBRANCH   3   4
ENDBRANCH   2   3
ENDBRANCH   1   2
BRANCH   1  30
ATOM     30  O   UNL     1       2.916   2.961  -0.191  1.00  0.00    -0.377 OA
BRANCH  30  31
ATOM     31  C   UNL     1       3.607   3.582   0.887  1.00  0.00     0.188 C 
BRANCH  31  32
ATOM     32  C   UNL     1       4.990   4.237   0.679  1.00  0.00     0.188 C 
BRANCH  32  33
ATOM     33  O   UNL     1       5.657   3.877  -0.518  1.00  0.00    -0.376 OA
BRANCH  33  34
ATOM     34  C   UNL     1       6.636   2.853  -0.452  1.00  0.00     0.202 C 
BRANCH  34  35
ATOM     35  C   UNL     1       6.182   1.459   0.010  1.00  0.00     0.261 C 
BRANCH  35  36
ATOM     36  O   UNL     1       5.595   1.384   1.320  1.00  0.00    -0.460 OA
BRANCH  36  37
ATOM     37  C   UNL     1       6.343   1.782   2.368  1.00  0.00     0.338 C 
ATOM     38  O   UNL     1       7.500   2.175   2.349  1.00  0.00    -0.246 OA
BRANCH  37  39
ATOM     39  C   UNL     1       5.466   1.841   3.552  1.00  0.00     0.060 A 
ATOM     40  C   UNL     1       5.247   3.076   4.178  1.00  0.00     0.016 A 
ATOM     41  C   UNL     1       4.867   0.680   4.044  1.00  0.00     0.016 A 
ATOM     42  C   UNL     1       4.457   3.147   5.324  1.00  0.00     0.010 A 
ATOM     43  C   UNL     1       4.096   0.749   5.207  1.00  0.00     0.010 A 
ATOM     44  C   UNL     1       3.919   1.976   5.872  1.00  0.00    -0.014 A 
BRANCH  44  45
ATOM     45  C   UNL     1       3.359   2.001   7.245  1.00  0.00     0.031 A 
ATOM     46  C   UNL     1       4.242   1.561   8.381  1.00  0.00     0.074 A 
ATOM     47  C   UNL     1       2.109   2.431   7.488  1.00  0.00     0.049 A 
ATOM     48  N   UNL     1       3.969   1.446   9.655  1.00  0.00    -0.248 NA
ATOM     49  C   UNL     1       5.623   1.197   8.026  1.00  0.00     0.031 C 
ATOM     50  C   UNL     1       1.176   2.930   6.482  1.00  0.00     0.029 A 
ATOM     51  N   UNL     1       1.409   2.507   8.667  1.00  0.00    -0.354 N 
ATOM     52  C   UNL     1       5.139   0.991  10.250  1.00  0.00     0.074 A 
ATOM     53  C   UNL     1       6.113   0.817   9.196  1.00  0.00     0.031 C 
ATOM     54  C   UNL     1       0.018   3.251   7.085  1.00  0.00     0.029 A 
ATOM     55  C   UNL     1       0.117   2.944   8.512  1.00  0.00     0.049 A 
ATOM     56  H   UNL     1       1.796   2.270   9.540  1.00  0.00     0.167 HD
ATOM     57  C   UNL     1       5.382   0.750  11.560  1.00  0.00     0.037 A 
ATOM     58  C   UNL     1      -0.876   3.057   9.417  1.00  0.00     0.037 A 
ATOM     59  C   UNL     1       4.407   0.919  12.606  1.00  0.00     0.049 A 
ATOM     60  C   UNL     1      -0.607   2.696  10.857  1.00  0.00     0.074 A 
ATOM     61  C   UNL     1       4.556   0.712  13.966  1.00  0.00     0.029 A 
ATOM     62  N   UNL     1       3.096   1.326  12.404  1.00  0.00    -0.354 N 
ATOM     63  N   UNL     1       0.506   2.288  11.418  1.00  0.00    -0.248 NA
ATOM     64  C   UNL     1      -1.736   2.815  11.792  1.00  0.00     0.031 C 
ATOM     65  C   UNL     1       3.319   0.929  14.578  1.00  0.00     0.029 A 
ATOM     66  C   UNL     1       2.417   1.345  13.612  1.00  0.00     0.049 A 
ATOM     67  H   UNL     1       2.707   1.565  11.533  1.00  0.00     0.167 HD
ATOM     68  C   UNL     1       0.222   2.137  12.771  1.00  0.00     0.074 A 
ATOM     69  C   UNL     1      -1.165   2.510  12.948  1.00  0.00     0.031 C 
ATOM     70  C   UNL     1       1.037   1.728  13.776  1.00  0.00     0.037 A 
BRANCH  57  71
ATOM     71  C   UNL     1       6.746   0.240  11.930  1.00  0.00     0.064 A 
ATOM     72  C   UNL     1       7.890   1.047  11.834  1.00  0.00     0.173 A 
ATOM     73  C   UNL     1       6.907  -1.069  12.409  1.00  0.00     0.173 A 
ATOM     74  F   UNL     1       7.795   2.301  11.367  1.00  0.00    -0.203 F 
ATOM     75  C   UNL     1       9.147   0.552  12.173  1.00  0.00     0.198 A 
ATOM     76  C   UNL     1       8.159  -1.548  12.782  1.00  0.00     0.198 A 
ATOM     77  F   UNL     1       5.846  -1.882  12.524  1.00  0.00    -0.203 F 
ATOM     78  F   UNL     1      10.233   1.323  12.020  1.00  0.00    -0.200 F 
ATOM     79  C   UNL     1       9.279  -0.742  12.655  1.00  0.00     0.200 A 
ATOM     80  F   UNL     1       8.282  -2.794  13.261  1.00  0.00    -0.200 F 
ATOM     81  F   UNL     1      10.488  -1.214  12.988  1.00  0.00    -0.200 F 
ENDBRANCH  57  71
BRANCH  58  82
ATOM     82  C   UNL     1      -2.225   3.520   8.992  1.00  0.00     0.064 A 
ATOM     83  C   UNL     1      -2.749   4.740   9.443  1.00  0.00     0.173 A 
ATOM     84  C   UNL     1      -3.031   2.739   8.150  1.00  0.00     0.173 A 
ATOM     85  F   UNL     1      -2.030   5.511  10.272  1.00  0.00    -0.203 F 
ATOM     86  C   UNL     1      -4.033   5.149   9.088  1.00  0.00     0.198 A 
ATOM     87  C   UNL     1      -4.301   3.164   7.768  1.00  0.00     0.198 A 
ATOM     88  F   UNL     1      -2.581   1.561   7.692  1.00  0.00    -0.203 F 
ATOM     89  F   UNL     1      -4.529   6.292   9.579  1.00  0.00    -0.200 F 
ATOM     90  C   UNL     1      -4.806   4.364   8.245  1.00  0.00     0.200 A 
ATOM     91  F   UNL     1      -5.039   2.408   6.944  1.00  0.00    -0.200 F 
ATOM     92  F   UNL     1      -6.039   4.759   7.902  1.00  0.00    -0.200 F 
ENDBRANCH  58  82
BRANCH  70  93
ATOM     93  C   UNL     1       0.469   1.710  15.168  1.00  0.00     0.064 A 
ATOM     94  C   UNL     1      -0.506   0.782  15.561  1.00  0.00     0.173 A 
ATOM     95  C   UNL     1       0.942   2.611  16.137  1.00  0.00     0.173 A 
ATOM     96  F   UNL     1      -1.002  -0.093  14.674  1.00  0.00    -0.203 F 
ATOM     97  C   UNL     1      -1.009   0.776  16.861  1.00  0.00     0.198 A 
ATOM     98  C   UNL     1       0.465   2.577  17.444  1.00  0.00     0.198 A 
ATOM     99  F   UNL     1       1.882   3.514  15.819  1.00  0.00    -0.203 F 
ATOM    100  F   UNL     1      -1.980  -0.084  17.197  1.00  0.00    -0.200 F 
ATOM    101  C   UNL     1      -0.517   1.667  17.803  1.00  0.00     0.200 A 
ATOM    102  F   UNL     1       0.957   3.427  18.357  1.00  0.00    -0.200 F 
ATOM    103  F   UNL     1      -0.994   1.653  19.055  1.00  0.00    -0.200 F 
ENDBRANCH  70  93
ENDBRANCH  44  45
ENDBRANCH  37  39
ENDBRANCH  36  37
ENDBRANCH  35  36
ENDBRANCH  34  35
ENDBRANCH  33  34
ENDBRANCH  32  33
ENDBRANCH  31  32
ENDBRANCH  30  31
ENDBRANCH   1  30
TORSDOF 25
