REMARK SMILES O=C(NC1(C(=O)OCCOCCOCCOCCOC(=O)c2ccc(-c3c4nc(c(-c5c(F)c(F)c(F)c(F)c5F)c5ccc([nH]5)c(-c5c(F)c(F)c(F)c(F)c5F)c5nc(c(-c6c(F)c(F)c(F)c(F)c6F)c6ccc3[nH]6)C=C5)C=C4)cc2)Cc2ccccc2C1)OCC1c2ccccc2-c2ccccc21
REMARK SMILES IDX 12 1 11 2 10 3 9 4 8 5 7 6 5 7 6 8 4 9 85 10 92 11 86 12
REMARK SMILES IDX 91 13 87 14 90 15 88 16 89 17 3 18 1 19 2 20 93 22 94 23
REMARK SMILES IDX 95 24 96 25 107 26 97 27 101 28 102 29 106 30 98 31 100 32
REMARK SMILES IDX 103 33 105 34 99 35 104 36 13 37 14 38 15 39 16 40 17 41
REMARK SMILES IDX 18 42 19 43 20 44 21 45 22 46 23 47 84 48 24 49 83 50 25 51
REMARK SMILES IDX 26 52 27 53 77 54 28 55 82 56 76 57 78 58 29 59 81 60 75 61
REMARK SMILES IDX 74 62 30 64 62 65 42 66 61 67 43 68 46 69 60 70 79 71 44 72
REMARK SMILES IDX 45 73 59 75 80 76 47 77 31 78 32 79 40 80 33 81 34 82 38 83
REMARK SMILES IDX 41 84 35 85 36 86 39 87 37 88 63 89 64 90 72 91 65 92 66 93
REMARK SMILES IDX 70 94 73 95 67 96 68 97 71 98 69 99 48 100 49 101 57 102
REMARK SMILES IDX 50 103 51 104 55 105 58 106 52 107 53 108 56 109 54 110
REMARK H PARENT 3 21 78 63 46 74
REMARK Flexibility Score: inf
ROOT
ATOM      1  C   UNL     1       3.633   3.357   0.970  1.00  0.00     0.188 C 
ENDROOT
BRANCH   1   2
ATOM      2  C   UNL     1       3.389   4.456   2.006  1.00  0.00     0.188 C 
BRANCH   2   3
ATOM      3  O   UNL     1       4.026   4.273   3.267  1.00  0.00    -0.376 OA
BRANCH   3   4
ATOM      4  C   UNL     1       5.419   4.549   3.282  1.00  0.00     0.202 C 
BRANCH   4   5
ATOM      5  C   UNL     1       6.245   3.341   3.750  1.00  0.00     0.261 C 
BRANCH   5   6
ATOM      6  O   UNL     1       6.195   2.177   2.897  1.00  0.00    -0.461 OA
BRANCH   6   7
ATOM      7  C   UNL     1       5.094   1.380   2.999  1.00  0.00     0.332 C 
ATOM      8  O   UNL     1       4.167   1.577   3.785  1.00  0.00    -0.249 OA
BRANCH   7   9
ATOM      9  C   UNL     1       5.177   0.069   2.175  1.00  0.00     0.149 C 
ATOM     10  C   UNL     1       5.590  -0.974   3.281  1.00  0.00     0.076 C 
ATOM     11  C   UNL     1       6.265  -0.033   1.072  1.00  0.00     0.076 C 
ATOM     12  C   UNL     1       6.935  -1.464   2.851  1.00  0.00    -0.042 A 
ATOM     13  C   UNL     1       7.223  -1.056   1.562  1.00  0.00    -0.042 A 
ATOM     14  C   UNL     1       7.822  -2.279   3.527  1.00  0.00     0.004 A 
ATOM     15  C   UNL     1       8.272  -1.597   0.843  1.00  0.00     0.004 A 
ATOM     16  C   UNL     1       8.943  -2.762   2.842  1.00  0.00     0.000 A 
ATOM     17  C   UNL     1       9.136  -2.468   1.487  1.00  0.00     0.000 A 
BRANCH   9  18
ATOM     18  N   UNL     1       3.819  -0.259   1.629  1.00  0.00    -0.305 N 
ATOM     19  O   UNL     1       2.216  -0.421   0.028  1.00  0.00    -0.225 OA
ATOM     20  C   UNL     1       3.323  -0.029   0.371  1.00  0.00     0.408 C 
ATOM     21  H   UNL     1       3.201  -0.697   2.257  1.00  0.00     0.168 HD
BRANCH  20  22
ATOM     22  O   UNL     1       4.190   0.615  -0.443  1.00  0.00    -0.449 OA
BRANCH  22  23
ATOM     23  C   UNL     1       3.982   0.500  -1.855  1.00  0.00     0.248 C 
BRANCH  23  24
ATOM     24  C   UNL     1       5.006   1.323  -2.650  1.00  0.00     0.088 C 
ATOM     25  C   UNL     1       6.524   0.936  -2.578  1.00  0.00    -0.029 A 
ATOM     26  C   UNL     1       4.989   2.809  -2.355  1.00  0.00    -0.029 A 
ATOM     27  C   UNL     1       7.040  -0.349  -2.716  1.00  0.00     0.005 A 
ATOM     28  C   UNL     1       7.440   2.033  -2.456  1.00  0.00    -0.014 A 
ATOM     29  C   UNL     1       6.725   3.280  -2.392  1.00  0.00    -0.014 A 
ATOM     30  C   UNL     1       3.700   4.054  -2.424  1.00  0.00     0.005 A 
ATOM     31  C   UNL     1       8.432  -0.534  -2.681  1.00  0.00     0.000 A 
ATOM     32  C   UNL     1       8.811   1.840  -2.373  1.00  0.00     0.009 A 
ATOM     33  C   UNL     1       7.203   4.998  -2.474  1.00  0.00     0.009 A 
ATOM     34  C   UNL     1       4.170   5.823  -2.547  1.00  0.00     0.000 A 
ATOM     35  C   UNL     1       9.308   0.544  -2.484  1.00  0.00     0.001 A 
ATOM     36  C   UNL     1       5.928   6.286  -2.611  1.00  0.00     0.001 A 
ENDBRANCH  23  24
ENDBRANCH  22  23
ENDBRANCH  20  22
ENDBRANCH   9  18
ENDBRANCH   7   9
ENDBRANCH   6   7
ENDBRANCH   5   6
ENDBRANCH   4   5
ENDBRANCH   3   4
ENDBRANCH   2   3
ENDBRANCH   1   2
BRANCH   1  37
ATOM     37  O   UNL     1       4.960   2.941   0.704  1.00  0.00    -0.377 OA
BRANCH  37  38
ATOM     38  C   UNL     1       5.912   3.710  -0.014  1.00  0.00     0.188 C 
BRANCH  38  39
ATOM     39  C   UNL     1       5.380   4.697  -1.178  1.00  0.00     0.188 C 
BRANCH  39  40
ATOM     40  O   UNL     1       5.475   4.470  -3.157  1.00  0.00    -0.376 OA
BRANCH  40  41
ATOM     41  C   UNL     1       4.895   4.759  -4.540  1.00  0.00     0.202 C 
BRANCH  41  42
ATOM     42  C   UNL     1       5.581   3.895  -5.616  1.00  0.00     0.261 C 
BRANCH  42  43
ATOM     43  O   UNL     1       7.007   3.932  -5.572  1.00  0.00    -0.460 OA
BRANCH  43  44
ATOM     44  C   UNL     1       7.582   5.148  -5.728  1.00  0.00     0.338 C 
ATOM     45  O   UNL     1       7.068   6.168  -6.118  1.00  0.00    -0.246 OA
BRANCH  44  46
ATOM     46  C   UNL     1       8.953   5.050  -5.166  1.00  0.00     0.060 A 
ATOM     47  C   UNL     1       9.484   6.177  -4.526  1.00  0.00     0.016 A 
ATOM     48  C   UNL     1       9.661   3.842  -5.178  1.00  0.00     0.016 A 
ATOM     49  C   UNL     1      10.719   6.091  -3.882  1.00  0.00     0.010 A 
ATOM     50  C   UNL     1      10.912   3.765  -4.571  1.00  0.00     0.010 A 
ATOM     51  C   UNL     1      11.454   4.897  -3.945  1.00  0.00    -0.014 A 
BRANCH  51  52
ATOM     52  C   UNL     1      12.911   4.939  -3.700  1.00  0.00     0.031 A 
ATOM     53  C   UNL     1      13.755   5.426  -4.844  1.00  0.00     0.074 A 
ATOM     54  C   UNL     1      13.471   4.546  -2.543  1.00  0.00     0.049 A 
ATOM     55  N   UNL     1      15.048   5.589  -4.918  1.00  0.00    -0.248 NA
ATOM     56  C   UNL     1      13.030   5.785  -6.078  1.00  0.00     0.031 C 
ATOM     57  C   UNL     1      12.756   4.068  -1.363  1.00  0.00     0.029 A 
ATOM     58  N   UNL     1      14.795   4.484  -2.185  1.00  0.00    -0.354 N 
ATOM     59  C   UNL     1      15.281   6.095  -6.188  1.00  0.00     0.074 A 
ATOM     60  C   UNL     1      14.011   6.180  -6.867  1.00  0.00     0.031 C 
ATOM     61  C   UNL     1      13.654   3.748  -0.411  1.00  0.00     0.029 A 
ATOM     62  C   UNL     1      15.004   3.983  -0.924  1.00  0.00     0.049 A 
ATOM     63  H   UNL     1      15.526   4.773  -2.777  1.00  0.00     0.167 HD
ATOM     64  C   UNL     1      16.455   6.463  -6.746  1.00  0.00     0.037 A 
ATOM     65  C   UNL     1      16.162   3.737  -0.278  1.00  0.00     0.037 A 
ATOM     66  C   UNL     1      17.726   6.310  -6.103  1.00  0.00     0.049 A 
ATOM     67  C   UNL     1      17.471   4.052  -0.967  1.00  0.00     0.074 A 
ATOM     68  C   UNL     1      18.981   6.623  -6.588  1.00  0.00     0.029 A 
ATOM     69  N   UNL     1      17.900   5.765  -4.840  1.00  0.00    -0.354 N 
ATOM     70  N   UNL     1      17.683   4.595  -2.143  1.00  0.00    -0.248 NA
ATOM     71  C   UNL     1      18.703   3.720  -0.235  1.00  0.00     0.031 C 
ATOM     72  C   UNL     1      19.922   6.214  -5.638  1.00  0.00     0.029 A 
ATOM     73  C   UNL     1      19.248   5.704  -4.538  1.00  0.00     0.049 A 
ATOM     74  H   UNL     1      17.173   5.467  -4.247  1.00  0.00     0.167 HD
ATOM     75  C   UNL     1      19.064   4.703  -2.273  1.00  0.00     0.074 A 
ATOM     76  C   UNL     1      19.639   4.177  -1.054  1.00  0.00     0.031 C 
ATOM     77  C   UNL     1      19.793   5.194  -3.307  1.00  0.00     0.037 A 
BRANCH  64  78
ATOM     78  C   UNL     1      16.396   7.014  -8.136  1.00  0.00     0.064 A 
ATOM     79  C   UNL     1      15.858   8.284  -8.396  1.00  0.00     0.173 A 
ATOM     80  C   UNL     1      16.846   6.251  -9.222  1.00  0.00     0.173 A 
ATOM     81  F   UNL     1      15.382   9.035  -7.392  1.00  0.00    -0.203 F 
ATOM     82  C   UNL     1      15.751   8.760  -9.700  1.00  0.00     0.198 A 
ATOM     83  C   UNL     1      16.762   6.742 -10.521  1.00  0.00     0.198 A 
ATOM     84  F   UNL     1      17.351   5.025  -9.024  1.00  0.00    -0.203 F 
ATOM     85  F   UNL     1      15.181   9.950  -9.932  1.00  0.00    -0.200 F 
ATOM     86  C   UNL     1      16.209   7.991 -10.760  1.00  0.00     0.200 A 
ATOM     87  F   UNL     1      17.204   5.999 -11.545  1.00  0.00    -0.200 F 
ATOM     88  F   UNL     1      16.102   8.448 -12.015  1.00  0.00    -0.200 F 
ENDBRANCH  64  78
BRANCH  65  89
ATOM     89  C   UNL     1      16.159   3.156   1.093  1.00  0.00     0.064 A 
ATOM     90  C   UNL     1      16.628   3.892   2.191  1.00  0.00     0.173 A 
ATOM     91  C   UNL     1      15.753   1.833   1.324  1.00  0.00     0.173 A 
ATOM     92  F   UNL     1      17.057   5.151   2.018  1.00  0.00    -0.203 F 
ATOM     93  C   UNL     1      16.719   3.320   3.459  1.00  0.00     0.198 A 
ATOM     94  C   UNL     1      15.819   1.270   2.598  1.00  0.00     0.198 A 
ATOM     95  F   UNL     1      15.305   1.081   0.309  1.00  0.00    -0.203 F 
ATOM     96  F   UNL     1      17.230   4.027   4.476  1.00  0.00    -0.200 F 
ATOM     97  C   UNL     1      16.312   2.010   3.662  1.00  0.00     0.200 A 
ATOM     98  F   UNL     1      15.421   0.005   2.791  1.00  0.00    -0.200 F 
ATOM     99  F   UNL     1      16.411   1.456   4.878  1.00  0.00    -0.200 F 
ENDBRANCH  65  89
BRANCH  77 100
ATOM    100  C   UNL     1      21.285   5.235  -3.152  1.00  0.00     0.064 A 
ATOM    101  C   UNL     1      22.065   4.071  -3.194  1.00  0.00     0.173 A 
ATOM    102  C   UNL     1      21.948   6.468  -3.042  1.00  0.00     0.173 A 
ATOM    103  F   UNL     1      21.479   2.868  -3.290  1.00  0.00    -0.203 F 
ATOM    104  C   UNL     1      23.453   4.138  -3.111  1.00  0.00     0.198 A 
ATOM    105  C   UNL     1      23.337   6.533  -2.992  1.00  0.00     0.198 A 
ATOM    106  F   UNL     1      21.247   7.612  -3.010  1.00  0.00    -0.203 F 
ATOM    107  F   UNL     1      24.178   3.011  -3.114  1.00  0.00    -0.200 F 
ATOM    108  C   UNL     1      24.088   5.369  -3.021  1.00  0.00     0.200 A 
ATOM    109  F   UNL     1      23.948   7.724  -2.925  1.00  0.00    -0.200 F 
ATOM    110  F   UNL     1      25.425   5.432  -2.958  1.00  0.00    -0.200 F 
ENDBRANCH  77 100
ENDBRANCH  51  52
ENDBRANCH  44  46
ENDBRANCH  43  44
ENDBRANCH  42  43
ENDBRANCH  41  42
ENDBRANCH  40  41
ENDBRANCH  39  40
ENDBRANCH  38  39
ENDBRANCH  37  38
ENDBRANCH   1  37
TORSDOF 24
