REMARK SMILES COc1cc(-c2ccc(NC(=O)CCC(=O)OCCOCCOCCOCCOC(=O)c3ccc(-c4c5nc(c(-c6c(F)c(F)c(F)c(F)c6F)c6ccc([nH]6)c(-c6c(F)c(F)c(F)c(F)c6F)c6nc(c(-c7c(F)c(F)c(F)c(F)c7F)c7ccc4[nH]7)C=C6)C=C5)cc3)c(OC)c2)ccc1N
REMARK SMILES IDX 21 1 20 2 19 3 18 4 17 5 15 6 16 7 14 8 13 9 11 10 10 11
REMARK SMILES IDX 12 13 9 14 6 15 7 16 98 17 8 18 95 19 5 20 3 21 4 22 101 23
REMARK SMILES IDX 100 24 99 25 2 26 1 27 102 28 96 31 97 32 22 33 23 34 24 35
REMARK SMILES IDX 25 36 26 37 27 38 28 39 29 40 30 41 31 42 32 43 33 44 94 45
REMARK SMILES IDX 34 46 93 47 35 48 36 49 37 50 87 51 38 52 92 53 86 54 88 55
REMARK SMILES IDX 39 56 91 57 85 58 84 59 40 61 72 62 52 63 71 64 53 65 56 66
REMARK SMILES IDX 70 67 89 68 54 69 55 70 69 72 90 73 57 74 41 75 42 76 50 77
REMARK SMILES IDX 43 78 44 79 48 80 51 81 45 82 46 83 49 84 47 85 73 86 74 87
REMARK SMILES IDX 82 88 75 89 76 90 80 91 83 92 77 93 78 94 81 95 79 96 58 97
REMARK SMILES IDX 59 98 67 99 60 100 61 101 65 102 68 103 62 104 63 105 66 106
REMARK SMILES IDX 64 107
REMARK H PARENT 10 12 102 29 102 30 88 60 56 71
REMARK Flexibility Score: inf
ROOT
ATOM      1  C   UNL     1      -1.578  -4.121  -5.535  1.00  0.00     0.188 C 
ENDROOT
BRANCH   1   2
ATOM      2  O   UNL     1      -1.679  -5.412  -4.663  1.00  0.00    -0.376 OA
BRANCH   2   3
ATOM      3  C   UNL     1      -2.305  -6.202  -2.921  1.00  0.00     0.202 C 
BRANCH   3   4
ATOM      4  C   UNL     1      -3.799  -5.698  -1.996  1.00  0.00     0.261 C 
BRANCH   4   5
ATOM      5  O   UNL     1      -4.738  -4.442  -2.326  1.00  0.00    -0.463 OA
BRANCH   5   6
ATOM      6  C   UNL     1      -5.281  -3.612  -3.295  1.00  0.00     0.306 C 
ATOM      7  O   UNL     1      -5.716  -2.533  -2.854  1.00  0.00    -0.252 OA
BRANCH   6   8
ATOM      8  C   UNL     1      -5.518  -3.808  -4.944  1.00  0.00     0.132 C 
BRANCH   8   9
ATOM      9  C   UNL     1      -4.977  -4.600  -6.307  1.00  0.00     0.112 C 
BRANCH   9  10
ATOM     10  C   UNL     1      -4.442  -6.099  -6.886  1.00  0.00     0.225 C 
ATOM     11  N   UNL     1      -3.472  -6.978  -6.368  1.00  0.00    -0.323 N 
ATOM     12  H   UNL     1      -3.197  -7.734  -6.936  1.00  0.00     0.170 HD
ATOM     13  O   UNL     1      -4.865  -6.426  -8.011  1.00  0.00    -0.275 OA
BRANCH  11  14
ATOM     14  C   UNL     1      -2.862  -6.866  -5.103  1.00  0.00     0.083 A 
ATOM     15  C   UNL     1      -0.792  -4.623  -3.101  1.00  0.00    -0.014 A 
ATOM     16  C   UNL     1      -0.172  -6.208  -3.713  1.00  0.00     0.011 A 
ATOM     17  C   UNL     1      -2.542  -4.241  -3.408  1.00  0.00     0.057 A 
ATOM     18  C   UNL     1      -1.188  -7.301  -4.720  1.00  0.00     0.031 A 
ATOM     19  C   UNL     1      -3.567  -5.486  -4.374  1.00  0.00     0.142 A 
BRANCH  15  20
ATOM     20  C   UNL     1       0.184  -3.630  -2.588  1.00  0.00    -0.014 A 
ATOM     21  C   UNL     1       0.961  -1.907  -1.035  1.00  0.00     0.142 A 
ATOM     22  C   UNL     1      -0.047  -2.784  -1.501  1.00  0.00     0.057 A 
ATOM     23  C   UNL     1       2.237  -1.873  -1.628  1.00  0.00     0.074 A 
ATOM     24  C   UNL     1       2.430  -2.631  -2.776  1.00  0.00     0.030 A 
ATOM     25  C   UNL     1       1.432  -3.505  -3.223  1.00  0.00     0.011 A 
BRANCH  21  26
ATOM     26  O   UNL     1       0.649  -1.185   0.095  1.00  0.00    -0.495 OA
ATOM     27  C   UNL     1       0.772   0.226  -0.088  1.00  0.00     0.278 C 
ENDBRANCH  21  26
BRANCH  23  28
ATOM     28  N   UNL     1       3.273  -1.062  -1.175  1.00  0.00    -0.396 N 
ATOM     29  H   UNL     1       3.154  -0.518  -0.363  1.00  0.00     0.156 HD
ATOM     30  H   UNL     1       4.125  -1.031  -1.667  1.00  0.00     0.156 HD
ENDBRANCH  23  28
ENDBRANCH  15  20
BRANCH  19  31
ATOM     31  O   UNL     1      -4.931  -5.818  -4.133  1.00  0.00    -0.495 OA
ATOM     32  C   UNL     1      -5.575  -7.086  -4.323  1.00  0.00     0.278 C 
ENDBRANCH  19  31
ENDBRANCH  11  14
ENDBRANCH   9  10
ENDBRANCH   8   9
ENDBRANCH   6   8
ENDBRANCH   5   6
ENDBRANCH   4   5
ENDBRANCH   3   4
ENDBRANCH   2   3
ENDBRANCH   1   2
BRANCH   1  33
ATOM     33  C   UNL     1      -1.564  -4.387  -7.059  1.00  0.00     0.188 C 
BRANCH  33  34
ATOM     34  O   UNL     1      -0.537  -5.144  -7.675  1.00  0.00    -0.377 OA
BRANCH  34  35
ATOM     35  C   UNL     1       0.535  -5.553  -6.865  1.00  0.00     0.188 C 
BRANCH  35  36
ATOM     36  C   UNL     1       1.811  -4.719  -6.896  1.00  0.00     0.188 C 
BRANCH  36  37
ATOM     37  O   UNL     1       1.683  -3.346  -7.184  1.00  0.00    -0.376 OA
BRANCH  37  38
ATOM     38  C   UNL     1       1.176  -2.991  -8.467  1.00  0.00     0.202 C 
BRANCH  38  39
ATOM     39  C   UNL     1       1.414  -3.843  -9.743  1.00  0.00     0.261 C 
BRANCH  39  40
ATOM     40  O   UNL     1       1.246  -5.275  -9.646  1.00  0.00    -0.460 OA
BRANCH  40  41
ATOM     41  C   UNL     1       2.372  -6.032  -9.675  1.00  0.00     0.338 C 
ATOM     42  O   UNL     1       3.514  -5.632  -9.833  1.00  0.00    -0.246 OA
BRANCH  41  43
ATOM     43  C   UNL     1       2.078  -7.420  -9.231  1.00  0.00     0.060 A 
ATOM     44  C   UNL     1       2.726  -7.913  -8.082  1.00  0.00     0.016 A 
ATOM     45  C   UNL     1       1.222  -8.252  -9.951  1.00  0.00     0.016 A 
ATOM     46  C   UNL     1       2.549  -9.238  -7.672  1.00  0.00     0.010 A 
ATOM     47  C   UNL     1       1.090  -9.598  -9.574  1.00  0.00     0.010 A 
ATOM     48  C   UNL     1       1.790 -10.108  -8.461  1.00  0.00    -0.014 A 
BRANCH  48  49
ATOM     49  C   UNL     1       2.012 -11.576  -8.332  1.00  0.00     0.031 A 
ATOM     50  C   UNL     1       3.083 -12.187  -9.201  1.00  0.00     0.074 A 
ATOM     51  C   UNL     1       1.334 -12.353  -7.468  1.00  0.00     0.049 A 
ATOM     52  N   UNL     1       3.436 -13.439  -9.345  1.00  0.00    -0.248 NA
ATOM     53  C   UNL     1       3.864 -11.246 -10.024  1.00  0.00     0.031 C 
ATOM     54  C   UNL     1       0.326 -11.893  -6.519  1.00  0.00     0.029 A 
ATOM     55  N   UNL     1       1.394 -13.713  -7.263  1.00  0.00    -0.354 N 
ATOM     56  C   UNL     1       4.465 -13.434 -10.280  1.00  0.00     0.074 A 
ATOM     57  C   UNL     1       4.663 -12.062 -10.689  1.00  0.00     0.031 C 
ATOM     58  C   UNL     1      -0.157 -12.956  -5.848  1.00  0.00     0.029 A 
ATOM     59  C   UNL     1       0.483 -14.176  -6.345  1.00  0.00     0.049 A 
ATOM     60  H   UNL     1       2.031 -14.300  -7.732  1.00  0.00     0.167 HD
ATOM     61  C   UNL     1       5.185 -14.476 -10.756  1.00  0.00     0.037 A 
ATOM     62  C   UNL     1       0.183 -15.439  -5.974  1.00  0.00     0.037 A 
ATOM     63  C   UNL     1       4.988 -15.843 -10.361  1.00  0.00     0.049 A 
ATOM     64  C   UNL     1       0.935 -16.598  -6.591  1.00  0.00     0.074 A 
ATOM     65  C   UNL     1       5.670 -16.970 -10.784  1.00  0.00     0.029 A 
ATOM     66  N   UNL     1       4.027 -16.272  -9.457  1.00  0.00    -0.354 N 
ATOM     67  N   UNL     1       1.914 -16.585  -7.463  1.00  0.00    -0.248 NA
ATOM     68  C   UNL     1       0.537 -17.950  -6.167  1.00  0.00     0.031 C 
ATOM     69  C   UNL     1       5.081 -18.087 -10.186  1.00  0.00     0.029 A 
ATOM     70  C   UNL     1       4.081 -17.650  -9.332  1.00  0.00     0.049 A 
ATOM     71  H   UNL     1       3.401 -15.684  -8.976  1.00  0.00     0.167 HD
ATOM     72  C   UNL     1       2.274 -17.915  -7.659  1.00  0.00     0.074 A 
ATOM     73  C   UNL     1       1.414 -18.709  -6.809  1.00  0.00     0.031 C 
ATOM     74  C   UNL     1       3.233 -18.431  -8.467  1.00  0.00     0.037 A 
BRANCH  61  75
ATOM     75  C   UNL     1       6.229 -14.178 -11.794  1.00  0.00     0.064 A 
ATOM     76  C   UNL     1       7.406 -13.480 -11.484  1.00  0.00     0.173 A 
ATOM     77  C   UNL     1       6.057 -14.621 -13.115  1.00  0.00     0.173 A 
ATOM     78  F   UNL     1       7.610 -13.019 -10.241  1.00  0.00    -0.203 F 
ATOM     79  C   UNL     1       8.358 -13.213 -12.464  1.00  0.00     0.198 A 
ATOM     80  C   UNL     1       7.028 -14.382 -14.083  1.00  0.00     0.198 A 
ATOM     81  F   UNL     1       4.950 -15.293 -13.465  1.00  0.00    -0.203 F 
ATOM     82  F   UNL     1       9.450 -12.497 -12.157  1.00  0.00    -0.200 F 
ATOM     83  C   UNL     1       8.173 -13.671 -13.759  1.00  0.00     0.200 A 
ATOM     84  F   UNL     1       6.853 -14.839 -15.331  1.00  0.00    -0.200 F 
ATOM     85  F   UNL     1       9.095 -13.421 -14.699  1.00  0.00    -0.200 F 
ENDBRANCH  61  75
BRANCH  62  86
ATOM     86  C   UNL     1      -0.899 -15.695  -4.983  1.00  0.00     0.064 A 
ATOM     87  C   UNL     1      -0.621 -16.259  -3.729  1.00  0.00     0.173 A 
ATOM     88  C   UNL     1      -2.243 -15.427  -5.287  1.00  0.00     0.173 A 
ATOM     89  F   UNL     1       0.643 -16.565  -3.399  1.00  0.00    -0.203 F 
ATOM     90  C   UNL     1      -1.642 -16.566  -2.830  1.00  0.00     0.198 A 
ATOM     91  C   UNL     1      -3.260 -15.703  -4.375  1.00  0.00     0.198 A 
ATOM     92  F   UNL     1      -2.570 -14.896  -6.474  1.00  0.00    -0.203 F 
ATOM     93  F   UNL     1      -1.350 -17.157  -1.664  1.00  0.00    -0.200 F 
ATOM     94  C   UNL     1      -2.960 -16.281  -3.151  1.00  0.00     0.200 A 
ATOM     95  F   UNL     1      -4.532 -15.415  -4.685  1.00  0.00    -0.200 F 
ATOM     96  F   UNL     1      -3.942 -16.573  -2.287  1.00  0.00    -0.200 F 
ENDBRANCH  62  86
BRANCH  74  97
ATOM     97  C   UNL     1       3.458 -19.918  -8.434  1.00  0.00     0.064 A 
ATOM     98  C   UNL     1       2.529 -20.824  -8.965  1.00  0.00     0.173 A 
ATOM     99  C   UNL     1       4.655 -20.438  -7.914  1.00  0.00     0.173 A 
ATOM    100  F   UNL     1       1.365 -20.383  -9.466  1.00  0.00    -0.203 F 
ATOM    101  C   UNL     1       2.776 -22.195  -8.952  1.00  0.00     0.198 A 
ATOM    102  C   UNL     1       4.915 -21.805  -7.936  1.00  0.00     0.198 A 
ATOM    103  F   UNL     1       5.584 -19.616  -7.404  1.00  0.00    -0.203 F 
ATOM    104  F   UNL     1       1.852 -23.046  -9.420  1.00  0.00    -0.200 F 
ATOM    105  C   UNL     1       3.972 -22.684  -8.447  1.00  0.00     0.200 A 
ATOM    106  F   UNL     1       6.080 -22.272  -7.465  1.00  0.00    -0.200 F 
ATOM    107  F   UNL     1       4.214 -24.002  -8.447  1.00  0.00    -0.200 F 
ENDBRANCH  74  97
ENDBRANCH  48  49
ENDBRANCH  41  43
ENDBRANCH  40  41
ENDBRANCH  39  40
ENDBRANCH  38  39
ENDBRANCH  37  38
ENDBRANCH  36  37
ENDBRANCH  35  36
ENDBRANCH  34  35
ENDBRANCH  33  34
ENDBRANCH   1  33
TORSDOF 27
