REMARK SMILES O=C(OCCOCCOCCOCCOC(=O)[C@H]1CCCN(C(=O)C2CC[NH+](Cc3ccco3)CC2)C1)c1ccc(-c2c3nc(c(-c4c(F)c(F)c(F)c(F)c4F)c4ccc([nH]4)c(-c4c(F)c(F)c(F)c(F)c4F)c4nc(c(-c5c(F)c(F)c(F)c(F)c5F)c5ccc2[nH]5)C=C4)C=C3)cc1
REMARK SMILES IDX 10 1 9 2 8 3 7 4 6 5 5 6 4 7 3 8 2 9 1 10 38 11 39 12 100 13
REMARK SMILES IDX 40 14 99 15 41 16 42 17 43 18 93 19 44 20 98 21 92 22 94 23
REMARK SMILES IDX 45 24 97 25 91 26 90 27 46 29 78 30 58 31 77 32 59 33 62 34
REMARK SMILES IDX 76 35 95 36 60 37 61 38 75 40 96 41 63 42 47 43 48 44 56 45
REMARK SMILES IDX 49 46 50 47 54 48 57 49 51 50 52 51 55 52 53 53 79 54 80 55
REMARK SMILES IDX 88 56 81 57 82 58 86 59 89 60 83 61 84 62 87 63 85 64 64 65
REMARK SMILES IDX 65 66 73 67 66 68 67 69 71 70 74 71 68 72 69 73 72 74 70 75
REMARK SMILES IDX 11 76 12 77 13 78 14 79 15 80 16 81 17 82 18 83 19 84 37 85
REMARK SMILES IDX 20 86 22 87 21 88 23 89 24 90 25 91 26 92 36 93 27 94 35 95
REMARK SMILES IDX 28 96 29 98 30 99 31 100 34 101 32 102 33 103
REMARK H PARENT 94 28 62 39 28 97
REMARK Flexibility Score: inf
ROOT
ATOM      1  C   UNL     1       2.938   0.776   7.275  1.00  0.00     0.188 C 
ENDROOT
BRANCH   1   2
ATOM      2  O   UNL     1       3.135   2.122   7.668  1.00  0.00    -0.377 OA
BRANCH   2   3
ATOM      3  C   UNL     1       2.087   2.789   8.354  1.00  0.00     0.188 C 
BRANCH   3   4
ATOM      4  C   UNL     1       0.664   2.437   7.946  1.00  0.00     0.188 C 
BRANCH   4   5
ATOM      5  O   UNL     1       0.476   1.038   8.074  1.00  0.00    -0.376 OA
BRANCH   5   6
ATOM      6  C   UNL     1      -0.379   0.382   7.142  1.00  0.00     0.202 C 
BRANCH   6   7
ATOM      7  C   UNL     1      -1.837   0.817   7.181  1.00  0.00     0.261 C 
BRANCH   7   8
ATOM      8  O   UNL     1      -2.130   1.965   8.000  1.00  0.00    -0.460 OA
BRANCH   8   9
ATOM      9  C   UNL     1      -2.245   2.127   9.338  1.00  0.00     0.338 C 
ATOM     10  O   UNL     1      -2.579   3.233   9.761  1.00  0.00    -0.246 OA
BRANCH   9  11
ATOM     11  C   UNL     1      -1.970   1.069  10.351  1.00  0.00     0.060 A 
ATOM     12  C   UNL     1      -1.080   0.019  10.180  1.00  0.00     0.016 A 
ATOM     13  C   UNL     1      -2.560   1.205  11.617  1.00  0.00     0.016 A 
ATOM     14  C   UNL     1      -0.804  -0.903  11.157  1.00  0.00     0.010 A 
ATOM     15  C   UNL     1      -2.272   0.296  12.642  1.00  0.00     0.010 A 
ATOM     16  C   UNL     1      -1.399  -0.767  12.393  1.00  0.00    -0.014 A 
BRANCH  16  17
ATOM     17  C   UNL     1      -1.206  -1.903  13.293  1.00  0.00     0.031 A 
ATOM     18  C   UNL     1      -2.330  -2.879  13.386  1.00  0.00     0.074 A 
ATOM     19  C   UNL     1       0.021  -2.153  13.784  1.00  0.00     0.049 A 
ATOM     20  N   UNL     1      -2.457  -3.918  14.158  1.00  0.00    -0.248 NA
ATOM     21  C   UNL     1      -3.462  -2.670  12.461  1.00  0.00     0.031 C 
ATOM     22  C   UNL     1       1.226  -1.359  13.505  1.00  0.00     0.029 A 
ATOM     23  N   UNL     1       0.470  -3.166  14.581  1.00  0.00    -0.354 N 
ATOM     24  C   UNL     1      -3.703  -4.446  13.857  1.00  0.00     0.074 A 
ATOM     25  C   UNL     1      -4.288  -3.641  12.814  1.00  0.00     0.031 C 
ATOM     26  C   UNL     1       2.273  -1.915  14.134  1.00  0.00     0.029 A 
ATOM     27  C   UNL     1       1.792  -3.036  14.928  1.00  0.00     0.049 A 
ATOM     28  H   UNL     1      -0.097  -3.914  14.877  1.00  0.00     0.167 HD
ATOM     29  C   UNL     1      -4.298  -5.504  14.446  1.00  0.00     0.037 A 
ATOM     30  C   UNL     1       2.493  -3.717  15.851  1.00  0.00     0.037 A 
ATOM     31  C   UNL     1      -3.654  -6.271  15.473  1.00  0.00     0.049 A 
ATOM     32  C   UNL     1       1.754  -4.799  16.596  1.00  0.00     0.074 A 
ATOM     33  C   UNL     1      -4.155  -7.317  16.219  1.00  0.00     0.029 A 
ATOM     34  N   UNL     1      -2.345  -6.056  15.894  1.00  0.00    -0.354 N 
ATOM     35  N   UNL     1       0.531  -5.243  16.410  1.00  0.00    -0.248 NA
ATOM     36  C   UNL     1       2.472  -5.457  17.690  1.00  0.00     0.031 C 
ATOM     37  C   UNL     1      -3.169  -7.694  17.136  1.00  0.00     0.029 A 
ATOM     38  C   UNL     1      -2.030  -6.930  16.915  1.00  0.00     0.049 A 
ATOM     39  H   UNL     1      -1.735  -5.381  15.519  1.00  0.00     0.167 HD
ATOM     40  C   UNL     1       0.340  -6.246  17.346  1.00  0.00     0.074 A 
ATOM     41  C   UNL     1       1.585  -6.361  18.081  1.00  0.00     0.031 C 
ATOM     42  C   UNL     1      -0.759  -7.002  17.593  1.00  0.00     0.037 A 
BRANCH  29  43
ATOM     43  C   UNL     1      -5.719  -5.788  14.076  1.00  0.00     0.064 A 
ATOM     44  C   UNL     1      -6.084  -6.329  12.836  1.00  0.00     0.173 A 
ATOM     45  C   UNL     1      -6.743  -5.477  14.985  1.00  0.00     0.173 A 
ATOM     46  F   UNL     1      -5.147  -6.597  11.914  1.00  0.00    -0.203 F 
ATOM     47  C   UNL     1      -7.423  -6.540  12.515  1.00  0.00     0.198 A 
ATOM     48  C   UNL     1      -8.078  -5.714  14.672  1.00  0.00     0.198 A 
ATOM     49  F   UNL     1      -6.448  -4.930  16.174  1.00  0.00    -0.203 F 
ATOM     50  F   UNL     1      -7.755  -7.010  11.304  1.00  0.00    -0.200 F 
ATOM     51  C   UNL     1      -8.417  -6.242  13.436  1.00  0.00     0.200 A 
ATOM     52  F   UNL     1      -9.035  -5.420  15.562  1.00  0.00    -0.200 F 
ATOM     53  F   UNL     1      -9.705  -6.450  13.127  1.00  0.00    -0.200 F 
ENDBRANCH  29  43
BRANCH  30  54
ATOM     54  C   UNL     1       3.889  -3.334  16.200  1.00  0.00     0.064 A 
ATOM     55  C   UNL     1       4.948  -4.245  16.085  1.00  0.00     0.173 A 
ATOM     56  C   UNL     1       4.187  -2.065  16.726  1.00  0.00     0.173 A 
ATOM     57  F   UNL     1       4.721  -5.477  15.605  1.00  0.00    -0.203 F 
ATOM     58  C   UNL     1       6.233  -3.920  16.521  1.00  0.00     0.198 A 
ATOM     59  C   UNL     1       5.479  -1.727  17.125  1.00  0.00     0.198 A 
ATOM     60  F   UNL     1       3.218  -1.147  16.865  1.00  0.00    -0.203 F 
ATOM     61  F   UNL     1       7.207  -4.839  16.470  1.00  0.00    -0.200 F 
ATOM     62  C   UNL     1       6.497  -2.661  17.039  1.00  0.00     0.200 A 
ATOM     63  F   UNL     1       5.730  -0.503  17.610  1.00  0.00    -0.200 F 
ATOM     64  F   UNL     1       7.728  -2.355  17.472  1.00  0.00    -0.200 F 
ENDBRANCH  30  54
BRANCH  42  65
ATOM     65  C   UNL     1      -0.633  -8.035  18.668  1.00  0.00     0.064 A 
ATOM     66  C   UNL     1      -0.572  -7.682  20.023  1.00  0.00     0.173 A 
ATOM     67  C   UNL     1      -0.637  -9.397  18.334  1.00  0.00     0.173 A 
ATOM     68  F   UNL     1      -0.550  -6.390  20.385  1.00  0.00    -0.203 F 
ATOM     69  C   UNL     1      -0.492  -8.660  21.007  1.00  0.00     0.198 A 
ATOM     70  C   UNL     1      -0.599 -10.372  19.323  1.00  0.00     0.198 A 
ATOM     71  F   UNL     1      -0.706  -9.779  17.049  1.00  0.00    -0.203 F 
ATOM     72  F   UNL     1      -0.381  -8.304  22.293  1.00  0.00    -0.200 F 
ATOM     73  C   UNL     1      -0.518 -10.003  20.657  1.00  0.00     0.200 A 
ATOM     74  F   UNL     1      -0.647 -11.667  18.985  1.00  0.00    -0.200 F 
ATOM     75  F   UNL     1      -0.460 -10.944  21.609  1.00  0.00    -0.200 F 
ENDBRANCH  42  65
ENDBRANCH  16  17
ENDBRANCH   9  11
ENDBRANCH   8   9
ENDBRANCH   7   8
ENDBRANCH   6   7
ENDBRANCH   5   6
ENDBRANCH   4   5
ENDBRANCH   3   4
ENDBRANCH   2   3
ENDBRANCH   1   2
BRANCH   1  76
ATOM     76  C   UNL     1       3.227  -0.387   8.241  1.00  0.00     0.188 C 
BRANCH  76  77
ATOM     77  O   UNL     1       3.296  -0.196   9.641  1.00  0.00    -0.376 OA
BRANCH  77  78
ATOM     78  C   UNL     1       4.242   0.708  10.198  1.00  0.00     0.202 C 
BRANCH  78  79
ATOM     79  C   UNL     1       5.682   0.836   9.658  1.00  0.00     0.261 C 
BRANCH  79  80
ATOM     80  O   UNL     1       5.728   0.943   8.237  1.00  0.00    -0.463 OA
BRANCH  80  81
ATOM     81  C   UNL     1       6.558   0.168   7.468  1.00  0.00     0.310 C 
ATOM     82  O   UNL     1       7.403  -0.591   7.885  1.00  0.00    -0.252 OA
BRANCH  81  83
ATOM     83  C   UNL     1       6.097   0.307   6.019  1.00  0.00     0.119 C 
ATOM     84  C   UNL     1       5.672   1.772   5.798  1.00  0.00     0.019 C 
ATOM     85  C   UNL     1       7.010  -0.171   4.858  1.00  0.00     0.134 C 
ATOM     86  C   UNL     1       4.935   1.808   4.495  1.00  0.00     0.022 C 
ATOM     87  N   UNL     1       6.505   0.302   3.521  1.00  0.00    -0.342 N 
ATOM     88  C   UNL     1       6.046   1.650   3.514  1.00  0.00     0.119 C 
BRANCH  87  89
ATOM     89  C   UNL     1       6.434  -0.462   2.369  1.00  0.00     0.226 C 
ATOM     90  O   UNL     1       6.729  -1.662   2.405  1.00  0.00    -0.275 OA
BRANCH  89  91
ATOM     91  C   UNL     1       5.988   0.175   0.984  1.00  0.00     0.090 C 
ATOM     92  C   UNL     1       6.905   1.239   0.363  1.00  0.00     0.075 C 
ATOM     93  C   UNL     1       4.513   0.557   0.771  1.00  0.00     0.075 C 
ATOM     94  C   UNL     1       6.538   2.713   0.611  1.00  0.00     0.263 C 
ATOM     95  C   UNL     1       4.119   2.044   0.936  1.00  0.00     0.263 C 
ATOM     96  N   UNL     1       5.121   3.064   0.625  1.00  0.00    -0.329 N 
ATOM     97  H   UNL     1       4.986   3.119  -0.385  1.00  0.00     0.348 HD
BRANCH  96  98
ATOM     98  C   UNL     1       4.809   4.415   1.170  1.00  0.00     0.338 C 
BRANCH  98  99
ATOM     99  C   UNL     1       5.146   4.724   2.613  1.00  0.00     0.157 A 
ATOM    100  C   UNL     1       6.322   4.947   3.312  1.00  0.00     0.052 A 
ATOM    101  O   UNL     1       4.088   4.924   3.468  1.00  0.00    -0.463 OA
ATOM    102  C   UNL     1       5.970   5.211   4.662  1.00  0.00     0.042 A 
ATOM    103  C   UNL     1       4.596   5.210   4.700  1.00  0.00     0.195 A 
ENDBRANCH  98  99
ENDBRANCH  96  98
ENDBRANCH  89  91
ENDBRANCH  87  89
ENDBRANCH  81  83
ENDBRANCH  80  81
ENDBRANCH  79  80
ENDBRANCH  78  79
ENDBRANCH  77  78
ENDBRANCH  76  77
ENDBRANCH   1  76
TORSDOF 24
