REMARK SMILES O=C(OCCOCCOCCOCCOC(=O)c1cc(N2CCN(c3ccc(F)cc3)CC2)ccc1NC(=O)C1CCCC1)c1ccc(-c2c3nc(c(-c4c(F)c(F)c(F)c(F)c4F)c4ccc([nH]4)c(-c4c(F)c(F)c(F)c(F)c4F)c4nc(c(-c5c(F)c(F)c(F)c(F)c5F)c5ccc2[nH]5)C=C4)C=C3)cc1
REMARK SMILES IDX 9 1 8 2 7 3 6 4 5 5 4 6 3 7 2 8 1 9 45 10 46 11 107 12 47 13
REMARK SMILES IDX 106 14 48 15 49 16 50 17 100 18 51 19 105 20 99 21 101 22
REMARK SMILES IDX 52 23 104 24 98 25 97 26 53 28 85 29 65 30 84 31 66 32 69 33
REMARK SMILES IDX 83 34 102 35 67 36 68 37 82 39 103 40 70 41 54 42 55 43
REMARK SMILES IDX 63 44 56 45 57 46 61 47 64 48 58 49 59 50 62 51 60 52 86 53
REMARK SMILES IDX 87 54 95 55 88 56 89 57 93 58 96 59 90 60 91 61 94 62 92 63
REMARK SMILES IDX 71 64 72 65 80 66 73 67 74 68 78 69 81 70 75 71 76 72 79 73
REMARK SMILES IDX 77 74 10 75 11 76 12 77 13 78 14 79 15 80 16 81 17 82 18 83
REMARK SMILES IDX 19 84 36 85 20 86 35 87 34 88 37 89 38 90 39 92 40 93 41 94
REMARK SMILES IDX 44 95 42 96 43 97 21 98 22 99 33 100 23 101 32 102 24 103
REMARK SMILES IDX 25 104 26 105 31 106 27 107 30 108 28 109 29 110
REMARK H PARENT 101 27 69 38 37 91
REMARK Flexibility Score: inf
ROOT
ATOM      1  O   UNL     1       2.581  -3.393   1.921  1.00  0.00    -0.377 OA
ENDROOT
BRANCH   1   2
ATOM      2  C   UNL     1       1.837  -2.493   1.103  1.00  0.00     0.188 C 
BRANCH   2   3
ATOM      3  C   UNL     1       2.210  -1.021   1.266  1.00  0.00     0.188 C 
BRANCH   3   4
ATOM      4  O   UNL     1       3.535  -0.789   0.780  1.00  0.00    -0.376 OA
BRANCH   4   5
ATOM      5  C   UNL     1       4.324   0.102   1.568  1.00  0.00     0.202 C 
BRANCH   5   6
ATOM      6  C   UNL     1       4.210   1.558   1.124  1.00  0.00     0.261 C 
BRANCH   6   7
ATOM      7  O   UNL     1       2.873   1.890   0.727  1.00  0.00    -0.460 OA
BRANCH   7   8
ATOM      8  C   UNL     1       2.311   1.756  -0.500  1.00  0.00     0.338 C 
ATOM      9  O   UNL     1       1.125   2.058  -0.625  1.00  0.00    -0.246 OA
BRANCH   8  10
ATOM     10  C   UNL     1       3.042   1.306  -1.732  1.00  0.00     0.060 A 
ATOM     11  C   UNL     1       4.201   0.525  -1.771  1.00  0.00     0.016 A 
ATOM     12  C   UNL     1       2.467   1.674  -2.963  1.00  0.00     0.016 A 
ATOM     13  C   UNL     1       4.813   0.182  -2.971  1.00  0.00     0.010 A 
ATOM     14  C   UNL     1       3.063   1.322  -4.178  1.00  0.00     0.010 A 
ATOM     15  C   UNL     1       4.263   0.605  -4.176  1.00  0.00    -0.014 A 
BRANCH  15  16
ATOM     16  C   UNL     1       5.081   0.464  -5.392  1.00  0.00     0.031 A 
ATOM     17  C   UNL     1       5.845   1.668  -5.853  1.00  0.00     0.074 A 
ATOM     18  C   UNL     1       5.242  -0.739  -5.968  1.00  0.00     0.049 A 
ATOM     19  N   UNL     1       6.598   1.825  -6.906  1.00  0.00    -0.248 NA
ATOM     20  C   UNL     1       5.761   2.860  -4.989  1.00  0.00     0.031 C 
ATOM     21  C   UNL     1       4.647  -1.988  -5.490  1.00  0.00     0.029 A 
ATOM     22  N   UNL     1       5.975  -1.112  -7.062  1.00  0.00    -0.354 N 
ATOM     23  C   UNL     1       7.052   3.136  -6.846  1.00  0.00     0.074 A 
ATOM     24  C   UNL     1       6.494   3.735  -5.657  1.00  0.00     0.031 C 
ATOM     25  C   UNL     1       5.049  -2.994  -6.285  1.00  0.00     0.029 A 
ATOM     26  C   UNL     1       5.873  -2.448  -7.359  1.00  0.00     0.049 A 
ATOM     27  H   UNL     1       6.522  -0.482  -7.586  1.00  0.00     0.167 HD
ATOM     28  C   UNL     1       7.859   3.778  -7.721  1.00  0.00     0.037 A 
ATOM     29  C   UNL     1       6.367  -3.131  -8.409  1.00  0.00     0.037 A 
ATOM     30  C   UNL     1       8.393   3.152  -8.898  1.00  0.00     0.049 A 
ATOM     31  C   UNL     1       7.174  -2.368  -9.428  1.00  0.00     0.074 A 
ATOM     32  C   UNL     1       9.157   3.704  -9.907  1.00  0.00     0.029 A 
ATOM     33  N   UNL     1       8.207   1.812  -9.217  1.00  0.00    -0.354 N 
ATOM     34  N   UNL     1       7.540  -1.107  -9.417  1.00  0.00    -0.248 NA
ATOM     35  C   UNL     1       7.623  -3.112 -10.610  1.00  0.00     0.031 C 
ATOM     36  C   UNL     1       9.396   2.707 -10.859  1.00  0.00     0.029 A 
ATOM     37  C   UNL     1       8.827   1.521 -10.417  1.00  0.00     0.049 A 
ATOM     38  H   UNL     1       7.707   1.165  -8.668  1.00  0.00     0.167 HD
ATOM     39  C   UNL     1       8.272  -0.908 -10.578  1.00  0.00     0.074 A 
ATOM     40  C   UNL     1       8.317  -2.188 -11.260  1.00  0.00     0.031 C 
ATOM     41  C   UNL     1       8.851   0.225 -11.049  1.00  0.00     0.037 A 
BRANCH  28  42
ATOM     42  C   UNL     1       8.123   5.232  -7.463  1.00  0.00     0.064 A 
ATOM     43  C   UNL     1       8.936   5.666  -6.404  1.00  0.00     0.173 A 
ATOM     44  C   UNL     1       7.506   6.209  -8.258  1.00  0.00     0.173 A 
ATOM     45  F   UNL     1       9.522   4.773  -5.593  1.00  0.00    -0.203 F 
ATOM     46  C   UNL     1       9.092   7.024  -6.131  1.00  0.00     0.198 A 
ATOM     47  C   UNL     1       7.686   7.565  -7.999  1.00  0.00     0.198 A 
ATOM     48  F   UNL     1       6.710   5.848  -9.276  1.00  0.00    -0.203 F 
ATOM     49  F   UNL     1       9.818   7.414  -5.074  1.00  0.00    -0.200 F 
ATOM     50  C   UNL     1       8.469   7.971  -6.930  1.00  0.00     0.200 A 
ATOM     51  F   UNL     1       7.083   8.479  -8.773  1.00  0.00    -0.200 F 
ATOM     52  F   UNL     1       8.610   9.276  -6.658  1.00  0.00    -0.200 F 
ENDBRANCH  28  42
BRANCH  29  53
ATOM     53  C   UNL     1       6.070  -4.580  -8.574  1.00  0.00     0.064 A 
ATOM     54  C   UNL     1       7.086  -5.545  -8.539  1.00  0.00     0.173 A 
ATOM     55  C   UNL     1       4.757  -5.033  -8.788  1.00  0.00     0.173 A 
ATOM     56  F   UNL     1       8.361  -5.167  -8.363  1.00  0.00    -0.203 F 
ATOM     57  C   UNL     1       6.805  -6.898  -8.726  1.00  0.00     0.198 A 
ATOM     58  C   UNL     1       4.473  -6.388  -8.943  1.00  0.00     0.198 A 
ATOM     59  F   UNL     1       3.744  -4.156  -8.839  1.00  0.00    -0.203 F 
ATOM     60  F   UNL     1       7.803  -7.792  -8.736  1.00  0.00    -0.200 F 
ATOM     61  C   UNL     1       5.499  -7.320  -8.921  1.00  0.00     0.200 A 
ATOM     62  F   UNL     1       3.207  -6.790  -9.119  1.00  0.00    -0.200 F 
ATOM     63  F   UNL     1       5.229  -8.620  -9.098  1.00  0.00    -0.200 F 
ENDBRANCH  29  53
BRANCH  41  64
ATOM     64  C   UNL     1       9.605   0.114 -12.339  1.00  0.00     0.064 A 
ATOM     65  C   UNL     1       8.942  -0.014 -13.567  1.00  0.00     0.173 A 
ATOM     66  C   UNL     1      11.005   0.198 -12.347  1.00  0.00     0.173 A 
ATOM     67  F   UNL     1       7.604  -0.112 -13.606  1.00  0.00    -0.203 F 
ATOM     68  C   UNL     1       9.657  -0.075 -14.759  1.00  0.00     0.198 A 
ATOM     69  C   UNL     1      11.714   0.167 -13.543  1.00  0.00     0.198 A 
ATOM     70  F   UNL     1      11.681   0.330 -11.196  1.00  0.00    -0.203 F 
ATOM     71  F   UNL     1       9.008  -0.240 -15.920  1.00  0.00    -0.200 F 
ATOM     72  C   UNL     1      11.041   0.024 -14.746  1.00  0.00     0.200 A 
ATOM     73  F   UNL     1      13.050   0.279 -13.530  1.00  0.00    -0.200 F 
ATOM     74  F   UNL     1      11.727  -0.022 -15.896  1.00  0.00    -0.200 F 
ENDBRANCH  41  64
ENDBRANCH  15  16
ENDBRANCH   8  10
ENDBRANCH   7   8
ENDBRANCH   6   7
ENDBRANCH   5   6
ENDBRANCH   4   5
ENDBRANCH   3   4
ENDBRANCH   2   3
ENDBRANCH   1   2
BRANCH   1  75
ATOM     75  C   UNL     1       3.999  -3.298   1.865  1.00  0.00     0.188 C 
BRANCH  75  76
ATOM     76  C   UNL     1       4.703  -3.448   0.497  1.00  0.00     0.188 C 
BRANCH  76  77
ATOM     77  O   UNL     1       3.852  -3.804  -0.585  1.00  0.00    -0.376 OA
BRANCH  77  78
ATOM     78  C   UNL     1       3.906  -5.171  -0.981  1.00  0.00     0.202 C 
BRANCH  78  79
ATOM     79  C   UNL     1       3.233  -6.145  -0.004  1.00  0.00     0.261 C 
BRANCH  79  80
ATOM     80  O   UNL     1       3.834  -6.221   1.306  1.00  0.00    -0.460 OA
BRANCH  80  81
ATOM     81  C   UNL     1       5.130  -6.593   1.402  1.00  0.00     0.340 C 
ATOM     82  O   UNL     1       5.847  -6.971   0.489  1.00  0.00    -0.246 OA
BRANCH  81  83
ATOM     83  C   UNL     1       5.618  -6.255   2.766  1.00  0.00     0.085 A 
ATOM     84  C   UNL     1       6.780  -5.448   2.829  1.00  0.00     0.043 A 
ATOM     85  C   UNL     1       4.942  -6.625   3.946  1.00  0.00     0.055 A 
ATOM     86  C   UNL     1       7.262  -4.965   4.049  1.00  0.00     0.038 A 
ATOM     87  C   UNL     1       5.548  -6.279   5.141  1.00  0.00     0.029 A 
ATOM     88  C   UNL     1       6.640  -5.417   5.202  1.00  0.00     0.028 A 
BRANCH  85  89
ATOM     89  N   UNL     1       3.637  -7.158   3.900  1.00  0.00    -0.325 N 
ATOM     90  C   UNL     1       2.716  -7.588   4.805  1.00  0.00     0.227 C 
ATOM     91  H   UNL     1       3.308  -7.241   2.975  1.00  0.00     0.169 HD
ATOM     92  O   UNL     1       1.542  -7.593   4.404  1.00  0.00    -0.274 OA
BRANCH  90  93
ATOM     93  C   UNL     1       2.991  -8.172   6.190  1.00  0.00     0.079 C 
ATOM     94  C   UNL     1       4.004  -9.313   6.169  1.00  0.00     0.013 C 
ATOM     95  C   UNL     1       3.337  -7.290   7.395  1.00  0.00     0.013 C 
ATOM     96  C   UNL     1       4.395  -9.475   7.628  1.00  0.00     0.001 C 
ATOM     97  C   UNL     1       4.421  -8.053   8.173  1.00  0.00     0.001 C 
ENDBRANCH  90  93
ENDBRANCH  85  89
BRANCH  86  98
ATOM     98  N   UNL     1       8.396  -4.173   4.098  1.00  0.00    -0.368 N 
ATOM     99  C   UNL     1       8.310  -2.731   4.445  1.00  0.00     0.138 C 
ATOM    100  C   UNL     1       9.606  -4.870   4.576  1.00  0.00     0.138 C 
ATOM    101  C   UNL     1       8.734  -2.391   5.906  1.00  0.00     0.138 C 
ATOM    102  C   UNL     1       9.883  -4.582   6.065  1.00  0.00     0.138 C 
ATOM    103  N   UNL     1       9.939  -3.137   6.314  1.00  0.00    -0.368 N 
BRANCH 103 104
ATOM    104  C   UNL     1      11.159  -2.511   6.486  1.00  0.00     0.037 A 
ATOM    105  C   UNL     1      11.313  -1.488   7.433  1.00  0.00     0.029 A 
ATOM    106  C   UNL     1      12.304  -2.916   5.779  1.00  0.00     0.029 A 
ATOM    107  C   UNL     1      12.568  -0.920   7.690  1.00  0.00     0.041 A 
ATOM    108  C   UNL     1      13.555  -2.344   6.016  1.00  0.00     0.041 A 
ATOM    109  C   UNL     1      13.677  -1.357   6.979  1.00  0.00     0.123 A 
ATOM    110  F   UNL     1      14.881  -0.826   7.230  1.00  0.00    -0.207 F 
ENDBRANCH 103 104
ENDBRANCH  86  98
ENDBRANCH  81  83
ENDBRANCH  80  81
ENDBRANCH  79  80
ENDBRANCH  78  79
ENDBRANCH  77  78
ENDBRANCH  76  77
ENDBRANCH  75  76
ENDBRANCH   1  75
TORSDOF 24
