REMARK SMILES CCCc1cc(OCC(=O)OCCOCCOCCOCCOC(=O)c2ccc(-c3c4nc(c(-c5c(F)c(F)c(F)c(F)c5F)c5ccc([nH]5)c(-c5c(F)c(F)c(F)c(F)c5F)c5nc(c(-c6c(F)c(F)c(F)c(F)c6F)c6ccc3[nH]6)C=C5)C=C4)cc2)nc(Nc2ccc(C#N)cc2)n1
REMARK SMILES IDX 15 1 14 2 13 3 12 4 11 5 9 6 10 7 8 8 7 9 6 10 4 11 5 12
REMARK SMILES IDX 100 13 90 14 89 15 3 16 2 17 1 18 91 19 92 21 93 22 99 23
REMARK SMILES IDX 94 24 98 25 95 26 96 27 97 28 16 29 17 30 18 31 19 32 20 33
REMARK SMILES IDX 21 34 22 35 23 36 24 37 25 38 26 39 27 40 88 41 28 42 87 43
REMARK SMILES IDX 29 44 30 45 31 46 81 47 32 48 86 49 80 50 82 51 33 52 85 53
REMARK SMILES IDX 79 54 78 55 34 57 66 58 46 59 65 60 47 61 50 62 64 63 83 64
REMARK SMILES IDX 48 65 49 66 63 68 84 69 51 70 35 71 36 72 44 73 37 74 38 75
REMARK SMILES IDX 42 76 45 77 39 78 40 79 43 80 41 81 67 82 68 83 76 84 69 85
REMARK SMILES IDX 70 86 74 87 77 88 71 89 72 90 75 91 73 92 52 93 53 94 61 95
REMARK SMILES IDX 54 96 55 97 59 98 62 99 56 100 57 101 60 102 58 103
REMARK H PARENT 91 20 82 56 50 67
REMARK Flexibility Score: inf
ROOT
ATOM      1  C   UNL     1      -1.296   0.741   0.063  1.00  0.00     0.188 C 
ENDROOT
BRANCH   1   2
ATOM      2  O   UNL     1      -1.686  -0.233  -0.877  1.00  0.00    -0.376 OA
BRANCH   2   3
ATOM      3  C   UNL     1      -2.542   0.175  -1.923  1.00  0.00     0.202 C 
BRANCH   3   4
ATOM      4  C   UNL     1      -3.771   1.060  -1.603  1.00  0.00     0.261 C 
BRANCH   4   5
ATOM      5  O   UNL     1      -3.680   1.929  -0.441  1.00  0.00    -0.461 OA
BRANCH   5   6
ATOM      6  C   UNL     1      -4.194   1.476   0.737  1.00  0.00     0.344 C 
ATOM      7  O   UNL     1      -4.891   0.471   0.828  1.00  0.00    -0.248 OA
BRANCH   6   8
ATOM      8  C   UNL     1      -3.789   2.326   1.998  1.00  0.00     0.353 C 
BRANCH   8   9
ATOM      9  O   UNL     1      -2.636   3.147   2.158  1.00  0.00    -0.466 OA
BRANCH   9  10
ATOM     10  C   UNL     1      -1.461   2.761   2.763  1.00  0.00     0.218 A 
ATOM     11  C   UNL     1       0.242   1.219   3.270  1.00  0.00     0.050 A 
ATOM     12  C   UNL     1      -1.111   1.462   3.074  1.00  0.00     0.092 A 
ATOM     13  N   UNL     1       1.139   2.241   3.355  1.00  0.00    -0.218 NA
ATOM     14  C   UNL     1       0.710   3.506   3.186  1.00  0.00     0.230 A 
ATOM     15  N   UNL     1      -0.564   3.778   2.842  1.00  0.00    -0.177 NA
BRANCH  11  16
ATOM     16  C   UNL     1       0.824  -0.185   3.426  1.00  0.00     0.056 C 
BRANCH  16  17
ATOM     17  C   UNL     1       0.287  -1.398   2.616  1.00  0.00     0.003 C 
ATOM     18  C   UNL     1       1.012  -1.786   1.322  1.00  0.00     0.004 C 
ENDBRANCH  16  17
ENDBRANCH  11  16
BRANCH  14  19
ATOM     19  N   UNL     1       1.593   4.604   3.285  1.00  0.00    -0.324 N 
ATOM     20  H   UNL     1       1.155   5.485   3.264  1.00  0.00     0.170 HD
BRANCH  19  21
ATOM     21  C   UNL     1       2.992   4.650   3.409  1.00  0.00     0.041 A 
ATOM     22  C   UNL     1       3.619   4.899   4.631  1.00  0.00     0.027 A 
ATOM     23  C   UNL     1       3.824   4.624   2.284  1.00  0.00     0.027 A 
ATOM     24  C   UNL     1       5.023   4.878   4.747  1.00  0.00     0.021 A 
ATOM     25  C   UNL     1       5.217   4.508   2.387  1.00  0.00     0.021 A 
ATOM     26  C   UNL     1       5.823   4.601   3.635  1.00  0.00     0.052 A 
BRANCH  26  27
ATOM     27  C   UNL     1       7.237   4.412   3.767  1.00  0.00     0.099 C 
ATOM     28  N   UNL     1       8.385   4.234   3.865  1.00  0.00    -0.192 NA
ENDBRANCH  26  27
ENDBRANCH  19  21
ENDBRANCH  14  19
ENDBRANCH   9  10
ENDBRANCH   8   9
ENDBRANCH   6   8
ENDBRANCH   5   6
ENDBRANCH   4   5
ENDBRANCH   3   4
ENDBRANCH   2   3
ENDBRANCH   1   2
BRANCH   1  29
ATOM     29  C   UNL     1      -0.938   2.182  -0.344  1.00  0.00     0.188 C 
BRANCH  29  30
ATOM     30  O   UNL     1      -0.820   2.363  -1.734  1.00  0.00    -0.377 OA
BRANCH  30  31
ATOM     31  C   UNL     1       0.527   2.399  -2.167  1.00  0.00     0.188 C 
BRANCH  31  32
ATOM     32  C   UNL     1       1.227   1.031  -2.153  1.00  0.00     0.188 C 
BRANCH  32  33
ATOM     33  O   UNL     1       2.130   0.566  -1.157  1.00  0.00    -0.376 OA
BRANCH  33  34
ATOM     34  C   UNL     1       2.197   1.015   0.172  1.00  0.00     0.202 C 
BRANCH  34  35
ATOM     35  C   UNL     1       2.935   2.295   0.458  1.00  0.00     0.261 C 
BRANCH  35  36
ATOM     36  O   UNL     1       3.025   3.182  -0.632  1.00  0.00    -0.460 OA
BRANCH  36  37
ATOM     37  C   UNL     1       3.994   2.897  -1.522  1.00  0.00     0.338 C 
ATOM     38  O   UNL     1       4.859   2.050  -1.473  1.00  0.00    -0.246 OA
BRANCH  37  39
ATOM     39  C   UNL     1       3.642   3.734  -2.667  1.00  0.00     0.060 A 
ATOM     40  C   UNL     1       3.380   3.098  -3.882  1.00  0.00     0.016 A 
ATOM     41  C   UNL     1       3.416   5.104  -2.477  1.00  0.00     0.016 A 
ATOM     42  C   UNL     1       2.875   3.841  -4.931  1.00  0.00     0.010 A 
ATOM     43  C   UNL     1       2.954   5.858  -3.539  1.00  0.00     0.010 A 
ATOM     44  C   UNL     1       2.725   5.223  -4.770  1.00  0.00    -0.014 A 
BRANCH  44  45
ATOM     45  C   UNL     1       2.658   6.044  -5.980  1.00  0.00     0.031 A 
ATOM     46  C   UNL     1       3.964   6.547  -6.510  1.00  0.00     0.074 A 
ATOM     47  C   UNL     1       1.484   6.276  -6.578  1.00  0.00     0.049 A 
ATOM     48  N   UNL     1       4.201   7.329  -7.525  1.00  0.00    -0.248 NA
ATOM     49  C   UNL     1       5.176   6.112  -5.788  1.00  0.00     0.031 C 
ATOM     50  C   UNL     1       0.190   5.761  -6.132  1.00  0.00     0.029 A 
ATOM     51  N   UNL     1       1.198   7.014  -7.689  1.00  0.00    -0.354 N 
ATOM     52  C   UNL     1       5.579   7.484  -7.555  1.00  0.00     0.074 A 
ATOM     53  C   UNL     1       6.129   6.754  -6.439  1.00  0.00     0.031 C 
ATOM     54  C   UNL     1      -0.763   6.216  -6.963  1.00  0.00     0.029 A 
ATOM     55  C   UNL     1      -0.143   7.082  -7.963  1.00  0.00     0.049 A 
ATOM     56  H   UNL     1       1.886   7.454  -8.240  1.00  0.00     0.167 HD
ATOM     57  C   UNL     1       6.313   8.175  -8.452  1.00  0.00     0.037 A 
ATOM     58  C   UNL     1      -0.777   7.800  -8.906  1.00  0.00     0.037 A 
ATOM     59  C   UNL     1       5.723   8.901  -9.541  1.00  0.00     0.049 A 
ATOM     60  C   UNL     1       0.060   8.636  -9.841  1.00  0.00     0.074 A 
ATOM     61  C   UNL     1       6.348   9.644 -10.522  1.00  0.00     0.029 A 
ATOM     62  N   UNL     1       4.356   8.980  -9.778  1.00  0.00    -0.354 N 
ATOM     63  N   UNL     1       1.365   8.777  -9.885  1.00  0.00    -0.248 NA
ATOM     64  C   UNL     1      -0.660   9.407 -10.859  1.00  0.00     0.031 C 
ATOM     65  C   UNL     1       5.355  10.235 -11.307  1.00  0.00     0.029 A 
ATOM     66  C   UNL     1       4.114   9.788 -10.873  1.00  0.00     0.049 A 
ATOM     67  H   UNL     1       3.663   8.527  -9.245  1.00  0.00     0.167 HD
ATOM     68  C   UNL     1       1.626   9.619 -10.957  1.00  0.00     0.074 A 
ATOM     69  C   UNL     1       0.340   9.948 -11.540  1.00  0.00     0.031 C 
ATOM     70  C   UNL     1       2.814  10.077 -11.426  1.00  0.00     0.037 A 
BRANCH  57  71
ATOM     71  C   UNL     1       7.799   8.213  -8.253  1.00  0.00     0.064 A 
ATOM     72  C   UNL     1       8.601   7.069  -8.393  1.00  0.00     0.173 A 
ATOM     73  C   UNL     1       8.432   9.418  -7.915  1.00  0.00     0.173 A 
ATOM     74  F   UNL     1       8.044   5.884  -8.687  1.00  0.00    -0.203 F 
ATOM     75  C   UNL     1       9.976   7.126  -8.176  1.00  0.00     0.198 A 
ATOM     76  C   UNL     1       9.811   9.479  -7.737  1.00  0.00     0.198 A 
ATOM     77  F   UNL     1       7.713  10.539  -7.755  1.00  0.00    -0.203 F 
ATOM     78  F   UNL     1      10.712   6.009  -8.256  1.00  0.00    -0.200 F 
ATOM     79  C   UNL     1      10.581   8.332  -7.859  1.00  0.00     0.200 A 
ATOM     80  F   UNL     1      10.394  10.649  -7.440  1.00  0.00    -0.200 F 
ATOM     81  F   UNL     1      11.905   8.389  -7.662  1.00  0.00    -0.200 F 
ENDBRANCH  57  71
BRANCH  58  82
ATOM     82  C   UNL     1      -2.258   7.767  -8.997  1.00  0.00     0.064 A 
ATOM     83  C   UNL     1      -2.903   7.221 -10.114  1.00  0.00     0.173 A 
ATOM     84  C   UNL     1      -3.062   8.283  -7.968  1.00  0.00     0.173 A 
ATOM     85  F   UNL     1      -2.180   6.724 -11.128  1.00  0.00    -0.203 F 
ATOM     86  C   UNL     1      -4.293   7.218 -10.213  1.00  0.00     0.198 A 
ATOM     87  C   UNL     1      -4.452   8.248  -8.052  1.00  0.00     0.198 A 
ATOM     88  F   UNL     1      -2.497   8.810  -6.872  1.00  0.00    -0.203 F 
ATOM     89  F   UNL     1      -4.882   6.738 -11.316  1.00  0.00    -0.200 F 
ATOM     90  C   UNL     1      -5.066   7.727  -9.180  1.00  0.00     0.200 A 
ATOM     91  F   UNL     1      -5.194   8.722  -7.042  1.00  0.00    -0.200 F 
ATOM     92  F   UNL     1      -6.403   7.721  -9.274  1.00  0.00    -0.200 F 
ENDBRANCH  58  82
BRANCH  70  93
ATOM     93  C   UNL     1       2.780  10.930 -12.661  1.00  0.00     0.064 A 
ATOM     94  C   UNL     1       2.261  12.232 -12.650  1.00  0.00     0.173 A 
ATOM     95  C   UNL     1       3.333  10.450 -13.859  1.00  0.00     0.173 A 
ATOM     96  F   UNL     1       1.713  12.733 -11.533  1.00  0.00    -0.203 F 
ATOM     97  C   UNL     1       2.266  13.010 -13.804  1.00  0.00     0.198 A 
ATOM     98  C   UNL     1       3.376  11.246 -14.997  1.00  0.00     0.198 A 
ATOM     99  F   UNL     1       3.854   9.215 -13.916  1.00  0.00    -0.203 F 
ATOM    100  F   UNL     1       1.711  14.230 -13.789  1.00  0.00    -0.200 F 
ATOM    101  C   UNL     1       2.833  12.521 -14.972  1.00  0.00     0.200 A 
ATOM    102  F   UNL     1       3.947  10.780 -16.116  1.00  0.00    -0.200 F 
ATOM    103  F   UNL     1       2.851  13.278 -16.078  1.00  0.00    -0.200 F 
ENDBRANCH  70  93
ENDBRANCH  44  45
ENDBRANCH  37  39
ENDBRANCH  36  37
ENDBRANCH  35  36
ENDBRANCH  34  35
ENDBRANCH  33  34
ENDBRANCH  32  33
ENDBRANCH  31  32
ENDBRANCH  30  31
ENDBRANCH  29  30
ENDBRANCH   1  29
TORSDOF 27
