REMARK SMILES CN(c1ccc(C(N)=O)nn1)[C@H]1COC[C@@H]1C(=O)OCCOCCOCCOCCOC(=O)c1ccc(-c2c3nc(c(-c4c(F)c(F)c(F)c(F)c4F)c4ccc([nH]4)c(-c4c(F)c(F)c(F)c(F)c4F)c4nc(c(-c5c(F)c(F)c(F)c(F)c5F)c5ccc2[nH]5)C=C4)C=C3)cc1
REMARK SMILES IDX 24 1 23 2 22 3 21 4 20 5 19 6 17 7 18 8 16 9 12 10 13 11
REMARK SMILES IDX 14 12 15 13 2 14 1 15 3 16 4 17 11 18 5 19 10 20 6 21 7 22
REMARK SMILES IDX 8 23 9 24 25 27 26 28 27 29 28 30 29 31 30 32 31 33 32 34
REMARK SMILES IDX 33 35 34 36 35 37 96 38 36 39 95 40 37 41 38 42 39 43 89 44
REMARK SMILES IDX 40 45 94 46 88 47 90 48 41 49 93 50 87 51 86 52 42 54 74 55
REMARK SMILES IDX 54 56 73 57 55 58 58 59 72 60 91 61 56 62 57 63 71 65 92 66
REMARK SMILES IDX 59 67 43 68 44 69 52 70 45 71 46 72 50 73 53 74 47 75 48 76
REMARK SMILES IDX 51 77 49 78 75 79 76 80 84 81 77 82 78 83 82 84 85 85 79 86
REMARK SMILES IDX 80 87 83 88 81 89 60 90 61 91 69 92 62 93 63 94 67 95 70 96
REMARK SMILES IDX 64 97 65 98 68 99 66 100
REMARK H PARENT 8 25 8 26 90 53 58 64
REMARK Flexibility Score: inf
ROOT
ATOM      1  C   UNL     1       0.774   4.904  -0.233  1.00  0.00     0.188 C 
ENDROOT
BRANCH   1   2
ATOM      2  C   UNL     1      -0.014   3.747  -0.869  1.00  0.00     0.188 C 
BRANCH   2   3
ATOM      3  O   UNL     1      -1.284   3.996  -1.447  1.00  0.00    -0.376 OA
BRANCH   3   4
ATOM      4  C   UNL     1      -2.394   4.535  -0.746  1.00  0.00     0.202 C 
BRANCH   4   5
ATOM      5  C   UNL     1      -2.590   4.590   0.781  1.00  0.00     0.261 C 
BRANCH   5   6
ATOM      6  O   UNL     1      -1.465   4.293   1.597  1.00  0.00    -0.463 OA
BRANCH   6   7
ATOM      7  C   UNL     1      -1.306   2.989   1.927  1.00  0.00     0.313 C 
ATOM      8  O   UNL     1      -2.108   2.102   1.680  1.00  0.00    -0.252 OA
BRANCH   7   9
ATOM      9  C   UNL     1       0.042   2.797   2.583  1.00  0.00     0.150 C 
ATOM     10  C   UNL     1       0.610   1.444   2.199  1.00  0.00     0.125 C 
ATOM     11  C   UNL     1       0.016   0.563   3.301  1.00  0.00     0.186 C 
ATOM     12  O   UNL     1      -0.121   1.380   4.481  1.00  0.00    -0.378 OA
ATOM     13  C   UNL     1      -0.148   2.755   4.079  1.00  0.00     0.177 C 
BRANCH  10  14
ATOM     14  N   UNL     1       2.095   1.413   2.192  1.00  0.00    -0.352 N 
ATOM     15  C   UNL     1       2.865   1.802   3.365  1.00  0.00     0.145 C 
BRANCH  14  16
ATOM     16  C   UNL     1       2.712   0.646   1.208  1.00  0.00     0.151 A 
ATOM     17  C   UNL     1       3.659  -0.326   1.529  1.00  0.00     0.051 A 
ATOM     18  N   UNL     1       2.425   0.858  -0.099  1.00  0.00    -0.132 NA
ATOM     19  C   UNL     1       4.325  -1.035   0.529  1.00  0.00     0.040 A 
ATOM     20  N   UNL     1       3.093   0.173  -1.112  1.00  0.00    -0.143 NA
ATOM     21  C   UNL     1       4.028  -0.746  -0.787  1.00  0.00     0.150 A 
BRANCH  21  22
ATOM     22  C   UNL     1       4.754  -1.439  -1.889  1.00  0.00     0.269 C 
ATOM     23  N   UNL     1       4.446  -1.066  -3.169  1.00  0.00    -0.364 N 
ATOM     24  O   UNL     1       5.601  -2.297  -1.668  1.00  0.00    -0.268 OA
ATOM     25  H   UNL     1       3.763  -0.374  -3.330  1.00  0.00     0.160 HD
ATOM     26  H   UNL     1       4.906  -1.489  -3.930  1.00  0.00     0.160 HD
ENDBRANCH  21  22
ENDBRANCH  14  16
ENDBRANCH  10  14
ENDBRANCH   7   9
ENDBRANCH   6   7
ENDBRANCH   5   6
ENDBRANCH   4   5
ENDBRANCH   3   4
ENDBRANCH   2   3
ENDBRANCH   1   2
BRANCH   1  27
ATOM     27  O   UNL     1      -0.043   6.005   0.121  1.00  0.00    -0.377 OA
BRANCH  27  28
ATOM     28  C   UNL     1      -0.133   7.057  -0.833  1.00  0.00     0.188 C 
BRANCH  28  29
ATOM     29  C   UNL     1      -0.125   6.721  -2.343  1.00  0.00     0.188 C 
BRANCH  29  30
ATOM     30  O   UNL     1       0.875   5.793  -2.736  1.00  0.00    -0.376 OA
BRANCH  30  31
ATOM     31  C   UNL     1       2.056   6.270  -3.359  1.00  0.00     0.202 C 
BRANCH  31  32
ATOM     32  C   UNL     1       3.006   7.127  -2.507  1.00  0.00     0.261 C 
BRANCH  32  33
ATOM     33  O   UNL     1       2.429   8.292  -1.897  1.00  0.00    -0.460 OA
BRANCH  33  34
ATOM     34  C   UNL     1       1.941   9.244  -2.717  1.00  0.00     0.338 C 
ATOM     35  O   UNL     1       1.979   9.256  -3.937  1.00  0.00    -0.246 OA
BRANCH  34  36
ATOM     36  C   UNL     1       1.162  10.196  -1.898  1.00  0.00     0.060 A 
ATOM     37  C   UNL     1      -0.194  10.387  -2.191  1.00  0.00     0.016 A 
ATOM     38  C   UNL     1       1.762  10.895  -0.848  1.00  0.00     0.016 A 
ATOM     39  C   UNL     1      -0.945  11.310  -1.463  1.00  0.00     0.010 A 
ATOM     40  C   UNL     1       1.015  11.838  -0.134  1.00  0.00     0.010 A 
ATOM     41  C   UNL     1      -0.332  12.076  -0.463  1.00  0.00    -0.014 A 
BRANCH  41  42
ATOM     42  C   UNL     1      -1.036  13.262   0.086  1.00  0.00     0.031 A 
ATOM     43  C   UNL     1      -0.701  14.615  -0.483  1.00  0.00     0.074 A 
ATOM     44  C   UNL     1      -1.983  13.143   1.034  1.00  0.00     0.049 A 
ATOM     45  N   UNL     1      -1.139  15.798  -0.137  1.00  0.00    -0.248 NA
ATOM     46  C   UNL     1       0.261  14.634  -1.599  1.00  0.00     0.031 C 
ATOM     47  C   UNL     1      -2.437  11.887   1.627  1.00  0.00     0.029 A 
ATOM     48  N   UNL     1      -2.729  14.105   1.671  1.00  0.00    -0.354 N 
ATOM     49  C   UNL     1      -0.513  16.697  -0.992  1.00  0.00     0.074 A 
ATOM     50  C   UNL     1       0.367  15.931  -1.846  1.00  0.00     0.031 C 
ATOM     51  C   UNL     1      -3.375  12.156   2.552  1.00  0.00     0.029 A 
ATOM     52  C   UNL     1      -3.562  13.604   2.642  1.00  0.00     0.049 A 
ATOM     53  H   UNL     1      -2.674  15.063   1.452  1.00  0.00     0.167 HD
ATOM     54  C   UNL     1      -0.672  18.038  -1.071  1.00  0.00     0.037 A 
ATOM     55  C   UNL     1      -4.358  14.247   3.519  1.00  0.00     0.037 A 
ATOM     56  C   UNL     1      -1.543  18.802  -0.218  1.00  0.00     0.049 A 
ATOM     57  C   UNL     1      -4.432  15.756   3.478  1.00  0.00     0.074 A 
ATOM     58  C   UNL     1      -1.759  20.169  -0.207  1.00  0.00     0.029 A 
ATOM     59  N   UNL     1      -2.342  18.263   0.779  1.00  0.00    -0.354 N 
ATOM     60  N   UNL     1      -3.848  16.597   2.659  1.00  0.00    -0.248 NA
ATOM     61  C   UNL     1      -5.285  16.405   4.486  1.00  0.00     0.031 C 
ATOM     62  C   UNL     1      -2.650  20.462   0.829  1.00  0.00     0.029 A 
ATOM     63  C   UNL     1      -3.039  19.272   1.422  1.00  0.00     0.049 A 
ATOM     64  H   UNL     1      -2.404  17.305   0.997  1.00  0.00     0.167 HD
ATOM     65  C   UNL     1      -4.295  17.862   3.024  1.00  0.00     0.074 A 
ATOM     66  C   UNL     1      -5.214  17.678   4.126  1.00  0.00     0.031 C 
ATOM     67  C   UNL     1      -3.974  19.070   2.498  1.00  0.00     0.037 A 
BRANCH  54  68
ATOM     68  C   UNL     1       0.118  18.776  -2.112  1.00  0.00     0.064 A 
ATOM     69  C   UNL     1      -0.186  18.666  -3.477  1.00  0.00     0.173 A 
ATOM     70  C   UNL     1       1.147  19.653  -1.737  1.00  0.00     0.173 A 
ATOM     71  F   UNL     1      -1.150  17.828  -3.889  1.00  0.00    -0.203 F 
ATOM     72  C   UNL     1       0.518  19.398  -4.429  1.00  0.00     0.198 A 
ATOM     73  C   UNL     1       1.829  20.406  -2.689  1.00  0.00     0.198 A 
ATOM     74  F   UNL     1       1.477  19.796  -0.445  1.00  0.00    -0.203 F 
ATOM     75  F   UNL     1       0.233  19.251  -5.730  1.00  0.00    -0.200 F 
ATOM     76  C   UNL     1       1.516  20.276  -4.034  1.00  0.00     0.200 A 
ATOM     77  F   UNL     1       2.783  21.265  -2.304  1.00  0.00    -0.200 F 
ATOM     78  F   UNL     1       2.180  20.995  -4.949  1.00  0.00    -0.200 F 
ENDBRANCH  54  68
BRANCH  55  79
ATOM     79  C   UNL     1      -5.134  13.491   4.542  1.00  0.00     0.064 A 
ATOM     80  C   UNL     1      -6.536  13.522   4.561  1.00  0.00     0.173 A 
ATOM     81  C   UNL     1      -4.488  12.792   5.574  1.00  0.00     0.173 A 
ATOM     82  F   UNL     1      -7.203  14.197   3.613  1.00  0.00    -0.203 F 
ATOM     83  C   UNL     1      -7.258  12.927   5.594  1.00  0.00     0.198 A 
ATOM     84  C   UNL     1      -5.213  12.164   6.585  1.00  0.00     0.198 A 
ATOM     85  F   UNL     1      -3.149  12.731   5.610  1.00  0.00    -0.203 F 
ATOM     86  F   UNL     1      -8.593  13.047   5.630  1.00  0.00    -0.200 F 
ATOM     87  C   UNL     1      -6.596  12.247   6.605  1.00  0.00     0.200 A 
ATOM     88  F   UNL     1      -4.569  11.498   7.553  1.00  0.00    -0.200 F 
ATOM     89  F   UNL     1      -7.290  11.689   7.606  1.00  0.00    -0.200 F 
ENDBRANCH  55  79
BRANCH  67  90
ATOM     90  C   UNL     1      -4.667  20.280   3.059  1.00  0.00     0.064 A 
ATOM     91  C   UNL     1      -4.407  20.752   4.354  1.00  0.00     0.173 A 
ATOM     92  C   UNL     1      -5.581  20.999   2.272  1.00  0.00     0.173 A 
ATOM     93  F   UNL     1      -3.550  20.097   5.152  1.00  0.00    -0.203 F 
ATOM     94  C   UNL     1      -5.063  21.875   4.853  1.00  0.00     0.198 A 
ATOM     95  C   UNL     1      -6.207  22.143   2.760  1.00  0.00     0.198 A 
ATOM     96  F   UNL     1      -5.859  20.600   1.022  1.00  0.00    -0.203 F 
ATOM     97  F   UNL     1      -4.843  22.270   6.115  1.00  0.00    -0.200 F 
ATOM     98  C   UNL     1      -5.956  22.573   4.054  1.00  0.00     0.200 A 
ATOM     99  F   UNL     1      -7.053  22.827   1.979  1.00  0.00    -0.200 F 
ATOM    100  F   UNL     1      -6.580  23.657   4.534  1.00  0.00    -0.200 F 
ENDBRANCH  67  90
ENDBRANCH  41  42
ENDBRANCH  34  36
ENDBRANCH  33  34
ENDBRANCH  32  33
ENDBRANCH  31  32
ENDBRANCH  30  31
ENDBRANCH  29  30
ENDBRANCH  28  29
ENDBRANCH  27  28
ENDBRANCH   1  27
TORSDOF 23
