REMARK SMILES CCn1c(N2CCC(C(=O)OCCOCCOCCOCCOC(=O)c3ccc(-c4c5nc(c(-c6c(F)c(F)c(F)c(F)c6F)c6ccc([nH]6)c(-c6c(F)c(F)c(F)c(F)c6F)c6nc(c(-c7c(F)c(F)c(F)c(F)c7F)c7ccc4[nH]7)C=C6)C=C5)cc3)CC2)nc2cc(C)ccc21
REMARK SMILES IDX 17 1 16 2 15 3 14 4 13 5 12 6 11 7 9 8 10 9 8 10 5 11 6 12
REMARK SMILES IDX 90 13 7 14 89 15 4 16 3 17 98 18 91 19 92 20 97 21 93 22
REMARK SMILES IDX 96 23 94 24 95 25 2 26 1 27 18 28 19 29 20 30 21 31 22 32
REMARK SMILES IDX 23 33 24 34 25 35 26 36 27 37 88 38 28 39 87 40 29 41 30 42
REMARK SMILES IDX 31 43 81 44 32 45 86 46 80 47 82 48 33 49 85 50 79 51 78 52
REMARK SMILES IDX 34 54 66 55 46 56 65 57 47 58 50 59 64 60 83 61 48 62 49 63
REMARK SMILES IDX 63 65 84 66 51 67 35 68 36 69 44 70 37 71 38 72 42 73 45 74
REMARK SMILES IDX 39 75 40 76 43 77 41 78 67 79 68 80 76 81 69 82 70 83 74 84
REMARK SMILES IDX 77 85 71 86 72 87 75 88 73 89 52 90 53 91 61 92 54 93 55 94
REMARK SMILES IDX 59 95 62 96 56 97 57 98 60 99 58 100
REMARK H PARENT 82 53 50 64
REMARK Flexibility Score: inf
ROOT
ATOM      1  O   UNL     1       5.334   3.287   4.298  1.00  0.00    -0.377 OA
ENDROOT
BRANCH   1   2
ATOM      2  C   UNL     1       5.646   3.751   3.009  1.00  0.00     0.188 C 
BRANCH   2   3
ATOM      3  C   UNL     1       5.018   5.112   2.713  1.00  0.00     0.188 C 
BRANCH   3   4
ATOM      4  O   UNL     1       4.943   6.131   3.699  1.00  0.00    -0.376 OA
BRANCH   4   5
ATOM      5  C   UNL     1       4.460   5.897   5.014  1.00  0.00     0.202 C 
BRANCH   5   6
ATOM      6  C   UNL     1       3.096   5.275   5.345  1.00  0.00     0.261 C 
BRANCH   6   7
ATOM      7  O   UNL     1       2.837   4.015   4.727  1.00  0.00    -0.463 OA
BRANCH   7   8
ATOM      8  C   UNL     1       2.069   4.085   3.623  1.00  0.00     0.309 C 
ATOM      9  O   UNL     1       1.578   5.114   3.169  1.00  0.00    -0.252 OA
BRANCH   8  10
ATOM     10  C   UNL     1       1.859   2.758   2.949  1.00  0.00     0.103 C 
ATOM     11  N   UNL     1       1.176   0.121   2.213  1.00  0.00    -0.342 N 
ATOM     12  C   UNL     1       2.579   0.513   2.254  1.00  0.00     0.120 C 
ATOM     13  C   UNL     1       0.115   1.123   2.266  1.00  0.00     0.120 C 
ATOM     14  C   UNL     1       2.803   1.608   3.278  1.00  0.00     0.037 C 
ATOM     15  C   UNL     1       0.442   2.268   3.216  1.00  0.00     0.037 C 
BRANCH  11  16
ATOM     16  C   UNL     1       0.915  -1.178   2.459  1.00  0.00     0.206 A 
ATOM     17  N   UNL     1       0.529  -2.052   1.466  1.00  0.00    -0.310 N 
ATOM     18  C   UNL     1       0.580  -3.327   2.004  1.00  0.00     0.070 A 
ATOM     19  N   UNL     1       1.212  -1.811   3.571  1.00  0.00    -0.213 NA
ATOM     20  C   UNL     1       1.010  -3.137   3.311  1.00  0.00     0.091 A 
ATOM     21  C   UNL     1       0.317  -4.597   1.478  1.00  0.00     0.029 A 
ATOM     22  C   UNL     1       1.200  -4.248   4.147  1.00  0.00     0.034 A 
ATOM     23  C   UNL     1       0.515  -5.695   2.323  1.00  0.00     0.006 A 
ATOM     24  C   UNL     1       0.949  -5.537   3.645  1.00  0.00    -0.049 A 
ATOM     25  C   UNL     1       1.162  -6.731   4.529  1.00  0.00     0.044 C 
BRANCH  17  26
ATOM     26  C   UNL     1       0.158  -1.792   0.088  1.00  0.00     0.122 C 
ATOM     27  C   UNL     1       0.744  -0.591  -0.639  1.00  0.00     0.028 C 
ENDBRANCH  17  26
ENDBRANCH  11  16
ENDBRANCH   8  10
ENDBRANCH   7   8
ENDBRANCH   6   7
ENDBRANCH   5   6
ENDBRANCH   4   5
ENDBRANCH   3   4
ENDBRANCH   2   3
ENDBRANCH   1   2
BRANCH   1  28
ATOM     28  C   UNL     1       6.362   3.199   5.269  1.00  0.00     0.188 C 
BRANCH  28  29
ATOM     29  C   UNL     1       7.573   4.142   5.156  1.00  0.00     0.188 C 
BRANCH  29  30
ATOM     30  O   UNL     1       8.331   3.951   3.972  1.00  0.00    -0.376 OA
BRANCH  30  31
ATOM     31  C   UNL     1       9.432   3.054   4.008  1.00  0.00     0.202 C 
BRANCH  31  32
ATOM     32  C   UNL     1       9.170   1.593   4.413  1.00  0.00     0.261 C 
BRANCH  32  33
ATOM     33  O   UNL     1       8.649   1.432   5.744  1.00  0.00    -0.460 OA
BRANCH  33  34
ATOM     34  C   UNL     1       9.467   1.655   6.805  1.00  0.00     0.338 C 
ATOM     35  O   UNL     1      10.665   1.707   6.801  1.00  0.00    -0.246 OA
BRANCH  34  36
ATOM     36  C   UNL     1       8.568   2.227   7.852  1.00  0.00     0.060 A 
ATOM     37  C   UNL     1       7.288   1.712   8.097  1.00  0.00     0.016 A 
ATOM     38  C   UNL     1       8.923   3.499   8.322  1.00  0.00     0.016 A 
ATOM     39  C   UNL     1       6.333   2.525   8.712  1.00  0.00     0.010 A 
ATOM     40  C   UNL     1       7.954   4.324   8.887  1.00  0.00     0.010 A 
ATOM     41  C   UNL     1       6.647   3.853   9.050  1.00  0.00    -0.014 A 
BRANCH  41  42
ATOM     42  C   UNL     1       5.660   4.640   9.805  1.00  0.00     0.031 A 
ATOM     43  C   UNL     1       5.477   4.130  11.192  1.00  0.00     0.074 A 
ATOM     44  C   UNL     1       5.109   5.815   9.425  1.00  0.00     0.049 A 
ATOM     45  N   UNL     1       4.388   3.791  11.800  1.00  0.00    -0.248 NA
ATOM     46  C   UNL     1       6.707   3.877  11.967  1.00  0.00     0.031 C 
ATOM     47  C   UNL     1       5.453   6.603   8.244  1.00  0.00     0.029 A 
ATOM     48  N   UNL     1       4.191   6.613  10.064  1.00  0.00    -0.354 N 
ATOM     49  C   UNL     1       4.782   3.438  13.088  1.00  0.00     0.074 A 
ATOM     50  C   UNL     1       6.218   3.361  13.089  1.00  0.00     0.031 C 
ATOM     51  C   UNL     1       4.880   7.824   8.327  1.00  0.00     0.029 A 
ATOM     52  C   UNL     1       4.091   7.904   9.543  1.00  0.00     0.049 A 
ATOM     53  H   UNL     1       3.650   6.301  10.824  1.00  0.00     0.167 HD
ATOM     54  C   UNL     1       3.927   3.479  14.141  1.00  0.00     0.037 A 
ATOM     55  C   UNL     1       3.490   8.991  10.100  1.00  0.00     0.037 A 
ATOM     56  C   UNL     1       2.555   3.389  13.734  1.00  0.00     0.049 A 
ATOM     57  C   UNL     1       2.580   8.511  11.166  1.00  0.00     0.074 A 
ATOM     58  C   UNL     1       1.812   2.446  13.053  1.00  0.00     0.029 A 
ATOM     59  N   UNL     1       1.796   4.530  13.735  1.00  0.00    -0.354 N 
ATOM     60  N   UNL     1       1.474   7.857  10.955  1.00  0.00    -0.248 NA
ATOM     61  C   UNL     1       3.122   8.414  12.512  1.00  0.00     0.031 C 
ATOM     62  C   UNL     1       0.877   3.193  12.281  1.00  0.00     0.029 A 
ATOM     63  C   UNL     1       1.080   4.543  12.566  1.00  0.00     0.049 A 
ATOM     64  H   UNL     1       1.770   5.213  14.443  1.00  0.00     0.167 HD
ATOM     65  C   UNL     1       1.419   6.932  11.986  1.00  0.00     0.074 A 
ATOM     66  C   UNL     1       2.409   7.379  12.959  1.00  0.00     0.031 C 
ATOM     67  C   UNL     1       0.774   5.742  11.823  1.00  0.00     0.037 A 
BRANCH  54  68
ATOM     68  C   UNL     1       4.364   3.945  15.501  1.00  0.00     0.064 A 
ATOM     69  C   UNL     1       3.562   3.691  16.624  1.00  0.00     0.173 A 
ATOM     70  C   UNL     1       5.424   4.861  15.693  1.00  0.00     0.173 A 
ATOM     71  F   UNL     1       2.494   2.885  16.530  1.00  0.00    -0.203 F 
ATOM     72  C   UNL     1       3.796   4.325  17.848  1.00  0.00     0.198 A 
ATOM     73  C   UNL     1       5.692   5.443  16.928  1.00  0.00     0.198 A 
ATOM     74  F   UNL     1       6.167   5.308  14.671  1.00  0.00    -0.203 F 
ATOM     75  F   UNL     1       2.946   4.137  18.866  1.00  0.00    -0.200 F 
ATOM     76  C   UNL     1       4.864   5.193  18.000  1.00  0.00     0.200 A 
ATOM     77  F   UNL     1       6.714   6.302  17.044  1.00  0.00    -0.200 F 
ATOM     78  F   UNL     1       5.064   5.830  19.161  1.00  0.00    -0.200 F 
ENDBRANCH  54  68
BRANCH  55  79
ATOM     79  C   UNL     1       3.863  10.432   9.986  1.00  0.00     0.064 A 
ATOM     80  C   UNL     1       3.000  11.455  10.426  1.00  0.00     0.173 A 
ATOM     81  C   UNL     1       5.182  10.830   9.691  1.00  0.00     0.173 A 
ATOM     82  F   UNL     1       1.739  11.170  10.781  1.00  0.00    -0.203 F 
ATOM     83  C   UNL     1       3.438  12.778  10.580  1.00  0.00     0.198 A 
ATOM     84  C   UNL     1       5.612  12.151   9.828  1.00  0.00     0.198 A 
ATOM     85  F   UNL     1       6.116   9.930   9.354  1.00  0.00    -0.203 F 
ATOM     86  F   UNL     1       2.604  13.709  11.066  1.00  0.00    -0.200 F 
ATOM     87  C   UNL     1       4.746  13.123  10.288  1.00  0.00     0.200 A 
ATOM     88  F   UNL     1       6.892  12.459   9.575  1.00  0.00    -0.200 F 
ATOM     89  F   UNL     1       5.184  14.373  10.490  1.00  0.00    -0.200 F 
ENDBRANCH  55  79
BRANCH  67  90
ATOM     90  C   UNL     1      -0.128   5.587  10.632  1.00  0.00     0.064 A 
ATOM     91  C   UNL     1       0.318   5.611   9.299  1.00  0.00     0.173 A 
ATOM     92  C   UNL     1      -1.466   5.239  10.861  1.00  0.00     0.173 A 
ATOM     93  F   UNL     1       1.603   5.852   9.003  1.00  0.00    -0.203 F 
ATOM     94  C   UNL     1      -0.549   5.323   8.245  1.00  0.00     0.198 A 
ATOM     95  C   UNL     1      -2.320   4.918   9.810  1.00  0.00     0.198 A 
ATOM     96  F   UNL     1      -1.933   5.155  12.117  1.00  0.00    -0.203 F 
ATOM     97  F   UNL     1      -0.101   5.351   6.981  1.00  0.00    -0.200 F 
ATOM     98  C   UNL     1      -1.863   4.966   8.503  1.00  0.00     0.200 A 
ATOM     99  F   UNL     1      -3.576   4.528  10.068  1.00  0.00    -0.200 F 
ATOM    100  F   UNL     1      -2.683   4.639   7.494  1.00  0.00    -0.200 F 
ENDBRANCH  67  90
ENDBRANCH  41  42
ENDBRANCH  34  36
ENDBRANCH  33  34
ENDBRANCH  32  33
ENDBRANCH  31  32
ENDBRANCH  30  31
ENDBRANCH  29  30
ENDBRANCH  28  29
ENDBRANCH   1  28
TORSDOF 22
