REMARK SMILES CC(C)C[C@H](NC(N)=O)C(=O)N[C@@H](C(=O)OCCOCCOCCOCCOC(=O)c1ccc(-c2c3nc(c(-c4c(F)c(F)c(F)c(F)c4F)c4ccc([nH]4)c(-c4c(F)c(F)c(F)c(F)c4F)c4nc(c(-c5c(F)c(F)c(F)c(F)c5F)c5ccc2[nH]5)C=C4)C=C3)cc1)C(C)C
REMARK SMILES IDX 21 1 20 2 19 3 18 4 17 5 16 6 14 7 15 8 13 9 12 10 10 11
REMARK SMILES IDX 11 12 5 14 4 15 2 16 1 17 3 18 6 19 7 20 8 22 9 23 94 26
REMARK SMILES IDX 95 27 96 28 22 29 23 30 24 31 25 32 26 33 27 34 28 35 29 36
REMARK SMILES IDX 30 37 31 38 32 39 93 40 33 41 92 42 34 43 35 44 36 45 86 46
REMARK SMILES IDX 37 47 91 48 85 49 87 50 38 51 90 52 84 53 83 54 39 56 71 57
REMARK SMILES IDX 51 58 70 59 52 60 55 61 69 62 88 63 53 64 54 65 68 67 89 68
REMARK SMILES IDX 56 69 40 70 41 71 49 72 42 73 43 74 47 75 50 76 44 77 45 78
REMARK SMILES IDX 48 79 46 80 72 81 73 82 81 83 74 84 75 85 79 86 82 87 76 88
REMARK SMILES IDX 77 89 80 90 78 91 57 92 58 93 66 94 59 95 60 96 64 97 67 98
REMARK SMILES IDX 61 99 62 100 65 101 63 102
REMARK H PARENT 12 13 6 21 8 24 8 25 87 55 55 66
REMARK Flexibility Score: inf
ROOT
ATOM      1  C   UNL     1      -5.653  -3.639   0.593  1.00  0.00     0.188 C 
ENDROOT
BRANCH   1   2
ATOM      2  C   UNL     1      -5.343  -5.123   0.813  1.00  0.00     0.188 C 
BRANCH   2   3
ATOM      3  O   UNL     1      -5.214  -5.555   2.147  1.00  0.00    -0.376 OA
BRANCH   3   4
ATOM      4  C   UNL     1      -4.092  -5.167   2.926  1.00  0.00     0.202 C 
BRANCH   4   5
ATOM      5  C   UNL     1      -2.842  -4.390   2.437  1.00  0.00     0.261 C 
BRANCH   5   6
ATOM      6  O   UNL     1      -2.895  -3.728   1.165  1.00  0.00    -0.462 OA
BRANCH   6   7
ATOM      7  C   UNL     1      -2.089  -4.201   0.178  1.00  0.00     0.328 C 
ATOM      8  O   UNL     1      -1.289  -5.115   0.343  1.00  0.00    -0.250 OA
BRANCH   7   9
ATOM      9  C   UNL     1      -2.404  -3.577  -1.216  1.00  0.00     0.194 C 
BRANCH   9  10
ATOM     10  N   UNL     1      -3.087  -2.258  -1.157  1.00  0.00    -0.341 N 
ATOM     11  C   UNL     1      -2.607  -0.984  -1.091  1.00  0.00     0.243 C 
ATOM     12  O   UNL     1      -3.423  -0.067  -0.968  1.00  0.00    -0.273 OA
ATOM     13  H   UNL     1      -4.069  -2.315  -1.167  1.00  0.00     0.164 HD
BRANCH  11  14
ATOM     14  C   UNL     1      -1.109  -0.708  -1.214  1.00  0.00     0.173 C 
BRANCH  14  15
ATOM     15  C   UNL     1      -0.534  -1.105  -2.595  1.00  0.00     0.038 C 
BRANCH  15  16
ATOM     16  C   UNL     1      -1.540  -1.190  -3.769  1.00  0.00    -0.015 C 
ATOM     17  C   UNL     1      -2.157   0.138  -4.193  1.00  0.00     0.007 C 
ATOM     18  C   UNL     1      -0.920  -1.905  -4.971  1.00  0.00     0.007 C 
ENDBRANCH  15  16
ENDBRANCH  14  15
BRANCH  14  19
ATOM     19  N   UNL     1      -0.560  -1.355  -0.017  1.00  0.00    -0.327 N 
ATOM     20  C   UNL     1       0.677  -1.876   0.148  1.00  0.00     0.312 C 
ATOM     21  H   UNL     1      -1.164  -1.416   0.758  1.00  0.00     0.166 HD
ATOM     22  N   UNL     1       0.819  -2.473   1.358  1.00  0.00    -0.352 N 
ATOM     23  O   UNL     1       1.574  -1.882  -0.678  1.00  0.00    -0.249 OA
ATOM     24  H   UNL     1       0.079  -2.453   2.006  1.00  0.00     0.161 HD
ATOM     25  H   UNL     1       1.663  -2.926   1.587  1.00  0.00     0.161 HD
ENDBRANCH  14  19
ENDBRANCH  11  14
ENDBRANCH   9  10
BRANCH   9  26
ATOM     26  C   UNL     1      -3.242  -4.588  -2.071  1.00  0.00     0.017 C 
ATOM     27  C   UNL     1      -3.512  -4.122  -3.502  1.00  0.00     0.010 C 
ATOM     28  C   UNL     1      -2.613  -5.985  -2.123  1.00  0.00     0.010 C 
ENDBRANCH   9  26
ENDBRANCH   7   9
ENDBRANCH   6   7
ENDBRANCH   5   6
ENDBRANCH   4   5
ENDBRANCH   3   4
ENDBRANCH   2   3
ENDBRANCH   1   2
BRANCH   1  29
ATOM     29  O   UNL     1      -5.303  -2.794   1.668  1.00  0.00    -0.377 OA
BRANCH  29  30
ATOM     30  C   UNL     1      -6.288  -2.583   2.670  1.00  0.00     0.188 C 
BRANCH  30  31
ATOM     31  C   UNL     1      -7.455  -3.584   2.821  1.00  0.00     0.188 C 
BRANCH  31  32
ATOM     32  O   UNL     1      -8.041  -4.028   1.605  1.00  0.00    -0.376 OA
BRANCH  32  33
ATOM     33  C   UNL     1      -9.175  -3.355   1.078  1.00  0.00     0.202 C 
BRANCH  33  34
ATOM     34  C   UNL     1      -9.050  -1.865   0.712  1.00  0.00     0.261 C 
BRANCH  34  35
ATOM     35  O   UNL     1      -8.660  -0.980   1.773  1.00  0.00    -0.460 OA
BRANCH  35  36
ATOM     36  C   UNL     1      -9.422  -0.966   2.882  1.00  0.00     0.338 C 
ATOM     37  O   UNL     1     -10.474  -1.561   3.064  1.00  0.00    -0.246 OA
BRANCH  36  38
ATOM     38  C   UNL     1      -8.672  -0.276   3.950  1.00  0.00     0.060 A 
ATOM     39  C   UNL     1      -8.421  -0.971   5.139  1.00  0.00     0.016 A 
ATOM     40  C   UNL     1      -8.242   1.044   3.795  1.00  0.00     0.016 A 
ATOM     41  C   UNL     1      -7.803  -0.328   6.206  1.00  0.00     0.010 A 
ATOM     42  C   UNL     1      -7.646   1.700   4.877  1.00  0.00     0.010 A 
ATOM     43  C   UNL     1      -7.478   1.030   6.103  1.00  0.00    -0.014 A 
BRANCH  43  44
ATOM     44  C   UNL     1      -7.220   1.784   7.353  1.00  0.00     0.031 A 
ATOM     45  C   UNL     1      -8.366   2.540   7.971  1.00  0.00     0.074 A 
ATOM     46  C   UNL     1      -6.031   1.722   7.976  1.00  0.00     0.049 A 
ATOM     47  N   UNL     1      -8.406   3.236   9.078  1.00  0.00    -0.248 NA
ATOM     48  C   UNL     1      -9.644   2.499   7.241  1.00  0.00     0.031 C 
ATOM     49  C   UNL     1      -4.866   0.980   7.503  1.00  0.00     0.029 A 
ATOM     50  N   UNL     1      -5.616   2.293   9.153  1.00  0.00    -0.354 N 
ATOM     51  C   UNL     1      -9.707   3.717   9.171  1.00  0.00     0.074 A 
ATOM     52  C   UNL     1     -10.414   3.268   7.993  1.00  0.00     0.031 C 
ATOM     53  C   UNL     1      -3.862   1.143   8.383  1.00  0.00     0.029 A 
ATOM     54  C   UNL     1      -4.307   2.023   9.463  1.00  0.00     0.049 A 
ATOM     55  H   UNL     1      -6.202   2.844   9.721  1.00  0.00     0.167 HD
ATOM     56  C   UNL     1     -10.266   4.455  10.159  1.00  0.00     0.037 A 
ATOM     57  C   UNL     1      -3.555   2.454  10.495  1.00  0.00     0.037 A 
ATOM     58  C   UNL     1      -9.560   4.899  11.331  1.00  0.00     0.049 A 
ATOM     59  C   UNL     1      -4.181   3.341  11.542  1.00  0.00     0.074 A 
ATOM     60  C   UNL     1     -10.036   5.641  12.397  1.00  0.00     0.029 A 
ATOM     61  N   UNL     1      -8.218   4.651  11.584  1.00  0.00    -0.354 N 
ATOM     62  N   UNL     1      -5.417   3.769  11.640  1.00  0.00    -0.248 NA
ATOM     63  C   UNL     1      -3.305   3.796  12.631  1.00  0.00     0.031 C 
ATOM     64  C   UNL     1      -8.968   5.896  13.263  1.00  0.00     0.029 A 
ATOM     65  C   UNL     1      -7.843   5.253  12.775  1.00  0.00     0.049 A 
ATOM     66  H   UNL     1      -7.622   4.124  11.004  1.00  0.00     0.167 HD
ATOM     67  C   UNL     1      -5.474   4.517  12.810  1.00  0.00     0.074 A 
ATOM     68  C   UNL     1      -4.153   4.462  13.400  1.00  0.00     0.031 C 
ATOM     69  C   UNL     1      -6.522   5.189  13.349  1.00  0.00     0.037 A 
BRANCH  56  70
ATOM     70  C   UNL     1     -11.704   4.856   9.995  1.00  0.00     0.064 A 
ATOM     71  C   UNL     1     -12.750   3.922  10.062  1.00  0.00     0.173 A 
ATOM     72  C   UNL     1     -12.043   6.202   9.786  1.00  0.00     0.173 A 
ATOM     73  F   UNL     1     -12.481   2.620  10.242  1.00  0.00    -0.203 F 
ATOM     74  C   UNL     1     -14.076   4.316   9.899  1.00  0.00     0.198 A 
ATOM     75  C   UNL     1     -13.371   6.598   9.658  1.00  0.00     0.198 A 
ATOM     76  F   UNL     1     -11.083   7.137   9.713  1.00  0.00    -0.203 F 
ATOM     77  F   UNL     1     -15.052   3.399   9.912  1.00  0.00    -0.200 F 
ATOM     78  C   UNL     1     -14.386   5.654   9.705  1.00  0.00     0.200 A 
ATOM     79  F   UNL     1     -13.669   7.893   9.485  1.00  0.00    -0.200 F 
ATOM     80  F   UNL     1     -15.662   6.033   9.556  1.00  0.00    -0.200 F 
ENDBRANCH  56  70
BRANCH  57  81
ATOM     81  C   UNL     1      -2.122   2.066  10.587  1.00  0.00     0.064 A 
ATOM     82  C   UNL     1      -1.653   1.252  11.628  1.00  0.00     0.173 A 
ATOM     83  C   UNL     1      -1.184   2.529   9.652  1.00  0.00     0.173 A 
ATOM     84  F   UNL     1      -2.505   0.803  12.562  1.00  0.00    -0.203 F 
ATOM     85  C   UNL     1      -0.300   0.938  11.744  1.00  0.00     0.198 A 
ATOM     86  C   UNL     1       0.163   2.187   9.749  1.00  0.00     0.198 A 
ATOM     87  F   UNL     1      -1.578   3.312   8.637  1.00  0.00    -0.203 F 
ATOM     88  F   UNL     1       0.128   0.205  12.781  1.00  0.00    -0.200 F 
ATOM     89  C   UNL     1       0.606   1.401  10.802  1.00  0.00     0.200 A 
ATOM     90  F   UNL     1       1.031   2.624   8.827  1.00  0.00    -0.200 F 
ATOM     91  F   UNL     1       1.906   1.096  10.912  1.00  0.00    -0.200 F 
ENDBRANCH  57  81
BRANCH  69  92
ATOM     92  C   UNL     1      -6.292   5.888  14.661  1.00  0.00     0.064 A 
ATOM     93  C   UNL     1      -5.459   7.013  14.765  1.00  0.00     0.173 A 
ATOM     94  C   UNL     1      -6.930   5.438  15.827  1.00  0.00     0.173 A 
ATOM     95  F   UNL     1      -4.816   7.480  13.684  1.00  0.00    -0.203 F 
ATOM     96  C   UNL     1      -5.239   7.631  15.994  1.00  0.00     0.198 A 
ATOM     97  C   UNL     1      -6.740   6.083  17.046  1.00  0.00     0.198 A 
ATOM     98  F   UNL     1      -7.747   4.375  15.784  1.00  0.00    -0.203 F 
ATOM     99  F   UNL     1      -4.386   8.661  16.080  1.00  0.00    -0.200 F 
ATOM    100  C   UNL     1      -5.885   7.170  17.131  1.00  0.00     0.200 A 
ATOM    101  F   UNL     1      -7.380   5.647  18.140  1.00  0.00    -0.200 F 
ATOM    102  F   UNL     1      -5.673   7.767  18.312  1.00  0.00    -0.200 F 
ENDBRANCH  69  92
ENDBRANCH  43  44
ENDBRANCH  36  38
ENDBRANCH  35  36
ENDBRANCH  34  35
ENDBRANCH  33  34
ENDBRANCH  32  33
ENDBRANCH  31  32
ENDBRANCH  30  31
ENDBRANCH  29  30
ENDBRANCH   1  29
TORSDOF 26
