REMARK SMILES Cc1ccccc1CNC(=O)N1CCC(CC(=O)OCCOCCOCCOCCOC(=O)c2ccc(-c3c4nc(c(-c5c(F)c(F)c(F)c(F)c5F)c5ccc([nH]5)c(-c5c(F)c(F)c(F)c(F)c5F)c5nc(c(-c6c(F)c(F)c(F)c(F)c6F)c6ccc3[nH]6)C=C5)C=C4)cc2)CC1
REMARK SMILES IDX 24 1 23 2 22 3 21 4 20 5 19 6 17 7 18 8 16 9 15 10 9 11
REMARK SMILES IDX 10 12 11 14 12 15 13 16 98 17 14 18 97 19 8 20 7 21 1 22
REMARK SMILES IDX 2 23 3 24 4 25 6 26 5 27 25 28 26 29 27 30 28 31 29 32 30 33
REMARK SMILES IDX 31 34 32 35 33 36 34 37 35 38 96 39 36 40 95 41 37 42 38 43
REMARK SMILES IDX 39 44 89 45 40 46 94 47 88 48 90 49 41 50 93 51 87 52 86 53
REMARK SMILES IDX 42 55 74 56 54 57 73 58 55 59 58 60 72 61 91 62 56 63 57 64
REMARK SMILES IDX 71 66 92 67 59 68 43 69 44 70 52 71 45 72 46 73 50 74 53 75
REMARK SMILES IDX 47 76 48 77 51 78 49 79 75 80 76 81 84 82 77 83 78 84 82 85
REMARK SMILES IDX 85 86 79 87 80 88 83 89 81 90 60 91 61 92 69 93 62 94 63 95
REMARK SMILES IDX 67 96 70 97 64 98 65 99 68 100 66 101
REMARK H PARENT 9 13 90 54 58 65
REMARK Flexibility Score: inf
ROOT
ATOM      1  C   UNL     1      -0.874   6.556   4.327  1.00  0.00     0.188 C 
ENDROOT
BRANCH   1   2
ATOM      2  C   UNL     1      -0.075   7.636   5.049  1.00  0.00     0.188 C 
BRANCH   2   3
ATOM      3  O   UNL     1      -0.793   8.693   5.665  1.00  0.00    -0.376 OA
BRANCH   3   4
ATOM      4  C   UNL     1      -1.006   9.822   4.819  1.00  0.00     0.202 C 
BRANCH   4   5
ATOM      5  C   UNL     1       0.244  10.571   4.349  1.00  0.00     0.261 C 
BRANCH   5   6
ATOM      6  O   UNL     1       0.743  10.021   3.111  1.00  0.00    -0.463 OA
BRANCH   6   7
ATOM      7  C   UNL     1       1.984   9.473   3.136  1.00  0.00     0.306 C 
ATOM      8  O   UNL     1       2.732   9.469   4.092  1.00  0.00    -0.252 OA
BRANCH   7   9
ATOM      9  C   UNL     1       2.273   8.747   1.837  1.00  0.00     0.126 C 
BRANCH   9  10
ATOM     10  C   UNL     1       1.533   7.401   1.722  1.00  0.00     0.003 C 
ATOM     11  N   UNL     1       0.759   3.186  -1.088  1.00  0.00    -0.334 N 
ATOM     12  C   UNL     1       0.313   4.456  -0.956  1.00  0.00     0.317 C 
ATOM     13  H   UNL     1       0.856   2.855  -2.010  1.00  0.00     0.165 HD
ATOM     14  O   UNL     1      -0.332   4.942  -1.884  1.00  0.00    -0.249 OA
ATOM     15  N   UNL     1       0.540   5.119   0.217  1.00  0.00    -0.325 N 
ATOM     16  C   UNL     1      -0.406   6.135   0.625  1.00  0.00     0.121 C 
ATOM     17  C   UNL     1       1.708   4.979   1.082  1.00  0.00     0.121 C 
ATOM     18  C   UNL     1       0.271   7.487   0.845  1.00  0.00     0.026 C 
ATOM     19  C   UNL     1       2.455   6.303   1.193  1.00  0.00     0.026 C 
BRANCH  11  20
ATOM     20  C   UNL     1       1.111   2.259  -0.039  1.00  0.00     0.153 C 
BRANCH  20  21
ATOM     21  C   UNL     1       0.381   0.946  -0.144  1.00  0.00    -0.026 A 
ATOM     22  C   UNL     1       2.524  -0.485  -0.069  1.00  0.00     0.044 C 
ATOM     23  C   UNL     1       1.030  -0.302  -0.102  1.00  0.00    -0.046 A 
ATOM     24  C   UNL     1       0.247  -1.470  -0.079  1.00  0.00     0.004 A 
ATOM     25  C   UNL     1      -1.147  -1.410  -0.084  1.00  0.00     0.000 A 
ATOM     26  C   UNL     1      -1.030   0.988  -0.157  1.00  0.00     0.006 A 
ATOM     27  C   UNL     1      -1.788  -0.179  -0.126  1.00  0.00     0.000 A 
ENDBRANCH  20  21
ENDBRANCH  11  20
ENDBRANCH   9  10
ENDBRANCH   7   9
ENDBRANCH   6   7
ENDBRANCH   5   6
ENDBRANCH   4   5
ENDBRANCH   3   4
ENDBRANCH   2   3
ENDBRANCH   1   2
BRANCH   1  28
ATOM     28  O   UNL     1      -1.555   7.013   3.172  1.00  0.00    -0.377 OA
BRANCH  28  29
ATOM     29  C   UNL     1      -2.965   7.153   3.187  1.00  0.00     0.188 C 
BRANCH  29  30
ATOM     30  C   UNL     1      -3.735   6.418   4.255  1.00  0.00     0.188 C 
BRANCH  30  31
ATOM     31  O   UNL     1      -3.442   7.078   5.483  1.00  0.00    -0.376 OA
BRANCH  31  32
ATOM     32  C   UNL     1      -3.505   6.286   6.660  1.00  0.00     0.202 C 
BRANCH  32  33
ATOM     33  C   UNL     1      -4.855   5.592   6.830  1.00  0.00     0.261 C 
BRANCH  33  34
ATOM     34  O   UNL     1      -5.873   6.604   7.010  1.00  0.00    -0.460 OA
BRANCH  34  35
ATOM     35  C   UNL     1      -6.611   6.898   5.903  1.00  0.00     0.338 C 
ATOM     36  O   UNL     1      -7.199   6.069   5.221  1.00  0.00    -0.246 OA
BRANCH  35  37
ATOM     37  C   UNL     1      -6.354   8.305   5.449  1.00  0.00     0.060 A 
ATOM     38  C   UNL     1      -6.796   8.732   4.183  1.00  0.00     0.016 A 
ATOM     39  C   UNL     1      -5.363   9.034   6.087  1.00  0.00     0.016 A 
ATOM     40  C   UNL     1      -6.109   9.751   3.483  1.00  0.00     0.010 A 
ATOM     41  C   UNL     1      -4.618   9.934   5.339  1.00  0.00     0.010 A 
ATOM     42  C   UNL     1      -4.943  10.296   4.017  1.00  0.00    -0.014 A 
BRANCH  42  43
ATOM     43  C   UNL     1      -3.924  11.122   3.305  1.00  0.00     0.031 A 
ATOM     44  C   UNL     1      -3.312  12.298   4.040  1.00  0.00     0.074 A 
ATOM     45  C   UNL     1      -3.290  10.667   2.183  1.00  0.00     0.049 A 
ATOM     46  N   UNL     1      -2.288  12.974   3.641  1.00  0.00    -0.248 NA
ATOM     47  C   UNL     1      -3.787  12.800   5.329  1.00  0.00     0.031 C 
ATOM     48  C   UNL     1      -1.906  10.982   1.808  1.00  0.00     0.029 A 
ATOM     49  N   UNL     1      -3.659   9.754   1.185  1.00  0.00    -0.354 N 
ATOM     50  C   UNL     1      -1.785  13.733   4.679  1.00  0.00     0.074 A 
ATOM     51  C   UNL     1      -2.804  13.636   5.692  1.00  0.00     0.031 C 
ATOM     52  C   UNL     1      -1.552  10.384   0.669  1.00  0.00     0.029 A 
ATOM     53  C   UNL     1      -2.762   9.880   0.094  1.00  0.00     0.049 A 
ATOM     54  H   UNL     1      -4.418   9.128   1.233  1.00  0.00     0.167 HD
ATOM     55  C   UNL     1      -0.521  14.254   4.556  1.00  0.00     0.037 A 
ATOM     56  C   UNL     1      -3.174  10.268  -1.149  1.00  0.00     0.037 A 
ATOM     57  C   UNL     1      -0.006  14.055   3.184  1.00  0.00     0.049 A 
ATOM     58  C   UNL     1      -2.623  11.646  -1.479  1.00  0.00     0.074 A 
ATOM     59  C   UNL     1       1.103  13.437   2.626  1.00  0.00     0.029 A 
ATOM     60  N   UNL     1      -0.822  14.406   2.108  1.00  0.00    -0.354 N 
ATOM     61  N   UNL     1      -2.330  12.526  -0.548  1.00  0.00    -0.248 NA
ATOM     62  C   UNL     1      -2.167  12.074  -2.800  1.00  0.00     0.031 C 
ATOM     63  C   UNL     1       0.905  13.360   1.216  1.00  0.00     0.029 A 
ATOM     64  C   UNL     1      -0.289  13.994   0.908  1.00  0.00     0.049 A 
ATOM     65  H   UNL     1      -1.676  14.888   2.196  1.00  0.00     0.167 HD
ATOM     66  C   UNL     1      -1.558  13.518  -1.085  1.00  0.00     0.074 A 
ATOM     67  C   UNL     1      -1.534  13.227  -2.507  1.00  0.00     0.031 C 
ATOM     68  C   UNL     1      -0.875  14.441  -0.344  1.00  0.00     0.037 A 
BRANCH  55  69
ATOM     69  C   UNL     1       0.368  14.837   5.666  1.00  0.00     0.064 A 
ATOM     70  C   UNL     1       1.668  15.328   5.369  1.00  0.00     0.173 A 
ATOM     71  C   UNL     1       0.058  14.878   7.042  1.00  0.00     0.173 A 
ATOM     72  F   UNL     1       2.116  15.407   4.109  1.00  0.00    -0.203 F 
ATOM     73  C   UNL     1       2.571  15.767   6.349  1.00  0.00     0.198 A 
ATOM     74  C   UNL     1       0.945  15.363   8.018  1.00  0.00     0.198 A 
ATOM     75  F   UNL     1      -1.103  14.431   7.521  1.00  0.00    -0.203 F 
ATOM     76  F   UNL     1       3.802  16.165   5.992  1.00  0.00    -0.200 F 
ATOM     77  C   UNL     1       2.207  15.791   7.676  1.00  0.00     0.200 A 
ATOM     78  F   UNL     1       0.561  15.395   9.304  1.00  0.00    -0.200 F 
ATOM     79  F   UNL     1       3.061  16.223   8.614  1.00  0.00    -0.200 F 
ENDBRANCH  55  69
BRANCH  56  80
ATOM     80  C   UNL     1      -4.426   9.549  -1.535  1.00  0.00     0.064 A 
ATOM     81  C   UNL     1      -4.222   8.155  -1.691  1.00  0.00     0.173 A 
ATOM     82  C   UNL     1      -5.638   9.955  -0.956  1.00  0.00     0.173 A 
ATOM     83  F   UNL     1      -3.105   7.714  -2.291  1.00  0.00    -0.203 F 
ATOM     84  C   UNL     1      -5.006   7.237  -0.994  1.00  0.00     0.198 A 
ATOM     85  C   UNL     1      -6.443   9.022  -0.289  1.00  0.00     0.198 A 
ATOM     86  F   UNL     1      -5.913  11.260  -0.816  1.00  0.00    -0.203 F 
ATOM     87  F   UNL     1      -4.630   5.951  -0.921  1.00  0.00    -0.200 F 
ATOM     88  C   UNL     1      -6.079   7.682  -0.242  1.00  0.00     0.200 A 
ATOM     89  F   UNL     1      -7.486   9.442   0.442  1.00  0.00    -0.200 F 
ATOM     90  F   UNL     1      -6.704   6.841   0.596  1.00  0.00    -0.200 F 
ENDBRANCH  56  80
BRANCH  68  91
ATOM     91  C   UNL     1      -0.681  15.890  -0.743  1.00  0.00     0.064 A 
ATOM     92  C   UNL     1      -1.320  16.480  -1.843  1.00  0.00     0.173 A 
ATOM     93  C   UNL     1      -0.008  16.799   0.121  1.00  0.00     0.173 A 
ATOM     94  F   UNL     1      -2.070  15.764  -2.689  1.00  0.00    -0.203 F 
ATOM     95  C   UNL     1      -1.260  17.854  -2.083  1.00  0.00     0.198 A 
ATOM     96  C   UNL     1      -0.006  18.175  -0.088  1.00  0.00     0.198 A 
ATOM     97  F   UNL     1       0.632  16.399   1.228  1.00  0.00    -0.203 F 
ATOM     98  F   UNL     1      -1.864  18.358  -3.168  1.00  0.00    -0.200 F 
ATOM     99  C   UNL     1      -0.620  18.702  -1.200  1.00  0.00     0.200 A 
ATOM    100  F   UNL     1       0.567  18.984   0.815  1.00  0.00    -0.200 F 
ATOM    101  F   UNL     1      -0.612  20.024  -1.411  1.00  0.00    -0.200 F 
ENDBRANCH  68  91
ENDBRANCH  42  43
ENDBRANCH  35  37
ENDBRANCH  34  35
ENDBRANCH  33  34
ENDBRANCH  32  33
ENDBRANCH  31  32
ENDBRANCH  30  31
ENDBRANCH  29  30
ENDBRANCH  28  29
ENDBRANCH   1  28
TORSDOF 23
