REMARK SMILES O=C(OCCOCCOCCOCCOC(=O)[C@@H]1C[C@@H](Br)C[NH2+]1)c1ccc(-c2c3nc(c(-c4c(F)c(F)c(F)c(F)c4F)c4ccc([nH]4)c(-c4c(F)c(F)c(F)c(F)c4F)c4nc(c(-c5c(F)c(F)c(F)c(F)c5F)c5ccc2[nH]5)C=C4)C=C3)cc1
REMARK SMILES IDX 8 1 7 2 6 3 5 4 4 5 3 6 2 7 1 8 24 9 25 10 86 11 26 12 85 13
REMARK SMILES IDX 27 14 28 15 29 16 79 17 30 18 84 19 78 20 80 21 31 22 83 23
REMARK SMILES IDX 77 24 76 25 32 27 64 28 44 29 63 30 45 31 48 32 62 33 81 34
REMARK SMILES IDX 46 35 47 36 61 38 82 39 49 40 33 41 34 42 42 43 35 44 36 45
REMARK SMILES IDX 40 46 43 47 37 48 38 49 41 50 39 51 65 52 66 53 74 54 67 55
REMARK SMILES IDX 68 56 72 57 75 58 69 59 70 60 73 61 71 62 50 63 51 64 59 65
REMARK SMILES IDX 52 66 53 67 57 68 60 69 54 70 55 71 58 72 56 73 9 74 10 75
REMARK SMILES IDX 11 76 12 77 13 78 14 79 15 80 16 81 17 82 18 83 19 84 23 85
REMARK SMILES IDX 20 86 22 87 21 90
REMARK H PARENT 80 26 48 37 23 88 23 89
REMARK Flexibility Score: inf
ROOT
ATOM      1  C   UNL     1       2.168  -2.487  -1.229  1.00  0.00     0.188 C 
ENDROOT
BRANCH   1   2
ATOM      2  C   UNL     1       2.618  -1.471  -0.184  1.00  0.00     0.188 C 
BRANCH   2   3
ATOM      3  O   UNL     1       3.912  -0.947  -0.471  1.00  0.00    -0.376 OA
BRANCH   3   4
ATOM      4  C   UNL     1       4.842  -0.859   0.608  1.00  0.00     0.202 C 
BRANCH   4   5
ATOM      5  C   UNL     1       4.479   0.101   1.735  1.00  0.00     0.261 C 
BRANCH   5   6
ATOM      6  O   UNL     1       3.108   0.521   1.769  1.00  0.00    -0.460 OA
BRANCH   6   7
ATOM      7  C   UNL     1       2.438   1.426   1.025  1.00  0.00     0.338 C 
ATOM      8  O   UNL     1       1.242   1.595   1.265  1.00  0.00    -0.246 OA
BRANCH   7   9
ATOM      9  C   UNL     1       3.028   2.238  -0.080  1.00  0.00     0.060 A 
ATOM     10  C   UNL     1       4.123   1.882  -0.865  1.00  0.00     0.016 A 
ATOM     11  C   UNL     1       2.351   3.425  -0.407  1.00  0.00     0.016 A 
ATOM     12  C   UNL     1       4.564   2.661  -1.917  1.00  0.00     0.010 A 
ATOM     13  C   UNL     1       2.794   4.238  -1.449  1.00  0.00     0.010 A 
ATOM     14  C   UNL     1       3.925   3.861  -2.180  1.00  0.00    -0.014 A 
BRANCH  14  15
ATOM     15  C   UNL     1       4.646   4.820  -3.017  1.00  0.00     0.031 A 
ATOM     16  C   UNL     1       5.410   5.882  -2.297  1.00  0.00     0.074 A 
ATOM     17  C   UNL     1       4.725   4.640  -4.342  1.00  0.00     0.049 A 
ATOM     18  N   UNL     1       5.981   6.955  -2.761  1.00  0.00    -0.248 NA
ATOM     19  C   UNL     1       5.550   5.703  -0.840  1.00  0.00     0.031 C 
ATOM     20  C   UNL     1       4.174   3.497  -5.073  1.00  0.00     0.029 A 
ATOM     21  N   UNL     1       5.306   5.413  -5.305  1.00  0.00    -0.354 N 
ATOM     22  C   UNL     1       6.488   7.610  -1.647  1.00  0.00     0.074 A 
ATOM     23  C   UNL     1       6.176   6.811  -0.487  1.00  0.00     0.031 C 
ATOM     24  C   UNL     1       4.423   3.660  -6.382  1.00  0.00     0.029 A 
ATOM     25  C   UNL     1       5.066   4.955  -6.574  1.00  0.00     0.049 A 
ATOM     26  H   UNL     1       5.842   6.215  -5.108  1.00  0.00     0.167 HD
ATOM     27  C   UNL     1       7.131   8.797  -1.620  1.00  0.00     0.037 A 
ATOM     28  C   UNL     1       5.279   5.573  -7.749  1.00  0.00     0.037 A 
ATOM     29  C   UNL     1       7.405   9.540  -2.818  1.00  0.00     0.049 A 
ATOM     30  C   UNL     1       5.893   6.947  -7.701  1.00  0.00     0.074 A 
ATOM     31  C   UNL     1       7.982  10.784  -2.962  1.00  0.00     0.029 A 
ATOM     32  N   UNL     1       7.101   9.080  -4.098  1.00  0.00    -0.354 N 
ATOM     33  N   UNL     1       6.278   7.641  -6.652  1.00  0.00    -0.248 NA
ATOM     34  C   UNL     1       6.088   7.633  -8.980  1.00  0.00     0.031 C 
ATOM     35  C   UNL     1       7.971  11.102  -4.324  1.00  0.00     0.029 A 
ATOM     36  C   UNL     1       7.459  10.025  -5.038  1.00  0.00     0.049 A 
ATOM     37  H   UNL     1       6.692   8.209  -4.302  1.00  0.00     0.167 HD
ATOM     38  C   UNL     1       6.789   8.832  -7.142  1.00  0.00     0.074 A 
ATOM     39  C   UNL     1       6.660   8.765  -8.587  1.00  0.00     0.031 C 
ATOM     40  C   UNL     1       7.322   9.883  -6.470  1.00  0.00     0.037 A 
BRANCH  27  41
ATOM     41  C   UNL     1       7.438   9.373  -0.268  1.00  0.00     0.064 A 
ATOM     42  C   UNL     1       8.360   8.786   0.612  1.00  0.00     0.173 A 
ATOM     43  C   UNL     1       6.714  10.484   0.194  1.00  0.00     0.173 A 
ATOM     44  F   UNL     1       9.054   7.699   0.239  1.00  0.00    -0.203 F 
ATOM     45  C   UNL     1       8.506   9.254   1.918  1.00  0.00     0.198 A 
ATOM     46  C   UNL     1       6.889  10.972   1.486  1.00  0.00     0.198 A 
ATOM     47  F   UNL     1       5.809  11.079  -0.598  1.00  0.00    -0.203 F 
ATOM     48  F   UNL     1       9.323   8.617   2.769  1.00  0.00    -0.200 F 
ATOM     49  C   UNL     1       7.772  10.347   2.353  1.00  0.00     0.200 A 
ATOM     50  F   UNL     1       6.179  12.030   1.903  1.00  0.00    -0.200 F 
ATOM     51  F   UNL     1       7.897  10.782   3.614  1.00  0.00    -0.200 F 
ENDBRANCH  27  41
BRANCH  28  52
ATOM     52  C   UNL     1       4.843   4.927  -9.013  1.00  0.00     0.064 A 
ATOM     53  C   UNL     1       5.771   4.486  -9.965  1.00  0.00     0.173 A 
ATOM     54  C   UNL     1       3.483   4.687  -9.274  1.00  0.00     0.173 A 
ATOM     55  F   UNL     1       7.081   4.702  -9.772  1.00  0.00    -0.203 F 
ATOM     56  C   UNL     1       5.358   3.834 -11.127  1.00  0.00     0.198 A 
ATOM     57  C   UNL     1       3.073   4.010 -10.420  1.00  0.00     0.198 A 
ATOM     58  F   UNL     1       2.550   5.082  -8.395  1.00  0.00    -0.203 F 
ATOM     59  F   UNL     1       6.266   3.445 -12.032  1.00  0.00    -0.200 F 
ATOM     60  C   UNL     1       4.011   3.588 -11.349  1.00  0.00     0.200 A 
ATOM     61  F   UNL     1       1.772   3.756 -10.618  1.00  0.00    -0.200 F 
ATOM     62  F   UNL     1       3.617   2.945 -12.457  1.00  0.00    -0.200 F 
ENDBRANCH  28  52
BRANCH  40  63
ATOM     63  C   UNL     1       7.869  11.008  -7.293  1.00  0.00     0.064 A 
ATOM     64  C   UNL     1       7.031  11.930  -7.934  1.00  0.00     0.173 A 
ATOM     65  C   UNL     1       9.255  11.219  -7.343  1.00  0.00     0.173 A 
ATOM     66  F   UNL     1       5.701  11.758  -7.921  1.00  0.00    -0.203 F 
ATOM     67  C   UNL     1       7.566  13.024  -8.604  1.00  0.00     0.198 A 
ATOM     68  C   UNL     1       9.783  12.332  -7.985  1.00  0.00     0.198 A 
ATOM     69  F   UNL     1      10.092  10.365  -6.734  1.00  0.00    -0.203 F 
ATOM     70  F   UNL     1       6.753  13.882  -9.236  1.00  0.00    -0.200 F 
ATOM     71  C   UNL     1       8.938  13.232  -8.617  1.00  0.00     0.200 A 
ATOM     72  F   UNL     1      11.106  12.543  -7.977  1.00  0.00    -0.200 F 
ATOM     73  F   UNL     1       9.448  14.304  -9.238  1.00  0.00    -0.200 F 
ENDBRANCH  40  63
ENDBRANCH  14  15
ENDBRANCH   7   9
ENDBRANCH   6   7
ENDBRANCH   5   6
ENDBRANCH   4   5
ENDBRANCH   3   4
ENDBRANCH   2   3
ENDBRANCH   1   2
BRANCH   1  74
ATOM     74  O   UNL     1       2.950  -3.670  -1.327  1.00  0.00    -0.377 OA
BRANCH  74  75
ATOM     75  C   UNL     1       4.363  -3.517  -1.327  1.00  0.00     0.188 C 
BRANCH  75  76
ATOM     76  C   UNL     1       5.059  -2.830  -2.522  1.00  0.00     0.188 C 
BRANCH  76  77
ATOM     77  O   UNL     1       4.312  -1.817  -3.161  1.00  0.00    -0.376 OA
BRANCH  77  78
ATOM     78  C   UNL     1       3.571  -2.103  -4.339  1.00  0.00     0.202 C 
BRANCH  78  79
ATOM     79  C   UNL     1       3.090  -3.509  -4.772  1.00  0.00     0.261 C 
BRANCH  79  80
ATOM     80  O   UNL     1       3.361  -4.585  -3.875  1.00  0.00    -0.459 OA
BRANCH  80  81
ATOM     81  C   UNL     1       4.277  -5.520  -4.242  1.00  0.00     0.364 C 
ATOM     82  O   UNL     1       4.796  -5.587  -5.357  1.00  0.00    -0.245 OA
BRANCH  81  83
ATOM     83  C   UNL     1       4.736  -6.367  -3.046  1.00  0.00     0.294 C 
ATOM     84  C   UNL     1       5.133  -7.797  -3.371  1.00  0.00     0.098 C 
ATOM     85  N   UNL     1       3.723  -6.491  -1.974  1.00  0.00    -0.334 N 
ATOM     86  C   UNL     1       4.642  -8.615  -2.181  1.00  0.00     0.118 C 
ATOM     87  C   UNL     1       4.181  -7.603  -1.152  1.00  0.00     0.276 C 
ATOM     88  H   UNL     1       2.805  -6.692  -2.370  1.00  0.00     0.347 HD
ATOM     89  H   UNL     1       3.626  -5.630  -1.436  1.00  0.00     0.347 HD
ATOM     90  Br  UNL     1       6.030  -9.754  -1.459  1.00  0.00    -0.083 Br
ENDBRANCH  81  83
ENDBRANCH  80  81
ENDBRANCH  79  80
ENDBRANCH  78  79
ENDBRANCH  77  78
ENDBRANCH  76  77
ENDBRANCH  75  76
ENDBRANCH  74  75
ENDBRANCH   1  74
TORSDOF 20
