REMARK SMILES C#CCOc1ccccc1/C=C(\C#N)C(=O)OCCOCCOCCOCCOC(=O)c1ccc(-c2c3nc(c(-c4c(F)c(F)c(F)c(F)c4F)c4ccc([nH]4)c(-c4c(F)c(F)c(F)c(F)c4F)c4nc(c(-c5c(F)c(F)c(F)c(F)c5F)c5ccc2[nH]5)C=C4)C=C3)cc1
REMARK SMILES IDX 22 1 21 2 20 3 19 4 18 5 17 6 15 7 16 8 12 9 11 10 10 11
REMARK SMILES IDX 5 12 6 13 7 14 9 15 8 16 4 17 3 18 2 19 1 20 13 21 14 22
REMARK SMILES IDX 23 23 24 24 25 25 26 26 27 27 28 28 29 29 30 30 31 31 32 32
REMARK SMILES IDX 33 33 94 34 34 35 93 36 35 37 36 38 37 39 87 40 38 41 92 42
REMARK SMILES IDX 86 43 88 44 39 45 91 46 85 47 84 48 40 50 72 51 52 52 71 53
REMARK SMILES IDX 53 54 56 55 70 56 89 57 54 58 55 59 69 61 90 62 57 63 41 64
REMARK SMILES IDX 42 65 50 66 43 67 44 68 48 69 51 70 45 71 46 72 49 73 47 74
REMARK SMILES IDX 73 75 74 76 82 77 75 78 76 79 80 80 83 81 77 82 78 83 81 84
REMARK SMILES IDX 79 85 58 86 59 87 67 88 60 89 61 90 65 91 68 92 62 93 63 94
REMARK SMILES IDX 66 95 64 96
REMARK H PARENT 88 49 56 60
REMARK Flexibility Score: inf
ROOT
ATOM      1  C   UNL     1       2.157  -2.118   2.839  1.00  0.00     0.188 C 
ENDROOT
BRANCH   1   2
ATOM      2  C   UNL     1       2.329  -2.646   1.390  1.00  0.00     0.188 C 
BRANCH   2   3
ATOM      3  O   UNL     1       3.648  -2.991   0.973  1.00  0.00    -0.376 OA
BRANCH   3   4
ATOM      4  C   UNL     1       4.329  -2.054   0.144  1.00  0.00     0.202 C 
BRANCH   4   5
ATOM      5  C   UNL     1       4.742  -0.763   0.853  1.00  0.00     0.261 C 
BRANCH   5   6
ATOM      6  O   UNL     1       3.609  -0.222   1.544  1.00  0.00    -0.459 OA
BRANCH   6   7
ATOM      7  C   UNL     1       2.996   0.828   0.982  1.00  0.00     0.348 C 
ATOM      8  O   UNL     1       3.460   1.523   0.086  1.00  0.00    -0.245 OA
BRANCH   7   9
ATOM      9  C   UNL     1       1.571   1.048   1.555  1.00  0.00     0.138 C 
ATOM     10  C   UNL     1       0.342   0.795   2.176  1.00  0.00     0.039 C 
BRANCH  10  11
ATOM     11  C   UNL     1      -0.795   1.839   2.263  1.00  0.00     0.018 A 
ATOM     12  C   UNL     1      -1.873   2.030   1.348  1.00  0.00     0.128 A 
ATOM     13  C   UNL     1      -2.764   3.116   1.512  1.00  0.00     0.047 A 
ATOM     14  C   UNL     1      -2.623   4.035   2.540  1.00  0.00     0.004 A 
ATOM     15  C   UNL     1      -0.731   2.760   3.335  1.00  0.00     0.012 A 
ATOM     16  C   UNL     1      -1.600   3.857   3.452  1.00  0.00     0.001 A 
BRANCH  12  17
ATOM     17  O   UNL     1      -2.237   1.369   0.202  1.00  0.00    -0.480 OA
BRANCH  17  18
ATOM     18  C   UNL     1      -1.798   0.058  -0.077  1.00  0.00     0.318 C 
BRANCH  18  19
ATOM     19  C   UNL     1      -0.278   0.058  -0.077  1.00  0.00    -0.065 C 
ATOM     20  C   UNL     1       1.026   0.058  -0.077  1.00  0.00     0.007 C 
ENDBRANCH  18  19
ENDBRANCH  17  18
ENDBRANCH  12  17
ENDBRANCH  10  11
BRANCH   9  21
ATOM     21  C   UNL     1       2.062   2.103   2.533  1.00  0.00     0.107 C 
ATOM     22  N   UNL     1       2.469   2.979   3.344  1.00  0.00    -0.192 NA
ENDBRANCH   9  21
ENDBRANCH   7   9
ENDBRANCH   6   7
ENDBRANCH   5   6
ENDBRANCH   4   5
ENDBRANCH   3   4
ENDBRANCH   2   3
ENDBRANCH   1   2
BRANCH   1  23
ATOM     23  O   UNL     1       3.198  -2.224   3.794  1.00  0.00    -0.377 OA
BRANCH  23  24
ATOM     24  C   UNL     1       4.137  -3.265   3.621  1.00  0.00     0.188 C 
BRANCH  24  25
ATOM     25  C   UNL     1       3.570  -4.675   3.370  1.00  0.00     0.188 C 
BRANCH  25  26
ATOM     26  O   UNL     1       2.153  -4.730   3.247  1.00  0.00    -0.376 OA
BRANCH  26  27
ATOM     27  C   UNL     1       1.403  -5.146   4.378  1.00  0.00     0.202 C 
BRANCH  27  28
ATOM     28  C   UNL     1       1.431  -4.257   5.633  1.00  0.00     0.261 C 
BRANCH  28  29
ATOM     29  O   UNL     1       2.725  -3.971   6.183  1.00  0.00    -0.460 OA
BRANCH  29  30
ATOM     30  C   UNL     1       3.494  -5.011   6.565  1.00  0.00     0.338 C 
ATOM     31  O   UNL     1       3.203  -6.193   6.551  1.00  0.00    -0.246 OA
BRANCH  30  32
ATOM     32  C   UNL     1       4.855  -4.482   6.795  1.00  0.00     0.060 A 
ATOM     33  C   UNL     1       5.918  -5.002   6.041  1.00  0.00     0.016 A 
ATOM     34  C   UNL     1       5.067  -3.430   7.689  1.00  0.00     0.016 A 
ATOM     35  C   UNL     1       7.199  -4.473   6.184  1.00  0.00     0.010 A 
ATOM     36  C   UNL     1       6.361  -2.938   7.873  1.00  0.00     0.010 A 
ATOM     37  C   UNL     1       7.434  -3.481   7.144  1.00  0.00    -0.014 A 
BRANCH  37  38
ATOM     38  C   UNL     1       8.824  -3.232   7.588  1.00  0.00     0.031 A 
ATOM     39  C   UNL     1       9.340  -4.079   8.719  1.00  0.00     0.074 A 
ATOM     40  C   UNL     1       9.607  -2.307   7.008  1.00  0.00     0.049 A 
ATOM     41  N   UNL     1      10.495  -4.040   9.330  1.00  0.00    -0.248 NA
ATOM     42  C   UNL     1       8.424  -5.113   9.232  1.00  0.00     0.031 C 
ATOM     43  C   UNL     1       9.230  -1.457   5.881  1.00  0.00     0.029 A 
ATOM     44  N   UNL     1      10.892  -1.923   7.307  1.00  0.00    -0.354 N 
ATOM     45  C   UNL     1      10.435  -5.029  10.302  1.00  0.00     0.074 A 
ATOM     46  C   UNL     1       9.133  -5.646  10.213  1.00  0.00     0.031 C 
ATOM     47  C   UNL     1      10.255  -0.631   5.599  1.00  0.00     0.029 A 
ATOM     48  C   UNL     1      11.345  -0.875   6.543  1.00  0.00     0.049 A 
ATOM     49  H   UNL     1      11.436  -2.357   8.003  1.00  0.00     0.167 HD
ATOM     50  C   UNL     1      11.386  -5.390  11.191  1.00  0.00     0.037 A 
ATOM     51  C   UNL     1      12.498  -0.181   6.627  1.00  0.00     0.037 A 
ATOM     52  C   UNL     1      12.684  -4.780  11.273  1.00  0.00     0.049 A 
ATOM     53  C   UNL     1      13.517  -0.569   7.673  1.00  0.00     0.074 A 
ATOM     54  C   UNL     1      13.734  -5.103  12.113  1.00  0.00     0.029 A 
ATOM     55  N   UNL     1      13.101  -3.713  10.494  1.00  0.00    -0.354 N 
ATOM     56  N   UNL     1      13.478  -1.542   8.552  1.00  0.00    -0.248 NA
ATOM     57  C   UNL     1      14.745   0.238   7.735  1.00  0.00     0.031 C 
ATOM     58  C   UNL     1      14.767  -4.191  11.883  1.00  0.00     0.029 A 
ATOM     59  C   UNL     1      14.383  -3.342  10.857  1.00  0.00     0.049 A 
ATOM     60  H   UNL     1      12.565  -3.284   9.788  1.00  0.00     0.167 HD
ATOM     61  C   UNL     1      14.684  -1.485   9.242  1.00  0.00     0.074 A 
ATOM     62  C   UNL     1      15.440  -0.392   8.671  1.00  0.00     0.031 C 
ATOM     63  C   UNL     1      15.128  -2.265  10.258  1.00  0.00     0.037 A 
BRANCH  50  64
ATOM     64  C   UNL     1      11.052  -6.471  12.173  1.00  0.00     0.064 A 
ATOM     65  C   UNL     1      10.965  -7.817  11.791  1.00  0.00     0.173 A 
ATOM     66  C   UNL     1      10.877  -6.156  13.529  1.00  0.00     0.173 A 
ATOM     67  F   UNL     1      11.103  -8.164  10.503  1.00  0.00    -0.203 F 
ATOM     68  C   UNL     1      10.711  -8.810  12.733  1.00  0.00     0.198 A 
ATOM     69  C   UNL     1      10.650  -7.154  14.471  1.00  0.00     0.198 A 
ATOM     70  F   UNL     1      10.945  -4.881  13.942  1.00  0.00    -0.203 F 
ATOM     71  F   UNL     1      10.604 -10.088  12.344  1.00  0.00    -0.200 F 
ATOM     72  C   UNL     1      10.566  -8.480  14.073  1.00  0.00     0.200 A 
ATOM     73  F   UNL     1      10.520  -6.834  15.766  1.00  0.00    -0.200 F 
ATOM     74  F   UNL     1      10.342  -9.440  14.981  1.00  0.00    -0.200 F 
ENDBRANCH  50  64
BRANCH  51  75
ATOM     75  C   UNL     1      12.753   0.979   5.728  1.00  0.00     0.064 A 
ATOM     76  C   UNL     1      13.800   0.960   4.795  1.00  0.00     0.173 A 
ATOM     77  C   UNL     1      12.004   2.160   5.839  1.00  0.00     0.173 A 
ATOM     78  F   UNL     1      14.566  -0.134   4.671  1.00  0.00    -0.203 F 
ATOM     79  C   UNL     1      14.112   2.088   4.038  1.00  0.00     0.198 A 
ATOM     80  C   UNL     1      12.295   3.276   5.057  1.00  0.00     0.198 A 
ATOM     81  F   UNL     1      10.996   2.236   6.720  1.00  0.00    -0.203 F 
ATOM     82  F   UNL     1      15.165   2.066   3.209  1.00  0.00    -0.200 F 
ATOM     83  C   UNL     1      13.358   3.244   4.167  1.00  0.00     0.200 A 
ATOM     84  F   UNL     1      11.559   4.389   5.180  1.00  0.00    -0.200 F 
ATOM     85  F   UNL     1      13.667   4.333   3.449  1.00  0.00    -0.200 F 
ENDBRANCH  51  75
BRANCH  63  86
ATOM     86  C   UNL     1      16.511  -2.006  10.782  1.00  0.00     0.064 A 
ATOM     87  C   UNL     1      16.813  -0.866  11.540  1.00  0.00     0.173 A 
ATOM     88  C   UNL     1      17.534  -2.944  10.569  1.00  0.00     0.173 A 
ATOM     89  F   UNL     1      15.873   0.065  11.764  1.00  0.00    -0.203 F 
ATOM     90  C   UNL     1      18.096  -0.660  12.041  1.00  0.00     0.198 A 
ATOM     91  C   UNL     1      18.805  -2.751  11.100  1.00  0.00     0.198 A 
ATOM     92  F   UNL     1      17.294  -4.058   9.861  1.00  0.00    -0.203 F 
ATOM     93  F   UNL     1      18.375   0.461  12.721  1.00  0.00    -0.200 F 
ATOM     94  C   UNL     1      19.088  -1.606  11.828  1.00  0.00     0.200 A 
ATOM     95  F   UNL     1      19.756  -3.676  10.910  1.00  0.00    -0.200 F 
ATOM     96  F   UNL     1      20.319  -1.411  12.321  1.00  0.00    -0.200 F 
ENDBRANCH  63  86
ENDBRANCH  37  38
ENDBRANCH  30  32
ENDBRANCH  29  30
ENDBRANCH  28  29
ENDBRANCH  27  28
ENDBRANCH  26  27
ENDBRANCH  25  26
ENDBRANCH  24  25
ENDBRANCH  23  24
ENDBRANCH   1  23
TORSDOF 25
