REMARK SMILES CC(C)C[C@H](NC(=O)[C@H](C)NC(=O)[C@@H](NC(=O)CNC(=O)OCc1ccccc1)C(C)C)C(=O)OCCOCCOCCOCCOC(=O)c1ccc(-c2c3nc(c(-c4c(F)c(F)c(F)c(F)c4F)c4ccc([nH]4)c(-c4c(F)c(F)c(F)c(F)c4F)c4nc(c(-c5c(F)c(F)c(F)c(F)c5F)c5ccc2[nH]5)C=C4)C=C3)cc1
REMARK SMILES IDX 37 1 36 2 35 3 33 4 34 5 5 6 4 7 2 8 1 9 3 10 6 11 7 12 8 14
REMARK SMILES IDX 9 15 10 16 11 17 12 18 13 20 14 21 15 22 16 23 17 25 18 26
REMARK SMILES IDX 19 27 20 28 21 30 22 31 23 32 24 33 25 34 29 35 26 36 28 37
REMARK SMILES IDX 27 38 30 39 31 40 32 41 38 42 39 43 40 44 41 45 42 46 43 47
REMARK SMILES IDX 44 48 45 49 46 50 47 51 48 52 49 53 50 54 51 55 112 56 52 57
REMARK SMILES IDX 111 58 53 59 54 60 55 61 105 62 56 63 110 64 104 65 106 66
REMARK SMILES IDX 57 67 109 68 103 69 102 70 58 72 90 73 70 74 89 75 71 76
REMARK SMILES IDX 74 77 88 78 107 79 72 80 73 81 87 83 108 84 75 85 59 86
REMARK SMILES IDX 60 87 68 88 61 89 62 90 66 91 69 92 63 93 64 94 67 95 65 96
REMARK SMILES IDX 91 97 92 98 100 99 93 100 94 101 98 102 101 103 95 104
REMARK SMILES IDX 96 105 99 106 97 107 76 108 77 109 85 110 78 111 79 112
REMARK SMILES IDX 83 113 86 114 80 115 81 116 84 117 82 118
REMARK H PARENT 6 13 11 19 15 24 19 29 106 71 74 82
REMARK Flexibility Score: inf
ROOT
ATOM      1  C   UNL     1      -0.354   4.938   4.413  1.00  0.00     0.202 C 
ENDROOT
BRANCH   1   2
ATOM      2  C   UNL     1      -1.449   3.869   4.630  1.00  0.00     0.261 C 
BRANCH   2   3
ATOM      3  O   UNL     1      -1.361   2.649   3.899  1.00  0.00    -0.462 OA
BRANCH   3   4
ATOM      4  C   UNL     1      -1.857   2.721   2.650  1.00  0.00     0.328 C 
ATOM      5  O   UNL     1      -2.419   3.712   2.197  1.00  0.00    -0.250 OA
BRANCH   4   6
ATOM      6  C   UNL     1      -1.540   1.475   1.804  1.00  0.00     0.192 C 
BRANCH   6   7
ATOM      7  C   UNL     1      -2.829   0.806   1.341  1.00  0.00     0.040 C 
BRANCH   7   8
ATOM      8  C   UNL     1      -3.741   1.668   0.462  1.00  0.00    -0.015 C 
ATOM      9  C   UNL     1      -3.064   2.104  -0.836  1.00  0.00     0.007 C 
ATOM     10  C   UNL     1      -5.013   0.881   0.170  1.00  0.00     0.007 C 
ENDBRANCH   7   8
ENDBRANCH   6   7
BRANCH   6  11
ATOM     11  N   UNL     1      -0.684   0.413   2.353  1.00  0.00    -0.341 N 
ATOM     12  C   UNL     1       0.062  -0.542   1.718  1.00  0.00     0.242 C 
ATOM     13  H   UNL     1      -0.641   0.385   3.336  1.00  0.00     0.164 HD
ATOM     14  O   UNL     1       0.329  -1.549   2.383  1.00  0.00    -0.273 OA
BRANCH  12  15
ATOM     15  C   UNL     1       0.531  -0.463   0.222  1.00  0.00     0.168 C 
ATOM     16  C   UNL     1       0.450   0.885  -0.463  1.00  0.00     0.041 C 
BRANCH  15  17
ATOM     17  N   UNL     1      -0.090  -1.483  -0.605  1.00  0.00    -0.343 N 
ATOM     18  C   UNL     1       0.345  -2.068  -1.752  1.00  0.00     0.243 C 
ATOM     19  H   UNL     1      -0.965  -1.800  -0.284  1.00  0.00     0.164 HD
ATOM     20  O   UNL     1      -0.459  -2.833  -2.301  1.00  0.00    -0.273 OA
BRANCH  18  21
ATOM     21  C   UNL     1       1.808  -1.958  -2.320  1.00  0.00     0.174 C 
BRANCH  21  22
ATOM     22  N   UNL     1       2.385  -0.594  -2.423  1.00  0.00    -0.343 N 
ATOM     23  C   UNL     1       3.358   0.167  -1.855  1.00  0.00     0.240 C 
ATOM     24  H   UNL     1       1.916  -0.080  -3.120  1.00  0.00     0.164 HD
ATOM     25  O   UNL     1       3.363   1.357  -2.202  1.00  0.00    -0.273 OA
BRANCH  23  26
ATOM     26  C   UNL     1       4.433  -0.310  -0.862  1.00  0.00     0.219 C 
BRANCH  26  27
ATOM     27  N   UNL     1       3.954  -0.595   0.473  1.00  0.00    -0.312 N 
ATOM     28  C   UNL     1       4.091  -1.768   1.147  1.00  0.00     0.407 C 
ATOM     29  H   UNL     1       3.483   0.132   0.940  1.00  0.00     0.167 HD
ATOM     30  O   UNL     1       3.393  -1.998   2.130  1.00  0.00    -0.225 OA
BRANCH  28  31
ATOM     31  O   UNL     1       5.006  -2.605   0.606  1.00  0.00    -0.445 OA
BRANCH  31  32
ATOM     32  C   UNL     1       5.001  -3.965   1.085  1.00  0.00     0.270 C 
BRANCH  32  33
ATOM     33  C   UNL     1       5.385  -4.154   2.532  1.00  0.00    -0.011 A 
ATOM     34  C   UNL     1       5.987  -3.134   3.279  1.00  0.00     0.007 A 
ATOM     35  C   UNL     1       5.076  -5.367   3.168  1.00  0.00     0.007 A 
ATOM     36  C   UNL     1       6.175  -3.277   4.651  1.00  0.00     0.000 A 
ATOM     37  C   UNL     1       5.293  -5.520   4.537  1.00  0.00     0.000 A 
ATOM     38  C   UNL     1       5.819  -4.466   5.282  1.00  0.00     0.000 A 
ENDBRANCH  32  33
ENDBRANCH  31  32
ENDBRANCH  28  31
ENDBRANCH  26  27
ENDBRANCH  23  26
ENDBRANCH  21  22
BRANCH  21  39
ATOM     39  C   UNL     1       2.767  -3.019  -1.770  1.00  0.00     0.015 C 
ATOM     40  C   UNL     1       2.134  -4.375  -1.451  1.00  0.00     0.010 C 
ATOM     41  C   UNL     1       3.975  -3.216  -2.695  1.00  0.00     0.010 C 
ENDBRANCH  21  39
ENDBRANCH  18  21
ENDBRANCH  15  17
ENDBRANCH  12  15
ENDBRANCH   6  11
ENDBRANCH   4   6
ENDBRANCH   3   4
ENDBRANCH   2   3
ENDBRANCH   1   2
BRANCH   1  42
ATOM     42  O   UNL     1       0.832   4.835   3.640  1.00  0.00    -0.376 OA
BRANCH  42  43
ATOM     43  C   UNL     1       1.152   3.740   2.808  1.00  0.00     0.188 C 
BRANCH  43  44
ATOM     44  C   UNL     1       1.584   2.441   3.501  1.00  0.00     0.188 C 
BRANCH  44  45
ATOM     45  O   UNL     1       1.036   2.284   4.793  1.00  0.00    -0.377 OA
BRANCH  45  46
ATOM     46  C   UNL     1       1.786   2.796   5.890  1.00  0.00     0.188 C 
BRANCH  46  47
ATOM     47  C   UNL     1       2.784   3.960   5.684  1.00  0.00     0.188 C 
BRANCH  47  48
ATOM     48  O   UNL     1       3.589   3.857   4.520  1.00  0.00    -0.376 OA
BRANCH  48  49
ATOM     49  C   UNL     1       4.912   3.360   4.645  1.00  0.00     0.202 C 
BRANCH  49  50
ATOM     50  C   UNL     1       5.090   1.911   5.128  1.00  0.00     0.261 C 
BRANCH  50  51
ATOM     51  O   UNL     1       4.495   1.584   6.394  1.00  0.00    -0.460 OA
BRANCH  51  52
ATOM     52  C   UNL     1       4.924   2.259   7.481  1.00  0.00     0.338 C 
ATOM     53  O   UNL     1       5.817   3.084   7.526  1.00  0.00    -0.246 OA
BRANCH  52  54
ATOM     54  C   UNL     1       3.980   1.992   8.591  1.00  0.00     0.060 A 
ATOM     55  C   UNL     1       3.314   3.075   9.179  1.00  0.00     0.016 A 
ATOM     56  C   UNL     1       3.756   0.693   9.054  1.00  0.00     0.016 A 
ATOM     57  C   UNL     1       2.459   2.869  10.261  1.00  0.00     0.010 A 
ATOM     58  C   UNL     1       2.917   0.490  10.157  1.00  0.00     0.010 A 
ATOM     59  C   UNL     1       2.295   1.581  10.789  1.00  0.00    -0.014 A 
BRANCH  59  60
ATOM     60  C   UNL     1       1.621   1.420  12.103  1.00  0.00     0.031 A 
ATOM     61  C   UNL     1       2.473   1.274  13.337  1.00  0.00     0.074 A 
ATOM     62  C   UNL     1       0.282   1.470  12.212  1.00  0.00     0.049 A 
ATOM     63  N   UNL     1       2.111   1.123  14.586  1.00  0.00    -0.248 NA
ATOM     64  C   UNL     1       3.930   1.306  13.133  1.00  0.00     0.031 C 
ATOM     65  C   UNL     1      -0.650   1.651  11.101  1.00  0.00     0.029 A 
ATOM     66  N   UNL     1      -0.527   1.371  13.318  1.00  0.00    -0.354 N 
ATOM     67  C   UNL     1       3.292   1.047  15.314  1.00  0.00     0.074 A 
ATOM     68  C   UNL     1       4.382   1.128  14.366  1.00  0.00     0.031 C 
ATOM     69  C   UNL     1      -1.907   1.639  11.580  1.00  0.00     0.029 A 
ATOM     70  C   UNL     1      -1.868   1.418  13.025  1.00  0.00     0.049 A 
ATOM     71  H   UNL     1      -0.179   1.275  14.233  1.00  0.00     0.167 HD
ATOM     72  C   UNL     1       3.454   0.936  16.654  1.00  0.00     0.037 A 
ATOM     73  C   UNL     1      -2.940   1.274  13.830  1.00  0.00     0.037 A 
ATOM     74  C   UNL     1       2.370   0.849  17.598  1.00  0.00     0.049 A 
ATOM     75  C   UNL     1      -2.727   1.065  15.311  1.00  0.00     0.074 A 
ATOM     76  C   UNL     1       2.433   0.734  18.976  1.00  0.00     0.029 A 
ATOM     77  N   UNL     1       1.026   0.860  17.260  1.00  0.00    -0.354 N 
ATOM     78  N   UNL     1      -1.608   1.020  15.993  1.00  0.00    -0.248 NA
ATOM     79  C   UNL     1      -3.933   0.894  16.134  1.00  0.00     0.031 C 
ATOM     80  C   UNL     1       1.129   0.616  19.466  1.00  0.00     0.029 A 
ATOM     81  C   UNL     1       0.250   0.727  18.401  1.00  0.00     0.049 A 
ATOM     82  H   UNL     1       0.674   0.948  16.345  1.00  0.00     0.167 HD
ATOM     83  C   UNL     1      -1.976   0.848  17.323  1.00  0.00     0.074 A 
ATOM     84  C   UNL     1      -3.423   0.828  17.354  1.00  0.00     0.031 C 
ATOM     85  C   UNL     1      -1.190   0.714  18.420  1.00  0.00     0.037 A 
BRANCH  72  86
ATOM     86  C   UNL     1       4.858   0.885  17.187  1.00  0.00     0.064 A 
ATOM     87  C   UNL     1       5.690   2.014  17.179  1.00  0.00     0.173 A 
ATOM     88  C   UNL     1       5.354  -0.291  17.769  1.00  0.00     0.173 A 
ATOM     89  F   UNL     1       5.270   3.160  16.621  1.00  0.00    -0.203 F 
ATOM     90  C   UNL     1       6.972   1.964  17.722  1.00  0.00     0.198 A 
ATOM     91  C   UNL     1       6.624  -0.330  18.339  1.00  0.00     0.198 A 
ATOM     92  F   UNL     1       4.599  -1.400  17.805  1.00  0.00    -0.203 F 
ATOM     93  F   UNL     1       7.763   3.044  17.670  1.00  0.00    -0.200 F 
ATOM     94  C   UNL     1       7.433   0.796  18.311  1.00  0.00     0.200 A 
ATOM     95  F   UNL     1       7.062  -1.454  18.921  1.00  0.00    -0.200 F 
ATOM     96  F   UNL     1       8.660   0.754  18.849  1.00  0.00    -0.200 F 
ENDBRANCH  72  86
BRANCH  73  97
ATOM     97  C   UNL     1      -4.317   1.290  13.264  1.00  0.00     0.064 A 
ATOM     98  C   UNL     1      -5.240   2.285  13.617  1.00  0.00     0.173 A 
ATOM     99  C   UNL     1      -4.759   0.269  12.408  1.00  0.00     0.173 A 
ATOM    100  F   UNL     1      -4.878   3.268  14.454  1.00  0.00    -0.203 F 
ATOM    101  C   UNL     1      -6.559   2.237  13.167  1.00  0.00     0.198 A 
ATOM    102  C   UNL     1      -6.066   0.245  11.928  1.00  0.00     0.198 A 
ATOM    103  F   UNL     1      -3.920  -0.710  12.040  1.00  0.00    -0.203 F 
ATOM    104  F   UNL     1      -7.439   3.160  13.581  1.00  0.00    -0.200 F 
ATOM    105  C   UNL     1      -6.970   1.220  12.320  1.00  0.00     0.200 A 
ATOM    106  F   UNL     1      -6.454  -0.733  11.097  1.00  0.00    -0.200 F 
ATOM    107  F   UNL     1      -8.239   1.171  11.893  1.00  0.00    -0.200 F 
ENDBRANCH  73  97
BRANCH  85 108
ATOM    108  C   UNL     1      -1.880   0.574  19.750  1.00  0.00     0.064 A 
ATOM    109  C   UNL     1      -2.629  -0.567  20.080  1.00  0.00     0.173 A 
ATOM    110  C   UNL     1      -1.783   1.592  20.712  1.00  0.00     0.173 A 
ATOM    111  F   UNL     1      -2.763  -1.566  19.195  1.00  0.00    -0.203 F 
ATOM    112  C   UNL     1      -3.293  -0.660  21.301  1.00  0.00     0.198 A 
ATOM    113  C   UNL     1      -2.416   1.477  21.947  1.00  0.00     0.198 A 
ATOM    114  F   UNL     1      -1.071   2.700  20.456  1.00  0.00    -0.203 F 
ATOM    115  F   UNL     1      -4.062  -1.726  21.562  1.00  0.00    -0.200 F 
ATOM    116  C   UNL     1      -3.182   0.358  22.235  1.00  0.00     0.200 A 
ATOM    117  F   UNL     1      -2.290   2.454  22.855  1.00  0.00    -0.200 F 
ATOM    118  F   UNL     1      -3.823   0.267  23.408  1.00  0.00    -0.200 F 
ENDBRANCH  85 108
ENDBRANCH  59  60
ENDBRANCH  52  54
ENDBRANCH  51  52
ENDBRANCH  50  51
ENDBRANCH  49  50
ENDBRANCH  48  49
ENDBRANCH  47  48
ENDBRANCH  46  47
ENDBRANCH  45  46
ENDBRANCH  44  45
ENDBRANCH  43  44
ENDBRANCH  42  43
ENDBRANCH   1  42
TORSDOF 33
