REMARK SMILES O=C(CSc1nnc2sc3ccccc3n12)N[C@H](Cc1c[nH]c2ccccc12)C(=O)OCCOCCOCCOCCOC(=O)c1ccc(-c2c3nc(c(-c4c(F)c(F)c(F)c(F)c4F)c4ccc([nH]4)c(-c4c(F)c(F)c(F)c(F)c4F)c4nc(c(-c5c(F)c(F)c(F)c(F)c5F)c5ccc2[nH]5)C=C4)C=C3)cc1
REMARK SMILES IDX 36 1 35 2 34 3 33 4 32 5 31 6 29 7 30 8 18 9 17 10 1 11 2 12
REMARK SMILES IDX 3 14 4 15 5 16 6 17 16 18 7 19 8 20 15 21 9 22 10 23 14 24
REMARK SMILES IDX 11 25 13 26 12 27 19 28 20 29 21 30 28 31 22 32 23 33 27 34
REMARK SMILES IDX 24 36 26 37 25 38 37 39 38 40 39 41 40 42 41 43 42 44 43 45
REMARK SMILES IDX 44 46 45 47 46 48 47 49 108 50 48 51 107 52 49 53 50 54
REMARK SMILES IDX 51 55 101 56 52 57 106 58 100 59 102 60 53 61 105 62 99 63
REMARK SMILES IDX 98 64 54 66 86 67 66 68 85 69 67 70 70 71 84 72 103 73 68 74
REMARK SMILES IDX 69 75 83 77 104 78 71 79 55 80 56 81 64 82 57 83 58 84 62 85
REMARK SMILES IDX 65 86 59 87 60 88 63 89 61 90 87 91 88 92 96 93 89 94 90 95
REMARK SMILES IDX 94 96 97 97 91 98 92 99 95 100 93 101 72 102 73 103 81 104
REMARK SMILES IDX 74 105 75 106 79 107 82 108 76 109 77 110 80 111 78 112
REMARK H PARENT 17 13 22 35 102 65 70 76
REMARK Flexibility Score: inf
ROOT
ATOM      1  C   UNL     1       2.808  -3.600  -0.429  1.00  0.00     0.188 C 
ENDROOT
BRANCH   1   2
ATOM      2  C   UNL     1       1.937  -4.337  -1.454  1.00  0.00     0.188 C 
BRANCH   2   3
ATOM      3  O   UNL     1       2.340  -5.654  -1.603  1.00  0.00    -0.376 OA
BRANCH   3   4
ATOM      4  C   UNL     1       3.583  -5.646  -2.302  1.00  0.00     0.202 C 
BRANCH   4   5
ATOM      5  C   UNL     1       4.130  -4.360  -3.098  1.00  0.00     0.261 C 
BRANCH   5   6
ATOM      6  O   UNL     1       3.803  -2.956  -2.729  1.00  0.00    -0.462 OA
BRANCH   6   7
ATOM      7  C   UNL     1       2.715  -2.341  -3.253  1.00  0.00     0.329 C 
ATOM      8  O   UNL     1       2.210  -2.735  -4.305  1.00  0.00    -0.250 OA
BRANCH   7   9
ATOM      9  C   UNL     1       2.079  -1.097  -2.548  1.00  0.00     0.196 C 
BRANCH   9  10
ATOM     10  N   UNL     1       2.579  -0.105  -3.559  1.00  0.00    -0.342 N 
ATOM     11  O   UNL     1       4.744  -0.110  -2.802  1.00  0.00    -0.274 OA
ATOM     12  C   UNL     1       3.946   0.115  -3.707  1.00  0.00     0.231 C 
ATOM     13  H   UNL     1       1.938   0.390  -4.119  1.00  0.00     0.164 HD
BRANCH  12  14
ATOM     14  C   UNL     1       4.400   0.622  -5.068  1.00  0.00     0.178 C 
BRANCH  14  15
ATOM     15  S   UNL     1       3.856  -0.437  -6.430  1.00  0.00    -0.076 SA
BRANCH  15  16
ATOM     16  C   UNL     1       4.640  -1.976  -6.228  1.00  0.00     0.197 A 
ATOM     17  N   UNL     1       5.948  -2.217  -6.115  1.00  0.00    -0.122 NA
ATOM     18  N   UNL     1       3.963  -3.118  -6.556  1.00  0.00    -0.260 N 
ATOM     19  N   UNL     1       6.372  -3.548  -6.522  1.00  0.00    -0.118 NA
ATOM     20  C   UNL     1       5.289  -4.252  -6.826  1.00  0.00     0.217 A 
ATOM     21  C   UNL     1       2.365  -3.641  -7.054  1.00  0.00     0.068 A 
ATOM     22  S   UNL     1       4.373  -6.312  -7.944  1.00  0.00    -0.094 S 
ATOM     23  C   UNL     1       2.275  -5.260  -7.759  1.00  0.00     0.055 A 
ATOM     24  C   UNL     1       1.231  -2.918  -6.853  1.00  0.00     0.028 A 
ATOM     25  C   UNL     1       1.090  -5.929  -7.830  1.00  0.00     0.021 A 
ATOM     26  C   UNL     1       0.063  -3.677  -7.049  1.00  0.00     0.002 A 
ATOM     27  C   UNL     1       0.002  -5.093  -7.453  1.00  0.00     0.002 A 
ENDBRANCH  15  16
ENDBRANCH  14  15
ENDBRANCH  12  14
ENDBRANCH   9  10
BRANCH   9  28
ATOM     28  C   UNL     1       2.149  -0.600  -1.065  1.00  0.00     0.074 C 
BRANCH  28  29
ATOM     29  C   UNL     1       1.232  -0.972   0.297  1.00  0.00    -0.020 A 
ATOM     30  C   UNL     1       1.203   0.058   1.238  1.00  0.00     0.087 A 
ATOM     31  C   UNL     1       0.642  -2.144   1.102  1.00  0.00     0.003 A 
ATOM     32  N   UNL     1       0.761  -0.378   2.451  1.00  0.00    -0.361 N 
ATOM     33  C   UNL     1       0.556  -1.726   2.442  1.00  0.00     0.046 A 
ATOM     34  C   UNL     1       0.261  -3.523   0.993  1.00  0.00     0.010 A 
ATOM     35  H   UNL     1       0.610   0.204   3.231  1.00  0.00     0.166 HD
ATOM     36  C   UNL     1       0.338  -2.583   3.554  1.00  0.00     0.026 A 
ATOM     37  C   UNL     1       0.213  -4.430   2.080  1.00  0.00     0.001 A 
ATOM     38  C   UNL     1       0.268  -3.957   3.365  1.00  0.00     0.002 A 
ENDBRANCH  28  29
ENDBRANCH   9  28
ENDBRANCH   7   9
ENDBRANCH   6   7
ENDBRANCH   5   6
ENDBRANCH   4   5
ENDBRANCH   3   4
ENDBRANCH   2   3
ENDBRANCH   1   2
BRANCH   1  39
ATOM     39  O   UNL     1       4.206  -3.583  -0.546  1.00  0.00    -0.377 OA
BRANCH  39  40
ATOM     40  C   UNL     1       4.949  -4.350   0.352  1.00  0.00     0.188 C 
BRANCH  40  41
ATOM     41  C   UNL     1       4.189  -5.170   1.389  1.00  0.00     0.188 C 
BRANCH  41  42
ATOM     42  O   UNL     1       3.462  -4.455   2.386  1.00  0.00    -0.376 OA
BRANCH  42  43
ATOM     43  C   UNL     1       3.883  -3.129   2.706  1.00  0.00     0.202 C 
BRANCH  43  44
ATOM     44  C   UNL     1       4.946  -3.117   3.793  1.00  0.00     0.261 C 
BRANCH  44  45
ATOM     45  O   UNL     1       6.199  -3.566   3.225  1.00  0.00    -0.460 OA
BRANCH  45  46
ATOM     46  C   UNL     1       6.607  -4.809   3.599  1.00  0.00     0.338 C 
ATOM     47  O   UNL     1       6.271  -5.385   4.622  1.00  0.00    -0.246 OA
BRANCH  46  48
ATOM     48  C   UNL     1       7.226  -5.529   2.430  1.00  0.00     0.060 A 
ATOM     49  C   UNL     1       7.770  -4.889   1.317  1.00  0.00     0.016 A 
ATOM     50  C   UNL     1       6.952  -6.905   2.330  1.00  0.00     0.016 A 
ATOM     51  C   UNL     1       7.761  -5.569   0.072  1.00  0.00     0.010 A 
ATOM     52  C   UNL     1       7.013  -7.588   1.102  1.00  0.00     0.010 A 
ATOM     53  C   UNL     1       7.245  -6.899  -0.080  1.00  0.00    -0.014 A 
BRANCH  53  54
ATOM     54  C   UNL     1       7.361  -7.636  -1.398  1.00  0.00     0.031 A 
ATOM     55  C   UNL     1       8.821  -7.553  -1.717  1.00  0.00     0.074 A 
ATOM     56  C   UNL     1       6.497  -8.357  -2.204  1.00  0.00     0.049 A 
ATOM     57  N   UNL     1       9.364  -6.758  -2.575  1.00  0.00    -0.248 NA
ATOM     58  C   UNL     1       9.787  -8.109  -0.743  1.00  0.00     0.031 C 
ATOM     59  C   UNL     1       5.080  -8.735  -2.028  1.00  0.00     0.029 A 
ATOM     60  N   UNL     1       6.740  -8.934  -3.465  1.00  0.00    -0.354 N 
ATOM     61  C   UNL     1      10.738  -6.902  -2.411  1.00  0.00     0.074 A 
ATOM     62  C   UNL     1      10.930  -7.551  -1.147  1.00  0.00     0.031 C 
ATOM     63  C   UNL     1       4.673  -9.615  -2.989  1.00  0.00     0.029 A 
ATOM     64  C   UNL     1       5.740  -9.840  -3.942  1.00  0.00     0.049 A 
ATOM     65  H   UNL     1       7.549  -8.728  -3.987  1.00  0.00     0.167 HD
ATOM     66  C   UNL     1      11.556  -6.755  -3.486  1.00  0.00     0.037 A 
ATOM     67  C   UNL     1       5.766 -10.668  -5.052  1.00  0.00     0.037 A 
ATOM     68  C   UNL     1      10.873  -6.021  -4.520  1.00  0.00     0.049 A 
ATOM     69  C   UNL     1       6.796 -10.130  -5.967  1.00  0.00     0.074 A 
ATOM     70  C   UNL     1      10.393  -4.736  -4.656  1.00  0.00     0.029 A 
ATOM     71  N   UNL     1      10.179  -6.788  -5.418  1.00  0.00    -0.354 N 
ATOM     72  N   UNL     1       6.644  -8.983  -6.561  1.00  0.00    -0.248 NA
ATOM     73  C   UNL     1       8.158 -10.569  -5.699  1.00  0.00     0.031 C 
ATOM     74  C   UNL     1       9.132  -4.879  -5.310  1.00  0.00     0.029 A 
ATOM     75  C   UNL     1       8.964  -6.210  -5.673  1.00  0.00     0.049 A 
ATOM     76  H   UNL     1      10.504  -7.626  -5.818  1.00  0.00     0.167 HD
ATOM     77  C   UNL     1       7.823  -8.325  -6.275  1.00  0.00     0.074 A 
ATOM     78  C   UNL     1       8.717  -9.356  -5.723  1.00  0.00     0.031 C 
ATOM     79  C   UNL     1       7.856  -6.965  -6.188  1.00  0.00     0.037 A 
BRANCH  66  80
ATOM     80  C   UNL     1      12.683  -7.714  -3.801  1.00  0.00     0.064 A 
ATOM     81  C   UNL     1      13.466  -7.476  -4.948  1.00  0.00     0.173 A 
ATOM     82  C   UNL     1      12.810  -9.004  -3.238  1.00  0.00     0.173 A 
ATOM     83  F   UNL     1      13.399  -6.299  -5.588  1.00  0.00    -0.203 F 
ATOM     84  C   UNL     1      14.258  -8.475  -5.522  1.00  0.00     0.198 A 
ATOM     85  C   UNL     1      13.637  -9.981  -3.787  1.00  0.00     0.198 A 
ATOM     86  F   UNL     1      12.062  -9.419  -2.211  1.00  0.00    -0.203 F 
ATOM     87  F   UNL     1      14.889  -8.240  -6.681  1.00  0.00    -0.200 F 
ATOM     88  C   UNL     1      14.341  -9.727  -4.942  1.00  0.00     0.200 A 
ATOM     89  F   UNL     1      13.675 -11.199  -3.227  1.00  0.00    -0.200 F 
ATOM     90  F   UNL     1      15.059 -10.700  -5.517  1.00  0.00    -0.200 F 
ENDBRANCH  66  80
BRANCH  67  91
ATOM     91  C   UNL     1       5.330 -12.107  -5.244  1.00  0.00     0.064 A 
ATOM     92  C   UNL     1       5.361 -12.791  -6.493  1.00  0.00     0.173 A 
ATOM     93  C   UNL     1       5.241 -12.938  -4.119  1.00  0.00     0.173 A 
ATOM     94  F   UNL     1       5.468 -12.109  -7.645  1.00  0.00    -0.203 F 
ATOM     95  C   UNL     1       5.362 -14.200  -6.582  1.00  0.00     0.198 A 
ATOM     96  C   UNL     1       5.263 -14.336  -4.207  1.00  0.00     0.198 A 
ATOM     97  F   UNL     1       5.236 -12.406  -2.891  1.00  0.00    -0.203 F 
ATOM     98  F   UNL     1       5.449 -14.813  -7.775  1.00  0.00    -0.200 F 
ATOM     99  C   UNL     1       5.344 -14.969  -5.433  1.00  0.00     0.200 A 
ATOM    100  F   UNL     1       5.280 -15.064  -3.082  1.00  0.00    -0.200 F 
ATOM    101  F   UNL     1       5.444 -16.306  -5.498  1.00  0.00    -0.200 F 
ENDBRANCH  67  91
BRANCH  79 102
ATOM    102  C   UNL     1       6.626  -6.218  -6.636  1.00  0.00     0.064 A 
ATOM    103  C   UNL     1       5.202  -6.100  -5.710  1.00  0.00     0.173 A 
ATOM    104  C   UNL     1       6.821  -5.471  -8.155  1.00  0.00     0.173 A 
ATOM    105  F   UNL     1       5.095  -6.714  -4.527  1.00  0.00    -0.203 F 
ATOM    106  C   UNL     1       3.820  -5.189  -6.366  1.00  0.00     0.198 A 
ATOM    107  C   UNL     1       5.676  -4.540  -8.949  1.00  0.00     0.198 A 
ATOM    108  F   UNL     1       8.025  -5.603  -8.740  1.00  0.00    -0.203 F 
ATOM    109  F   UNL     1       2.715  -5.273  -5.562  1.00  0.00    -0.200 F 
ATOM    110  C   UNL     1       4.107  -4.329  -8.204  1.00  0.00     0.200 A 
ATOM    111  F   UNL     1       5.968  -3.919 -10.097  1.00  0.00    -0.200 F 
ATOM    112  F   UNL     1       3.298  -3.561  -8.995  1.00  0.00    -0.200 F 
ENDBRANCH  79 102
ENDBRANCH  53  54
ENDBRANCH  46  48
ENDBRANCH  45  46
ENDBRANCH  44  45
ENDBRANCH  43  44
ENDBRANCH  42  43
ENDBRANCH  41  42
ENDBRANCH  40  41
ENDBRANCH  39  40
ENDBRANCH   1  39
TORSDOF 26
