REMARK SMILES NS(=O)(=O)c1ccc(-n2nc(C(F)(F)F)cc2-c2ccc(CC(=O)OCCOCCOCCOCCOC(=O)c3ccc(-c4c5nc(c(-c6c(F)c(F)c(F)c(F)c6F)c6ccc([nH]6)c(-c6c(F)c(F)c(F)c(F)c6F)c6nc(c(-c7c(F)c(F)c(F)c(F)c7F)c7ccc4[nH]7)C=C6)C=C5)cc3)cc2)cc1
REMARK SMILES IDX 29 1 28 2 27 3 26 4 25 5 23 6 24 7 22 8 21 9 18 10 19 11
REMARK SMILES IDX 104 12 20 13 103 14 17 15 9 16 10 17 11 18 16 19 8 20 5 21
REMARK SMILES IDX 6 22 106 23 7 24 105 25 2 26 3 27 4 28 1 29 12 32 13 33
REMARK SMILES IDX 14 34 15 35 30 36 31 37 32 38 33 39 34 40 35 41 36 42 37 43
REMARK SMILES IDX 38 44 39 45 40 46 41 47 102 48 42 49 101 50 43 51 44 52
REMARK SMILES IDX 45 53 95 54 46 55 100 56 94 57 96 58 47 59 99 60 93 61 92 62
REMARK SMILES IDX 48 64 80 65 60 66 79 67 61 68 64 69 78 70 97 71 62 72 63 73
REMARK SMILES IDX 77 75 98 76 65 77 49 78 50 79 58 80 51 81 52 82 56 83 59 84
REMARK SMILES IDX 53 85 54 86 57 87 55 88 81 89 82 90 90 91 83 92 84 93 88 94
REMARK SMILES IDX 91 95 85 96 86 97 89 98 87 99 66 100 67 101 75 102 68 103
REMARK SMILES IDX 69 104 73 105 76 106 70 107 71 108 74 109 72 110
REMARK H PARENT 1 30 1 31 96 63 64 74
REMARK Flexibility Score: inf
ROOT
ATOM      1  C   UNL     1       6.655  -1.480   0.912  1.00  0.00     0.188 C 
ENDROOT
BRANCH   1   2
ATOM      2  O   UNL     1       6.705  -2.201  -0.301  1.00  0.00    -0.376 OA
BRANCH   2   3
ATOM      3  C   UNL     1       6.683  -3.619  -0.226  1.00  0.00     0.202 C 
BRANCH   3   4
ATOM      4  C   UNL     1       5.694  -4.326   0.728  1.00  0.00     0.261 C 
BRANCH   4   5
ATOM      5  O   UNL     1       5.759  -3.980   2.136  1.00  0.00    -0.463 OA
BRANCH   5   6
ATOM      6  C   UNL     1       6.923  -4.151   2.792  1.00  0.00     0.310 C 
ATOM      7  O   UNL     1       7.887  -4.731   2.299  1.00  0.00    -0.252 OA
BRANCH   6   8
ATOM      8  C   UNL     1       6.984  -3.554   4.191  1.00  0.00     0.158 C 
BRANCH   8   9
ATOM      9  C   UNL     1       5.927  -2.607   4.765  1.00  0.00    -0.037 A 
ATOM     10  C   UNL     1       4.189  -0.853   6.270  1.00  0.00     0.000 A 
ATOM     11  C   UNL     1       5.287  -0.354   5.559  1.00  0.00     0.010 A 
ATOM     12  C   UNL     1       3.955  -2.238   6.179  1.00  0.00     0.010 A 
ATOM     13  C   UNL     1       6.143  -1.215   4.827  1.00  0.00     0.005 A 
ATOM     14  C   UNL     1       4.797  -3.097   5.431  1.00  0.00     0.005 A 
BRANCH  10  15
ATOM     15  C   UNL     1       3.433  -0.016   7.241  1.00  0.00     0.075 A 
ATOM     16  N   UNL     1       2.920   1.287   7.099  1.00  0.00    -0.233 N 
ATOM     17  N   UNL     1       2.537   1.810   8.293  1.00  0.00    -0.163 NA
ATOM     18  C   UNL     1       2.630   0.814   9.183  1.00  0.00     0.167 A 
ATOM     19  C   UNL     1       3.220  -0.322   8.583  1.00  0.00     0.064 A 
BRANCH  16  20
ATOM     20  C   UNL     1       2.655   2.080   5.945  1.00  0.00     0.065 A 
ATOM     21  C   UNL     1       2.062   3.696   3.686  1.00  0.00     0.082 A 
ATOM     22  C   UNL     1       1.997   2.313   3.662  1.00  0.00     0.024 A 
ATOM     23  C   UNL     1       2.329   4.296   4.906  1.00  0.00     0.024 A 
ATOM     24  C   UNL     1       2.355   1.487   4.737  1.00  0.00     0.030 A 
ATOM     25  C   UNL     1       2.574   3.489   6.039  1.00  0.00     0.030 A 
BRANCH  21  26
ATOM     26  S   UNL     1       1.694   4.672   2.230  1.00  0.00     0.238 S 
ATOM     27  O   UNL     1       2.950   5.123   1.691  1.00  0.00    -0.207 OA
ATOM     28  O   UNL     1       0.593   5.562   2.522  1.00  0.00    -0.207 OA
BRANCH  26  29
ATOM     29  N   UNL     1       1.076   3.623   1.075  1.00  0.00    -0.225 NA
ATOM     30  H   UNL     1       0.853   4.144   0.227  1.00  0.00     0.137 HD
ATOM     31  H   UNL     1       0.230   3.182   1.435  1.00  0.00     0.137 HD
ENDBRANCH  26  29
ENDBRANCH  21  26
ENDBRANCH  16  20
BRANCH  18  32
ATOM     32  C   UNL     1       2.170   0.958  10.612  1.00  0.00     0.435 C 
ATOM     33  F   UNL     1       2.133   2.247  11.042  1.00  0.00    -0.164 F 
ATOM     34  F   UNL     1       0.919   0.449  10.787  1.00  0.00    -0.164 F 
ATOM     35  F   UNL     1       2.980   0.284  11.473  1.00  0.00    -0.164 F 
ENDBRANCH  18  32
ENDBRANCH  10  15
ENDBRANCH   8   9
ENDBRANCH   6   8
ENDBRANCH   5   6
ENDBRANCH   4   5
ENDBRANCH   3   4
ENDBRANCH   2   3
ENDBRANCH   1   2
BRANCH   1  36
ATOM     36  C   UNL     1       5.231  -1.303   1.457  1.00  0.00     0.188 C 
BRANCH  36  37
ATOM     37  O   UNL     1       4.115  -1.566   0.615  1.00  0.00    -0.377 OA
BRANCH  37  38
ATOM     38  C   UNL     1       4.122  -1.199  -0.761  1.00  0.00     0.188 C 
BRANCH  38  39
ATOM     39  C   UNL     1       4.526   0.217  -1.196  1.00  0.00     0.188 C 
BRANCH  39  40
ATOM     40  O   UNL     1       5.484   0.819  -0.362  1.00  0.00    -0.376 OA
BRANCH  40  41
ATOM     41  C   UNL     1       4.984   1.674   0.635  1.00  0.00     0.202 C 
BRANCH  41  42
ATOM     42  C   UNL     1       3.557   1.567   1.191  1.00  0.00     0.261 C 
BRANCH  42  43
ATOM     43  O   UNL     1       2.672   0.419   1.229  1.00  0.00    -0.460 OA
BRANCH  43  44
ATOM     44  C   UNL     1       1.565   0.440   0.420  1.00  0.00     0.338 C 
ATOM     45  O   UNL     1       1.567   0.787  -0.753  1.00  0.00    -0.246 OA
BRANCH  44  46
ATOM     46  C   UNL     1       0.273   0.393   1.185  1.00  0.00     0.060 A 
ATOM     47  C   UNL     1      -0.745   1.199   0.657  1.00  0.00     0.016 A 
ATOM     48  C   UNL     1       0.191  -0.008   2.521  1.00  0.00     0.016 A 
ATOM     49  C   UNL     1      -1.595   1.889   1.519  1.00  0.00     0.010 A 
ATOM     50  C   UNL     1      -0.663   0.698   3.387  1.00  0.00     0.010 A 
ATOM     51  C   UNL     1      -1.465   1.743   2.905  1.00  0.00    -0.014 A 
BRANCH  51  52
ATOM     52  C   UNL     1      -2.421   2.478   3.757  1.00  0.00     0.031 A 
ATOM     53  C   UNL     1      -3.722   1.799   3.744  1.00  0.00     0.074 A 
ATOM     54  C   UNL     1      -2.286   3.579   4.531  1.00  0.00     0.049 A 
ATOM     55  N   UNL     1      -4.795   2.190   3.146  1.00  0.00    -0.248 NA
ATOM     56  C   UNL     1      -3.764   0.437   4.288  1.00  0.00     0.031 C 
ATOM     57  C   UNL     1      -1.061   4.263   4.872  1.00  0.00     0.029 A 
ATOM     58  N   UNL     1      -3.217   4.305   5.237  1.00  0.00    -0.354 N 
ATOM     59  C   UNL     1      -5.713   1.191   3.408  1.00  0.00     0.074 A 
ATOM     60  C   UNL     1      -4.975   0.054   3.893  1.00  0.00     0.031 C 
ATOM     61  C   UNL     1      -1.256   5.180   5.840  1.00  0.00     0.029 A 
ATOM     62  C   UNL     1      -2.671   5.225   6.137  1.00  0.00     0.049 A 
ATOM     63  H   UNL     1      -4.188   4.186   5.119  1.00  0.00     0.167 HD
ATOM     64  C   UNL     1      -7.034   1.472   3.519  1.00  0.00     0.037 A 
ATOM     65  C   UNL     1      -3.300   5.969   7.084  1.00  0.00     0.037 A 
ATOM     66  C   UNL     1      -7.383   2.715   2.885  1.00  0.00     0.049 A 
ATOM     67  C   UNL     1      -4.731   6.030   6.723  1.00  0.00     0.074 A 
ATOM     68  C   UNL     1      -7.263   3.215   1.602  1.00  0.00     0.029 A 
ATOM     69  N   UNL     1      -7.638   3.798   3.686  1.00  0.00    -0.354 N 
ATOM     70  N   UNL     1      -5.208   6.738   5.740  1.00  0.00    -0.248 NA
ATOM     71  C   UNL     1      -5.604   4.981   7.222  1.00  0.00     0.031 C 
ATOM     72  C   UNL     1      -7.035   4.613   1.754  1.00  0.00     0.029 A 
ATOM     73  C   UNL     1      -7.056   4.902   3.118  1.00  0.00     0.049 A 
ATOM     74  H   UNL     1      -8.152   3.785   4.526  1.00  0.00     0.167 HD
ATOM     75  C   UNL     1      -6.213   5.948   5.207  1.00  0.00     0.074 A 
ATOM     76  C   UNL     1      -6.499   4.952   6.232  1.00  0.00     0.031 C 
ATOM     77  C   UNL     1      -6.504   6.002   3.876  1.00  0.00     0.037 A 
BRANCH  64  78
ATOM     78  C   UNL     1      -7.891   0.778   4.535  1.00  0.00     0.064 A 
ATOM     79  C   UNL     1      -9.286   0.837   4.418  1.00  0.00     0.173 A 
ATOM     80  C   UNL     1      -7.394   0.255   5.754  1.00  0.00     0.173 A 
ATOM     81  F   UNL     1      -9.853   1.377   3.330  1.00  0.00    -0.203 F 
ATOM     82  C   UNL     1     -10.122   0.412   5.452  1.00  0.00     0.198 A 
ATOM     83  C   UNL     1      -8.228  -0.236   6.750  1.00  0.00     0.198 A 
ATOM     84  F   UNL     1      -6.094   0.299   6.074  1.00  0.00    -0.203 F 
ATOM     85  F   UNL     1     -11.445   0.585   5.346  1.00  0.00    -0.200 F 
ATOM     86  C   UNL     1      -9.594  -0.135   6.610  1.00  0.00     0.200 A 
ATOM     87  F   UNL     1      -7.692  -0.738   7.871  1.00  0.00    -0.200 F 
ATOM     88  F   UNL     1     -10.396  -0.511   7.614  1.00  0.00    -0.200 F 
ENDBRANCH  64  78
BRANCH  65  89
ATOM     89  C   UNL     1      -2.792   6.464   8.392  1.00  0.00     0.064 A 
ATOM     90  C   UNL     1      -3.463   7.471   9.110  1.00  0.00     0.173 A 
ATOM     91  C   UNL     1      -1.790   5.767   9.096  1.00  0.00     0.173 A 
ATOM     92  F   UNL     1      -4.456   8.165   8.536  1.00  0.00    -0.203 F 
ATOM     93  C   UNL     1      -3.173   7.736  10.455  1.00  0.00     0.198 A 
ATOM     94  C   UNL     1      -1.494   6.039  10.433  1.00  0.00     0.198 A 
ATOM     95  F   UNL     1      -1.140   4.741   8.529  1.00  0.00    -0.203 F 
ATOM     96  F   UNL     1      -3.882   8.657  11.124  1.00  0.00    -0.200 F 
ATOM     97  C   UNL     1      -2.198   7.012  11.118  1.00  0.00     0.200 A 
ATOM     98  F   UNL     1      -0.569   5.309  11.072  1.00  0.00    -0.200 F 
ATOM     99  F   UNL     1      -1.965   7.219  12.422  1.00  0.00    -0.200 F 
ENDBRANCH  65  89
BRANCH  77 100
ATOM    100  C   UNL     1      -5.995   7.185   3.099  1.00  0.00     0.064 A 
ATOM    101  C   UNL     1      -4.634   7.489   2.912  1.00  0.00     0.173 A 
ATOM    102  C   UNL     1      -6.932   7.976   2.418  1.00  0.00     0.173 A 
ATOM    103  F   UNL     1      -3.676   6.724   3.454  1.00  0.00    -0.203 F 
ATOM    104  C   UNL     1      -4.239   8.563   2.114  1.00  0.00     0.198 A 
ATOM    105  C   UNL     1      -6.533   9.021   1.591  1.00  0.00     0.198 A 
ATOM    106  F   UNL     1      -8.242   7.703   2.521  1.00  0.00    -0.203 F 
ATOM    107  F   UNL     1      -2.938   8.846   1.961  1.00  0.00    -0.200 F 
ATOM    108  C   UNL     1      -5.188   9.322   1.447  1.00  0.00     0.200 A 
ATOM    109  F   UNL     1      -7.452   9.722   0.912  1.00  0.00    -0.200 F 
ATOM    110  F   UNL     1      -4.807  10.326   0.645  1.00  0.00    -0.200 F 
ENDBRANCH  77 100
ENDBRANCH  51  52
ENDBRANCH  44  46
ENDBRANCH  43  44
ENDBRANCH  42  43
ENDBRANCH  41  42
ENDBRANCH  40  41
ENDBRANCH  39  40
ENDBRANCH  38  39
ENDBRANCH  37  38
ENDBRANCH  36  37
ENDBRANCH   1  36
TORSDOF 26
