REMARK SMILES Cc1ccc(-c2nn(-c3ccccc3)cc2[C@@H]2[NH2+][C@H](C(=O)OCCOCCOCCOCCOC(=O)c3ccc(-c4c5nc(c(-c6c(F)c(F)c(F)c(F)c6F)c6ccc([nH]6)c(-c6c(F)c(F)c(F)c(F)c6F)c6nc(c(-c7c(F)c(F)c(F)c(F)c7F)c7ccc4[nH]7)C=C6)C=C5)cc3)CS2)cc1
REMARK SMILES IDX 28 1 27 2 26 3 25 4 24 5 23 6 22 7 20 8 21 9 19 10 17 11
REMARK SMILES IDX 18 12 101 13 100 16 16 17 6 18 7 19 8 20 15 21 5 22 1 23
REMARK SMILES IDX 2 24 3 25 103 26 4 27 102 28 9 29 10 30 14 31 11 32 13 33
REMARK SMILES IDX 12 34 29 35 30 36 31 37 32 38 33 39 34 40 35 41 36 42 37 43
REMARK SMILES IDX 38 44 99 45 39 46 98 47 40 48 41 49 42 50 92 51 43 52 97 53
REMARK SMILES IDX 91 54 93 55 44 56 96 57 90 58 89 59 45 61 77 62 57 63 76 64
REMARK SMILES IDX 58 65 61 66 75 67 94 68 59 69 60 70 74 72 95 73 62 74 46 75
REMARK SMILES IDX 47 76 55 77 48 78 49 79 53 80 56 81 50 82 51 83 54 84 52 85
REMARK SMILES IDX 78 86 79 87 87 88 80 89 81 90 85 91 88 92 82 93 83 94 86 95
REMARK SMILES IDX 84 96 63 97 64 98 72 99 65 100 66 101 70 102 73 103 67 104
REMARK SMILES IDX 68 105 71 106 69 107
REMARK H PARENT 18 14 18 15 93 60 61 71
REMARK Flexibility Score: inf
ROOT
ATOM      1  O   UNL     1      -3.218  -4.377   0.906  1.00  0.00    -0.377 OA
ENDROOT
BRANCH   1   2
ATOM      2  C   UNL     1      -3.488  -5.666   1.466  1.00  0.00     0.188 C 
BRANCH   2   3
ATOM      3  C   UNL     1      -4.858  -5.888   2.132  1.00  0.00     0.188 C 
BRANCH   3   4
ATOM      4  O   UNL     1      -5.949  -6.327   1.340  1.00  0.00    -0.376 OA
BRANCH   4   5
ATOM      5  C   UNL     1      -7.046  -5.419   1.206  1.00  0.00     0.202 C 
BRANCH   5   6
ATOM      6  C   UNL     1      -7.659  -4.753   2.454  1.00  0.00     0.261 C 
BRANCH   6   7
ATOM      7  O   UNL     1      -6.908  -3.555   2.733  1.00  0.00    -0.459 OA
BRANCH   7   8
ATOM      8  C   UNL     1      -6.171  -3.380   3.855  1.00  0.00     0.365 C 
ATOM      9  O   UNL     1      -6.374  -3.950   4.916  1.00  0.00    -0.245 OA
BRANCH   8  10
ATOM     10  C   UNL     1      -4.915  -2.518   3.523  1.00  0.00     0.304 C 
ATOM     11  C   UNL     1      -3.818  -1.462   1.577  1.00  0.00     0.278 C 
ATOM     12  N   UNL     1      -4.667  -2.544   2.047  1.00  0.00    -0.319 N 
ATOM     13  S   UNL     1      -3.974  -0.141   2.896  1.00  0.00    -0.087 SA
ATOM     14  H   UNL     1      -4.220  -3.430   1.811  1.00  0.00     0.348 HD
ATOM     15  H   UNL     1      -5.573  -2.431   1.591  1.00  0.00     0.348 HD
ATOM     16  C   UNL     1      -5.047  -1.097   4.011  1.00  0.00     0.153 C 
BRANCH  11  17
ATOM     17  C   UNL     1      -3.994  -0.867  -0.075  1.00  0.00     0.067 A 
ATOM     18  C   UNL     1      -3.359   0.981   0.039  1.00  0.00     0.103 A 
ATOM     19  N   UNL     1      -4.272   1.976  -0.987  1.00  0.00    -0.167 NA
ATOM     20  N   UNL     1      -5.526   0.995  -1.950  1.00  0.00    -0.240 N 
ATOM     21  C   UNL     1      -5.251  -0.860  -1.499  1.00  0.00     0.126 A 
BRANCH  18  22
ATOM     22  C   UNL     1      -1.780   1.186   0.403  1.00  0.00     0.003 A 
ATOM     23  C   UNL     1       2.615   0.621   0.012  1.00  0.00     0.044 C 
ATOM     24  C   UNL     1       1.151   0.903   0.239  1.00  0.00    -0.051 A 
ATOM     25  C   UNL     1       0.371  -0.086   0.793  1.00  0.00     0.004 A 
ATOM     26  C   UNL     1       0.477   2.073  -0.153  1.00  0.00     0.004 A 
ATOM     27  C   UNL     1      -1.021   0.104   0.934  1.00  0.00     0.011 A 
ATOM     28  C   UNL     1      -0.964   2.206  -0.099  1.00  0.00     0.011 A 
ENDBRANCH  18  22
BRANCH  20  29
ATOM     29  C   UNL     1      -6.498   1.703  -2.821  1.00  0.00     0.065 A 
ATOM     30  C   UNL     1      -6.993   1.191  -4.027  1.00  0.00     0.028 A 
ATOM     31  C   UNL     1      -7.109   2.863  -2.344  1.00  0.00     0.028 A 
ATOM     32  C   UNL     1      -8.234   1.559  -4.529  1.00  0.00     0.002 A 
ATOM     33  C   UNL     1      -8.406   3.179  -2.785  1.00  0.00     0.002 A 
ATOM     34  C   UNL     1      -8.993   2.479  -3.837  1.00  0.00     0.000 A 
ENDBRANCH  20  29
ENDBRANCH  11  17
ENDBRANCH   8  10
ENDBRANCH   7   8
ENDBRANCH   6   7
ENDBRANCH   5   6
ENDBRANCH   4   5
ENDBRANCH   3   4
ENDBRANCH   2   3
ENDBRANCH   1   2
BRANCH   1  35
ATOM     35  C   UNL     1      -3.782  -4.065  -0.368  1.00  0.00     0.188 C 
BRANCH  35  36
ATOM     36  C   UNL     1      -3.295  -4.924  -1.480  1.00  0.00     0.188 C 
BRANCH  36  37
ATOM     37  O   UNL     1      -4.026  -6.131  -1.360  1.00  0.00    -0.376 OA
BRANCH  37  38
ATOM     38  C   UNL     1      -3.332  -7.295  -1.756  1.00  0.00     0.202 C 
BRANCH  38  39
ATOM     39  C   UNL     1      -2.725  -7.166  -3.151  1.00  0.00     0.261 C 
BRANCH  39  40
ATOM     40  O   UNL     1      -3.805  -7.144  -4.117  1.00  0.00    -0.460 OA
BRANCH  40  41
ATOM     41  C   UNL     1      -4.086  -5.941  -4.696  1.00  0.00     0.338 C 
ATOM     42  O   UNL     1      -3.361  -5.385  -5.503  1.00  0.00    -0.246 OA
BRANCH  41  43
ATOM     43  C   UNL     1      -5.330  -5.321  -4.123  1.00  0.00     0.060 A 
ATOM     44  C   UNL     1      -5.622  -3.969  -4.344  1.00  0.00     0.016 A 
ATOM     45  C   UNL     1      -6.075  -6.000  -3.167  1.00  0.00     0.016 A 
ATOM     46  C   UNL     1      -6.517  -3.280  -3.488  1.00  0.00     0.010 A 
ATOM     47  C   UNL     1      -6.858  -5.284  -2.259  1.00  0.00     0.010 A 
ATOM     48  C   UNL     1      -7.053  -3.899  -2.351  1.00  0.00    -0.014 A 
BRANCH  48  49
ATOM     49  C   UNL     1      -7.899  -3.227  -1.301  1.00  0.00     0.031 A 
ATOM     50  C   UNL     1      -9.322  -3.627  -1.232  1.00  0.00     0.074 A 
ATOM     51  C   UNL     1      -7.440  -2.499  -0.231  1.00  0.00     0.049 A 
ATOM     52  N   UNL     1     -10.188  -3.058  -0.472  1.00  0.00    -0.248 NA
ATOM     53  C   UNL     1      -9.867  -4.826  -1.864  1.00  0.00     0.031 C 
ATOM     54  C   UNL     1      -8.040  -1.870   0.926  1.00  0.00     0.029 A 
ATOM     55  N   UNL     1      -6.167  -2.110   0.075  1.00  0.00    -0.354 N 
ATOM     56  C   UNL     1     -11.030  -4.059  -0.049  1.00  0.00     0.074 A 
ATOM     57  C   UNL     1     -10.934  -5.054  -1.089  1.00  0.00     0.031 C 
ATOM     58  C   UNL     1      -7.297  -0.852   1.436  1.00  0.00     0.029 A 
ATOM     59  C   UNL     1      -6.170  -0.695   0.534  1.00  0.00     0.049 A 
ATOM     60  H   UNL     1      -5.367  -2.680   0.003  1.00  0.00     0.167 HD
ATOM     61  C   UNL     1     -11.502  -3.995   1.234  1.00  0.00     0.037 A 
ATOM     62  C   UNL     1      -5.336   0.445  -0.183  1.00  0.00     0.037 A 
ATOM     63  C   UNL     1     -11.180  -2.686   1.891  1.00  0.00     0.049 A 
ATOM     64  C   UNL     1      -6.931   1.286   0.045  1.00  0.00     0.074 A 
ATOM     65  C   UNL     1     -10.701  -2.296   3.135  1.00  0.00     0.029 A 
ATOM     66  N   UNL     1     -11.144  -1.500   1.115  1.00  0.00    -0.354 N 
ATOM     67  N   UNL     1      -8.148   0.757  -0.221  1.00  0.00    -0.248 NA
ATOM     68  C   UNL     1      -7.106   2.501   0.868  1.00  0.00     0.031 C 
ATOM     69  C   UNL     1     -10.267  -0.926   3.047  1.00  0.00     0.029 A 
ATOM     70  C   UNL     1     -10.444  -0.466   1.738  1.00  0.00     0.049 A 
ATOM     71  H   UNL     1     -11.567  -1.415   0.231  1.00  0.00     0.167 HD
ATOM     72  C   UNL     1      -9.159   1.385   0.549  1.00  0.00     0.074 A 
ATOM     73  C   UNL     1      -8.444   2.554   1.080  1.00  0.00     0.031 C 
ATOM     74  C   UNL     1     -10.343   0.872   1.115  1.00  0.00     0.037 A 
BRANCH  61  75
ATOM     75  C   UNL     1     -12.072  -5.204   1.991  1.00  0.00     0.064 A 
ATOM     76  C   UNL     1     -12.733  -5.022   3.226  1.00  0.00     0.173 A 
ATOM     77  C   UNL     1     -11.938  -6.564   1.613  1.00  0.00     0.173 A 
ATOM     78  F   UNL     1     -12.943  -3.795   3.720  1.00  0.00    -0.203 F 
ATOM     79  C   UNL     1     -13.205  -6.089   4.007  1.00  0.00     0.198 A 
ATOM     80  C   UNL     1     -12.474  -7.627   2.360  1.00  0.00     0.198 A 
ATOM     81  F   UNL     1     -11.231  -6.941   0.543  1.00  0.00    -0.203 F 
ATOM     82  F   UNL     1     -13.764  -5.843   5.200  1.00  0.00    -0.200 F 
ATOM     83  C   UNL     1     -13.095  -7.391   3.565  1.00  0.00     0.200 A 
ATOM     84  F   UNL     1     -12.356  -8.885   1.907  1.00  0.00    -0.200 F 
ATOM     85  F   UNL     1     -13.566  -8.408   4.299  1.00  0.00    -0.200 F 
ENDBRANCH  61  75
BRANCH  62  86
ATOM     86  C   UNL     1      -3.824   0.201  -1.742  1.00  0.00     0.064 A 
ATOM     87  C   UNL     1      -2.424  -0.553  -1.829  1.00  0.00     0.173 A 
ATOM     88  C   UNL     1      -4.072  -0.057  -3.354  1.00  0.00     0.173 A 
ATOM     89  F   UNL     1      -1.942  -1.238  -0.773  1.00  0.00    -0.203 F 
ATOM     90  C   UNL     1      -1.628  -1.010  -2.955  1.00  0.00     0.198 A 
ATOM     91  C   UNL     1      -3.293  -0.475  -4.465  1.00  0.00     0.198 A 
ATOM     92  F   UNL     1      -5.307  -0.482  -3.695  1.00  0.00    -0.203 F 
ATOM     93  F   UNL     1      -0.527  -1.738  -2.694  1.00  0.00    -0.200 F 
ATOM     94  C   UNL     1      -2.055  -0.967  -4.254  1.00  0.00     0.200 A 
ATOM     95  F   UNL     1      -3.925  -0.746  -5.623  1.00  0.00    -0.200 F 
ATOM     96  F   UNL     1      -1.423  -1.645  -5.222  1.00  0.00    -0.200 F 
ENDBRANCH  62  86
BRANCH  74  97
ATOM     97  C   UNL     1     -11.671   1.657   1.241  1.00  0.00     0.064 A 
ATOM     98  C   UNL     1     -11.887   2.908   0.657  1.00  0.00     0.173 A 
ATOM     99  C   UNL     1     -12.850   1.056   1.802  1.00  0.00     0.173 A 
ATOM    100  F   UNL     1     -10.888   3.573   0.063  1.00  0.00    -0.203 F 
ATOM    101  C   UNL     1     -13.159   3.503   0.638  1.00  0.00     0.198 A 
ATOM    102  C   UNL     1     -14.117   1.623   1.728  1.00  0.00     0.198 A 
ATOM    103  F   UNL     1     -12.844  -0.127   2.431  1.00  0.00    -0.203 F 
ATOM    104  F   UNL     1     -13.309   4.716   0.090  1.00  0.00    -0.200 F 
ATOM    105  C   UNL     1     -14.272   2.856   1.153  1.00  0.00     0.200 A 
ATOM    106  F   UNL     1     -15.177   0.950   2.201  1.00  0.00    -0.200 F 
ATOM    107  F   UNL     1     -15.487   3.415   1.089  1.00  0.00    -0.200 F 
ENDBRANCH  74  97
ENDBRANCH  48  49
ENDBRANCH  41  43
ENDBRANCH  40  41
ENDBRANCH  39  40
ENDBRANCH  38  39
ENDBRANCH  37  38
ENDBRANCH  36  37
ENDBRANCH  35  36
ENDBRANCH   1  35
TORSDOF 23
