REMARK SMILES CC[C@@H](C)SCc1cc(F)cc(/C=C/C(=O)OCCOCCOCCOCCOC(=O)c2ccc(-c3c4nc(c(-c5c(F)c(F)c(F)c(F)c5F)c5ccc([nH]5)c(-c5c(F)c(F)c(F)c(F)c5F)c5nc(c(-c6c(F)c(F)c(F)c(F)c6F)c6ccc3[nH]6)C=C5)C=C4)cc2)c1
REMARK SMILES IDX 21 1 20 2 19 3 18 4 17 5 15 6 16 7 14 8 13 9 12 10 7 11 8 12
REMARK SMILES IDX 95 13 9 14 10 15 11 16 6 17 5 18 3 19 4 20 2 21 1 22 22 23
REMARK SMILES IDX 23 24 24 25 25 26 26 27 27 28 28 29 29 30 30 31 31 32 32 33
REMARK SMILES IDX 33 34 94 35 34 36 93 37 35 38 36 39 37 40 87 41 38 42 92 43
REMARK SMILES IDX 86 44 88 45 39 46 91 47 85 48 84 49 40 51 72 52 52 53 71 54
REMARK SMILES IDX 53 55 56 56 70 57 89 58 54 59 55 60 69 62 90 63 57 64 41 65
REMARK SMILES IDX 42 66 50 67 43 68 44 69 48 70 51 71 45 72 46 73 49 74 47 75
REMARK SMILES IDX 73 76 74 77 82 78 75 79 76 80 80 81 83 82 77 83 78 84 81 85
REMARK SMILES IDX 79 86 58 87 59 88 67 89 60 90 61 91 65 92 68 93 62 94 63 95
REMARK SMILES IDX 66 96 64 97
REMARK H PARENT 88 50 56 61
REMARK Flexibility Score: inf
ROOT
ATOM      1  C   UNL     1      -0.177   9.539   2.447  1.00  0.00     0.188 C 
ENDROOT
BRANCH   1   2
ATOM      2  O   UNL     1       0.442  10.533   3.245  1.00  0.00    -0.376 OA
BRANCH   2   3
ATOM      3  C   UNL     1      -0.081  10.820   4.528  1.00  0.00     0.202 C 
BRANCH   3   4
ATOM      4  C   UNL     1      -0.198   9.690   5.562  1.00  0.00     0.261 C 
BRANCH   4   5
ATOM      5  O   UNL     1      -0.733   8.452   5.083  1.00  0.00    -0.460 OA
BRANCH   5   6
ATOM      6  C   UNL     1      -2.063   8.413   4.858  1.00  0.00     0.330 C 
ATOM      7  O   UNL     1      -2.849   9.330   5.034  1.00  0.00    -0.247 OA
BRANCH   6   8
ATOM      8  C   UNL     1      -2.457   7.140   4.213  1.00  0.00     0.094 C 
ATOM      9  C   UNL     1      -1.707   6.025   4.205  1.00  0.00     0.016 C 
BRANCH   9  10
ATOM     10  C   UNL     1      -2.105   4.774   3.539  1.00  0.00    -0.022 A 
ATOM     11  C   UNL     1      -1.948   2.328   3.429  1.00  0.00    -0.035 A 
ATOM     12  C   UNL     1      -2.812   2.334   2.328  1.00  0.00     0.043 A 
ATOM     13  C   UNL     1      -1.625   3.554   4.042  1.00  0.00     0.013 A 
ATOM     14  C   UNL     1      -3.260   3.543   1.810  1.00  0.00     0.124 A 
ATOM     15  F   UNL     1      -4.040   3.541   0.721  1.00  0.00    -0.207 F 
ATOM     16  C   UNL     1      -2.899   4.755   2.388  1.00  0.00     0.047 A 
BRANCH  11  17
ATOM     17  C   UNL     1      -1.379   1.027   3.933  1.00  0.00     0.105 C 
BRANCH  17  18
ATOM     18  S   UNL     1       0.445   0.976   4.015  1.00  0.00    -0.154 SA
BRANCH  18  19
ATOM     19  C   UNL     1       0.970   1.062   2.247  1.00  0.00     0.043 C 
ATOM     20  C   UNL     1       0.742   2.438   1.624  1.00  0.00     0.019 C 
BRANCH  19  21
ATOM     21  C   UNL     1       0.398  -0.095   1.414  1.00  0.00     0.011 C 
ATOM     22  C   UNL     1       0.937  -0.122  -0.012  1.00  0.00     0.005 C 
ENDBRANCH  19  21
ENDBRANCH  18  19
ENDBRANCH  17  18
ENDBRANCH  11  17
ENDBRANCH   9  10
ENDBRANCH   6   8
ENDBRANCH   5   6
ENDBRANCH   4   5
ENDBRANCH   3   4
ENDBRANCH   2   3
ENDBRANCH   1   2
BRANCH   1  23
ATOM     23  C   UNL     1       0.650   8.243   2.325  1.00  0.00     0.188 C 
BRANCH  23  24
ATOM     24  O   UNL     1       1.715   8.034   3.242  1.00  0.00    -0.377 OA
BRANCH  24  25
ATOM     25  C   UNL     1       2.728   9.027   3.400  1.00  0.00     0.188 C 
BRANCH  25  26
ATOM     26  C   UNL     1       2.986  10.135   2.349  1.00  0.00     0.188 C 
BRANCH  26  27
ATOM     27  O   UNL     1       2.326   9.941   1.111  1.00  0.00    -0.376 OA
BRANCH  27  28
ATOM     28  C   UNL     1       3.119   9.599  -0.010  1.00  0.00     0.202 C 
BRANCH  28  29
ATOM     29  C   UNL     1       3.840   8.246   0.047  1.00  0.00     0.261 C 
BRANCH  29  30
ATOM     30  O   UNL     1       4.650   8.011   1.210  1.00  0.00    -0.460 OA
BRANCH  30  31
ATOM     31  C   UNL     1       5.760   8.764   1.352  1.00  0.00     0.338 C 
ATOM     32  O   UNL     1       6.166   9.635   0.597  1.00  0.00    -0.246 OA
BRANCH  31  33
ATOM     33  C   UNL     1       6.328   8.483   2.686  1.00  0.00     0.060 A 
ATOM     34  C   UNL     1       6.431   9.523   3.619  1.00  0.00     0.016 A 
ATOM     35  C   UNL     1       6.753   7.194   3.013  1.00  0.00     0.016 A 
ATOM     36  C   UNL     1       6.997   9.282   4.872  1.00  0.00     0.010 A 
ATOM     37  C   UNL     1       7.337   6.958   4.260  1.00  0.00     0.010 A 
ATOM     38  C   UNL     1       7.494   8.009   5.181  1.00  0.00    -0.014 A 
BRANCH  38  39
ATOM     39  C   UNL     1       8.342   7.820   6.383  1.00  0.00     0.031 A 
ATOM     40  C   UNL     1       9.836   7.809   6.208  1.00  0.00     0.074 A 
ATOM     41  C   UNL     1       7.805   7.686   7.608  1.00  0.00     0.049 A 
ATOM     42  N   UNL     1      10.777   7.613   7.095  1.00  0.00    -0.248 NA
ATOM     43  C   UNL     1      10.337   8.054   4.845  1.00  0.00     0.031 C 
ATOM     44  C   UNL     1       6.377   7.727   7.911  1.00  0.00     0.029 A 
ATOM     45  N   UNL     1       8.405   7.482   8.827  1.00  0.00    -0.354 N 
ATOM     46  C   UNL     1      11.975   7.706   6.399  1.00  0.00     0.074 A 
ATOM     47  C   UNL     1      11.646   7.941   5.011  1.00  0.00     0.031 C 
ATOM     48  C   UNL     1       6.209   7.549   9.233  1.00  0.00     0.029 A 
ATOM     49  C   UNL     1       7.514   7.344   9.862  1.00  0.00     0.049 A 
ATOM     50  H   UNL     1       9.381   7.440   8.947  1.00  0.00     0.167 HD
ATOM     51  C   UNL     1      13.237   7.616   6.880  1.00  0.00     0.037 A 
ATOM     52  C   UNL     1       7.728   7.063  11.164  1.00  0.00     0.037 A 
ATOM     53  C   UNL     1      13.560   7.386   8.263  1.00  0.00     0.049 A 
ATOM     54  C   UNL     1       9.141   6.884  11.661  1.00  0.00     0.074 A 
ATOM     55  C   UNL     1      14.810   7.294   8.848  1.00  0.00     0.029 A 
ATOM     56  N   UNL     1      12.628   7.207   9.274  1.00  0.00    -0.354 N 
ATOM     57  N   UNL     1      10.270   6.987  11.001  1.00  0.00    -0.248 NA
ATOM     58  C   UNL     1       9.310   6.550  13.083  1.00  0.00     0.031 C 
ATOM     59  C   UNL     1      14.636   6.995  10.201  1.00  0.00     0.029 A 
ATOM     60  C   UNL     1      13.278   6.973  10.475  1.00  0.00     0.049 A 
ATOM     61  H   UNL     1      11.652   7.240   9.156  1.00  0.00     0.167 HD
ATOM     62  C   UNL     1      11.280   6.761  11.929  1.00  0.00     0.074 A 
ATOM     63  C   UNL     1      10.632   6.526  13.201  1.00  0.00     0.031 C 
ATOM     64  C   UNL     1      12.622   6.750  11.740  1.00  0.00     0.037 A 
BRANCH  51  65
ATOM     65  C   UNL     1      14.371   7.750   5.906  1.00  0.00     0.064 A 
ATOM     66  C   UNL     1      15.195   6.650   5.623  1.00  0.00     0.173 A 
ATOM     67  C   UNL     1      14.693   8.980   5.314  1.00  0.00     0.173 A 
ATOM     68  F   UNL     1      14.933   5.451   6.165  1.00  0.00    -0.203 F 
ATOM     69  C   UNL     1      16.311   6.782   4.801  1.00  0.00     0.198 A 
ATOM     70  C   UNL     1      15.791   9.101   4.467  1.00  0.00     0.198 A 
ATOM     71  F   UNL     1      13.928  10.059   5.540  1.00  0.00    -0.203 F 
ATOM     72  F   UNL     1      17.106   5.726   4.579  1.00  0.00    -0.200 F 
ATOM     73  C   UNL     1      16.606   8.006   4.221  1.00  0.00     0.200 A 
ATOM     74  F   UNL     1      16.061  10.279   3.886  1.00  0.00    -0.200 F 
ATOM     75  F   UNL     1      17.677   8.131   3.425  1.00  0.00    -0.200 F 
ENDBRANCH  51  65
BRANCH  52  76
ATOM     76  C   UNL     1       6.571   6.937  12.089  1.00  0.00     0.064 A 
ATOM     77  C   UNL     1       5.653   5.882  11.970  1.00  0.00     0.173 A 
ATOM     78  C   UNL     1       6.350   7.878  13.104  1.00  0.00     0.173 A 
ATOM     79  F   UNL     1       5.821   4.950  11.020  1.00  0.00    -0.203 F 
ATOM     80  C   UNL     1       4.546   5.790  12.812  1.00  0.00     0.198 A 
ATOM     81  C   UNL     1       5.260   7.768  13.965  1.00  0.00     0.198 A 
ATOM     82  F   UNL     1       7.214   8.890  13.278  1.00  0.00    -0.203 F 
ATOM     83  F   UNL     1       3.666   4.793  12.650  1.00  0.00    -0.200 F 
ATOM     84  C   UNL     1       4.353   6.731  13.811  1.00  0.00     0.200 A 
ATOM     85  F   UNL     1       5.092   8.663  14.948  1.00  0.00    -0.200 F 
ATOM     86  F   UNL     1       3.295   6.635  14.629  1.00  0.00    -0.200 F 
ENDBRANCH  52  76
BRANCH  64  87
ATOM     87  C   UNL     1      13.502   6.508  12.935  1.00  0.00     0.064 A 
ATOM     88  C   UNL     1      14.334   7.531  13.421  1.00  0.00     0.173 A 
ATOM     89  C   UNL     1      13.595   5.247  13.539  1.00  0.00     0.173 A 
ATOM     90  F   UNL     1      14.293   8.754  12.871  1.00  0.00    -0.203 F 
ATOM     91  C   UNL     1      15.240   7.292  14.450  1.00  0.00     0.198 A 
ATOM     92  C   UNL     1      14.478   5.020  14.592  1.00  0.00     0.198 A 
ATOM     93  F   UNL     1      12.816   4.238  13.119  1.00  0.00    -0.203 F 
ATOM     94  F   UNL     1      16.056   8.271  14.864  1.00  0.00    -0.200 F 
ATOM     95  C   UNL     1      15.308   6.038  15.038  1.00  0.00     0.200 A 
ATOM     96  F   UNL     1      14.526   3.815  15.176  1.00  0.00    -0.200 F 
ATOM     97  F   UNL     1      16.174   5.811  16.035  1.00  0.00    -0.200 F 
ENDBRANCH  64  87
ENDBRANCH  38  39
ENDBRANCH  31  33
ENDBRANCH  30  31
ENDBRANCH  29  30
ENDBRANCH  28  29
ENDBRANCH  27  28
ENDBRANCH  26  27
ENDBRANCH  25  26
ENDBRANCH  24  25
ENDBRANCH  23  24
ENDBRANCH   1  23
TORSDOF 25
