REMARK SMILES CC1(C)C(NC(=O)[C@@H]2CCC[C@@H](C(=O)OCCOCCOCCOCCOC(=O)c3ccc(-c4c5nc(c(-c6c(F)c(F)c(F)c(F)c6F)c6ccc([nH]6)c(-c6c(F)c(F)c(F)c(F)c6F)c6nc(c(-c7c(F)c(F)c(F)c(F)c7F)c7ccc4[nH]7)C=C6)C=C5)cc3)C2)C1(C)C
REMARK SMILES IDX 21 1 20 2 19 3 18 4 17 5 16 6 15 7 13 8 14 9 12 10 8 11 9 12
REMARK SMILES IDX 93 13 10 14 11 15 6 16 5 17 7 19 4 20 1 21 2 22 3 23 94 24
REMARK SMILES IDX 95 25 96 26 22 27 23 28 24 29 25 30 26 31 27 32 28 33 29 34
REMARK SMILES IDX 30 35 31 36 92 37 32 38 91 39 33 40 34 41 35 42 85 43 36 44
REMARK SMILES IDX 90 45 84 46 86 47 37 48 89 49 83 50 82 51 38 53 70 54 50 55
REMARK SMILES IDX 69 56 51 57 54 58 68 59 87 60 52 61 53 62 67 64 88 65 55 66
REMARK SMILES IDX 39 67 40 68 48 69 41 70 42 71 46 72 49 73 43 74 44 75 47 76
REMARK SMILES IDX 45 77 71 78 72 79 80 80 73 81 74 82 78 83 81 84 75 85 76 86
REMARK SMILES IDX 79 87 77 88 56 89 57 90 65 91 58 92 59 93 63 94 66 95 60 96
REMARK SMILES IDX 61 97 64 98 62 99
REMARK H PARENT 5 18 86 52 54 63
REMARK Flexibility Score: inf
ROOT
ATOM      1  O   UNL     1       8.905  -1.254  -0.267  1.00  0.00    -0.377 OA
ENDROOT
BRANCH   1   2
ATOM      2  C   UNL     1       7.951  -2.299  -0.255  1.00  0.00     0.188 C 
BRANCH   2   3
ATOM      3  C   UNL     1       7.807  -3.014  -1.609  1.00  0.00     0.188 C 
BRANCH   3   4
ATOM      4  O   UNL     1       8.531  -2.541  -2.726  1.00  0.00    -0.376 OA
BRANCH   4   5
ATOM      5  C   UNL     1       8.706  -1.160  -2.987  1.00  0.00     0.202 C 
BRANCH   5   6
ATOM      6  C   UNL     1       7.741  -0.026  -2.566  1.00  0.00     0.261 C 
BRANCH   6   7
ATOM      7  O   UNL     1       6.646  -0.298  -1.685  1.00  0.00    -0.463 OA
BRANCH   7   8
ATOM      8  C   UNL     1       5.623  -0.971  -2.254  1.00  0.00     0.309 C 
ATOM      9  O   UNL     1       5.639  -1.371  -3.412  1.00  0.00    -0.252 OA
BRANCH   8  10
ATOM     10  C   UNL     1       4.422  -1.078  -1.318  1.00  0.00     0.100 C 
ATOM     11  C   UNL     1       3.202  -3.068  -2.390  1.00  0.00     0.079 C 
ATOM     12  C   UNL     1       3.638  -4.002  -1.245  1.00  0.00     0.013 C 
ATOM     13  C   UNL     1       3.254  -1.545  -2.168  1.00  0.00     0.028 C 
ATOM     14  C   UNL     1       4.568  -3.416  -0.194  1.00  0.00     0.002 C 
ATOM     15  C   UNL     1       4.478  -1.904  -0.024  1.00  0.00     0.015 C 
BRANCH  11  16
ATOM     16  C   UNL     1       1.799  -3.445  -2.851  1.00  0.00     0.223 C 
ATOM     17  N   UNL     1       0.736  -3.181  -2.020  1.00  0.00    -0.352 N 
ATOM     18  H   UNL     1      -0.152  -3.439  -2.357  1.00  0.00     0.163 HD
ATOM     19  O   UNL     1       1.603  -3.988  -3.938  1.00  0.00    -0.275 OA
BRANCH  17  20
ATOM     20  C   UNL     1       0.767  -2.575  -0.722  1.00  0.00     0.094 C 
ATOM     21  C   UNL     1       0.729  -0.244   0.442  1.00  0.00     0.014 C 
ATOM     22  C   UNL     1       0.022  -1.289  -0.404  1.00  0.00    -0.007 C 
ATOM     23  C   UNL     1      -0.813  -0.658  -1.495  1.00  0.00     0.014 C 
ATOM     24  C   UNL     1      -0.370  -2.634   0.252  1.00  0.00    -0.007 C 
ATOM     25  C   UNL     1       0.051  -2.938   1.679  1.00  0.00     0.014 C 
ATOM     26  C   UNL     1      -1.615  -3.380  -0.153  1.00  0.00     0.014 C 
ENDBRANCH  17  20
ENDBRANCH  11  16
ENDBRANCH   8  10
ENDBRANCH   7   8
ENDBRANCH   6   7
ENDBRANCH   5   6
ENDBRANCH   4   5
ENDBRANCH   3   4
ENDBRANCH   2   3
ENDBRANCH   1   2
BRANCH   1  27
ATOM     27  C   UNL     1      10.169  -1.611   0.255  1.00  0.00     0.188 C 
BRANCH  27  28
ATOM     28  C   UNL     1      10.764  -2.932  -0.263  1.00  0.00     0.188 C 
BRANCH  28  29
ATOM     29  O   UNL     1       9.919  -4.053  -0.022  1.00  0.00    -0.376 OA
BRANCH  29  30
ATOM     30  C   UNL     1      10.190  -4.915   1.069  1.00  0.00     0.202 C 
BRANCH  30  31
ATOM     31  C   UNL     1       9.902  -4.379   2.481  1.00  0.00     0.261 C 
BRANCH  31  32
ATOM     32  O   UNL     1      10.543  -3.149   2.850  1.00  0.00    -0.460 OA
BRANCH  32  33
ATOM     33  C   UNL     1      11.890  -3.087   2.786  1.00  0.00     0.338 C 
ATOM     34  O   UNL     1      12.656  -3.997   2.522  1.00  0.00    -0.246 OA
BRANCH  33  35
ATOM     35  C   UNL     1      12.274  -1.659   2.863  1.00  0.00     0.060 A 
ATOM     36  C   UNL     1      13.034  -1.111   1.820  1.00  0.00     0.016 A 
ATOM     37  C   UNL     1      11.843  -0.852   3.919  1.00  0.00     0.016 A 
ATOM     38  C   UNL     1      13.384   0.238   1.840  1.00  0.00     0.010 A 
ATOM     39  C   UNL     1      12.229   0.491   3.961  1.00  0.00     0.010 A 
ATOM     40  C   UNL     1      13.029   1.031   2.938  1.00  0.00    -0.014 A 
BRANCH  40  41
ATOM     41  C   UNL     1      13.711   2.332   3.135  1.00  0.00     0.031 A 
ATOM     42  C   UNL     1      14.940   2.348   4.001  1.00  0.00     0.074 A 
ATOM     43  C   UNL     1      13.286   3.457   2.535  1.00  0.00     0.049 A 
ATOM     44  N   UNL     1      15.695   3.353   4.363  1.00  0.00    -0.248 NA
ATOM     45  C   UNL     1      15.376   1.046   4.533  1.00  0.00     0.031 C 
ATOM     46  C   UNL     1      12.146   3.555   1.628  1.00  0.00     0.029 A 
ATOM     47  N   UNL     1      13.773   4.739   2.607  1.00  0.00    -0.354 N 
ATOM     48  C   UNL     1      16.686   2.805   5.167  1.00  0.00     0.074 A 
ATOM     49  C   UNL     1      16.421   1.388   5.268  1.00  0.00     0.031 C 
ATOM     50  C   UNL     1      12.011   4.835   1.237  1.00  0.00     0.029 A 
ATOM     51  C   UNL     1      13.034   5.649   1.893  1.00  0.00     0.049 A 
ATOM     52  H   UNL     1      14.576   4.982   3.123  1.00  0.00     0.167 HD
ATOM     53  C   UNL     1      17.730   3.428   5.761  1.00  0.00     0.037 A 
ATOM     54  C   UNL     1      13.160   6.988   1.806  1.00  0.00     0.037 A 
ATOM     55  C   UNL     1      17.986   4.839   5.661  1.00  0.00     0.049 A 
ATOM     56  C   UNL     1      14.280   7.674   2.552  1.00  0.00     0.074 A 
ATOM     57  C   UNL     1      19.020   5.570   6.219  1.00  0.00     0.029 A 
ATOM     58  N   UNL     1      17.189   5.737   4.965  1.00  0.00    -0.354 N 
ATOM     59  N   UNL     1      15.225   7.151   3.296  1.00  0.00    -0.248 NA
ATOM     60  C   UNL     1      14.350   9.138   2.442  1.00  0.00     0.031 C 
ATOM     61  C   UNL     1      18.813   6.918   5.913  1.00  0.00     0.029 A 
ATOM     62  C   UNL     1      17.692   7.020   5.105  1.00  0.00     0.049 A 
ATOM     63  H   UNL     1      16.386   5.497   4.448  1.00  0.00     0.167 HD
ATOM     64  C   UNL     1      16.019   8.213   3.713  1.00  0.00     0.074 A 
ATOM     65  C   UNL     1      15.451   9.409   3.128  1.00  0.00     0.031 C 
ATOM     66  C   UNL     1      17.119   8.200   4.506  1.00  0.00     0.037 A 
BRANCH  53  67
ATOM     67  C   UNL     1      18.648   2.589   6.602  1.00  0.00     0.064 A 
ATOM     68  C   UNL     1      19.507   1.634   6.038  1.00  0.00     0.173 A 
ATOM     69  C   UNL     1      18.678   2.756   7.995  1.00  0.00     0.173 A 
ATOM     70  F   UNL     1      19.503   1.420   4.714  1.00  0.00    -0.203 F 
ATOM     71  C   UNL     1      20.341   0.858   6.840  1.00  0.00     0.198 A 
ATOM     72  C   UNL     1      19.538   2.003   8.790  1.00  0.00     0.198 A 
ATOM     73  F   UNL     1      17.875   3.654   8.586  1.00  0.00    -0.203 F 
ATOM     74  F   UNL     1      21.112  -0.087   6.284  1.00  0.00    -0.200 F 
ATOM     75  C   UNL     1      20.362   1.050   8.213  1.00  0.00     0.200 A 
ATOM     76  F   UNL     1      19.564   2.198  10.116  1.00  0.00    -0.200 F 
ATOM     77  F   UNL     1      21.170   0.307   8.983  1.00  0.00    -0.200 F 
ENDBRANCH  53  67
BRANCH  54  78
ATOM     78  C   UNL     1      12.191   7.779   0.999  1.00  0.00     0.064 A 
ATOM     79  C   UNL     1      12.596   8.464  -0.155  1.00  0.00     0.173 A 
ATOM     80  C   UNL     1      10.847   7.893   1.384  1.00  0.00     0.173 A 
ATOM     81  F   UNL     1      13.876   8.413  -0.550  1.00  0.00    -0.203 F 
ATOM     82  C   UNL     1      11.699   9.247  -0.881  1.00  0.00     0.198 A 
ATOM     83  C   UNL     1       9.944   8.649   0.640  1.00  0.00     0.198 A 
ATOM     84  F   UNL     1      10.407   7.264   2.484  1.00  0.00    -0.203 F 
ATOM     85  F   UNL     1      12.126   9.935  -1.949  1.00  0.00    -0.200 F 
ATOM     86  C   UNL     1      10.373   9.334  -0.486  1.00  0.00     0.200 A 
ATOM     87  F   UNL     1       8.661   8.721   1.019  1.00  0.00    -0.200 F 
ATOM     88  F   UNL     1       9.511  10.085  -1.185  1.00  0.00    -0.200 F 
ENDBRANCH  54  78
BRANCH  66  89
ATOM     89  C   UNL     1      17.814   9.510   4.752  1.00  0.00     0.064 A 
ATOM     90  C   UNL     1      17.244  10.514   5.548  1.00  0.00     0.173 A 
ATOM     91  C   UNL     1      19.094   9.741   4.222  1.00  0.00     0.173 A 
ATOM     92  F   UNL     1      16.019  10.349   6.069  1.00  0.00    -0.203 F 
ATOM     93  C   UNL     1      17.916  11.713   5.778  1.00  0.00     0.198 A 
ATOM     94  C   UNL     1      19.777  10.925   4.485  1.00  0.00     0.198 A 
ATOM     95  F   UNL     1      19.691   8.810   3.464  1.00  0.00    -0.203 F 
ATOM     96  F   UNL     1      17.328  12.679   6.497  1.00  0.00    -0.200 F 
ATOM     97  C   UNL     1      19.184  11.914   5.254  1.00  0.00     0.200 A 
ATOM     98  F   UNL     1      21.011  11.108   3.994  1.00  0.00    -0.200 F 
ATOM     99  F   UNL     1      19.832  13.063   5.487  1.00  0.00    -0.200 F 
ENDBRANCH  66  89
ENDBRANCH  40  41
ENDBRANCH  33  35
ENDBRANCH  32  33
ENDBRANCH  31  32
ENDBRANCH  30  31
ENDBRANCH  29  30
ENDBRANCH  28  29
ENDBRANCH  27  28
ENDBRANCH   1  27
TORSDOF 22
