REMARK SMILES CS(=O)(=O)Nc1cc(NS(C)(=O)=O)cc(C(=O)OCCOCCOCCOCCOC(=O)c2ccc(-c3c4nc(c(-c5c(F)c(F)c(F)c(F)c5F)c5ccc([nH]5)c(-c5c(F)c(F)c(F)c(F)c5F)c5nc(c(-c6c(F)c(F)c(F)c(F)c6F)c6ccc3[nH]6)C=C5)C=C4)cc2)c1
REMARK SMILES IDX 24 1 23 2 22 3 21 4 20 5 19 6 18 7 16 8 17 9 15 10 6 11 7 12
REMARK SMILES IDX 96 13 8 14 14 15 5 16 2 18 1 19 3 20 4 21 9 22 10 24 11 25
REMARK SMILES IDX 12 26 13 27 25 28 26 29 27 30 28 31 29 32 30 33 31 34 32 35
REMARK SMILES IDX 33 36 34 37 95 38 35 39 94 40 36 41 37 42 38 43 88 44 39 45
REMARK SMILES IDX 93 46 87 47 89 48 40 49 92 50 86 51 85 52 41 54 73 55 53 56
REMARK SMILES IDX 72 57 54 58 57 59 71 60 90 61 55 62 56 63 70 65 91 66 58 67
REMARK SMILES IDX 42 68 43 69 51 70 44 71 45 72 49 73 52 74 46 75 47 76 50 77
REMARK SMILES IDX 48 78 74 79 75 80 83 81 76 82 77 83 81 84 84 85 78 86 79 87
REMARK SMILES IDX 82 88 80 89 59 90 60 91 68 92 61 93 62 94 66 95 69 96 63 97
REMARK SMILES IDX 64 98 67 99 65 100
REMARK H PARENT 5 17 9 23 89 53 57 64
REMARK Flexibility Score: inf
ROOT
ATOM      1  O   UNL     1       6.255   0.824  -0.844  1.00  0.00    -0.377 OA
ENDROOT
BRANCH   1   2
ATOM      2  C   UNL     1       6.205   2.237  -0.768  1.00  0.00     0.188 C 
BRANCH   2   3
ATOM      3  C   UNL     1       6.761   2.789   0.559  1.00  0.00     0.188 C 
BRANCH   3   4
ATOM      4  O   UNL     1       7.602   1.959   1.337  1.00  0.00    -0.376 OA
BRANCH   4   5
ATOM      5  C   UNL     1       7.179   0.764   1.972  1.00  0.00     0.202 C 
BRANCH   5   6
ATOM      6  C   UNL     1       5.743   0.224   2.103  1.00  0.00     0.261 C 
BRANCH   6   7
ATOM      7  O   UNL     1       4.712   0.887   1.388  1.00  0.00    -0.460 OA
BRANCH   7   8
ATOM      8  C   UNL     1       4.103   1.915   2.006  1.00  0.00     0.338 C 
ATOM      9  O   UNL     1       4.309   2.331   3.131  1.00  0.00    -0.246 OA
BRANCH   8  10
ATOM     10  C   UNL     1       3.240   2.586   1.006  1.00  0.00     0.064 A 
ATOM     11  C   UNL     1       1.752   2.496  -0.880  1.00  0.00     0.051 A 
ATOM     12  C   UNL     1       1.669   3.897  -0.857  1.00  0.00     0.053 A 
ATOM     13  C   UNL     1       2.640   1.865  -0.028  1.00  0.00     0.042 A 
ATOM     14  C   UNL     1       2.386   4.652   0.076  1.00  0.00     0.051 A 
ATOM     15  C   UNL     1       3.114   3.976   1.058  1.00  0.00     0.042 A 
BRANCH  11  16
ATOM     16  N   UNL     1       1.036   1.799  -1.899  1.00  0.00    -0.284 N 
ATOM     17  H   UNL     1       0.933   2.247  -2.770  1.00  0.00     0.180 HD
BRANCH  16  18
ATOM     18  S   UNL     1       0.359   0.276  -1.726  1.00  0.00     0.229 S 
ATOM     19  C   UNL     1       0.442  -0.216  -0.006  1.00  0.00     0.183 C 
ATOM     20  O   UNL     1       1.165  -0.649  -2.492  1.00  0.00    -0.207 OA
ATOM     21  O   UNL     1      -1.040   0.471  -2.044  1.00  0.00    -0.207 OA
ENDBRANCH  16  18
ENDBRANCH  11  16
BRANCH  14  22
ATOM     22  N   UNL     1       2.404   6.082   0.177  1.00  0.00    -0.284 N 
ATOM     23  H   UNL     1       2.870   6.476   0.951  1.00  0.00     0.180 HD
BRANCH  22  24
ATOM     24  S   UNL     1       1.692   7.143  -0.922  1.00  0.00     0.229 S 
ATOM     25  C   UNL     1       1.016   8.329   0.214  1.00  0.00     0.183 C 
ATOM     26  O   UNL     1       2.784   7.775  -1.635  1.00  0.00    -0.207 OA
ATOM     27  O   UNL     1       0.581   6.533  -1.610  1.00  0.00    -0.207 OA
ENDBRANCH  22  24
ENDBRANCH  14  22
ENDBRANCH   8  10
ENDBRANCH   7   8
ENDBRANCH   6   7
ENDBRANCH   5   6
ENDBRANCH   4   5
ENDBRANCH   3   4
ENDBRANCH   2   3
ENDBRANCH   1   2
BRANCH   1  28
ATOM     28  C   UNL     1       7.432   0.255  -1.412  1.00  0.00     0.188 C 
BRANCH  28  29
ATOM     29  C   UNL     1       8.801   0.953  -1.228  1.00  0.00     0.188 C 
BRANCH  29  30
ATOM     30  O   UNL     1       8.773   2.360  -1.421  1.00  0.00    -0.376 OA
BRANCH  30  31
ATOM     31  C   UNL     1       9.310   2.907  -2.614  1.00  0.00     0.202 C 
BRANCH  31  32
ATOM     32  C   UNL     1       8.549   2.611  -3.913  1.00  0.00     0.261 C 
BRANCH  32  33
ATOM     33  O   UNL     1       8.318   1.226  -4.198  1.00  0.00    -0.460 OA
BRANCH  33  34
ATOM     34  C   UNL     1       9.402   0.450  -4.409  1.00  0.00     0.338 C 
ATOM     35  O   UNL     1      10.570   0.790  -4.403  1.00  0.00    -0.246 OA
BRANCH  34  36
ATOM     36  C   UNL     1       8.933  -0.949  -4.476  1.00  0.00     0.060 A 
ATOM     37  C   UNL     1       9.428  -1.882  -3.555  1.00  0.00     0.016 A 
ATOM     38  C   UNL     1       8.006  -1.330  -5.447  1.00  0.00     0.016 A 
ATOM     39  C   UNL     1       9.026  -3.216  -3.632  1.00  0.00     0.010 A 
ATOM     40  C   UNL     1       7.621  -2.667  -5.537  1.00  0.00     0.010 A 
ATOM     41  C   UNL     1       8.159  -3.622  -4.655  1.00  0.00    -0.014 A 
BRANCH  41  42
ATOM     42  C   UNL     1       7.984  -5.061  -4.962  1.00  0.00     0.031 A 
ATOM     43  C   UNL     1       8.804  -5.643  -6.080  1.00  0.00     0.074 A 
ATOM     44  C   UNL     1       7.108  -5.826  -4.290  1.00  0.00     0.049 A 
ATOM     45  N   UNL     1       8.737  -6.823  -6.638  1.00  0.00    -0.248 NA
ATOM     46  C   UNL     1       9.836  -4.763  -6.653  1.00  0.00     0.031 C 
ATOM     47  C   UNL     1       6.298  -5.390  -3.157  1.00  0.00     0.029 A 
ATOM     48  N   UNL     1       6.740  -7.134  -4.488  1.00  0.00    -0.354 N 
ATOM     49  C   UNL     1       9.701  -6.819  -7.638  1.00  0.00     0.074 A 
ATOM     50  C   UNL     1      10.324  -5.514  -7.627  1.00  0.00     0.031 C 
ATOM     51  C   UNL     1       5.506  -6.407  -2.773  1.00  0.00     0.029 A 
ATOM     52  C   UNL     1       5.723  -7.547  -3.664  1.00  0.00     0.049 A 
ATOM     53  H   UNL     1       7.165  -7.720  -5.156  1.00  0.00     0.167 HD
ATOM     54  C   UNL     1      10.037  -7.818  -8.487  1.00  0.00     0.037 A 
ATOM     55  C   UNL     1       5.024  -8.700  -3.660  1.00  0.00     0.037 A 
ATOM     56  C   UNL     1       9.409  -9.112  -8.493  1.00  0.00     0.049 A 
ATOM     57  C   UNL     1       5.358  -9.769  -4.673  1.00  0.00     0.074 A 
ATOM     58  C   UNL     1       9.681 -10.198  -9.305  1.00  0.00     0.029 A 
ATOM     59  N   UNL     1       8.372  -9.488  -7.652  1.00  0.00    -0.354 N 
ATOM     60  N   UNL     1       6.279  -9.770  -5.607  1.00  0.00    -0.248 NA
ATOM     61  C   UNL     1       4.554 -10.999  -4.631  1.00  0.00     0.031 C 
ATOM     62  C   UNL     1       8.767 -11.210  -8.998  1.00  0.00     0.029 A 
ATOM     63  C   UNL     1       7.977 -10.783  -7.942  1.00  0.00     0.049 A 
ATOM     64  H   UNL     1       7.977  -8.919  -6.952  1.00  0.00     0.167 HD
ATOM     65  C   UNL     1       6.196 -11.010  -6.229  1.00  0.00     0.074 A 
ATOM     66  C   UNL     1       5.134 -11.737  -5.568  1.00  0.00     0.031 C 
ATOM     67  C   UNL     1       6.937 -11.504  -7.252  1.00  0.00     0.037 A 
BRANCH  54  68
ATOM     68  C   UNL     1      11.106  -7.538  -9.503  1.00  0.00     0.064 A 
ATOM     69  C   UNL     1      12.449  -7.363  -9.138  1.00  0.00     0.173 A 
ATOM     70  C   UNL     1      10.784  -7.472 -10.867  1.00  0.00     0.173 A 
ATOM     71  F   UNL     1      12.809  -7.399  -7.846  1.00  0.00    -0.203 F 
ATOM     72  C   UNL     1      13.425  -7.106 -10.098  1.00  0.00     0.198 A 
ATOM     73  C   UNL     1      11.767  -7.250 -11.827  1.00  0.00     0.198 A 
ATOM     74  F   UNL     1       9.515  -7.634 -11.272  1.00  0.00    -0.203 F 
ATOM     75  F   UNL     1      14.693  -6.889  -9.720  1.00  0.00    -0.200 F 
ATOM     76  C   UNL     1      13.085  -7.058 -11.441  1.00  0.00     0.200 A 
ATOM     77  F   UNL     1      11.439  -7.220 -13.126  1.00  0.00    -0.200 F 
ATOM     78  F   UNL     1      14.027  -6.821 -12.364  1.00  0.00    -0.200 F 
ENDBRANCH  54  68
BRANCH  55  79
ATOM     79  C   UNL     1       3.923  -8.904  -2.681  1.00  0.00     0.064 A 
ATOM     80  C   UNL     1       4.019  -9.878  -1.677  1.00  0.00     0.173 A 
ATOM     81  C   UNL     1       2.740  -8.151  -2.744  1.00  0.00     0.173 A 
ATOM     82  F   UNL     1       5.117 -10.643  -1.591  1.00  0.00    -0.203 F 
ATOM     83  C   UNL     1       2.968 -10.107  -0.791  1.00  0.00     0.198 A 
ATOM     84  C   UNL     1       1.704  -8.357  -1.836  1.00  0.00     0.198 A 
ATOM     85  F   UNL     1       2.594  -7.208  -3.687  1.00  0.00    -0.203 F 
ATOM     86  F   UNL     1       3.066 -11.082   0.123  1.00  0.00    -0.200 F 
ATOM     87  C   UNL     1       1.814  -9.342  -0.867  1.00  0.00     0.200 A 
ATOM     88  F   UNL     1       0.596  -7.607  -1.904  1.00  0.00    -0.200 F 
ATOM     89  F   UNL     1       0.805  -9.562  -0.013  1.00  0.00    -0.200 F 
ENDBRANCH  55  79
BRANCH  67  90
ATOM     90  C   UNL     1       6.691 -12.925  -7.675  1.00  0.00     0.064 A 
ATOM     91  C   UNL     1       5.533 -13.309  -8.365  1.00  0.00     0.173 A 
ATOM     92  C   UNL     1       7.673 -13.903  -7.447  1.00  0.00     0.173 A 
ATOM     93  F   UNL     1       4.558 -12.417  -8.598  1.00  0.00    -0.203 F 
ATOM     94  C   UNL     1       5.359 -14.622  -8.795  1.00  0.00     0.198 A 
ATOM     95  C   UNL     1       7.512 -15.205  -7.909  1.00  0.00     0.198 A 
ATOM     96  F   UNL     1       8.805 -13.587  -6.800  1.00  0.00    -0.203 F 
ATOM     97  F   UNL     1       4.226 -14.977  -9.417  1.00  0.00    -0.200 F 
ATOM     98  C   UNL     1       6.352 -15.566  -8.577  1.00  0.00     0.200 A 
ATOM     99  F   UNL     1       8.482 -16.109  -7.715  1.00  0.00    -0.200 F 
ATOM    100  F   UNL     1       6.191 -16.824  -9.009  1.00  0.00    -0.200 F 
ENDBRANCH  67  90
ENDBRANCH  41  42
ENDBRANCH  34  36
ENDBRANCH  33  34
ENDBRANCH  32  33
ENDBRANCH  31  32
ENDBRANCH  30  31
ENDBRANCH  29  30
ENDBRANCH  28  29
ENDBRANCH   1  28
TORSDOF 24
