REMARK SMILES CSCc1ccc(C(=O)N[C@H]2C=C[C@@H](C(=O)OCCOCCOCCOCCOC(=O)c3ccc(-c4c5nc(c(-c6c(F)c(F)c(F)c(F)c6F)c6ccc([nH]6)c(-c6c(F)c(F)c(F)c(F)c6F)c6nc(c(-c7c(F)c(F)c(F)c(F)c7F)c7ccc4[nH]7)C=C6)C=C5)cc3)C2)o1
REMARK SMILES IDX 22 1 21 2 20 3 19 4 18 5 17 6 15 7 16 8 14 9 11 10 12 11
REMARK SMILES IDX 95 12 13 13 10 14 8 15 9 16 7 18 4 19 5 20 96 21 6 22 3 23
REMARK SMILES IDX 2 24 1 25 23 26 24 27 25 28 26 29 27 30 28 31 29 32 30 33
REMARK SMILES IDX 31 34 32 35 33 36 94 37 34 38 93 39 35 40 36 41 37 42 87 43
REMARK SMILES IDX 38 44 92 45 86 46 88 47 39 48 91 49 85 50 84 51 40 53 72 54
REMARK SMILES IDX 52 55 71 56 53 57 56 58 70 59 89 60 54 61 55 62 69 64 90 65
REMARK SMILES IDX 57 66 41 67 42 68 50 69 43 70 44 71 48 72 51 73 45 74 46 75
REMARK SMILES IDX 49 76 47 77 73 78 74 79 82 80 75 81 76 82 80 83 83 84 77 85
REMARK SMILES IDX 78 86 81 87 79 88 58 89 59 90 67 91 60 92 61 93 65 94 68 95
REMARK SMILES IDX 62 96 63 97 66 98 64 99
REMARK H PARENT 10 17 88 52 56 63
REMARK Flexibility Score: inf
ROOT
ATOM      1  C   UNL     1      -4.393   8.099  -2.029  1.00  0.00     0.188 C 
ENDROOT
BRANCH   1   2
ATOM      2  C   UNL     1      -5.845   7.646  -1.814  1.00  0.00     0.188 C 
BRANCH   2   3
ATOM      3  O   UNL     1      -6.388   7.459  -0.517  1.00  0.00    -0.376 OA
BRANCH   3   4
ATOM      4  C   UNL     1      -5.720   6.782   0.534  1.00  0.00     0.202 C 
BRANCH   4   5
ATOM      5  C   UNL     1      -4.851   5.529   0.360  1.00  0.00     0.261 C 
BRANCH   5   6
ATOM      6  O   UNL     1      -4.096   5.436  -0.843  1.00  0.00    -0.463 OA
BRANCH   6   7
ATOM      7  C   UNL     1      -4.701   4.769  -1.850  1.00  0.00     0.312 C 
ATOM      8  O   UNL     1      -5.815   4.260  -1.777  1.00  0.00    -0.252 OA
BRANCH   7   9
ATOM      9  C   UNL     1      -3.823   4.634  -3.080  1.00  0.00     0.124 C 
ATOM     10  C   UNL     1      -1.440   4.518  -3.636  1.00  0.00     0.106 C 
ATOM     11  C   UNL     1      -1.963   3.229  -3.098  1.00  0.00    -0.006 C 
ATOM     12  C   UNL     1      -2.540   5.486  -3.202  1.00  0.00     0.048 C 
ATOM     13  C   UNL     1      -3.284   3.252  -2.937  1.00  0.00    -0.014 C 
BRANCH  10  14
ATOM     14  N   UNL     1      -0.130   4.871  -3.143  1.00  0.00    -0.343 N 
ATOM     15  C   UNL     1       1.053   4.169  -3.279  1.00  0.00     0.287 C 
ATOM     16  O   UNL     1       2.092   4.708  -2.900  1.00  0.00    -0.266 OA
ATOM     17  H   UNL     1      -0.071   5.719  -2.647  1.00  0.00     0.164 HD
BRANCH  15  18
ATOM     18  C   UNL     1       0.981   2.812  -3.778  1.00  0.00     0.191 A 
ATOM     19  C   UNL     1       0.995   0.631  -3.465  1.00  0.00     0.114 A 
ATOM     20  C   UNL     1       0.312   0.851  -4.643  1.00  0.00     0.047 A 
ATOM     21  O   UNL     1       1.439   1.816  -2.957  1.00  0.00    -0.455 OA
ATOM     22  C   UNL     1       0.371   2.245  -4.885  1.00  0.00     0.056 A 
BRANCH  19  23
ATOM     23  C   UNL     1       1.312  -0.592  -2.692  1.00  0.00     0.144 C 
BRANCH  23  24
ATOM     24  S   UNL     1       0.167  -0.867  -1.303  1.00  0.00    -0.157 SA
ATOM     25  C   UNL     1       0.938   0.209  -0.067  1.00  0.00     0.085 C 
ENDBRANCH  23  24
ENDBRANCH  19  23
ENDBRANCH  15  18
ENDBRANCH  10  14
ENDBRANCH   7   9
ENDBRANCH   6   7
ENDBRANCH   5   6
ENDBRANCH   4   5
ENDBRANCH   3   4
ENDBRANCH   2   3
ENDBRANCH   1   2
BRANCH   1  26
ATOM     26  O   UNL     1      -3.561   7.999  -0.893  1.00  0.00    -0.377 OA
BRANCH  26  27
ATOM     27  C   UNL     1      -3.446   9.149  -0.065  1.00  0.00     0.188 C 
BRANCH  27  28
ATOM     28  C   UNL     1      -4.636  10.128   0.025  1.00  0.00     0.188 C 
BRANCH  28  29
ATOM     29  O   UNL     1      -5.203  10.479  -1.229  1.00  0.00    -0.376 OA
BRANCH  29  30
ATOM     30  C   UNL     1      -4.800  11.684  -1.861  1.00  0.00     0.202 C 
BRANCH  30  31
ATOM     31  C   UNL     1      -3.333  11.812  -2.304  1.00  0.00     0.261 C 
BRANCH  31  32
ATOM     32  O   UNL     1      -2.338  11.667  -1.279  1.00  0.00    -0.460 OA
BRANCH  32  33
ATOM     33  C   UNL     1      -2.390  12.506  -0.226  1.00  0.00     0.338 C 
ATOM     34  O   UNL     1      -3.162  13.438  -0.061  1.00  0.00    -0.246 OA
BRANCH  33  35
ATOM     35  C   UNL     1      -1.475  11.989   0.812  1.00  0.00     0.060 A 
ATOM     36  C   UNL     1      -1.996  11.648   2.067  1.00  0.00     0.016 A 
ATOM     37  C   UNL     1      -0.111  11.844   0.550  1.00  0.00     0.016 A 
ATOM     38  C   UNL     1      -1.147  11.203   3.080  1.00  0.00     0.010 A 
ATOM     39  C   UNL     1       0.743  11.422   1.573  1.00  0.00     0.010 A 
ATOM     40  C   UNL     1       0.233  11.138   2.853  1.00  0.00    -0.014 A 
BRANCH  40  41
ATOM     41  C   UNL     1       1.158  10.986   4.002  1.00  0.00     0.031 A 
ATOM     42  C   UNL     1       1.786  12.226   4.577  1.00  0.00     0.074 A 
ATOM     43  C   UNL     1       1.412   9.785   4.548  1.00  0.00     0.049 A 
ATOM     44  N   UNL     1       2.667  12.348   5.536  1.00  0.00    -0.248 NA
ATOM     45  C   UNL     1       1.361  13.505   3.984  1.00  0.00     0.031 C 
ATOM     46  C   UNL     1       0.822   8.520   4.120  1.00  0.00     0.029 A 
ATOM     47  N   UNL     1       2.245   9.438   5.582  1.00  0.00    -0.354 N 
ATOM     48  C   UNL     1       2.902  13.712   5.659  1.00  0.00     0.074 A 
ATOM     49  C   UNL     1       2.102  14.374   4.653  1.00  0.00     0.031 C 
ATOM     50  C   UNL     1       1.320   7.529   4.881  1.00  0.00     0.029 A 
ATOM     51  C   UNL     1       2.291   8.087   5.822  1.00  0.00     0.049 A 
ATOM     52  H   UNL     1       2.761  10.095   6.104  1.00  0.00     0.167 HD
ATOM     53  C   UNL     1       3.705  14.354   6.540  1.00  0.00     0.037 A 
ATOM     54  C   UNL     1       3.050   7.384   6.685  1.00  0.00     0.037 A 
ATOM     55  C   UNL     1       4.507  13.691   7.533  1.00  0.00     0.049 A 
ATOM     56  C   UNL     1       4.013   8.115   7.589  1.00  0.00     0.074 A 
ATOM     57  C   UNL     1       5.359  14.251   8.469  1.00  0.00     0.029 A 
ATOM     58  N   UNL     1       4.563  12.317   7.714  1.00  0.00    -0.354 N 
ATOM     59  N   UNL     1       4.229   9.403   7.704  1.00  0.00    -0.248 NA
ATOM     60  C   UNL     1       4.836   7.290   8.485  1.00  0.00     0.031 C 
ATOM     61  C   UNL     1       5.974  13.214   9.176  1.00  0.00     0.029 A 
ATOM     62  C   UNL     1       5.453  12.010   8.730  1.00  0.00     0.049 A 
ATOM     63  H   UNL     1       4.046  11.657   7.197  1.00  0.00     0.167 HD
ATOM     64  C   UNL     1       5.182   9.545   8.706  1.00  0.00     0.074 A 
ATOM     65  C   UNL     1       5.494   8.211   9.175  1.00  0.00     0.031 C 
ATOM     66  C   UNL     1       5.746  10.677   9.196  1.00  0.00     0.037 A 
BRANCH  53  67
ATOM     67  C   UNL     1       3.775  15.852   6.449  1.00  0.00     0.064 A 
ATOM     68  C   UNL     1       2.689  16.665   6.810  1.00  0.00     0.173 A 
ATOM     69  C   UNL     1       4.955  16.483   6.027  1.00  0.00     0.173 A 
ATOM     70  F   UNL     1       1.532  16.112   7.203  1.00  0.00    -0.203 F 
ATOM     71  C   UNL     1       2.775  18.052   6.727  1.00  0.00     0.198 A 
ATOM     72  C   UNL     1       5.048  17.871   5.978  1.00  0.00     0.198 A 
ATOM     73  F   UNL     1       6.023  15.754   5.672  1.00  0.00    -0.203 F 
ATOM     74  F   UNL     1       1.709  18.807   7.029  1.00  0.00    -0.200 F 
ATOM     75  C   UNL     1       3.956  18.654   6.321  1.00  0.00     0.200 A 
ATOM     76  F   UNL     1       6.195  18.451   5.599  1.00  0.00    -0.200 F 
ATOM     77  F   UNL     1       4.040  19.990   6.252  1.00  0.00    -0.200 F 
ENDBRANCH  53  67
BRANCH  54  78
ATOM     78  C   UNL     1       2.941   5.901   6.736  1.00  0.00     0.064 A 
ATOM     79  C   UNL     1       2.430   5.253   7.869  1.00  0.00     0.173 A 
ATOM     80  C   UNL     1       3.365   5.101   5.665  1.00  0.00     0.173 A 
ATOM     81  F   UNL     1       2.037   5.971   8.931  1.00  0.00    -0.203 F 
ATOM     82  C   UNL     1       2.363   3.862   7.935  1.00  0.00     0.198 A 
ATOM     83  C   UNL     1       3.268   3.712   5.719  1.00  0.00     0.198 A 
ATOM     84  F   UNL     1       3.868   5.670   4.559  1.00  0.00    -0.203 F 
ATOM     85  F   UNL     1       1.917   3.268   9.050  1.00  0.00    -0.200 F 
ATOM     86  C   UNL     1       2.775   3.094   6.857  1.00  0.00     0.200 A 
ATOM     87  F   UNL     1       3.656   2.974   4.670  1.00  0.00    -0.200 F 
ATOM     88  F   UNL     1       2.706   1.757   6.920  1.00  0.00    -0.200 F 
ENDBRANCH  54  78
BRANCH  66  89
ATOM     89  C   UNL     1       6.721  10.535  10.332  1.00  0.00     0.064 A 
ATOM     90  C   UNL     1       7.991   9.967  10.154  1.00  0.00     0.173 A 
ATOM     91  C   UNL     1       6.394  11.021  11.608  1.00  0.00     0.173 A 
ATOM     92  F   UNL     1       8.351   9.478   8.958  1.00  0.00    -0.203 F 
ATOM     93  C   UNL     1       8.885   9.863  11.218  1.00  0.00     0.198 A 
ATOM     94  C   UNL     1       7.303  10.948  12.660  1.00  0.00     0.198 A 
ATOM     95  F   UNL     1       5.197  11.584  11.833  1.00  0.00    -0.203 F 
ATOM     96  F   UNL     1      10.072   9.268  11.036  1.00  0.00    -0.200 F 
ATOM     97  C   UNL     1       8.544  10.361  12.466  1.00  0.00     0.200 A 
ATOM     98  F   UNL     1       6.979  11.448  13.860  1.00  0.00    -0.200 F 
ATOM     99  F   UNL     1       9.409  10.269  13.485  1.00  0.00    -0.200 F 
ENDBRANCH  66  89
ENDBRANCH  40  41
ENDBRANCH  33  35
ENDBRANCH  32  33
ENDBRANCH  31  32
ENDBRANCH  30  31
ENDBRANCH  29  30
ENDBRANCH  28  29
ENDBRANCH  27  28
ENDBRANCH  26  27
ENDBRANCH   1  26
TORSDOF 24
