REMARK SMILES C[C@H](C(=O)OCCOCCOCCOCCOC(=O)c1ccc(-c2c3nc(c(-c4c(F)c(F)c(F)c(F)c4F)c4ccc([nH]4)c(-c4c(F)c(F)c(F)c(F)c4F)c4nc(c(-c5c(F)c(F)c(F)c(F)c5F)c5ccc2[nH]5)C=C4)C=C3)cc1)c1cccc(C(=O)c2ccccc2)c1
REMARK SMILES IDX 10 1 9 2 8 3 7 4 6 5 5 6 3 7 4 8 2 9 1 10 83 11 84 12 96 13
REMARK SMILES IDX 85 14 87 15 86 16 88 17 89 18 90 19 91 20 95 21 92 22 94 23
REMARK SMILES IDX 93 24 11 25 12 26 13 27 14 28 15 29 16 30 17 31 18 32 19 33
REMARK SMILES IDX 20 34 21 35 82 36 22 37 81 38 23 39 24 40 25 41 75 42 26 43
REMARK SMILES IDX 80 44 74 45 76 46 27 47 79 48 73 49 72 50 28 52 60 53 40 54
REMARK SMILES IDX 59 55 41 56 44 57 58 58 77 59 42 60 43 61 57 63 78 64 45 65
REMARK SMILES IDX 29 66 30 67 38 68 31 69 32 70 36 71 39 72 33 73 34 74 37 75
REMARK SMILES IDX 35 76 61 77 62 78 70 79 63 80 64 81 68 82 71 83 65 84 66 85
REMARK SMILES IDX 69 86 67 87 46 88 47 89 55 90 48 91 49 92 53 93 56 94 50 95
REMARK SMILES IDX 51 96 54 97 52 98
REMARK H PARENT 76 51 44 62
REMARK Flexibility Score: inf
ROOT
ATOM      1  C   UNL     1      -0.780  -0.957   1.102  1.00  0.00     0.188 C 
ENDROOT
BRANCH   1   2
ATOM      2  C   UNL     1       0.558  -1.713   1.158  1.00  0.00     0.188 C 
BRANCH   2   3
ATOM      3  O   UNL     1       1.333  -1.487   2.313  1.00  0.00    -0.376 OA
BRANCH   3   4
ATOM      4  C   UNL     1       2.001  -0.259   2.530  1.00  0.00     0.202 C 
BRANCH   4   5
ATOM      5  C   UNL     1       1.934   0.974   1.599  1.00  0.00     0.261 C 
BRANCH   5   6
ATOM      6  O   UNL     1       1.127   0.864   0.411  1.00  0.00    -0.463 OA
BRANCH   6   7
ATOM      7  C   UNL     1       1.742   0.861  -0.790  1.00  0.00     0.313 C 
ATOM      8  O   UNL     1       2.951   1.041  -0.908  1.00  0.00    -0.252 OA
BRANCH   7   9
ATOM      9  C   UNL     1       0.835   0.571  -2.008  1.00  0.00     0.126 C 
ATOM     10  C   UNL     1       1.504  -0.575  -2.783  1.00  0.00     0.025 C 
BRANCH   9  11
ATOM     11  C   UNL     1      -0.690   0.380  -1.838  1.00  0.00    -0.033 A 
ATOM     12  C   UNL     1      -1.470   1.454  -1.372  1.00  0.00     0.004 A 
ATOM     13  C   UNL     1      -1.382  -0.821  -2.175  1.00  0.00     0.016 A 
ATOM     14  C   UNL     1      -2.853   1.324  -1.192  1.00  0.00     0.001 A 
ATOM     15  C   UNL     1      -2.760  -0.991  -1.914  1.00  0.00     0.023 A 
ATOM     16  C   UNL     1      -3.490   0.107  -1.443  1.00  0.00     0.012 A 
BRANCH  15  17
ATOM     17  C   UNL     1      -3.503  -2.282  -2.090  1.00  0.00     0.193 C 
ATOM     18  O   UNL     1      -4.716  -2.218  -2.302  1.00  0.00    -0.289 OA
BRANCH  17  19
ATOM     19  C   UNL     1      -2.902  -3.650  -1.966  1.00  0.00     0.022 A 
ATOM     20  C   UNL     1      -3.601  -4.733  -2.525  1.00  0.00     0.012 A 
ATOM     21  C   UNL     1      -1.742  -3.925  -1.237  1.00  0.00     0.012 A 
ATOM     22  C   UNL     1      -3.141  -6.046  -2.370  1.00  0.00     0.001 A 
ATOM     23  C   UNL     1      -1.286  -5.238  -1.070  1.00  0.00     0.001 A 
ATOM     24  C   UNL     1      -1.984  -6.298  -1.638  1.00  0.00     0.000 A 
ENDBRANCH  17  19
ENDBRANCH  15  17
ENDBRANCH   9  11
ENDBRANCH   7   9
ENDBRANCH   6   7
ENDBRANCH   5   6
ENDBRANCH   4   5
ENDBRANCH   3   4
ENDBRANCH   2   3
ENDBRANCH   1   2
BRANCH   1  25
ATOM     25  O   UNL     1      -1.766  -1.245   2.061  1.00  0.00    -0.377 OA
BRANCH  25  26
ATOM     26  C   UNL     1      -1.373  -0.980   3.380  1.00  0.00     0.188 C 
BRANCH  26  27
ATOM     27  C   UNL     1      -1.143  -2.264   4.180  1.00  0.00     0.188 C 
BRANCH  27  28
ATOM     28  O   UNL     1      -1.221  -3.563   3.606  1.00  0.00    -0.376 OA
BRANCH  28  29
ATOM     29  C   UNL     1      -2.022  -3.866   2.475  1.00  0.00     0.202 C 
BRANCH  29  30
ATOM     30  C   UNL     1      -3.535  -3.592   2.415  1.00  0.00     0.261 C 
BRANCH  30  31
ATOM     31  O   UNL     1      -3.993  -2.404   3.058  1.00  0.00    -0.460 OA
BRANCH  31  32
ATOM     32  C   UNL     1      -4.400  -2.564   4.331  1.00  0.00     0.338 C 
ATOM     33  O   UNL     1      -4.462  -3.600   4.977  1.00  0.00    -0.246 OA
BRANCH  32  34
ATOM     34  C   UNL     1      -4.584  -1.228   4.916  1.00  0.00     0.060 A 
ATOM     35  C   UNL     1      -3.842  -0.921   6.063  1.00  0.00     0.016 A 
ATOM     36  C   UNL     1      -5.448  -0.289   4.346  1.00  0.00     0.016 A 
ATOM     37  C   UNL     1      -3.953   0.329   6.646  1.00  0.00     0.010 A 
ATOM     38  C   UNL     1      -5.608   0.950   4.969  1.00  0.00     0.010 A 
ATOM     39  C   UNL     1      -4.880   1.243   6.135  1.00  0.00    -0.014 A 
BRANCH  39  40
ATOM     40  C   UNL     1      -5.261   2.374   7.000  1.00  0.00     0.031 A 
ATOM     41  C   UNL     1      -6.412   2.163   7.941  1.00  0.00     0.074 A 
ATOM     42  C   UNL     1      -4.538   3.504   7.015  1.00  0.00     0.049 A 
ATOM     43  N   UNL     1      -6.926   2.978   8.822  1.00  0.00    -0.248 NA
ATOM     44  C   UNL     1      -7.066   0.844   7.886  1.00  0.00     0.031 C 
ATOM     45  C   UNL     1      -3.357   3.761   6.193  1.00  0.00     0.029 A 
ATOM     46  N   UNL     1      -4.690   4.643   7.760  1.00  0.00    -0.354 N 
ATOM     47  C   UNL     1      -7.964   2.274   9.418  1.00  0.00     0.074 A 
ATOM     48  C   UNL     1      -8.025   0.976   8.787  1.00  0.00     0.031 C 
ATOM     49  C   UNL     1      -2.894   4.992   6.474  1.00  0.00     0.029 A 
ATOM     50  C   UNL     1      -3.767   5.614   7.468  1.00  0.00     0.049 A 
ATOM     51  H   UNL     1      -5.394   4.754   8.439  1.00  0.00     0.167 HD
ATOM     52  C   UNL     1      -8.788   2.680  10.410  1.00  0.00     0.037 A 
ATOM     53  C   UNL     1      -3.666   6.871   7.941  1.00  0.00     0.037 A 
ATOM     54  C   UNL     1      -8.714   3.981  11.018  1.00  0.00     0.049 A 
ATOM     55  C   UNL     1      -4.659   7.332   8.978  1.00  0.00     0.074 A 
ATOM     56  C   UNL     1      -9.494   4.506  12.030  1.00  0.00     0.029 A 
ATOM     57  N   UNL     1      -7.806   4.966  10.654  1.00  0.00    -0.354 N 
ATOM     58  N   UNL     1      -5.633   6.663   9.550  1.00  0.00    -0.248 NA
ATOM     59  C   UNL     1      -4.538   8.721   9.437  1.00  0.00     0.031 C 
ATOM     60  C   UNL     1      -9.104   5.834  12.230  1.00  0.00     0.029 A 
ATOM     61  C   UNL     1      -8.030   6.112  11.397  1.00  0.00     0.049 A 
ATOM     62  H   UNL     1      -7.107   4.865   9.968  1.00  0.00     0.167 HD
ATOM     63  C   UNL     1      -6.218   7.536  10.457  1.00  0.00     0.074 A 
ATOM     64  C   UNL     1      -5.479   8.779  10.369  1.00  0.00     0.031 C 
ATOM     65  C   UNL     1      -7.270   7.332  11.291  1.00  0.00     0.037 A 
BRANCH  52  66
ATOM     66  C   UNL     1      -9.865   1.732  10.850  1.00  0.00     0.064 A 
ATOM     67  C   UNL     1      -9.578   0.546  11.544  1.00  0.00     0.173 A 
ATOM     68  C   UNL     1     -11.210   2.021  10.577  1.00  0.00     0.173 A 
ATOM     69  F   UNL     1      -8.307   0.210  11.811  1.00  0.00    -0.203 F 
ATOM     70  C   UNL     1     -10.596  -0.326  11.924  1.00  0.00     0.198 A 
ATOM     71  C   UNL     1     -12.227   1.164  10.988  1.00  0.00     0.198 A 
ATOM     72  F   UNL     1     -11.541   3.138   9.912  1.00  0.00    -0.203 F 
ATOM     73  F   UNL     1     -10.294  -1.479  12.538  1.00  0.00    -0.200 F 
ATOM     74  C   UNL     1     -11.919  -0.013  11.654  1.00  0.00     0.200 A 
ATOM     75  F   UNL     1     -13.506   1.475  10.735  1.00  0.00    -0.200 F 
ATOM     76  F   UNL     1     -12.898  -0.849  12.027  1.00  0.00    -0.200 F 
ENDBRANCH  52  66
BRANCH  53  77
ATOM     77  C   UNL     1      -2.606   7.780   7.431  1.00  0.00     0.064 A 
ATOM     78  C   UNL     1      -1.583   8.246   8.267  1.00  0.00     0.173 A 
ATOM     79  C   UNL     1      -2.606   8.220   6.098  1.00  0.00     0.173 A 
ATOM     80  F   UNL     1      -1.548   7.873   9.555  1.00  0.00    -0.203 F 
ATOM     81  C   UNL     1      -0.615   9.133   7.797  1.00  0.00     0.198 A 
ATOM     82  C   UNL     1      -1.619   9.080   5.620  1.00  0.00     0.198 A 
ATOM     83  F   UNL     1      -3.562   7.805   5.253  1.00  0.00    -0.203 F 
ATOM     84  F   UNL     1       0.323   9.602   8.632  1.00  0.00    -0.200 F 
ATOM     85  C   UNL     1      -0.630   9.544   6.473  1.00  0.00     0.200 A 
ATOM     86  F   UNL     1      -1.630   9.460   4.336  1.00  0.00    -0.200 F 
ATOM     87  F   UNL     1       0.303  10.392   6.021  1.00  0.00    -0.200 F 
ENDBRANCH  53  77
BRANCH  65  88
ATOM     88  C   UNL     1      -7.652   8.462  12.204  1.00  0.00     0.064 A 
ATOM     89  C   UNL     1      -8.243   9.638  11.721  1.00  0.00     0.173 A 
ATOM     90  C   UNL     1      -7.464   8.343  13.590  1.00  0.00     0.173 A 
ATOM     91  F   UNL     1      -8.433   9.807  10.403  1.00  0.00    -0.203 F 
ATOM     92  C   UNL     1      -8.603  10.666  12.588  1.00  0.00     0.198 A 
ATOM     93  C   UNL     1      -7.861   9.355  14.458  1.00  0.00     0.198 A 
ATOM     94  F   UNL     1      -6.913   7.233  14.106  1.00  0.00    -0.203 F 
ATOM     95  F   UNL     1      -9.114  11.804  12.099  1.00  0.00    -0.200 F 
ATOM     96  C   UNL     1      -8.421  10.520  13.955  1.00  0.00     0.200 A 
ATOM     97  F   UNL     1      -7.703   9.203  15.780  1.00  0.00    -0.200 F 
ATOM     98  F   UNL     1      -8.777  11.506  14.789  1.00  0.00    -0.200 F 
ENDBRANCH  65  88
ENDBRANCH  39  40
ENDBRANCH  32  34
ENDBRANCH  31  32
ENDBRANCH  30  31
ENDBRANCH  29  30
ENDBRANCH  28  29
ENDBRANCH  27  28
ENDBRANCH  26  27
ENDBRANCH  25  26
ENDBRANCH   1  25
TORSDOF 23
