REMARK SMILES O=C(CCC(=O)OCCOCCOCCOCCOC(=O)c1ccc(-c2c3nc(c(-c4c(F)c(F)c(F)c(F)c4F)c4ccc([nH]4)c(-c4c(F)c(F)c(F)c(F)c4F)c4nc(c(-c5c(F)c(F)c(F)c(F)c5F)c5ccc2[nH]5)C=C4)C=C3)cc1)Nc1ccc2nc(-c3ccccc3)oc2c1
REMARK SMILES IDX 12 1 11 2 10 3 9 4 8 5 7 6 5 7 6 8 4 9 3 10 2 11 1 12 85 13
REMARK SMILES IDX 86 15 87 16 100 17 88 18 99 19 89 20 98 21 90 22 91 23 92 24
REMARK SMILES IDX 93 25 97 26 94 27 96 28 95 29 13 30 14 31 15 32 16 33 17 34
REMARK SMILES IDX 18 35 19 36 20 37 21 38 22 39 23 40 84 41 24 42 83 43 25 44
REMARK SMILES IDX 26 45 27 46 77 47 28 48 82 49 76 50 78 51 29 52 81 53 75 54
REMARK SMILES IDX 74 55 30 57 62 58 42 59 61 60 43 61 46 62 60 63 79 64 44 65
REMARK SMILES IDX 45 66 59 68 80 69 47 70 31 71 32 72 40 73 33 74 34 75 38 76
REMARK SMILES IDX 41 77 35 78 36 79 39 80 37 81 63 82 64 83 72 84 65 85 66 86
REMARK SMILES IDX 70 87 73 88 67 89 68 90 71 91 69 92 48 93 49 94 57 95 50 96
REMARK SMILES IDX 51 97 55 98 58 99 52 100 53 101 56 102 54 103
REMARK H PARENT 85 14 78 56 46 67
REMARK Flexibility Score: inf
ROOT
ATOM      1  C   UNL     1       5.569  -0.695   0.598  1.00  0.00     0.188 C 
ENDROOT
BRANCH   1   2
ATOM      2  C   UNL     1       6.714  -0.282  -0.333  1.00  0.00     0.188 C 
BRANCH   2   3
ATOM      3  O   UNL     1       7.277   0.973  -0.039  1.00  0.00    -0.376 OA
BRANCH   3   4
ATOM      4  C   UNL     1       6.833   2.132  -0.718  1.00  0.00     0.202 C 
BRANCH   4   5
ATOM      5  C   UNL     1       5.548   2.216  -1.571  1.00  0.00     0.261 C 
BRANCH   5   6
ATOM      6  O   UNL     1       4.501   1.243  -1.351  1.00  0.00    -0.463 OA
BRANCH   6   7
ATOM      7  C   UNL     1       4.136   0.529  -2.445  1.00  0.00     0.306 C 
ATOM      8  O   UNL     1       4.666   0.667  -3.545  1.00  0.00    -0.252 OA
BRANCH   7   9
ATOM      9  C   UNL     1       3.039  -0.510  -2.265  1.00  0.00     0.132 C 
BRANCH   9  10
ATOM     10  C   UNL     1       2.314  -0.867  -0.970  1.00  0.00     0.112 C 
BRANCH  10  11
ATOM     11  C   UNL     1       1.436   0.185  -0.329  1.00  0.00     0.224 C 
ATOM     12  O   UNL     1       0.219   0.044  -0.257  1.00  0.00    -0.275 OA
ATOM     13  N   UNL     1       2.147   1.257   0.139  1.00  0.00    -0.326 N 
ATOM     14  H   UNL     1       3.128   1.203   0.077  1.00  0.00     0.169 HD
BRANCH  13  15
ATOM     15  C   UNL     1       1.611   2.423   0.699  1.00  0.00     0.045 A 
ATOM     16  C   UNL     1       2.328   3.586   0.388  1.00  0.00     0.028 A 
ATOM     17  C   UNL     1       0.439   2.454   1.483  1.00  0.00     0.075 A 
ATOM     18  C   UNL     1       1.860   4.834   0.763  1.00  0.00     0.034 A 
ATOM     19  C   UNL     1       0.038   3.720   1.905  1.00  0.00     0.157 A 
ATOM     20  C   UNL     1       0.702   4.877   1.534  1.00  0.00     0.110 A 
ATOM     21  O   UNL     1      -1.030   4.096   2.702  1.00  0.00    -0.436 OA
ATOM     22  N   UNL     1       0.063   5.956   2.019  1.00  0.00    -0.209 NA
ATOM     23  C   UNL     1      -0.942   5.470   2.711  1.00  0.00     0.227 A 
BRANCH  23  24
ATOM     24  C   UNL     1      -1.946   6.297   3.368  1.00  0.00     0.037 A 
ATOM     25  C   UNL     1      -1.938   6.505   4.751  1.00  0.00     0.014 A 
ATOM     26  C   UNL     1      -2.692   7.173   2.558  1.00  0.00     0.014 A 
ATOM     27  C   UNL     1      -2.610   7.607   5.297  1.00  0.00     0.001 A 
ATOM     28  C   UNL     1      -3.340   8.284   3.100  1.00  0.00     0.001 A 
ATOM     29  C   UNL     1      -3.286   8.508   4.471  1.00  0.00     0.000 A 
ENDBRANCH  23  24
ENDBRANCH  13  15
ENDBRANCH  10  11
ENDBRANCH   9  10
ENDBRANCH   7   9
ENDBRANCH   6   7
ENDBRANCH   5   6
ENDBRANCH   4   5
ENDBRANCH   3   4
ENDBRANCH   2   3
ENDBRANCH   1   2
BRANCH   1  30
ATOM     30  O   UNL     1       4.733   0.331   1.116  1.00  0.00    -0.377 OA
BRANCH  30  31
ATOM     31  C   UNL     1       5.252   1.273   2.060  1.00  0.00     0.188 C 
BRANCH  31  32
ATOM     32  C   UNL     1       6.601   1.057   2.778  1.00  0.00     0.188 C 
BRANCH  32  33
ATOM     33  O   UNL     1       7.031  -0.289   2.845  1.00  0.00    -0.376 OA
BRANCH  33  34
ATOM     34  C   UNL     1       6.776  -1.005   4.046  1.00  0.00     0.202 C 
BRANCH  34  35
ATOM     35  C   UNL     1       5.306  -1.163   4.465  1.00  0.00     0.261 C 
BRANCH  35  36
ATOM     36  O   UNL     1       4.596   0.059   4.738  1.00  0.00    -0.460 OA
BRANCH  36  37
ATOM     37  C   UNL     1       5.053   0.837   5.738  1.00  0.00     0.338 C 
ATOM     38  O   UNL     1       5.997   0.604   6.483  1.00  0.00    -0.246 OA
BRANCH  37  39
ATOM     39  C   UNL     1       4.347   2.133   5.684  1.00  0.00     0.060 A 
ATOM     40  C   UNL     1       5.092   3.297   5.462  1.00  0.00     0.016 A 
ATOM     41  C   UNL     1       2.966   2.209   5.881  1.00  0.00     0.016 A 
ATOM     42  C   UNL     1       4.466   4.545   5.479  1.00  0.00     0.010 A 
ATOM     43  C   UNL     1       2.341   3.464   5.904  1.00  0.00     0.010 A 
ATOM     44  C   UNL     1       3.092   4.644   5.737  1.00  0.00    -0.014 A 
BRANCH  44  45
ATOM     45  C   UNL     1       2.484   5.977   6.015  1.00  0.00     0.031 A 
ATOM     46  C   UNL     1       2.197   6.345   7.447  1.00  0.00     0.074 A 
ATOM     47  C   UNL     1       2.277   6.885   5.040  1.00  0.00     0.049 A 
ATOM     48  N   UNL     1       1.638   7.422   7.936  1.00  0.00    -0.248 NA
ATOM     49  C   UNL     1       2.637   5.382   8.472  1.00  0.00     0.031 C 
ATOM     50  C   UNL     1       2.675   6.721   3.646  1.00  0.00     0.029 A 
ATOM     51  N   UNL     1       1.673   8.121   5.064  1.00  0.00    -0.354 N 
ATOM     52  C   UNL     1       1.701   7.287   9.317  1.00  0.00     0.074 A 
ATOM     53  C   UNL     1       2.281   5.992   9.593  1.00  0.00     0.031 C 
ATOM     54  C   UNL     1       2.267   7.791   2.939  1.00  0.00     0.029 A 
ATOM     55  C   UNL     1       1.533   8.692   3.815  1.00  0.00     0.049 A 
ATOM     56  H   UNL     1       1.369   8.556   5.893  1.00  0.00     0.167 HD
ATOM     57  C   UNL     1       1.342   8.184  10.267  1.00  0.00     0.037 A 
ATOM     58  C   UNL     1       0.852   9.791   3.425  1.00  0.00     0.037 A 
ATOM     59  C   UNL     1       0.756   9.466   9.974  1.00  0.00     0.049 A 
ATOM     60  C   UNL     1       0.172  10.605   4.500  1.00  0.00     0.074 A 
ATOM     61  C   UNL     1       0.363  10.460  10.851  1.00  0.00     0.029 A 
ATOM     62  N   UNL     1       0.462   9.922   8.695  1.00  0.00    -0.354 N 
ATOM     63  N   UNL     1       0.244  10.483   5.804  1.00  0.00    -0.248 NA
ATOM     64  C   UNL     1      -0.667  11.723   4.052  1.00  0.00     0.031 C 
ATOM     65  C   UNL     1      -0.235  11.484  10.109  1.00  0.00     0.029 A 
ATOM     66  C   UNL     1      -0.155  11.160   8.764  1.00  0.00     0.049 A 
ATOM     67  H   UNL     1       0.664   9.437   7.862  1.00  0.00     0.167 HD
ATOM     68  C   UNL     1      -0.458  11.559   6.330  1.00  0.00     0.074 A 
ATOM     69  C   UNL     1      -0.976  12.305   5.202  1.00  0.00     0.031 C 
ATOM     70  C   UNL     1      -0.627  11.914   7.628  1.00  0.00     0.037 A 
BRANCH  57  71
ATOM     71  C   UNL     1       1.554   7.798  11.704  1.00  0.00     0.064 A 
ATOM     72  C   UNL     1       2.840   7.675  12.257  1.00  0.00     0.173 A 
ATOM     73  C   UNL     1       0.458   7.566  12.549  1.00  0.00     0.173 A 
ATOM     74  F   UNL     1       3.925   7.876  11.494  1.00  0.00    -0.203 F 
ATOM     75  C   UNL     1       3.018   7.301  13.587  1.00  0.00     0.198 A 
ATOM     76  C   UNL     1       0.639   7.223  13.886  1.00  0.00     0.198 A 
ATOM     77  F   UNL     1      -0.794   7.675  12.077  1.00  0.00    -0.203 F 
ATOM     78  F   UNL     1       4.255   7.136  14.076  1.00  0.00    -0.200 F 
ATOM     79  C   UNL     1       1.918   7.080  14.402  1.00  0.00     0.200 A 
ATOM     80  F   UNL     1      -0.425   7.024  14.676  1.00  0.00    -0.200 F 
ATOM     81  F   UNL     1       2.091   6.722  15.682  1.00  0.00    -0.200 F 
ENDBRANCH  57  71
BRANCH  58  82
ATOM     82  C   UNL     1       0.729  10.190   1.983  1.00  0.00     0.064 A 
ATOM     83  C   UNL     1       1.202  11.417   1.500  1.00  0.00     0.173 A 
ATOM     84  C   UNL     1       0.032   9.397   1.062  1.00  0.00     0.173 A 
ATOM     85  F   UNL     1       1.841  12.258   2.326  1.00  0.00    -0.203 F 
ATOM     86  C   UNL     1       0.959  11.826   0.183  1.00  0.00     0.198 A 
ATOM     87  C   UNL     1      -0.185   9.780  -0.258  1.00  0.00     0.198 A 
ATOM     88  F   UNL     1      -0.493   8.243   1.450  1.00  0.00    -0.203 F 
ATOM     89  F   UNL     1       1.361  13.038  -0.223  1.00  0.00    -0.200 F 
ATOM     90  C   UNL     1       0.268  11.006  -0.696  1.00  0.00     0.200 A 
ATOM     91  F   UNL     1      -0.862   8.973  -1.087  1.00  0.00    -0.200 F 
ATOM     92  F   UNL     1       0.018  11.406  -1.950  1.00  0.00    -0.200 F 
ENDBRANCH  58  82
BRANCH  70  93
ATOM     93  C   UNL     1      -1.298  13.231   7.895  1.00  0.00     0.064 A 
ATOM     94  C   UNL     1      -2.664  13.437   7.663  1.00  0.00     0.173 A 
ATOM     95  C   UNL     1      -0.551  14.303   8.412  1.00  0.00     0.173 A 
ATOM     96  F   UNL     1      -3.418  12.452   7.151  1.00  0.00    -0.203 F 
ATOM     97  C   UNL     1      -3.251  14.677   7.906  1.00  0.00     0.198 A 
ATOM     98  C   UNL     1      -1.149  15.527   8.691  1.00  0.00     0.198 A 
ATOM     99  F   UNL     1       0.760  14.158   8.659  1.00  0.00    -0.203 F 
ATOM    100  F   UNL     1      -4.546  14.870   7.617  1.00  0.00    -0.200 F 
ATOM    101  C   UNL     1      -2.496  15.717   8.427  1.00  0.00     0.200 A 
ATOM    102  F   UNL     1      -0.420  16.524   9.212  1.00  0.00    -0.200 F 
ATOM    103  F   UNL     1      -3.065  16.907   8.666  1.00  0.00    -0.200 F 
ENDBRANCH  70  93
ENDBRANCH  44  45
ENDBRANCH  37  39
ENDBRANCH  36  37
ENDBRANCH  35  36
ENDBRANCH  34  35
ENDBRANCH  33  34
ENDBRANCH  32  33
ENDBRANCH  31  32
ENDBRANCH  30  31
ENDBRANCH   1  30
TORSDOF 24
