REMARK SMILES CCOC(=O)c1c(NC(=O)[C@@H]2[C@@H](C(=O)OCCOCCOCCOCCOC(=O)c3ccc(-c4c5nc(c(-c6c(F)c(F)c(F)c(F)c6F)c6ccc([nH]6)c(-c6c(F)c(F)c(F)c(F)c6F)c6nc(c(-c7c(F)c(F)c(F)c(F)c7F)c7ccc4[nH]7)C=C6)C=C5)cc3)[C@@H]3C=C[C@H]2CC3)sc2c1CCC2
REMARK SMILES IDX 19 1 18 2 17 3 16 4 15 5 13 6 14 7 12 8 11 9 96 10 93 11
REMARK SMILES IDX 95 12 97 13 94 14 98 15 9 16 8 17 10 19 7 20 6 21 101 22
REMARK SMILES IDX 99 23 100 24 102 25 104 26 103 27 4 28 5 29 3 30 2 31 1 32
REMARK SMILES IDX 20 33 21 34 22 35 23 36 24 37 25 38 26 39 27 40 28 41 29 42
REMARK SMILES IDX 30 43 31 44 92 45 32 46 91 47 33 48 34 49 35 50 85 51 36 52
REMARK SMILES IDX 90 53 84 54 86 55 37 56 89 57 83 58 82 59 38 61 70 62 50 63
REMARK SMILES IDX 69 64 51 65 54 66 68 67 87 68 52 69 53 70 67 72 88 73 55 74
REMARK SMILES IDX 39 75 40 76 48 77 41 78 42 79 46 80 49 81 43 82 44 83 47 84
REMARK SMILES IDX 45 85 71 86 72 87 80 88 73 89 74 90 78 91 81 92 75 93 76 94
REMARK SMILES IDX 79 95 77 96 56 97 57 98 65 99 58 100 59 101 63 102 66 103
REMARK SMILES IDX 60 104 61 105 64 106 62 107
REMARK H PARENT 8 18 86 60 54 71
REMARK Flexibility Score: inf
ROOT
ATOM      1  C   UNL     1       9.784  -6.362   2.582  1.00  0.00     0.188 C 
ENDROOT
BRANCH   1   2
ATOM      2  O   UNL     1      11.033  -5.700   2.790  1.00  0.00    -0.376 OA
BRANCH   2   3
ATOM      3  C   UNL     1      11.302  -5.177   4.092  1.00  0.00     0.202 C 
BRANCH   3   4
ATOM      4  C   UNL     1      10.483  -3.949   4.512  1.00  0.00     0.261 C 
BRANCH   4   5
ATOM      5  O   UNL     1       9.083  -4.237   4.699  1.00  0.00    -0.463 OA
BRANCH   5   6
ATOM      6  C   UNL     1       8.237  -3.690   3.802  1.00  0.00     0.310 C 
ATOM      7  O   UNL     1       8.579  -2.901   2.925  1.00  0.00    -0.252 OA
BRANCH   6   8
ATOM      8  C   UNL     1       6.787  -4.133   3.928  1.00  0.00     0.119 C 
ATOM      9  C   UNL     1       5.964  -2.912   4.366  1.00  0.00     0.100 C 
ATOM     10  C   UNL     1       4.981  -3.291   5.505  1.00  0.00     0.025 C 
ATOM     11  C   UNL     1       6.401  -5.357   4.815  1.00  0.00     0.026 C 
ATOM     12  C   UNL     1       4.156  -4.484   5.098  1.00  0.00    -0.027 C 
ATOM     13  C   UNL     1       5.838  -3.804   6.711  1.00  0.00     0.009 C 
ATOM     14  C   UNL     1       4.888  -5.562   4.770  1.00  0.00    -0.027 C 
ATOM     15  C   UNL     1       6.639  -5.071   6.306  1.00  0.00     0.009 C 
BRANCH   9  16
ATOM     16  C   UNL     1       5.436  -2.021   3.231  1.00  0.00     0.229 C 
ATOM     17  N   UNL     1       4.597  -2.300   2.201  1.00  0.00    -0.317 N 
ATOM     18  H   UNL     1       4.539  -1.563   1.552  1.00  0.00     0.170 HD
ATOM     19  O   UNL     1       5.761  -0.819   3.292  1.00  0.00    -0.274 OA
BRANCH  17  20
ATOM     20  C   UNL     1       3.809  -3.375   1.853  1.00  0.00     0.110 A 
ATOM     21  C   UNL     1       2.545  -3.330   1.253  1.00  0.00     0.098 A 
ATOM     22  C   UNL     1       1.916  -4.591   1.465  1.00  0.00    -0.017 A 
ATOM     23  S   UNL     1       4.390  -4.976   1.796  1.00  0.00    -0.122 S 
ATOM     24  C   UNL     1       2.826  -5.542   1.839  1.00  0.00     0.011 A 
ATOM     25  C   UNL     1       0.568  -5.199   1.345  1.00  0.00     0.038 C 
ATOM     26  C   UNL     1       2.265  -6.879   2.114  1.00  0.00     0.047 C 
ATOM     27  C   UNL     1       0.744  -6.545   2.130  1.00  0.00     0.010 C 
BRANCH  21  28
ATOM     28  C   UNL     1       2.036  -2.127   0.619  1.00  0.00     0.341 C 
ATOM     29  O   UNL     1       2.794  -1.247   0.217  1.00  0.00    -0.246 OA
BRANCH  28  30
ATOM     30  O   UNL     1       0.686  -2.112   0.459  1.00  0.00    -0.462 OA
BRANCH  30  31
ATOM     31  C   UNL     1       0.174  -1.102  -0.428  1.00  0.00     0.230 C 
ATOM     32  C   UNL     1       0.365   0.324   0.069  1.00  0.00     0.049 C 
ENDBRANCH  30  31
ENDBRANCH  28  30
ENDBRANCH  21  28
ENDBRANCH  17  20
ENDBRANCH   9  16
ENDBRANCH   6   8
ENDBRANCH   5   6
ENDBRANCH   4   5
ENDBRANCH   3   4
ENDBRANCH   2   3
ENDBRANCH   1   2
BRANCH   1  33
ATOM     33  C   UNL     1       9.463  -7.449   3.599  1.00  0.00     0.188 C 
BRANCH  33  34
ATOM     34  O   UNL     1       9.095  -6.863   4.845  1.00  0.00    -0.377 OA
BRANCH  34  35
ATOM     35  C   UNL     1       9.409  -7.537   6.056  1.00  0.00     0.188 C 
BRANCH  35  36
ATOM     36  C   UNL     1      10.012  -8.932   5.933  1.00  0.00     0.188 C 
BRANCH  36  37
ATOM     37  O   UNL     1       9.283  -9.892   5.158  1.00  0.00    -0.376 OA
BRANCH  37  38
ATOM     38  C   UNL     1       7.857  -9.816   5.071  1.00  0.00     0.202 C 
BRANCH  38  39
ATOM     39  C   UNL     1       7.120 -10.626   6.122  1.00  0.00     0.261 C 
BRANCH  39  40
ATOM     40  O   UNL     1       7.279  -9.948   7.357  1.00  0.00    -0.460 OA
BRANCH  40  41
ATOM     41  C   UNL     1       8.386 -10.302   8.044  1.00  0.00     0.338 C 
ATOM     42  O   UNL     1       9.119 -11.250   7.825  1.00  0.00    -0.246 OA
BRANCH  41  43
ATOM     43  C   UNL     1       8.553  -9.353   9.178  1.00  0.00     0.060 A 
ATOM     44  C   UNL     1       9.397  -9.894  10.146  1.00  0.00     0.016 A 
ATOM     45  C   UNL     1       7.385  -8.664   9.521  1.00  0.00     0.016 A 
ATOM     46  C   UNL     1       8.798 -10.275  11.317  1.00  0.00     0.010 A 
ATOM     47  C   UNL     1       6.752  -9.102  10.650  1.00  0.00     0.010 A 
ATOM     48  C   UNL     1       7.439  -9.988  11.478  1.00  0.00    -0.014 A 
BRANCH  48  49
ATOM     49  C   UNL     1       6.770 -10.561  12.614  1.00  0.00     0.031 A 
ATOM     50  C   UNL     1       6.960  -9.740  13.821  1.00  0.00     0.074 A 
ATOM     51  C   UNL     1       5.984 -11.646  12.524  1.00  0.00     0.049 A 
ATOM     52  N   UNL     1       7.683 -10.002  14.857  1.00  0.00    -0.248 NA
ATOM     53  C   UNL     1       6.465  -8.355  13.756  1.00  0.00     0.031 C 
ATOM     54  C   UNL     1       5.472 -12.304  11.320  1.00  0.00     0.029 A 
ATOM     55  N   UNL     1       5.382 -12.326  13.531  1.00  0.00    -0.354 N 
ATOM     56  C   UNL     1       7.567  -8.874  15.658  1.00  0.00     0.074 A 
ATOM     57  C   UNL     1       7.050  -7.826  14.826  1.00  0.00     0.031 C 
ATOM     58  C   UNL     1       4.463 -13.136  11.672  1.00  0.00     0.029 A 
ATOM     59  C   UNL     1       4.346 -13.148  13.123  1.00  0.00     0.049 A 
ATOM     60  H   UNL     1       5.657 -12.242  14.473  1.00  0.00     0.167 HD
ATOM     61  C   UNL     1       7.593  -8.973  17.012  1.00  0.00     0.037 A 
ATOM     62  C   UNL     1       3.409 -13.686  13.941  1.00  0.00     0.037 A 
ATOM     63  C   UNL     1       8.185 -10.218  17.430  1.00  0.00     0.049 A 
ATOM     64  C   UNL     1       3.914 -13.578  15.338  1.00  0.00     0.074 A 
ATOM     65  C   UNL     1       9.423 -10.807  17.263  1.00  0.00     0.029 A 
ATOM     66  N   UNL     1       7.337 -11.223  17.826  1.00  0.00    -0.354 N 
ATOM     67  N   UNL     1       4.925 -14.255  15.810  1.00  0.00    -0.248 NA
ATOM     68  C   UNL     1       3.562 -12.385  16.097  1.00  0.00     0.031 C 
ATOM     69  C   UNL     1       9.164 -12.204  17.150  1.00  0.00     0.029 A 
ATOM     70  C   UNL     1       7.788 -12.398  17.286  1.00  0.00     0.049 A 
ATOM     71  H   UNL     1       6.543 -11.118  18.398  1.00  0.00     0.167 HD
ATOM     72  C   UNL     1       5.580 -13.376  16.663  1.00  0.00     0.074 A 
ATOM     73  C   UNL     1       4.641 -12.282  16.877  1.00  0.00     0.031 C 
ATOM     74  C   UNL     1       6.923 -13.483  16.881  1.00  0.00     0.037 A 
BRANCH  61  75
ATOM     75  C   UNL     1       6.716  -8.140  17.917  1.00  0.00     0.064 A 
ATOM     76  C   UNL     1       6.904  -8.239  19.307  1.00  0.00     0.173 A 
ATOM     77  C   UNL     1       5.529  -7.481  17.513  1.00  0.00     0.173 A 
ATOM     78  F   UNL     1       7.986  -8.856  19.806  1.00  0.00    -0.203 F 
ATOM     79  C   UNL     1       5.941  -7.795  20.215  1.00  0.00     0.198 A 
ATOM     80  C   UNL     1       4.602  -6.983  18.422  1.00  0.00     0.198 A 
ATOM     81  F   UNL     1       5.148  -7.385  16.235  1.00  0.00    -0.203 F 
ATOM     82  F   UNL     1       6.103  -8.036  21.522  1.00  0.00    -0.200 F 
ATOM     83  C   UNL     1       4.788  -7.173  19.772  1.00  0.00     0.200 A 
ATOM     84  F   UNL     1       3.485  -6.397  17.967  1.00  0.00    -0.200 F 
ATOM     85  F   UNL     1       3.836  -6.804  20.637  1.00  0.00    -0.200 F 
ENDBRANCH  61  75
BRANCH  62  86
ATOM     86  C   UNL     1       1.986 -13.955  13.631  1.00  0.00     0.064 A 
ATOM     87  C   UNL     1       1.226 -14.834  14.417  1.00  0.00     0.173 A 
ATOM     88  C   UNL     1       1.273 -13.161  12.710  1.00  0.00     0.173 A 
ATOM     89  F   UNL     1       1.823 -15.585  15.354  1.00  0.00    -0.203 F 
ATOM     90  C   UNL     1      -0.165 -14.908  14.297  1.00  0.00     0.198 A 
ATOM     91  C   UNL     1      -0.114 -13.243  12.583  1.00  0.00     0.198 A 
ATOM     92  F   UNL     1       1.895 -12.223  11.982  1.00  0.00    -0.203 F 
ATOM     93  F   UNL     1      -0.864 -15.718  15.103  1.00  0.00    -0.200 F 
ATOM     94  C   UNL     1      -0.834 -14.108  13.384  1.00  0.00     0.200 A 
ATOM     95  F   UNL     1      -0.750 -12.436  11.722  1.00  0.00    -0.200 F 
ATOM     96  F   UNL     1      -2.172 -14.140  13.304  1.00  0.00    -0.200 F 
ENDBRANCH  62  86
BRANCH  74  97
ATOM     97  C   UNL     1       7.600 -14.746  16.434  1.00  0.00     0.064 A 
ATOM     98  C   UNL     1       7.718 -15.134  15.088  1.00  0.00     0.173 A 
ATOM     99  C   UNL     1       8.283 -15.507  17.391  1.00  0.00     0.173 A 
ATOM    100  F   UNL     1       7.175 -14.398  14.110  1.00  0.00    -0.203 F 
ATOM    101  C   UNL     1       8.457 -16.259  14.727  1.00  0.00     0.198 A 
ATOM    102  C   UNL     1       9.050 -16.608  17.023  1.00  0.00     0.198 A 
ATOM    103  F   UNL     1       8.248 -15.148  18.684  1.00  0.00    -0.203 F 
ATOM    104  F   UNL     1       8.550 -16.616  13.437  1.00  0.00    -0.200 F 
ATOM    105  C   UNL     1       9.130 -16.988  15.694  1.00  0.00     0.200 A 
ATOM    106  F   UNL     1       9.740 -17.280  17.956  1.00  0.00    -0.200 F 
ATOM    107  F   UNL     1       9.880 -18.042  15.341  1.00  0.00    -0.200 F 
ENDBRANCH  74  97
ENDBRANCH  48  49
ENDBRANCH  41  43
ENDBRANCH  40  41
ENDBRANCH  39  40
ENDBRANCH  38  39
ENDBRANCH  37  38
ENDBRANCH  36  37
ENDBRANCH  35  36
ENDBRANCH  34  35
ENDBRANCH  33  34
ENDBRANCH   1  33
TORSDOF 25
