REMARK SMILES Cc1ccc(Nc2c(F)cccc2Cl)c(CC(=O)OCCOCCOCCOCCOC(=O)c2ccc(-c3c4nc(c(-c5c(F)c(F)c(F)c(F)c5F)c5ccc([nH]5)c(-c5c(F)c(F)c(F)c(F)c5F)c5nc(c(-c6c(F)c(F)c(F)c(F)c6F)c6ccc3[nH]6)C=C5)C=C4)cc2)c1
REMARK SMILES IDX 24 1 23 2 22 3 21 4 20 5 19 6 17 7 18 8 16 9 15 10 1 11 2 12
REMARK SMILES IDX 3 13 97 14 4 15 5 16 6 17 7 19 8 20 13 21 9 22 10 23 12 24
REMARK SMILES IDX 14 25 11 26 25 27 26 28 27 29 28 30 29 31 30 32 31 33 32 34
REMARK SMILES IDX 33 35 34 36 35 37 96 38 36 39 95 40 37 41 38 42 39 43 89 44
REMARK SMILES IDX 40 45 94 46 88 47 90 48 41 49 93 50 87 51 86 52 42 54 74 55
REMARK SMILES IDX 54 56 73 57 55 58 58 59 72 60 91 61 56 62 57 63 71 65 92 66
REMARK SMILES IDX 59 67 43 68 44 69 52 70 45 71 46 72 50 73 53 74 47 75 48 76
REMARK SMILES IDX 51 77 49 78 75 79 76 80 84 81 77 82 78 83 82 84 85 85 79 86
REMARK SMILES IDX 80 87 83 88 81 89 60 90 61 91 69 92 62 93 63 94 67 95 70 96
REMARK SMILES IDX 64 97 65 98 68 99 66 100
REMARK H PARENT 6 18 90 53 58 64
REMARK Flexibility Score: inf
ROOT
ATOM      1  C   UNL     1      -3.327  -0.337  -1.304  1.00  0.00     0.188 C 
ENDROOT
BRANCH   1   2
ATOM      2  C   UNL     1      -4.040   0.450  -0.240  1.00  0.00     0.188 C 
BRANCH   2   3
ATOM      3  O   UNL     1      -5.086   1.321  -0.615  1.00  0.00    -0.376 OA
BRANCH   3   4
ATOM      4  C   UNL     1      -4.597   2.507  -1.194  1.00  0.00     0.202 C 
BRANCH   4   5
ATOM      5  C   UNL     1      -3.934   3.504  -0.251  1.00  0.00     0.261 C 
BRANCH   5   6
ATOM      6  O   UNL     1      -2.749   2.977   0.362  1.00  0.00    -0.463 OA
BRANCH   6   7
ATOM      7  C   UNL     1      -2.720   3.081   1.711  1.00  0.00     0.310 C 
ATOM      8  O   UNL     1      -3.471   3.804   2.361  1.00  0.00    -0.252 OA
BRANCH   7   9
ATOM      9  C   UNL     1      -1.631   2.280   2.376  1.00  0.00     0.160 C 
BRANCH   9  10
ATOM     10  C   UNL     1      -1.128   0.980   1.762  1.00  0.00    -0.013 A 
ATOM     11  C   UNL     1       2.156   0.094  -0.061  1.00  0.00     0.044 C 
ATOM     12  C   UNL     1       0.795  -0.013   0.558  1.00  0.00    -0.051 A 
ATOM     13  C   UNL     1       0.200  -1.255   0.687  1.00  0.00     0.005 A 
ATOM     14  C   UNL     1       0.114   1.095   1.065  1.00  0.00     0.009 A 
ATOM     15  C   UNL     1      -1.050  -1.379   1.302  1.00  0.00     0.026 A 
ATOM     16  C   UNL     1      -1.749  -0.301   1.885  1.00  0.00     0.042 A 
BRANCH  16  17
ATOM     17  N   UNL     1      -3.032  -0.512   2.508  1.00  0.00    -0.352 N 
ATOM     18  H   UNL     1      -3.350   0.231   3.070  1.00  0.00     0.167 HD
BRANCH  17  19
ATOM     19  C   UNL     1      -3.924  -1.649   2.433  1.00  0.00     0.094 A 
ATOM     20  C   UNL     1      -3.473  -2.975   2.428  1.00  0.00     0.148 A 
ATOM     21  C   UNL     1      -5.291  -1.489   2.096  1.00  0.00     0.067 A 
ATOM     22  F   UNL     1      -2.299  -3.290   2.995  1.00  0.00    -0.205 F 
ATOM     23  C   UNL     1      -4.200  -4.018   1.842  1.00  0.00     0.041 A 
ATOM     24  C   UNL     1      -6.013  -2.513   1.447  1.00  0.00     0.023 A 
ATOM     25  Cl  UNL     1      -6.121   0.008   2.385  1.00  0.00    -0.082 Cl
ATOM     26  C   UNL     1      -5.444  -3.771   1.277  1.00  0.00     0.005 A 
ENDBRANCH  17  19
ENDBRANCH  16  17
ENDBRANCH   9  10
ENDBRANCH   7   9
ENDBRANCH   6   7
ENDBRANCH   5   6
ENDBRANCH   4   5
ENDBRANCH   3   4
ENDBRANCH   2   3
ENDBRANCH   1   2
BRANCH   1  27
ATOM     27  O   UNL     1      -2.033   0.117  -1.663  1.00  0.00    -0.377 OA
BRANCH  27  28
ATOM     28  C   UNL     1      -1.637  -0.412  -2.932  1.00  0.00     0.188 C 
BRANCH  28  29
ATOM     29  C   UNL     1      -1.699  -1.934  -3.134  1.00  0.00     0.188 C 
BRANCH  29  30
ATOM     30  O   UNL     1      -3.054  -2.360  -3.165  1.00  0.00    -0.376 OA
BRANCH  30  31
ATOM     31  C   UNL     1      -3.456  -3.388  -2.264  1.00  0.00     0.202 C 
BRANCH  31  32
ATOM     32  C   UNL     1      -4.194  -4.449  -3.075  1.00  0.00     0.261 C 
BRANCH  32  33
ATOM     33  O   UNL     1      -5.279  -3.799  -3.778  1.00  0.00    -0.460 OA
BRANCH  33  34
ATOM     34  C   UNL     1      -4.949  -3.380  -5.037  1.00  0.00     0.338 C 
ATOM     35  O   UNL     1      -4.397  -4.062  -5.876  1.00  0.00    -0.246 OA
BRANCH  34  36
ATOM     36  C   UNL     1      -5.150  -1.898  -5.168  1.00  0.00     0.060 A 
ATOM     37  C   UNL     1      -4.534  -1.214  -6.230  1.00  0.00     0.016 A 
ATOM     38  C   UNL     1      -5.721  -1.161  -4.134  1.00  0.00     0.016 A 
ATOM     39  C   UNL     1      -4.376   0.185  -6.192  1.00  0.00     0.010 A 
ATOM     40  C   UNL     1      -5.529   0.219  -4.086  1.00  0.00     0.010 A 
ATOM     41  C   UNL     1      -4.805   0.908  -5.079  1.00  0.00    -0.014 A 
BRANCH  41  42
ATOM     42  C   UNL     1      -4.396   2.299  -4.749  1.00  0.00     0.031 A 
ATOM     43  C   UNL     1      -5.407   3.298  -4.263  1.00  0.00     0.074 A 
ATOM     44  C   UNL     1      -3.080   2.551  -4.512  1.00  0.00     0.049 A 
ATOM     45  N   UNL     1      -5.117   4.459  -3.768  1.00  0.00    -0.248 NA
ATOM     46  C   UNL     1      -6.853   3.071  -4.284  1.00  0.00     0.031 C 
ATOM     47  C   UNL     1      -2.525   3.449  -3.492  1.00  0.00     0.029 A 
ATOM     48  N   UNL     1      -1.933   1.991  -5.046  1.00  0.00    -0.354 N 
ATOM     49  C   UNL     1      -6.220   4.932  -3.087  1.00  0.00     0.074 A 
ATOM     50  C   UNL     1      -7.305   4.109  -3.563  1.00  0.00     0.031 C 
ATOM     51  C   UNL     1      -1.187   3.386  -3.472  1.00  0.00     0.029 A 
ATOM     52  C   UNL     1      -0.807   2.762  -4.709  1.00  0.00     0.049 A 
ATOM     53  H   UNL     1      -1.909   1.168  -5.587  1.00  0.00     0.167 HD
ATOM     54  C   UNL     1      -6.045   5.842  -2.075  1.00  0.00     0.037 A 
ATOM     55  C   UNL     1      -0.152   3.453  -5.697  1.00  0.00     0.037 A 
ATOM     56  C   UNL     1      -4.684   6.428  -2.049  1.00  0.00     0.049 A 
ATOM     57  C   UNL     1      -0.451   4.959  -5.684  1.00  0.00     0.074 A 
ATOM     58  C   UNL     1      -3.752   6.788  -1.085  1.00  0.00     0.029 A 
ATOM     59  N   UNL     1      -4.042   6.661  -3.259  1.00  0.00    -0.354 N 
ATOM     60  N   UNL     1      -1.153   5.559  -4.753  1.00  0.00    -0.248 NA
ATOM     61  C   UNL     1      -0.028   5.907  -6.712  1.00  0.00     0.031 C 
ATOM     62  C   UNL     1      -2.546   7.194  -1.744  1.00  0.00     0.029 A 
ATOM     63  C   UNL     1      -2.779   7.177  -3.105  1.00  0.00     0.049 A 
ATOM     64  H   UNL     1      -4.451   6.476  -4.135  1.00  0.00     0.167 HD
ATOM     65  C   UNL     1      -1.350   6.874  -5.055  1.00  0.00     0.074 A 
ATOM     66  C   UNL     1      -0.616   7.047  -6.297  1.00  0.00     0.031 C 
ATOM     67  C   UNL     1      -2.121   7.705  -4.287  1.00  0.00     0.037 A 
BRANCH  54  68
ATOM     68  C   UNL     1      -7.064   6.127  -0.968  1.00  0.00     0.064 A 
ATOM     69  C   UNL     1      -6.925   7.264  -0.137  1.00  0.00     0.173 A 
ATOM     70  C   UNL     1      -8.111   5.258  -0.586  1.00  0.00     0.173 A 
ATOM     71  F   UNL     1      -6.002   8.201  -0.397  1.00  0.00    -0.203 F 
ATOM     72  C   UNL     1      -7.724   7.485   0.994  1.00  0.00     0.198 A 
ATOM     73  C   UNL     1      -8.956   5.517   0.505  1.00  0.00     0.198 A 
ATOM     74  F   UNL     1      -8.331   4.099  -1.215  1.00  0.00    -0.203 F 
ATOM     75  F   UNL     1      -7.489   8.545   1.781  1.00  0.00    -0.200 F 
ATOM     76  C   UNL     1      -8.748   6.617   1.309  1.00  0.00     0.200 A 
ATOM     77  F   UNL     1      -9.963   4.674   0.781  1.00  0.00    -0.200 F 
ATOM     78  F   UNL     1      -9.524   6.834   2.381  1.00  0.00    -0.200 F 
ENDBRANCH  54  68
BRANCH  55  79
ATOM     79  C   UNL     1       0.110   2.518  -6.842  1.00  0.00     0.064 A 
ATOM     80  C   UNL     1       0.928   1.414  -6.492  1.00  0.00     0.173 A 
ATOM     81  C   UNL     1      -0.892   2.295  -7.800  1.00  0.00     0.173 A 
ATOM     82  F   UNL     1       1.916   1.577  -5.596  1.00  0.00    -0.203 F 
ATOM     83  C   UNL     1       0.561   0.113  -6.834  1.00  0.00     0.198 A 
ATOM     84  C   UNL     1      -1.224   0.988  -8.178  1.00  0.00     0.198 A 
ATOM     85  F   UNL     1      -1.693   3.299  -8.182  1.00  0.00    -0.203 F 
ATOM     86  F   UNL     1       1.176  -0.928  -6.255  1.00  0.00    -0.200 F 
ATOM     87  C   UNL     1      -0.546  -0.099  -7.637  1.00  0.00     0.200 A 
ATOM     88  F   UNL     1      -2.308   0.769  -8.936  1.00  0.00    -0.200 F 
ATOM     89  F   UNL     1      -1.018  -1.343  -7.811  1.00  0.00    -0.200 F 
ENDBRANCH  55  79
BRANCH  67  90
ATOM     90  C   UNL     1      -2.429   9.135  -4.638  1.00  0.00     0.064 A 
ATOM     91  C   UNL     1      -1.462  10.014  -5.130  1.00  0.00     0.173 A 
ATOM     92  C   UNL     1      -3.716   9.687  -4.414  1.00  0.00     0.173 A 
ATOM     93  F   UNL     1      -0.181   9.632  -5.240  1.00  0.00    -0.203 F 
ATOM     94  C   UNL     1      -1.790  11.318  -5.504  1.00  0.00     0.198 A 
ATOM     95  C   UNL     1      -4.025  11.004  -4.732  1.00  0.00     0.198 A 
ATOM     96  F   UNL     1      -4.724   8.967  -3.905  1.00  0.00    -0.203 F 
ATOM     97  F   UNL     1      -0.855  12.099  -6.061  1.00  0.00    -0.200 F 
ATOM     98  C   UNL     1      -3.071  11.809  -5.314  1.00  0.00     0.200 A 
ATOM     99  F   UNL     1      -5.258  11.475  -4.492  1.00  0.00    -0.200 F 
ATOM    100  F   UNL     1      -3.385  13.054  -5.691  1.00  0.00    -0.200 F 
ENDBRANCH  67  90
ENDBRANCH  41  42
ENDBRANCH  34  36
ENDBRANCH  33  34
ENDBRANCH  32  33
ENDBRANCH  31  32
ENDBRANCH  30  31
ENDBRANCH  29  30
ENDBRANCH  28  29
ENDBRANCH  27  28
ENDBRANCH   1  27
TORSDOF 23
