REMARK SMILES C[C@H](Sc1ccccn1)C(=O)N[C@H](C(=O)OCCOCCOCCOCCOC(=O)c1ccc(-c2c3nc(c(-c4c(F)c(F)c(F)c(F)c4F)c4ccc([nH]4)c(-c4c(F)c(F)c(F)c(F)c4F)c4nc(c(-c5c(F)c(F)c(F)c(F)c5F)c5ccc2[nH]5)C=C4)C=C3)cc1)c1ccc(F)cc1
REMARK SMILES IDX 21 1 20 2 19 3 18 4 17 5 16 6 14 7 15 8 13 9 12 10 10 11
REMARK SMILES IDX 11 12 2 14 1 15 3 16 4 17 5 18 9 19 6 20 8 21 7 22 94 23
REMARK SMILES IDX 95 24 100 25 96 26 99 27 97 28 98 29 22 30 23 31 24 32 25 33
REMARK SMILES IDX 26 34 27 35 28 36 29 37 30 38 31 39 32 40 93 41 33 42 92 43
REMARK SMILES IDX 34 44 35 45 36 46 86 47 37 48 91 49 85 50 87 51 38 52 90 53
REMARK SMILES IDX 84 54 83 55 39 57 71 58 51 59 70 60 52 61 55 62 69 63 88 64
REMARK SMILES IDX 53 65 54 66 68 68 89 69 56 70 40 71 41 72 49 73 42 74 43 75
REMARK SMILES IDX 47 76 50 77 44 78 45 79 48 80 46 81 72 82 73 83 81 84 74 85
REMARK SMILES IDX 75 86 79 87 82 88 76 89 77 90 80 91 78 92 57 93 58 94 66 95
REMARK SMILES IDX 59 96 60 97 64 98 67 99 61 100 62 101 65 102 63 103
REMARK H PARENT 12 13 87 56 55 67
REMARK Flexibility Score: inf
ROOT
ATOM      1  C   UNL     1      -2.735  -0.942   0.509  1.00  0.00     0.188 C 
ENDROOT
BRANCH   1   2
ATOM      2  C   UNL     1      -3.397  -1.825   1.548  1.00  0.00     0.188 C 
BRANCH   2   3
ATOM      3  O   UNL     1      -4.404  -1.215   2.343  1.00  0.00    -0.376 OA
BRANCH   3   4
ATOM      4  C   UNL     1      -5.453  -0.548   1.655  1.00  0.00     0.202 C 
BRANCH   4   5
ATOM      5  C   UNL     1      -5.346   0.972   1.892  1.00  0.00     0.261 C 
BRANCH   5   6
ATOM      6  O   UNL     1      -4.187   1.599   1.263  1.00  0.00    -0.461 OA
BRANCH   6   7
ATOM      7  C   UNL     1      -3.161   1.916   2.114  1.00  0.00     0.333 C 
ATOM      8  O   UNL     1      -3.250   1.777   3.333  1.00  0.00    -0.249 OA
BRANCH   7   9
ATOM      9  C   UNL     1      -1.806   2.415   1.419  1.00  0.00     0.223 C 
BRANCH   9  10
ATOM     10  N   UNL     1      -1.701   2.447  -0.053  1.00  0.00    -0.338 N 
ATOM     11  C   UNL     1      -1.063   1.744  -1.033  1.00  0.00     0.234 C 
ATOM     12  O   UNL     1      -1.526   2.005  -2.162  1.00  0.00    -0.274 OA
ATOM     13  H   UNL     1      -2.239   3.179  -0.432  1.00  0.00     0.164 HD
BRANCH  11  14
ATOM     14  C   UNL     1       0.125   0.722  -0.987  1.00  0.00     0.139 C 
ATOM     15  C   UNL     1      -0.043  -0.780  -1.241  1.00  0.00     0.030 C 
BRANCH  14  16
ATOM     16  S   UNL     1       1.608   1.213  -0.069  1.00  0.00    -0.093 SA
BRANCH  16  17
ATOM     17  C   UNL     1       1.617   0.432   1.522  1.00  0.00     0.097 A 
ATOM     18  C   UNL     1       0.505  -0.022   2.209  1.00  0.00     0.035 A 
ATOM     19  N   UNL     1       2.813   0.533   2.139  1.00  0.00    -0.250 NA
ATOM     20  C   UNL     1       0.558  -0.157   3.596  1.00  0.00     0.004 A 
ATOM     21  C   UNL     1       2.869   0.323   3.471  1.00  0.00     0.112 A 
ATOM     22  C   UNL     1       1.763   0.043   4.247  1.00  0.00     0.020 A 
ENDBRANCH  16  17
ENDBRANCH  14  16
ENDBRANCH  11  14
ENDBRANCH   9  10
BRANCH   9  23
ATOM     23  C   UNL     1      -1.409   3.707   2.145  1.00  0.00    -0.014 A 
ATOM     24  C   UNL     1      -1.611   4.997   1.637  1.00  0.00     0.009 A 
ATOM     25  C   UNL     1      -1.029   3.578   3.505  1.00  0.00     0.009 A 
ATOM     26  C   UNL     1      -1.518   6.108   2.490  1.00  0.00     0.039 A 
ATOM     27  C   UNL     1      -0.979   4.677   4.357  1.00  0.00     0.039 A 
ATOM     28  C   UNL     1      -1.239   5.935   3.843  1.00  0.00     0.123 A 
ATOM     29  F   UNL     1      -1.248   6.990   4.667  1.00  0.00    -0.207 F 
ENDBRANCH   9  23
ENDBRANCH   7   9
ENDBRANCH   6   7
ENDBRANCH   5   6
ENDBRANCH   4   5
ENDBRANCH   3   4
ENDBRANCH   2   3
ENDBRANCH   1   2
BRANCH   1  30
ATOM     30  O   UNL     1      -3.113  -1.248  -0.801  1.00  0.00    -0.377 OA
BRANCH  30  31
ATOM     31  C   UNL     1      -4.011  -0.397  -1.492  1.00  0.00     0.188 C 
BRANCH  31  32
ATOM     32  C   UNL     1      -4.649  -1.351  -2.485  1.00  0.00     0.188 C 
BRANCH  32  33
ATOM     33  O   UNL     1      -3.730  -2.080  -3.305  1.00  0.00    -0.376 OA
BRANCH  33  34
ATOM     34  C   UNL     1      -2.658  -1.361  -3.912  1.00  0.00     0.202 C 
BRANCH  34  35
ATOM     35  C   UNL     1      -2.906  -1.087  -5.389  1.00  0.00     0.261 C 
BRANCH  35  36
ATOM     36  O   UNL     1      -3.843  -0.011  -5.519  1.00  0.00    -0.460 OA
BRANCH  36  37
ATOM     37  C   UNL     1      -5.143  -0.386  -5.600  1.00  0.00     0.338 C 
ATOM     38  O   UNL     1      -5.593  -1.496  -5.768  1.00  0.00    -0.246 OA
BRANCH  37  39
ATOM     39  C   UNL     1      -5.964   0.781  -5.217  1.00  0.00     0.060 A 
ATOM     40  C   UNL     1      -7.075   0.555  -4.391  1.00  0.00     0.016 A 
ATOM     41  C   UNL     1      -5.633   2.072  -5.635  1.00  0.00     0.016 A 
ATOM     42  C   UNL     1      -7.864   1.620  -3.980  1.00  0.00     0.010 A 
ATOM     43  C   UNL     1      -6.447   3.134  -5.261  1.00  0.00     0.010 A 
ATOM     44  C   UNL     1      -7.576   2.901  -4.458  1.00  0.00    -0.014 A 
BRANCH  44  45
ATOM     45  C   UNL     1      -8.588   3.959  -4.322  1.00  0.00     0.031 A 
ATOM     46  C   UNL     1      -9.561   4.130  -5.449  1.00  0.00     0.074 A 
ATOM     47  C   UNL     1      -8.618   4.738  -3.232  1.00  0.00     0.049 A 
ATOM     48  N   UNL     1     -10.461   5.056  -5.634  1.00  0.00    -0.248 NA
ATOM     49  C   UNL     1      -9.505   3.116  -6.518  1.00  0.00     0.031 C 
ATOM     50  C   UNL     1      -7.745   4.596  -2.068  1.00  0.00     0.029 A 
ATOM     51  N   UNL     1      -9.403   5.821  -2.940  1.00  0.00    -0.354 N 
ATOM     52  C   UNL     1     -11.069   4.744  -6.843  1.00  0.00     0.074 A 
ATOM     53  C   UNL     1     -10.426   3.558  -7.359  1.00  0.00     0.031 C 
ATOM     54  C   UNL     1      -8.022   5.582  -1.197  1.00  0.00     0.029 A 
ATOM     55  C   UNL     1      -9.056   6.443  -1.769  1.00  0.00     0.049 A 
ATOM     56  H   UNL     1     -10.144   6.122  -3.515  1.00  0.00     0.167 HD
ATOM     57  C   UNL     1     -12.076   5.400  -7.460  1.00  0.00     0.037 A 
ATOM     58  C   UNL     1      -9.499   7.605  -1.254  1.00  0.00     0.037 A 
ATOM     59  C   UNL     1     -12.684   6.590  -6.930  1.00  0.00     0.049 A 
ATOM     60  C   UNL     1     -10.550   8.374  -2.014  1.00  0.00     0.074 A 
ATOM     61  C   UNL     1     -13.723   7.335  -7.453  1.00  0.00     0.029 A 
ATOM     62  N   UNL     1     -12.287   7.216  -5.756  1.00  0.00    -0.354 N 
ATOM     63  N   UNL     1     -11.150   8.066  -3.140  1.00  0.00    -0.248 NA
ATOM     64  C   UNL     1     -10.980   9.654  -1.438  1.00  0.00     0.031 C 
ATOM     65  C   UNL     1     -13.911   8.449  -6.629  1.00  0.00     0.029 A 
ATOM     66  C   UNL     1     -13.032   8.365  -5.559  1.00  0.00     0.049 A 
ATOM     67  H   UNL     1     -11.580   6.890  -5.153  1.00  0.00     0.167 HD
ATOM     68  C   UNL     1     -12.038   9.101  -3.398  1.00  0.00     0.074 A 
ATOM     69  C   UNL     1     -11.915  10.035  -2.297  1.00  0.00     0.031 C 
ATOM     70  C   UNL     1     -12.878   9.273  -4.450  1.00  0.00     0.037 A 
BRANCH  57  71
ATOM     71  C   UNL     1     -12.540   4.875  -8.786  1.00  0.00     0.064 A 
ATOM     72  C   UNL     1     -13.235   3.661  -8.901  1.00  0.00     0.173 A 
ATOM     73  C   UNL     1     -12.302   5.608  -9.958  1.00  0.00     0.173 A 
ATOM     74  F   UNL     1     -13.469   2.910  -7.814  1.00  0.00    -0.203 F 
ATOM     75  C   UNL     1     -13.655   3.191 -10.143  1.00  0.00     0.198 A 
ATOM     76  C   UNL     1     -12.751   5.150 -11.194  1.00  0.00     0.198 A 
ATOM     77  F   UNL     1     -11.636   6.771  -9.905  1.00  0.00    -0.203 F 
ATOM     78  F   UNL     1     -14.274   2.006 -10.235  1.00  0.00    -0.200 F 
ATOM     79  C   UNL     1     -13.421   3.940 -11.287  1.00  0.00     0.200 A 
ATOM     80  F   UNL     1     -12.532   5.881 -12.296  1.00  0.00    -0.200 F 
ATOM     81  F   UNL     1     -13.834   3.491 -12.480  1.00  0.00    -0.200 F 
ENDBRANCH  57  71
BRANCH  58  82
ATOM     82  C   UNL     1      -8.925   8.126   0.014  1.00  0.00     0.064 A 
ATOM     83  C   UNL     1      -9.708   8.236   1.171  1.00  0.00     0.173 A 
ATOM     84  C   UNL     1      -7.584   8.534   0.095  1.00  0.00     0.173 A 
ATOM     85  F   UNL     1     -10.999   7.877   1.141  1.00  0.00    -0.203 F 
ATOM     86  C   UNL     1      -9.179   8.753   2.352  1.00  0.00     0.198 A 
ATOM     87  C   UNL     1      -7.048   9.020   1.286  1.00  0.00     0.198 A 
ATOM     88  F   UNL     1      -6.788   8.447  -0.981  1.00  0.00    -0.203 F 
ATOM     89  F   UNL     1      -9.964   8.891   3.429  1.00  0.00    -0.200 F 
ATOM     90  C   UNL     1      -7.848   9.139   2.411  1.00  0.00     0.200 A 
ATOM     91  F   UNL     1      -5.756   9.372   1.341  1.00  0.00    -0.200 F 
ATOM     92  F   UNL     1      -7.340   9.630   3.549  1.00  0.00    -0.200 F 
ENDBRANCH  58  82
BRANCH  70  93
ATOM     93  C   UNL     1     -13.733  10.506  -4.452  1.00  0.00     0.064 A 
ATOM     94  C   UNL     1     -13.186  11.776  -4.687  1.00  0.00     0.173 A 
ATOM     95  C   UNL     1     -15.122  10.409  -4.281  1.00  0.00     0.173 A 
ATOM     96  F   UNL     1     -11.861  11.922  -4.841  1.00  0.00    -0.203 F 
ATOM     97  C   UNL     1     -13.997  12.906  -4.731  1.00  0.00     0.198 A 
ATOM     98  C   UNL     1     -15.934  11.536  -4.362  1.00  0.00     0.198 A 
ATOM     99  F   UNL     1     -15.695   9.215  -4.063  1.00  0.00    -0.203 F 
ATOM    100  F   UNL     1     -13.448  14.115  -4.912  1.00  0.00    -0.200 F 
ATOM    101  C   UNL     1     -15.370  12.783  -4.580  1.00  0.00     0.200 A 
ATOM    102  F   UNL     1     -17.262  11.413  -4.235  1.00  0.00    -0.200 F 
ATOM    103  F   UNL     1     -16.151  13.871  -4.640  1.00  0.00    -0.200 F 
ENDBRANCH  70  93
ENDBRANCH  44  45
ENDBRANCH  37  39
ENDBRANCH  36  37
ENDBRANCH  35  36
ENDBRANCH  34  35
ENDBRANCH  33  34
ENDBRANCH  32  33
ENDBRANCH  31  32
ENDBRANCH  30  31
ENDBRANCH   1  30
TORSDOF 25
