REMARK SMILES CCN(c1cccc(C)c1)c1nc(OCC(=O)OCCOCCOCCOCCOC(=O)c2ccc(-c3c4nc(c(-c5c(F)c(F)c(F)c(F)c5F)c5ccc([nH]5)c(-c5c(F)c(F)c(F)c(F)c5F)c5nc(c(-c6c(F)c(F)c(F)c(F)c6F)c6ccc3[nH]6)C=C5)C=C4)cc2)cc(-c2ccc(C)cc2)n1
REMARK SMILES IDX 23 1 22 2 21 3 20 4 19 5 18 6 16 7 17 8 15 9 14 10 13 11
REMARK SMILES IDX 11 12 12 13 105 14 97 15 96 16 3 17 2 18 1 19 4 20 5 21
REMARK SMILES IDX 10 22 6 23 8 24 7 25 9 26 98 27 99 28 104 29 100 30 103 31
REMARK SMILES IDX 101 32 102 33 24 34 25 35 26 36 27 37 28 38 29 39 30 40
REMARK SMILES IDX 31 41 32 42 33 43 34 44 95 45 35 46 94 47 36 48 37 49 38 50
REMARK SMILES IDX 88 51 39 52 93 53 87 54 89 55 40 56 92 57 86 58 85 59 41 61
REMARK SMILES IDX 73 62 53 63 72 64 54 65 57 66 71 67 90 68 55 69 56 70 70 72
REMARK SMILES IDX 91 73 58 74 42 75 43 76 51 77 44 78 45 79 49 80 52 81 46 82
REMARK SMILES IDX 47 83 50 84 48 85 74 86 75 87 83 88 76 89 77 90 81 91 84 92
REMARK SMILES IDX 78 93 79 94 82 95 80 96 59 97 60 98 68 99 61 100 62 101
REMARK SMILES IDX 66 102 69 103 63 104 64 105 67 106 65 107
REMARK H PARENT 89 60 57 71
REMARK Flexibility Score: inf
ROOT
ATOM      1  C   UNL     1       3.298   0.519   4.033  1.00  0.00     0.188 C 
ENDROOT
BRANCH   1   2
ATOM      2  C   UNL     1       4.813   0.202   4.131  1.00  0.00     0.188 C 
BRANCH   2   3
ATOM      3  O   UNL     1       5.539   0.603   5.323  1.00  0.00    -0.376 OA
BRANCH   3   4
ATOM      4  C   UNL     1       6.968   0.914   5.553  1.00  0.00     0.202 C 
BRANCH   4   5
ATOM      5  C   UNL     1       8.240   2.067   5.111  1.00  0.00     0.261 C 
BRANCH   5   6
ATOM      6  O   UNL     1       8.635   3.345   3.904  1.00  0.00    -0.461 OA
BRANCH   6   7
ATOM      7  C   UNL     1       8.483   3.987   2.562  1.00  0.00     0.344 C 
ATOM      8  O   UNL     1       9.442   4.041   1.772  1.00  0.00    -0.248 OA
BRANCH   7   9
ATOM      9  C   UNL     1       7.151   4.912   1.991  1.00  0.00     0.353 C 
BRANCH   9  10
ATOM     10  O   UNL     1       5.704   4.891   2.063  1.00  0.00    -0.466 OA
BRANCH  10  11
ATOM     11  C   UNL     1       4.912   4.214   1.160  1.00  0.00     0.219 A 
ATOM     12  C   UNL     1       2.910   3.063   0.749  1.00  0.00     0.233 A 
ATOM     13  N   UNL     1       3.650   3.884   1.551  1.00  0.00    -0.177 NA
ATOM     14  N   UNL     1       3.470   2.456  -0.324  1.00  0.00    -0.212 NA
ATOM     15  C   UNL     1       4.706   2.860  -0.703  1.00  0.00     0.080 A 
ATOM     16  C   UNL     1       5.400   3.843  -0.042  1.00  0.00     0.097 A 
BRANCH  12  17
ATOM     17  N   UNL     1       1.549   2.800   1.068  1.00  0.00    -0.311 N 
BRANCH  17  18
ATOM     18  C   UNL     1       1.066   1.417   0.886  1.00  0.00     0.122 C 
ATOM     19  C   UNL     1       0.734   1.025  -0.548  1.00  0.00     0.028 C 
ENDBRANCH  17  18
BRANCH  17  20
ATOM     20  C   UNL     1       0.515   3.752   1.279  1.00  0.00     0.044 A 
ATOM     21  C   UNL     1      -0.521   3.534   2.210  1.00  0.00     0.026 A 
ATOM     22  C   UNL     1       0.433   4.916   0.498  1.00  0.00     0.029 A 
ATOM     23  C   UNL     1      -1.613   4.405   2.321  1.00  0.00     0.002 A 
ATOM     24  C   UNL     1      -0.661   5.801   0.599  1.00  0.00    -0.049 A 
ATOM     25  C   UNL     1      -1.688   5.530   1.508  1.00  0.00     0.003 A 
ATOM     26  C   UNL     1      -0.738   7.006  -0.293  1.00  0.00     0.044 C 
ENDBRANCH  17  20
ENDBRANCH  12  17
BRANCH  15  27
ATOM     27  C   UNL     1       5.467   2.068  -1.691  1.00  0.00     0.000 A 
ATOM     28  C   UNL     1       6.831   1.806  -1.421  1.00  0.00     0.010 A 
ATOM     29  C   UNL     1       4.945   1.541  -2.870  1.00  0.00     0.010 A 
ATOM     30  C   UNL     1       7.598   0.939  -2.181  1.00  0.00     0.004 A 
ATOM     31  C   UNL     1       5.744   0.725  -3.693  1.00  0.00     0.004 A 
ATOM     32  C   UNL     1       7.051   0.373  -3.319  1.00  0.00    -0.051 A 
ATOM     33  C   UNL     1       7.910  -0.548  -4.127  1.00  0.00     0.044 C 
ENDBRANCH  15  27
ENDBRANCH  10  11
ENDBRANCH   9  10
ENDBRANCH   7   9
ENDBRANCH   6   7
ENDBRANCH   5   6
ENDBRANCH   4   5
ENDBRANCH   3   4
ENDBRANCH   2   3
ENDBRANCH   1   2
BRANCH   1  34
ATOM     34  O   UNL     1       2.430  -0.452   4.587  1.00  0.00    -0.377 OA
BRANCH  34  35
ATOM     35  C   UNL     1       2.671  -1.792   4.164  1.00  0.00     0.188 C 
BRANCH  35  36
ATOM     36  C   UNL     1       2.467  -2.024   2.661  1.00  0.00     0.188 C 
BRANCH  36  37
ATOM     37  O   UNL     1       3.516  -1.435   1.885  1.00  0.00    -0.376 OA
BRANCH  37  38
ATOM     38  C   UNL     1       3.336  -1.555   0.470  1.00  0.00     0.202 C 
BRANCH  38  39
ATOM     39  C   UNL     1       3.508  -2.990  -0.054  1.00  0.00     0.261 C 
BRANCH  39  40
ATOM     40  O   UNL     1       4.864  -3.473   0.051  1.00  0.00    -0.460 OA
BRANCH  40  41
ATOM     41  C   UNL     1       5.329  -3.663   1.318  1.00  0.00     0.338 C 
ATOM     42  O   UNL     1       4.886  -4.465   2.114  1.00  0.00    -0.246 OA
BRANCH  41  43
ATOM     43  C   UNL     1       6.314  -2.580   1.634  1.00  0.00     0.060 A 
ATOM     44  C   UNL     1       6.782  -2.389   2.924  1.00  0.00     0.016 A 
ATOM     45  C   UNL     1       6.516  -1.560   0.715  1.00  0.00     0.016 A 
ATOM     46  C   UNL     1       7.256  -1.109   3.293  1.00  0.00     0.010 A 
ATOM     47  C   UNL     1       6.726  -0.262   1.177  1.00  0.00     0.010 A 
ATOM     48  C   UNL     1       7.009   0.040   2.497  1.00  0.00    -0.014 A 
BRANCH  48  49
ATOM     49  C   UNL     1       7.266   1.566   2.882  1.00  0.00     0.031 A 
ATOM     50  C   UNL     1       9.005   1.455   2.533  1.00  0.00     0.074 A 
ATOM     51  C   UNL     1       6.377   2.667   3.633  1.00  0.00     0.049 A 
ATOM     52  N   UNL     1      10.009   1.651   3.367  1.00  0.00    -0.248 NA
ATOM     53  C   UNL     1       9.581   0.931   1.276  1.00  0.00     0.031 C 
ATOM     54  C   UNL     1       6.644   4.165   4.301  1.00  0.00     0.029 A 
ATOM     55  N   UNL     1       5.068   2.683   4.309  1.00  0.00    -0.354 N 
ATOM     56  C   UNL     1      11.133   1.941   2.645  1.00  0.00     0.074 A 
ATOM     57  C   UNL     1      10.896   1.152   1.458  1.00  0.00     0.031 C 
ATOM     58  C   UNL     1       5.774   4.627   5.187  1.00  0.00     0.029 A 
ATOM     59  C   UNL     1       5.061   3.483   5.548  1.00  0.00     0.049 A 
ATOM     60  H   UNL     1       4.277   2.207   3.968  1.00  0.00     0.167 HD
ATOM     61  C   UNL     1      11.928   3.037   2.947  1.00  0.00     0.037 A 
ATOM     62  C   UNL     1       5.146   3.109   6.875  1.00  0.00     0.037 A 
ATOM     63  C   UNL     1      11.432   3.876   4.114  1.00  0.00     0.049 A 
ATOM     64  C   UNL     1       6.498   3.493   7.645  1.00  0.00     0.074 A 
ATOM     65  C   UNL     1      10.956   5.189   4.186  1.00  0.00     0.029 A 
ATOM     66  N   UNL     1      11.130   3.346   5.381  1.00  0.00    -0.354 N 
ATOM     67  N   UNL     1       7.583   4.029   7.105  1.00  0.00    -0.248 NA
ATOM     68  C   UNL     1       6.742   3.204   9.063  1.00  0.00     0.031 C 
ATOM     69  C   UNL     1      10.302   5.410   5.434  1.00  0.00     0.029 A 
ATOM     70  C   UNL     1      10.394   4.253   6.184  1.00  0.00     0.049 A 
ATOM     71  H   UNL     1      11.399   2.447   5.677  1.00  0.00     0.167 HD
ATOM     72  C   UNL     1       8.681   3.898   7.961  1.00  0.00     0.074 A 
ATOM     73  C   UNL     1       8.040   3.537   9.219  1.00  0.00     0.031 C 
ATOM     74  C   UNL     1      10.024   3.947   7.587  1.00  0.00     0.037 A 
BRANCH  61  75
ATOM     75  C   UNL     1      12.921   3.615   1.895  1.00  0.00     0.064 A 
ATOM     76  C   UNL     1      13.385   4.953   1.934  1.00  0.00     0.173 A 
ATOM     77  C   UNL     1      13.426   2.895   0.789  1.00  0.00     0.173 A 
ATOM     78  F   UNL     1      13.199   5.733   3.005  1.00  0.00    -0.203 F 
ATOM     79  C   UNL     1      14.121   5.545   0.892  1.00  0.00     0.198 A 
ATOM     80  C   UNL     1      14.123   3.490  -0.274  1.00  0.00     0.198 A 
ATOM     81  F   UNL     1      13.363   1.562   0.737  1.00  0.00    -0.203 F 
ATOM     82  F   UNL     1      14.514   6.823   0.994  1.00  0.00    -0.200 F 
ATOM     83  C   UNL     1      14.456   4.823  -0.232  1.00  0.00     0.200 A 
ATOM     84  F   UNL     1      14.490   2.745  -1.328  1.00  0.00    -0.200 F 
ATOM     85  F   UNL     1      15.146   5.388  -1.234  1.00  0.00    -0.200 F 
ENDBRANCH  61  75
BRANCH  62  86
ATOM     86  C   UNL     1       4.099   2.128   7.306  1.00  0.00     0.064 A 
ATOM     87  C   UNL     1       2.760   2.436   6.973  1.00  0.00     0.173 A 
ATOM     88  C   UNL     1       4.331   0.836   7.799  1.00  0.00     0.173 A 
ATOM     89  F   UNL     1       2.444   3.674   6.556  1.00  0.00    -0.203 F 
ATOM     90  C   UNL     1       1.749   1.476   6.982  1.00  0.00     0.198 A 
ATOM     91  C   UNL     1       3.321  -0.139   7.780  1.00  0.00     0.198 A 
ATOM     92  F   UNL     1       5.551   0.471   8.222  1.00  0.00    -0.203 F 
ATOM     93  F   UNL     1       0.523   1.796   6.541  1.00  0.00    -0.200 F 
ATOM     94  C   UNL     1       2.037   0.178   7.359  1.00  0.00     0.200 A 
ATOM     95  F   UNL     1       3.607  -1.405   8.118  1.00  0.00    -0.200 F 
ATOM     96  F   UNL     1       1.094  -0.773   7.274  1.00  0.00    -0.200 F 
ENDBRANCH  62  86
BRANCH  74  97
ATOM     97  C   UNL     1      11.220   3.747   8.525  1.00  0.00     0.064 A 
ATOM     98  C   UNL     1      11.244   2.896   9.639  1.00  0.00     0.173 A 
ATOM     99  C   UNL     1      12.466   4.372   8.229  1.00  0.00     0.173 A 
ATOM    100  F   UNL     1      10.197   2.116   9.939  1.00  0.00    -0.203 F 
ATOM    101  C   UNL     1      12.379   2.764  10.452  1.00  0.00     0.198 A 
ATOM    102  C   UNL     1      13.617   4.174   8.992  1.00  0.00     0.198 A 
ATOM    103  F   UNL     1      12.610   5.189   7.176  1.00  0.00    -0.203 F 
ATOM    104  F   UNL     1      12.322   1.997  11.550  1.00  0.00    -0.200 F 
ATOM    105  C   UNL     1      13.566   3.394  10.125  1.00  0.00     0.200 A 
ATOM    106  F   UNL     1      14.775   4.737   8.615  1.00  0.00    -0.200 F 
ATOM    107  F   UNL     1      14.657   3.234  10.885  1.00  0.00    -0.200 F 
ENDBRANCH  74  97
ENDBRANCH  48  49
ENDBRANCH  41  43
ENDBRANCH  40  41
ENDBRANCH  39  40
ENDBRANCH  38  39
ENDBRANCH  37  38
ENDBRANCH  36  37
ENDBRANCH  35  36
ENDBRANCH  34  35
ENDBRANCH   1  34
TORSDOF 26
