REMARK SMILES NS(=O)(=O)c1ccc(-n2nc(C(F)(F)F)cc2-c2ccc(C(=O)OCCOCCOCCOCCOC(=O)c3ccc(-c4c5nc(c(-c6c(F)c(F)c(F)c(F)c6F)c6ccc([nH]6)c(-c6c(F)c(F)c(F)c(F)c6F)c6nc(c(-c7c(F)c(F)c(F)c(F)c7F)c7ccc4[nH]7)C=C6)C=C5)cc3)cc2)cc1
REMARK SMILES IDX 29 1 28 2 27 3 26 4 25 5 24 6 22 7 23 8 21 9 18 10 19 11
REMARK SMILES IDX 103 12 20 13 102 14 17 15 9 16 10 17 11 18 16 19 8 20 5 21
REMARK SMILES IDX 6 22 105 23 7 24 104 25 2 26 3 27 4 28 1 29 12 32 13 33
REMARK SMILES IDX 14 34 15 35 30 36 31 37 32 38 33 39 34 40 35 41 36 42 37 43
REMARK SMILES IDX 38 44 39 45 40 46 101 47 41 48 100 49 42 50 43 51 44 52
REMARK SMILES IDX 94 53 45 54 99 55 93 56 95 57 46 58 98 59 92 60 91 61 47 63
REMARK SMILES IDX 79 64 59 65 78 66 60 67 63 68 77 69 96 70 61 71 62 72 76 74
REMARK SMILES IDX 97 75 64 76 48 77 49 78 57 79 50 80 51 81 55 82 58 83 52 84
REMARK SMILES IDX 53 85 56 86 54 87 80 88 81 89 89 90 82 91 83 92 87 93 90 94
REMARK SMILES IDX 84 95 85 96 88 97 86 98 65 99 66 100 74 101 67 102 68 103
REMARK SMILES IDX 72 104 75 105 69 106 70 107 73 108 71 109
REMARK H PARENT 1 30 1 31 95 62 63 73
REMARK Flexibility Score: inf
ROOT
ATOM      1  C   UNL     1      -3.936  -4.612  -2.057  1.00  0.00     0.188 C 
ENDROOT
BRANCH   1   2
ATOM      2  C   UNL     1      -3.860  -4.003  -3.475  1.00  0.00     0.188 C 
BRANCH   2   3
ATOM      3  O   UNL     1      -5.090  -4.040  -4.173  1.00  0.00    -0.376 OA
BRANCH   3   4
ATOM      4  C   UNL     1      -5.265  -4.904  -5.270  1.00  0.00     0.202 C 
BRANCH   4   5
ATOM      5  C   UNL     1      -5.010  -6.406  -5.093  1.00  0.00     0.261 C 
BRANCH   5   6
ATOM      6  O   UNL     1      -3.878  -6.767  -4.296  1.00  0.00    -0.460 OA
BRANCH   6   7
ATOM      7  C   UNL     1      -2.665  -6.608  -4.868  1.00  0.00     0.338 C 
ATOM      8  O   UNL     1      -2.436  -6.204  -5.994  1.00  0.00    -0.246 OA
BRANCH   7   9
ATOM      9  C   UNL     1      -1.633  -6.807  -3.824  1.00  0.00     0.060 A 
ATOM     10  C   UNL     1       0.400  -7.166  -1.933  1.00  0.00     0.000 A 
ATOM     11  C   UNL     1       0.464  -6.105  -2.849  1.00  0.00     0.011 A 
ATOM     12  C   UNL     1      -0.720  -8.007  -1.931  1.00  0.00     0.011 A 
ATOM     13  C   UNL     1      -0.544  -5.930  -3.796  1.00  0.00     0.016 A 
ATOM     14  C   UNL     1      -1.742  -7.822  -2.866  1.00  0.00     0.016 A 
BRANCH  10  15
ATOM     15  C   UNL     1       1.564  -7.482  -1.106  1.00  0.00     0.075 A 
ATOM     16  N   UNL     1       2.296  -6.592  -0.333  1.00  0.00    -0.233 N 
ATOM     17  N   UNL     1       3.531  -7.077  -0.037  1.00  0.00    -0.163 NA
ATOM     18  C   UNL     1       3.508  -8.361  -0.446  1.00  0.00     0.167 A 
ATOM     19  C   UNL     1       2.300  -8.650  -1.122  1.00  0.00     0.064 A 
BRANCH  16  20
ATOM     20  C   UNL     1       1.898  -5.308   0.123  1.00  0.00     0.065 A 
ATOM     21  C   UNL     1       1.091  -2.760   0.902  1.00  0.00     0.082 A 
ATOM     22  C   UNL     1       0.174  -3.815   0.936  1.00  0.00     0.024 A 
ATOM     23  C   UNL     1       2.416  -2.976   0.505  1.00  0.00     0.024 A 
ATOM     24  C   UNL     1       0.575  -5.089   0.533  1.00  0.00     0.030 A 
ATOM     25  C   UNL     1       2.829  -4.261   0.142  1.00  0.00     0.030 A 
BRANCH  21  26
ATOM     26  S   UNL     1       0.548  -1.138   1.349  1.00  0.00     0.238 S 
ATOM     27  O   UNL     1       1.211  -0.758   2.583  1.00  0.00    -0.207 OA
ATOM     28  O   UNL     1      -0.876  -1.053   1.171  1.00  0.00    -0.207 OA
BRANCH  26  29
ATOM     29  N   UNL     1       1.203  -0.164   0.147  1.00  0.00    -0.225 NA
ATOM     30  H   UNL     1       0.943   0.807   0.317  1.00  0.00     0.137 HD
ATOM     31  H   UNL     1       0.845  -0.458  -0.762  1.00  0.00     0.137 HD
ENDBRANCH  26  29
ENDBRANCH  21  26
ENDBRANCH  16  20
BRANCH  18  32
ATOM     32  C   UNL     1       4.649  -9.324  -0.244  1.00  0.00     0.435 C 
ATOM     33  F   UNL     1       5.861  -8.785  -0.531  1.00  0.00    -0.164 F 
ATOM     34  F   UNL     1       4.704  -9.789   1.032  1.00  0.00    -0.164 F 
ATOM     35  F   UNL     1       4.518 -10.421  -1.043  1.00  0.00    -0.164 F 
ENDBRANCH  18  32
ENDBRANCH  10  15
ENDBRANCH   7   9
ENDBRANCH   6   7
ENDBRANCH   5   6
ENDBRANCH   4   5
ENDBRANCH   3   4
ENDBRANCH   2   3
ENDBRANCH   1   2
BRANCH   1  36
ATOM     36  O   UNL     1      -5.085  -5.349  -1.661  1.00  0.00    -0.377 OA
BRANCH  36  37
ATOM     37  C   UNL     1      -6.394  -4.845  -1.914  1.00  0.00     0.188 C 
BRANCH  37  38
ATOM     38  C   UNL     1      -6.702  -3.335  -2.121  1.00  0.00     0.188 C 
BRANCH  38  39
ATOM     39  O   UNL     1      -5.582  -2.468  -2.127  1.00  0.00    -0.376 OA
BRANCH  39  40
ATOM     40  C   UNL     1      -5.285  -1.569  -1.080  1.00  0.00     0.202 C 
BRANCH  40  41
ATOM     41  C   UNL     1      -5.101  -2.115   0.327  1.00  0.00     0.261 C 
BRANCH  41  42
ATOM     42  O   UNL     1      -5.963  -3.190   0.628  1.00  0.00    -0.460 OA
BRANCH  42  43
ATOM     43  C   UNL     1      -7.249  -2.836   0.795  1.00  0.00     0.338 C 
ATOM     44  O   UNL     1      -7.770  -1.764   0.543  1.00  0.00    -0.246 OA
BRANCH  43  45
ATOM     45  C   UNL     1      -7.916  -3.938   1.484  1.00  0.00     0.060 A 
ATOM     46  C   UNL     1      -9.288  -3.787   1.675  1.00  0.00     0.016 A 
ATOM     47  C   UNL     1      -7.116  -4.769   2.281  1.00  0.00     0.016 A 
ATOM     48  C   UNL     1      -9.804  -4.221   2.867  1.00  0.00     0.010 A 
ATOM     49  C   UNL     1      -7.618  -5.158   3.488  1.00  0.00     0.010 A 
ATOM     50  C   UNL     1      -8.924  -4.788   3.794  1.00  0.00    -0.014 A 
BRANCH  50  51
ATOM     51  C   UNL     1      -9.435  -5.101   5.103  1.00  0.00     0.031 A 
ATOM     52  C   UNL     1     -10.243  -6.333   5.072  1.00  0.00     0.074 A 
ATOM     53  C   UNL     1      -9.079  -4.383   6.183  1.00  0.00     0.049 A 
ATOM     54  N   UNL     1     -11.511  -6.447   5.271  1.00  0.00    -0.248 NA
ATOM     55  C   UNL     1      -9.604  -7.550   4.535  1.00  0.00     0.031 C 
ATOM     56  C   UNL     1      -8.061  -3.329   6.264  1.00  0.00     0.029 A 
ATOM     57  N   UNL     1      -9.475  -4.523   7.474  1.00  0.00    -0.354 N 
ATOM     58  C   UNL     1     -11.774  -7.803   5.123  1.00  0.00     0.074 A 
ATOM     59  C   UNL     1     -10.648  -8.371   4.437  1.00  0.00     0.031 C 
ATOM     60  C   UNL     1      -7.763  -3.099   7.562  1.00  0.00     0.029 A 
ATOM     61  C   UNL     1      -8.643  -3.898   8.395  1.00  0.00     0.049 A 
ATOM     62  H   UNL     1     -10.282  -5.023   7.735  1.00  0.00     0.167 HD
ATOM     63  C   UNL     1     -12.703  -8.393   5.919  1.00  0.00     0.037 A 
ATOM     64  C   UNL     1      -8.638  -4.122   9.733  1.00  0.00     0.037 A 
ATOM     65  C   UNL     1     -13.640  -7.415   6.418  1.00  0.00     0.049 A 
ATOM     66  C   UNL     1      -9.925  -4.783  10.072  1.00  0.00     0.074 A 
ATOM     67  C   UNL     1     -14.511  -6.513   5.837  1.00  0.00     0.029 A 
ATOM     68  N   UNL     1     -13.480  -7.003   7.716  1.00  0.00    -0.354 N 
ATOM     69  N   UNL     1     -11.087  -4.194  10.011  1.00  0.00    -0.248 NA
ATOM     70  C   UNL     1      -9.966  -6.238  10.059  1.00  0.00     0.031 C 
ATOM     71  C   UNL     1     -14.503  -5.372   6.695  1.00  0.00     0.029 A 
ATOM     72  C   UNL     1     -13.675  -5.651   7.783  1.00  0.00     0.049 A 
ATOM     73  H   UNL     1     -13.261  -7.587   8.478  1.00  0.00     0.167 HD
ATOM     74  C   UNL     1     -11.948  -5.162   9.516  1.00  0.00     0.074 A 
ATOM     75  C   UNL     1     -11.231  -6.423   9.674  1.00  0.00     0.031 C 
ATOM     76  C   UNL     1     -13.025  -4.803   8.756  1.00  0.00     0.037 A 
BRANCH  63  77
ATOM     77  C   UNL     1     -12.445  -9.708   6.630  1.00  0.00     0.064 A 
ATOM     78  C   UNL     1     -13.483 -10.251   7.410  1.00  0.00     0.173 A 
ATOM     79  C   UNL     1     -11.166 -10.275   6.850  1.00  0.00     0.173 A 
ATOM     80  F   UNL     1     -14.736  -9.786   7.295  1.00  0.00    -0.203 F 
ATOM     81  C   UNL     1     -13.239 -11.199   8.406  1.00  0.00     0.198 A 
ATOM     82  C   UNL     1     -10.937 -11.258   7.807  1.00  0.00     0.198 A 
ATOM     83  F   UNL     1     -10.059  -9.840   6.241  1.00  0.00    -0.203 F 
ATOM     84  F   UNL     1     -14.233 -11.574   9.221  1.00  0.00    -0.200 F 
ATOM     85  C   UNL     1     -11.964 -11.693   8.612  1.00  0.00     0.200 A 
ATOM     86  F   UNL     1      -9.688 -11.709   7.999  1.00  0.00    -0.200 F 
ATOM     87  F   UNL     1     -11.714 -12.545   9.613  1.00  0.00    -0.200 F 
ENDBRANCH  63  77
BRANCH  64  88
ATOM     88  C   UNL     1      -7.483  -4.125  10.665  1.00  0.00     0.064 A 
ATOM     89  C   UNL     1      -7.682  -4.120  12.057  1.00  0.00     0.173 A 
ATOM     90  C   UNL     1      -6.177  -4.416  10.225  1.00  0.00     0.173 A 
ATOM     91  F   UNL     1      -8.905  -3.902  12.562  1.00  0.00    -0.203 F 
ATOM     92  C   UNL     1      -6.645  -4.413  12.949  1.00  0.00     0.198 A 
ATOM     93  C   UNL     1      -5.141  -4.698  11.117  1.00  0.00     0.198 A 
ATOM     94  F   UNL     1      -5.898  -4.531   8.919  1.00  0.00    -0.203 F 
ATOM     95  F   UNL     1      -6.891  -4.466  14.266  1.00  0.00    -0.200 F 
ATOM     96  C   UNL     1      -5.378  -4.712  12.478  1.00  0.00     0.200 A 
ATOM     97  F   UNL     1      -3.929  -5.023  10.644  1.00  0.00    -0.200 F 
ATOM     98  F   UNL     1      -4.400  -5.054  13.328  1.00  0.00    -0.200 F 
ENDBRANCH  64  88
BRANCH  76  99
ATOM     99  C   UNL     1     -13.439  -3.359   8.783  1.00  0.00     0.064 A 
ATOM    100  C   UNL     1     -12.648  -2.295   8.315  1.00  0.00     0.173 A 
ATOM    101  C   UNL     1     -14.744  -3.060   9.195  1.00  0.00     0.173 A 
ATOM    102  F   UNL     1     -11.425  -2.514   7.814  1.00  0.00    -0.203 F 
ATOM    103  C   UNL     1     -13.130  -0.987   8.309  1.00  0.00     0.198 A 
ATOM    104  C   UNL     1     -15.237  -1.760   9.150  1.00  0.00     0.198 A 
ATOM    105  F   UNL     1     -15.562  -4.043   9.603  1.00  0.00    -0.203 F 
ATOM    106  F   UNL     1     -12.350   0.016   7.878  1.00  0.00    -0.200 F 
ATOM    107  C   UNL     1     -14.426  -0.722   8.720  1.00  0.00     0.200 A 
ATOM    108  F   UNL     1     -16.507  -1.517   9.502  1.00  0.00    -0.200 F 
ATOM    109  F   UNL     1     -14.904   0.530   8.677  1.00  0.00    -0.200 F 
ENDBRANCH  76  99
ENDBRANCH  50  51
ENDBRANCH  43  45
ENDBRANCH  42  43
ENDBRANCH  41  42
ENDBRANCH  40  41
ENDBRANCH  39  40
ENDBRANCH  38  39
ENDBRANCH  37  38
ENDBRANCH  36  37
ENDBRANCH   1  36
TORSDOF 25
