REMARK SMILES CC1(C)[C@H](C(=O)OCCOCCOCCOCCOC(=O)c2ccc(-c3c4nc(c(-c5c(F)c(F)c(F)c(F)c5F)c5ccc([nH]5)c(-c5c(F)c(F)c(F)c(F)c5F)c5nc(c(-c6c(F)c(F)c(F)c(F)c6F)c6ccc3[nH]6)C=C5)C=C4)cc2)[C@@H]1C(=O)Nc1ccc(Cl)c(Br)c1
REMARK SMILES IDX 13 1 12 2 11 3 10 4 9 5 8 6 7 7 5 8 6 9 4 10 1 11 2 12 3 13
REMARK SMILES IDX 85 14 86 15 87 16 88 17 89 19 90 20 96 21 91 22 94 23 92 24
REMARK SMILES IDX 95 25 93 26 14 27 15 28 16 29 17 30 18 31 19 32 20 33 21 34
REMARK SMILES IDX 22 35 23 36 84 37 24 38 83 39 25 40 26 41 27 42 77 43 28 44
REMARK SMILES IDX 82 45 76 46 78 47 29 48 81 49 75 50 74 51 30 53 62 54 42 55
REMARK SMILES IDX 61 56 43 57 46 58 60 59 79 60 44 61 45 62 59 64 80 65 47 66
REMARK SMILES IDX 31 67 32 68 40 69 33 70 34 71 38 72 41 73 35 74 36 75 39 76
REMARK SMILES IDX 37 77 63 78 64 79 72 80 65 81 66 82 70 83 73 84 67 85 68 86
REMARK SMILES IDX 71 87 69 88 48 89 49 90 57 91 50 92 51 93 55 94 58 95 52 96
REMARK SMILES IDX 53 97 56 98 54 99
REMARK H PARENT 88 18 78 52 46 63
REMARK Flexibility Score: inf
ROOT
ATOM      1  O   UNL     1       0.537   2.265  -3.227  1.00  0.00    -0.377 OA
ENDROOT
BRANCH   1   2
ATOM      2  C   UNL     1       0.058   0.969  -3.548  1.00  0.00     0.188 C 
BRANCH   2   3
ATOM      3  C   UNL     1      -1.289   0.856  -4.282  1.00  0.00     0.188 C 
BRANCH   3   4
ATOM      4  O   UNL     1      -1.973   2.091  -4.466  1.00  0.00    -0.376 OA
BRANCH   4   5
ATOM      5  C   UNL     1      -2.976   2.427  -3.522  1.00  0.00     0.202 C 
BRANCH   5   6
ATOM      6  C   UNL     1      -2.467   2.912  -2.155  1.00  0.00     0.261 C 
BRANCH   6   7
ATOM      7  O   UNL     1      -1.754   1.990  -1.309  1.00  0.00    -0.463 OA
BRANCH   7   8
ATOM      8  C   UNL     1      -2.208   0.727  -1.208  1.00  0.00     0.310 C 
ATOM      9  O   UNL     1      -3.148   0.259  -1.831  1.00  0.00    -0.252 OA
BRANCH   8  10
ATOM     10  C   UNL     1      -1.452  -0.161  -0.306  1.00  0.00     0.118 C 
ATOM     11  C   UNL     1       0.812  -1.024   0.470  1.00  0.00     0.013 C 
ATOM     12  C   UNL     1      -0.183   0.117   0.462  1.00  0.00    -0.009 C 
ATOM     13  C   UNL     1       0.499   1.466   0.425  1.00  0.00     0.013 C 
ATOM     14  C   UNL     1      -1.532  -0.057   1.199  1.00  0.00     0.100 C 
BRANCH  14  15
ATOM     15  C   UNL     1      -2.088   1.090   1.971  1.00  0.00     0.228 C 
ATOM     16  O   UNL     1      -1.399   1.592   2.855  1.00  0.00    -0.274 OA
ATOM     17  N   UNL     1      -3.319   1.639   1.702  1.00  0.00    -0.326 N 
ATOM     18  H   UNL     1      -3.491   2.486   2.173  1.00  0.00     0.169 HD
BRANCH  17  19
ATOM     19  C   UNL     1      -4.376   1.218   0.883  1.00  0.00     0.042 A 
ATOM     20  C   UNL     1      -5.137   2.223   0.275  1.00  0.00     0.028 A 
ATOM     21  C   UNL     1      -4.651  -0.120   0.594  1.00  0.00     0.043 A 
ATOM     22  C   UNL     1      -6.046   1.904  -0.737  1.00  0.00     0.024 A 
ATOM     23  C   UNL     1      -5.582  -0.444  -0.407  1.00  0.00     0.038 A 
ATOM     24  C   UNL     1      -6.249   0.572  -1.103  1.00  0.00     0.055 A 
ATOM     25  Br  UNL     1      -5.793  -2.283  -0.839  1.00  0.00    -0.049 Br
ATOM     26  Cl  UNL     1      -7.292   0.267  -2.445  1.00  0.00    -0.083 Cl
ENDBRANCH  17  19
ENDBRANCH  14  15
ENDBRANCH   8  10
ENDBRANCH   7   8
ENDBRANCH   6   7
ENDBRANCH   5   6
ENDBRANCH   4   5
ENDBRANCH   3   4
ENDBRANCH   2   3
ENDBRANCH   1   2
BRANCH   1  27
ATOM     27  C   UNL     1       0.504   3.289  -4.215  1.00  0.00     0.188 C 
BRANCH  27  28
ATOM     28  C   UNL     1       0.540   2.936  -5.714  1.00  0.00     0.188 C 
BRANCH  28  29
ATOM     29  O   UNL     1       1.059   1.646  -6.007  1.00  0.00    -0.376 OA
BRANCH  29  30
ATOM     30  C   UNL     1       2.399   1.593  -6.472  1.00  0.00     0.202 C 
BRANCH  30  31
ATOM     31  C   UNL     1       3.457   1.875  -5.398  1.00  0.00     0.261 C 
BRANCH  31  32
ATOM     32  O   UNL     1       3.452   3.209  -4.861  1.00  0.00    -0.460 OA
BRANCH  32  33
ATOM     33  C   UNL     1       3.585   4.236  -5.727  1.00  0.00     0.338 C 
ATOM     34  O   UNL     1       3.786   4.177  -6.926  1.00  0.00    -0.246 OA
BRANCH  33  35
ATOM     35  C   UNL     1       3.254   5.481  -5.007  1.00  0.00     0.060 A 
ATOM     36  C   UNL     1       2.244   6.307  -5.519  1.00  0.00     0.016 A 
ATOM     37  C   UNL     1       3.937   5.832  -3.840  1.00  0.00     0.016 A 
ATOM     38  C   UNL     1       1.958   7.521  -4.897  1.00  0.00     0.010 A 
ATOM     39  C   UNL     1       3.667   7.059  -3.231  1.00  0.00     0.010 A 
ATOM     40  C   UNL     1       2.713   7.928  -3.788  1.00  0.00    -0.014 A 
BRANCH  40  41
ATOM     41  C   UNL     1       2.706   9.359  -3.405  1.00  0.00     0.031 A 
ATOM     42  C   UNL     1       3.729  10.255  -4.050  1.00  0.00     0.074 A 
ATOM     43  C   UNL     1       1.806   9.864  -2.545  1.00  0.00     0.049 A 
ATOM     44  N   UNL     1       3.929  11.539  -3.898  1.00  0.00    -0.248 NA
ATOM     45  C   UNL     1       4.653   9.611  -4.999  1.00  0.00     0.031 C 
ATOM     46  C   UNL     1       0.749   9.108  -1.881  1.00  0.00     0.029 A 
ATOM     47  N   UNL     1       1.647  11.148  -2.083  1.00  0.00    -0.354 N 
ATOM     48  C   UNL     1       4.993  11.852  -4.734  1.00  0.00     0.074 A 
ATOM     49  C   UNL     1       5.422  10.623  -5.363  1.00  0.00     0.031 C 
ATOM     50  C   UNL     1       0.051   9.941  -1.087  1.00  0.00     0.029 A 
ATOM     51  C   UNL     1       0.628  11.283  -1.174  1.00  0.00     0.049 A 
ATOM     52  H   UNL     1       2.210  11.899  -2.377  1.00  0.00     0.167 HD
ATOM     53  C   UNL     1       5.556  13.059  -4.970  1.00  0.00     0.037 A 
ATOM     54  C   UNL     1       0.223  12.369  -0.485  1.00  0.00     0.037 A 
ATOM     55  C   UNL     1       5.141  14.281  -4.337  1.00  0.00     0.049 A 
ATOM     56  C   UNL     1       0.916  13.690  -0.708  1.00  0.00     0.074 A 
ATOM     57  C   UNL     1       5.642  15.558  -4.513  1.00  0.00     0.029 A 
ATOM     58  N   UNL     1       4.128  14.371  -3.395  1.00  0.00    -0.354 N 
ATOM     59  N   UNL     1       1.895  13.987  -1.530  1.00  0.00    -0.248 NA
ATOM     60  C   UNL     1       0.442  14.831   0.091  1.00  0.00     0.031 C 
ATOM     61  C   UNL     1       4.963  16.415  -3.641  1.00  0.00     0.029 A 
ATOM     62  C   UNL     1       4.005  15.680  -2.960  1.00  0.00     0.049 A 
ATOM     63  H   UNL     1       3.579  13.617  -3.081  1.00  0.00     0.167 HD
ATOM     64  C   UNL     1       2.132  15.347  -1.368  1.00  0.00     0.074 A 
ATOM     65  C   UNL     1       1.186  15.821  -0.380  1.00  0.00     0.031 C 
ATOM     66  C   UNL     1       3.051  16.134  -1.982  1.00  0.00     0.037 A 
BRANCH  53  67
ATOM     67  C   UNL     1       6.702  13.105  -5.936  1.00  0.00     0.064 A 
ATOM     68  C   UNL     1       6.507  12.933  -7.315  1.00  0.00     0.173 A 
ATOM     69  C   UNL     1       8.008  13.331  -5.479  1.00  0.00     0.173 A 
ATOM     70  F   UNL     1       5.279  12.692  -7.799  1.00  0.00    -0.203 F 
ATOM     71  C   UNL     1       7.582  12.963  -8.198  1.00  0.00     0.198 A 
ATOM     72  C   UNL     1       9.077  13.388  -6.367  1.00  0.00     0.198 A 
ATOM     73  F   UNL     1       8.246  13.498  -4.169  1.00  0.00    -0.203 F 
ATOM     74  F   UNL     1       7.380  12.748  -9.505  1.00  0.00    -0.200 F 
ATOM     75  C   UNL     1       8.865  13.197  -7.725  1.00  0.00     0.200 A 
ATOM     76  F   UNL     1      10.315  13.621  -5.910  1.00  0.00    -0.200 F 
ATOM     77  F   UNL     1       9.899  13.228  -8.576  1.00  0.00    -0.200 F 
ENDBRANCH  53  67
BRANCH  54  78
ATOM     78  C   UNL     1      -0.895  12.261   0.490  1.00  0.00     0.064 A 
ATOM     79  C   UNL     1      -2.124  12.893   0.256  1.00  0.00     0.173 A 
ATOM     80  C   UNL     1      -0.744  11.554   1.692  1.00  0.00     0.173 A 
ATOM     81  F   UNL     1      -2.308  13.605  -0.866  1.00  0.00    -0.203 F 
ATOM     82  C   UNL     1      -3.152  12.840   1.196  1.00  0.00     0.198 A 
ATOM     83  C   UNL     1      -1.781  11.480   2.619  1.00  0.00     0.198 A 
ATOM     84  F   UNL     1       0.414  10.937   1.967  1.00  0.00    -0.203 F 
ATOM     85  F   UNL     1      -4.298  13.496   0.970  1.00  0.00    -0.200 F 
ATOM     86  C   UNL     1      -2.981  12.130   2.374  1.00  0.00     0.200 A 
ATOM     87  F   UNL     1      -1.616  10.785   3.753  1.00  0.00    -0.200 F 
ATOM     88  F   UNL     1      -3.969  12.080   3.278  1.00  0.00    -0.200 F 
ENDBRANCH  54  78
BRANCH  66  89
ATOM     89  C   UNL     1       3.057  17.594  -1.632  1.00  0.00     0.064 A 
ATOM     90  C   UNL     1       3.522  18.052  -0.391  1.00  0.00     0.173 A 
ATOM     91  C   UNL     1       2.636  18.550  -2.570  1.00  0.00     0.173 A 
ATOM     92  F   UNL     1       3.924  17.178   0.544  1.00  0.00    -0.203 F 
ATOM     93  C   UNL     1       3.543  19.412  -0.093  1.00  0.00     0.198 A 
ATOM     94  C   UNL     1       2.686  19.910  -2.279  1.00  0.00     0.198 A 
ATOM     95  F   UNL     1       2.191  18.165  -3.775  1.00  0.00    -0.203 F 
ATOM     96  F   UNL     1       3.949  19.825   1.116  1.00  0.00    -0.200 F 
ATOM     97  C   UNL     1       3.132  20.340  -1.039  1.00  0.00     0.200 A 
ATOM     98  F   UNL     1       2.304  20.805  -3.200  1.00  0.00    -0.200 F 
ATOM     99  F   UNL     1       3.161  21.649  -0.752  1.00  0.00    -0.200 F 
ENDBRANCH  66  89
ENDBRANCH  40  41
ENDBRANCH  33  35
ENDBRANCH  32  33
ENDBRANCH  31  32
ENDBRANCH  30  31
ENDBRANCH  29  30
ENDBRANCH  28  29
ENDBRANCH  27  28
ENDBRANCH   1  27
TORSDOF 22
