REMARK SMILES C[C@H](NC(=O)[C@]1(C)Sc2ccccc2NC1=O)C(=O)OCCOCCOCCOCCOC(=O)c1ccc(-c2c3nc(c(-c4c(F)c(F)c(F)c(F)c4F)c4ccc([nH]4)c(-c4c(F)c(F)c(F)c(F)c4F)c4nc(c(-c5c(F)c(F)c(F)c(F)c5F)c5ccc2[nH]5)C=C4)C=C3)cc1
REMARK SMILES IDX 26 1 25 2 24 3 23 4 22 5 21 6 20 7 18 8 19 9 2 10 1 11 3 12
REMARK SMILES IDX 4 13 5 15 6 16 8 17 16 18 7 19 9 20 15 21 17 22 10 23 14 24
REMARK SMILES IDX 11 26 13 27 12 28 27 29 28 30 29 31 30 32 31 33 32 34 33 35
REMARK SMILES IDX 34 36 35 37 36 38 97 39 37 40 96 41 38 42 39 43 40 44 90 45
REMARK SMILES IDX 41 46 95 47 89 48 91 49 42 50 94 51 88 52 87 53 43 55 75 56
REMARK SMILES IDX 55 57 74 58 56 59 59 60 73 61 92 62 57 63 58 64 72 66 93 67
REMARK SMILES IDX 60 68 44 69 45 70 53 71 46 72 47 73 51 74 54 75 48 76 49 77
REMARK SMILES IDX 52 78 50 79 76 80 77 81 85 82 78 83 79 84 83 85 86 86 80 87
REMARK SMILES IDX 81 88 84 89 82 90 61 91 62 92 70 93 63 94 64 95 68 96 71 97
REMARK SMILES IDX 65 98 66 99 69 100 67 101
REMARK H PARENT 3 14 15 25 91 54 59 65
REMARK Flexibility Score: inf
ROOT
ATOM      1  O   UNL     1       5.216  -1.956   3.770  1.00  0.00    -0.377 OA
ENDROOT
BRANCH   1   2
ATOM      2  C   UNL     1       4.036  -1.505   3.134  1.00  0.00     0.188 C 
BRANCH   2   3
ATOM      3  C   UNL     1       3.528  -2.416   2.001  1.00  0.00     0.188 C 
BRANCH   3   4
ATOM      4  O   UNL     1       4.127  -3.682   1.747  1.00  0.00    -0.376 OA
BRANCH   4   5
ATOM      5  C   UNL     1       5.533  -3.837   1.856  1.00  0.00     0.202 C 
BRANCH   5   6
ATOM      6  C   UNL     1       6.477  -2.872   1.119  1.00  0.00     0.261 C 
BRANCH   6   7
ATOM      7  O   UNL     1       6.048  -1.499   1.063  1.00  0.00    -0.462 OA
BRANCH   7   8
ATOM      8  C   UNL     1       5.801  -1.004  -0.177  1.00  0.00     0.328 C 
ATOM      9  O   UNL     1       5.986  -1.622  -1.221  1.00  0.00    -0.250 OA
BRANCH   8  10
ATOM     10  C   UNL     1       5.311   0.458  -0.170  1.00  0.00     0.189 C 
ATOM     11  C   UNL     1       6.419   1.302  -0.794  1.00  0.00     0.043 C 
BRANCH  10  12
ATOM     12  N   UNL     1       4.956   1.069   1.119  1.00  0.00    -0.341 N 
ATOM     13  C   UNL     1       3.865   1.780   1.546  1.00  0.00     0.246 C 
ATOM     14  H   UNL     1       5.640   0.943   1.815  1.00  0.00     0.164 HD
ATOM     15  O   UNL     1       3.976   2.270   2.677  1.00  0.00    -0.273 OA
BRANCH  13  16
ATOM     16  C   UNL     1       2.536   1.898   0.759  1.00  0.00     0.175 C 
ATOM     17  S   UNL     1       2.804   2.540  -0.937  1.00  0.00    -0.097 SA
ATOM     18  C   UNL     1       1.550   2.832   1.501  1.00  0.00     0.250 C 
ATOM     19  C   UNL     1       1.878   0.516   0.655  1.00  0.00     0.045 C 
ATOM     20  C   UNL     1       3.216   4.214  -0.519  1.00  0.00     0.032 A 
ATOM     21  N   UNL     1       1.720   4.191   1.417  1.00  0.00    -0.323 N 
ATOM     22  O   UNL     1       0.648   2.405   2.230  1.00  0.00    -0.273 OA
ATOM     23  C   UNL     1       4.100   4.916  -1.342  1.00  0.00     0.017 A 
ATOM     24  C   UNL     1       2.602   4.862   0.560  1.00  0.00     0.054 A 
ATOM     25  H   UNL     1       1.171   4.747   2.016  1.00  0.00     0.170 HD
ATOM     26  C   UNL     1       4.365   6.263  -1.096  1.00  0.00     0.001 A 
ATOM     27  C   UNL     1       2.838   6.221   0.778  1.00  0.00     0.027 A 
ATOM     28  C   UNL     1       3.725   6.917  -0.044  1.00  0.00     0.002 A 
ENDBRANCH  13  16
ENDBRANCH  10  12
ENDBRANCH   8  10
ENDBRANCH   7   8
ENDBRANCH   6   7
ENDBRANCH   5   6
ENDBRANCH   4   5
ENDBRANCH   3   4
ENDBRANCH   2   3
ENDBRANCH   1   2
BRANCH   1  29
ATOM     29  C   UNL     1       5.021  -2.462   5.082  1.00  0.00     0.188 C 
BRANCH  29  30
ATOM     30  C   UNL     1       3.919  -3.524   5.238  1.00  0.00     0.188 C 
BRANCH  30  31
ATOM     31  O   UNL     1       2.614  -3.015   4.962  1.00  0.00    -0.376 OA
BRANCH  31  32
ATOM     32  C   UNL     1       1.800  -2.688   6.085  1.00  0.00     0.202 C 
BRANCH  32  33
ATOM     33  C   UNL     1       2.126  -1.350   6.767  1.00  0.00     0.261 C 
BRANCH  33  34
ATOM     34  O   UNL     1       3.420  -1.248   7.387  1.00  0.00    -0.460 OA
BRANCH  34  35
ATOM     35  C   UNL     1       3.794  -2.181   8.289  1.00  0.00     0.338 C 
ATOM     36  O   UNL     1       3.123  -3.094   8.733  1.00  0.00    -0.246 OA
BRANCH  35  37
ATOM     37  C   UNL     1       5.257  -2.040   8.475  1.00  0.00     0.060 A 
ATOM     38  C   UNL     1       5.827  -0.792   8.743  1.00  0.00     0.016 A 
ATOM     39  C   UNL     1       6.072  -3.168   8.309  1.00  0.00     0.016 A 
ATOM     40  C   UNL     1       7.214  -0.678   8.865  1.00  0.00     0.010 A 
ATOM     41  C   UNL     1       7.461  -3.048   8.414  1.00  0.00     0.010 A 
ATOM     42  C   UNL     1       8.039  -1.806   8.713  1.00  0.00    -0.014 A 
BRANCH  42  43
ATOM     43  C   UNL     1       9.477  -1.716   9.058  1.00  0.00     0.031 A 
ATOM     44  C   UNL     1      10.544  -1.550   8.023  1.00  0.00     0.074 A 
ATOM     45  C   UNL     1       9.808  -1.788  10.360  1.00  0.00     0.049 A 
ATOM     46  N   UNL     1      11.831  -1.371   8.192  1.00  0.00    -0.248 NA
ATOM     47  C   UNL     1      10.118  -1.596   6.619  1.00  0.00     0.031 C 
ATOM     48  C   UNL     1       8.852  -1.967  11.453  1.00  0.00     0.029 A 
ATOM     49  N   UNL     1      11.025  -1.709  10.985  1.00  0.00    -0.354 N 
ATOM     50  C   UNL     1      12.370  -1.250   6.920  1.00  0.00     0.074 A 
ATOM     51  C   UNL     1      11.274  -1.433   5.986  1.00  0.00     0.031 C 
ATOM     52  C   UNL     1       9.514  -1.954  12.618  1.00  0.00     0.029 A 
ATOM     53  C   UNL     1      10.940  -1.787  12.351  1.00  0.00     0.049 A 
ATOM     54  H   UNL     1      11.876  -1.607  10.500  1.00  0.00     0.167 HD
ATOM     55  C   UNL     1      13.655  -0.991   6.570  1.00  0.00     0.037 A 
ATOM     56  C   UNL     1      11.901  -1.719  13.290  1.00  0.00     0.037 A 
ATOM     57  C   UNL     1      14.746  -0.850   7.505  1.00  0.00     0.049 A 
ATOM     58  C   UNL     1      13.325  -1.500  12.874  1.00  0.00     0.074 A 
ATOM     59  C   UNL     1      16.077  -0.569   7.246  1.00  0.00     0.029 A 
ATOM     60  N   UNL     1      14.637  -1.000   8.882  1.00  0.00    -0.354 N 
ATOM     61  N   UNL     1      13.817  -1.325  11.672  1.00  0.00    -0.248 NA
ATOM     62  C   UNL     1      14.326  -1.461  13.947  1.00  0.00     0.031 C 
ATOM     63  C   UNL     1      16.781  -0.602   8.456  1.00  0.00     0.029 A 
ATOM     64  C   UNL     1      15.881  -0.848   9.480  1.00  0.00     0.049 A 
ATOM     65  H   UNL     1      13.799  -1.186   9.364  1.00  0.00     0.167 HD
ATOM     66  C   UNL     1      15.181  -1.141  11.841  1.00  0.00     0.074 A 
ATOM     67  C   UNL     1      15.436  -1.205  13.267  1.00  0.00     0.031 C 
ATOM     68  C   UNL     1      16.134  -0.938  10.898  1.00  0.00     0.037 A 
BRANCH  55  69
ATOM     69  C   UNL     1      13.955  -0.840   5.105  1.00  0.00     0.064 A 
ATOM     70  C   UNL     1      13.498   0.272   4.378  1.00  0.00     0.173 A 
ATOM     71  C   UNL     1      14.744  -1.782   4.429  1.00  0.00     0.173 A 
ATOM     72  F   UNL     1      12.738   1.202   4.974  1.00  0.00    -0.203 F 
ATOM     73  C   UNL     1      13.796   0.417   3.025  1.00  0.00     0.198 A 
ATOM     74  C   UNL     1      15.064  -1.619   3.083  1.00  0.00     0.198 A 
ATOM     75  F   UNL     1      15.217  -2.858   5.076  1.00  0.00    -0.203 F 
ATOM     76  F   UNL     1      13.310   1.464   2.343  1.00  0.00    -0.200 F 
ATOM     77  C   UNL     1      14.582  -0.524   2.380  1.00  0.00     0.200 A 
ATOM     78  F   UNL     1      15.837  -2.522   2.464  1.00  0.00    -0.200 F 
ATOM     79  F   UNL     1      14.872  -0.380   1.079  1.00  0.00    -0.200 F 
ENDBRANCH  55  69
BRANCH  56  80
ATOM     80  C   UNL     1      11.513  -1.797  14.719  1.00  0.00     0.064 A 
ATOM     81  C   UNL     1      11.523  -0.650  15.523  1.00  0.00     0.173 A 
ATOM     82  C   UNL     1      11.052  -2.994  15.286  1.00  0.00     0.173 A 
ATOM     83  F   UNL     1      11.970   0.512  15.024  1.00  0.00    -0.203 F 
ATOM     84  C   UNL     1      11.081  -0.696  16.842  1.00  0.00     0.198 A 
ATOM     85  C   UNL     1      10.588  -3.033  16.598  1.00  0.00     0.198 A 
ATOM     86  F   UNL     1      11.016  -4.115  14.550  1.00  0.00    -0.203 F 
ATOM     87  F   UNL     1      11.112   0.412  17.595  1.00  0.00    -0.200 F 
ATOM     88  C   UNL     1      10.602  -1.884  17.375  1.00  0.00     0.200 A 
ATOM     89  F   UNL     1      10.109  -4.178  17.103  1.00  0.00    -0.200 F 
ATOM     90  F   UNL     1      10.153  -1.921  18.636  1.00  0.00    -0.200 F 
ENDBRANCH  56  80
BRANCH  68  91
ATOM     91  C   UNL     1      17.549  -0.773  11.379  1.00  0.00     0.064 A 
ATOM     92  C   UNL     1      18.274  -1.853  11.906  1.00  0.00     0.173 A 
ATOM     93  C   UNL     1      18.195   0.469  11.291  1.00  0.00     0.173 A 
ATOM     94  F   UNL     1      17.698  -3.058  12.028  1.00  0.00    -0.203 F 
ATOM     95  C   UNL     1      19.584  -1.688  12.352  1.00  0.00     0.198 A 
ATOM     96  C   UNL     1      19.514   0.623  11.710  1.00  0.00     0.198 A 
ATOM     97  F   UNL     1      17.550   1.534  10.792  1.00  0.00    -0.203 F 
ATOM     98  F   UNL     1      20.238  -2.721  12.900  1.00  0.00    -0.200 F 
ATOM     99  C   UNL     1      20.204  -0.453  12.248  1.00  0.00     0.200 A 
ATOM    100  F   UNL     1      20.117   1.815  11.597  1.00  0.00    -0.200 F 
ATOM    101  F   UNL     1      21.466  -0.296  12.674  1.00  0.00    -0.200 F 
ENDBRANCH  68  91
ENDBRANCH  42  43
ENDBRANCH  35  37
ENDBRANCH  34  35
ENDBRANCH  33  34
ENDBRANCH  32  33
ENDBRANCH  31  32
ENDBRANCH  30  31
ENDBRANCH  29  30
ENDBRANCH   1  29
TORSDOF 22
