REMARK SMILES C[C@@H]1CCC[C@](CCSc2ccccc2)(C(=O)OCCOCCOCCOCCOC(=O)c2ccc(-c3c4nc(c(-c5c(F)c(F)c(F)c(F)c5F)c5ccc([nH]5)c(-c5c(F)c(F)c(F)c(F)c5F)c5nc(c(-c6c(F)c(F)c(F)c(F)c6F)c6ccc3[nH]6)C=C5)C=C4)cc2)C1
REMARK SMILES IDX 23 1 22 2 21 3 20 4 19 5 18 6 16 7 17 8 6 9 1 10 2 11 3 12
REMARK SMILES IDX 96 13 4 14 5 15 7 16 8 17 9 18 10 19 11 20 15 21 12 22 14 23
REMARK SMILES IDX 13 24 24 25 25 26 26 27 27 28 28 29 29 30 30 31 31 32 32 33
REMARK SMILES IDX 33 34 34 35 95 36 35 37 94 38 36 39 37 40 38 41 88 42 39 43
REMARK SMILES IDX 93 44 87 45 89 46 40 47 92 48 86 49 85 50 41 52 73 53 53 54
REMARK SMILES IDX 72 55 54 56 57 57 71 58 90 59 55 60 56 61 70 63 91 64 58 65
REMARK SMILES IDX 42 66 43 67 51 68 44 69 45 70 49 71 52 72 46 73 47 74 50 75
REMARK SMILES IDX 48 76 74 77 75 78 83 79 76 80 77 81 81 82 84 83 78 84 79 85
REMARK SMILES IDX 82 86 80 87 59 88 60 89 68 90 61 91 62 92 66 93 69 94 63 95
REMARK SMILES IDX 64 96 67 97 65 98
REMARK H PARENT 89 51 57 62
REMARK Flexibility Score: inf
ROOT
ATOM      1  C   UNL     1      -3.953  -0.783   2.054  1.00  0.00     0.188 C 
ENDROOT
BRANCH   1   2
ATOM      2  C   UNL     1      -3.498  -1.666   3.225  1.00  0.00     0.188 C 
BRANCH   2   3
ATOM      3  O   UNL     1      -3.025  -0.995   4.384  1.00  0.00    -0.376 OA
BRANCH   3   4
ATOM      4  C   UNL     1      -1.623  -0.835   4.532  1.00  0.00     0.202 C 
BRANCH   4   5
ATOM      5  C   UNL     1      -0.964   0.276   3.694  1.00  0.00     0.261 C 
BRANCH   5   6
ATOM      6  O   UNL     1      -1.248   0.191   2.281  1.00  0.00    -0.463 OA
BRANCH   6   7
ATOM      7  C   UNL     1      -0.564  -0.801   1.686  1.00  0.00     0.312 C 
ATOM      8  O   UNL     1       0.189  -1.504   2.339  1.00  0.00    -0.252 OA
BRANCH   7   9
ATOM      9  C   UNL     1      -0.676  -0.980   0.187  1.00  0.00     0.069 C 
ATOM     10  C   UNL     1       1.889   0.805   1.207  1.00  0.00     0.007 C 
ATOM     11  C   UNL     1       1.466   0.446  -0.225  1.00  0.00    -0.013 C 
ATOM     12  C   UNL     1       0.619   1.567  -0.842  1.00  0.00     0.003 C 
ATOM     13  C   UNL     1       0.772  -0.932  -0.362  1.00  0.00     0.022 C 
ATOM     14  C   UNL     1      -0.849   1.533  -0.431  1.00  0.00     0.001 C 
ATOM     15  C   UNL     1      -1.459   0.136  -0.563  1.00  0.00     0.019 C 
BRANCH   9  16
ATOM     16  C   UNL     1      -1.363  -2.376  -0.089  1.00  0.00     0.030 C 
BRANCH  16  17
ATOM     17  C   UNL     1      -0.679  -3.734   0.243  1.00  0.00     0.076 C 
BRANCH  17  18
ATOM     18  S   UNL     1      -0.764  -4.510   1.930  1.00  0.00    -0.126 SA
BRANCH  18  19
ATOM     19  C   UNL     1       0.774  -4.020   2.732  1.00  0.00     0.007 A 
ATOM     20  C   UNL     1       0.725  -3.646   4.087  1.00  0.00     0.015 A 
ATOM     21  C   UNL     1       1.944  -3.769   2.010  1.00  0.00     0.015 A 
ATOM     22  C   UNL     1       1.731  -2.839   4.634  1.00  0.00     0.001 A 
ATOM     23  C   UNL     1       2.950  -2.966   2.558  1.00  0.00     0.001 A 
ATOM     24  C   UNL     1       2.821  -2.462   3.852  1.00  0.00     0.000 A 
ENDBRANCH  18  19
ENDBRANCH  17  18
ENDBRANCH  16  17
ENDBRANCH   9  16
ENDBRANCH   7   9
ENDBRANCH   6   7
ENDBRANCH   5   6
ENDBRANCH   4   5
ENDBRANCH   3   4
ENDBRANCH   2   3
ENDBRANCH   1   2
BRANCH   1  25
ATOM     25  O   UNL     1      -4.301   0.582   2.180  1.00  0.00    -0.377 OA
BRANCH  25  26
ATOM     26  C   UNL     1      -4.248   1.185   3.452  1.00  0.00     0.188 C 
BRANCH  26  27
ATOM     27  C   UNL     1      -5.297   0.709   4.461  1.00  0.00     0.188 C 
BRANCH  27  28
ATOM     28  O   UNL     1      -6.341  -0.124   4.010  1.00  0.00    -0.376 OA
BRANCH  28  29
ATOM     29  C   UNL     1      -7.078   0.187   2.844  1.00  0.00     0.202 C 
BRANCH  29  30
ATOM     30  C   UNL     1      -7.264   1.595   2.231  1.00  0.00     0.261 C 
BRANCH  30  31
ATOM     31  O   UNL     1      -6.446   2.688   2.662  1.00  0.00    -0.460 OA
BRANCH  31  32
ATOM     32  C   UNL     1      -6.836   3.363   3.766  1.00  0.00     0.338 C 
ATOM     33  O   UNL     1      -7.827   3.157   4.441  1.00  0.00    -0.246 OA
BRANCH  32  34
ATOM     34  C   UNL     1      -5.746   4.298   4.150  1.00  0.00     0.060 A 
ATOM     35  C   UNL     1      -5.112   4.136   5.392  1.00  0.00     0.016 A 
ATOM     36  C   UNL     1      -5.359   5.335   3.299  1.00  0.00     0.016 A 
ATOM     37  C   UNL     1      -4.128   5.034   5.808  1.00  0.00     0.010 A 
ATOM     38  C   UNL     1      -4.402   6.261   3.735  1.00  0.00     0.010 A 
ATOM     39  C   UNL     1      -3.819   6.140   5.010  1.00  0.00    -0.014 A 
BRANCH  39  40
ATOM     40  C   UNL     1      -3.121   7.299   5.622  1.00  0.00     0.031 A 
ATOM     41  C   UNL     1      -3.974   8.423   6.152  1.00  0.00     0.074 A 
ATOM     42  C   UNL     1      -1.784   7.349   5.749  1.00  0.00     0.049 A 
ATOM     43  N   UNL     1      -3.619   9.580   6.649  1.00  0.00    -0.248 NA
ATOM     44  C   UNL     1      -5.431   8.207   6.115  1.00  0.00     0.031 C 
ATOM     45  C   UNL     1      -0.853   6.298   5.347  1.00  0.00     0.029 A 
ATOM     46  N   UNL     1      -0.976   8.342   6.248  1.00  0.00    -0.354 N 
ATOM     47  C   UNL     1      -4.805  10.229   6.970  1.00  0.00     0.074 A 
ATOM     48  C   UNL     1      -5.890   9.354   6.588  1.00  0.00     0.031 C 
ATOM     49  C   UNL     1       0.403   6.712   5.594  1.00  0.00     0.029 A 
ATOM     50  C   UNL     1       0.366   8.071   6.133  1.00  0.00     0.049 A 
ATOM     51  H   UNL     1      -1.326   9.170   6.650  1.00  0.00     0.167 HD
ATOM     52  C   UNL     1      -4.975  11.444   7.541  1.00  0.00     0.037 A 
ATOM     53  C   UNL     1       1.434   8.849   6.402  1.00  0.00     0.037 A 
ATOM     54  C   UNL     1      -3.895  12.314   7.922  1.00  0.00     0.049 A 
ATOM     55  C   UNL     1       1.215  10.242   6.946  1.00  0.00     0.074 A 
ATOM     56  C   UNL     1      -3.960  13.568   8.501  1.00  0.00     0.029 A 
ATOM     57  N   UNL     1      -2.550  12.017   7.756  1.00  0.00    -0.354 N 
ATOM     58  N   UNL     1       0.093  10.851   7.249  1.00  0.00    -0.248 NA
ATOM     59  C   UNL     1       2.416  11.058   7.185  1.00  0.00     0.031 C 
ATOM     60  C   UNL     1      -2.657  14.055   8.635  1.00  0.00     0.029 A 
ATOM     61  C   UNL     1      -1.777  13.076   8.202  1.00  0.00     0.049 A 
ATOM     62  H   UNL     1      -2.198  11.180   7.378  1.00  0.00     0.167 HD
ATOM     63  C   UNL     1       0.455  12.097   7.750  1.00  0.00     0.074 A 
ATOM     64  C   UNL     1       1.900  12.153   7.723  1.00  0.00     0.031 C 
ATOM     65  C   UNL     1      -0.337  13.105   8.191  1.00  0.00     0.037 A 
BRANCH  52  66
ATOM     66  C   UNL     1      -6.380  11.920   7.766  1.00  0.00     0.064 A 
ATOM     67  C   UNL     1      -7.205  11.350   8.748  1.00  0.00     0.173 A 
ATOM     68  C   UNL     1      -6.891  12.996   7.024  1.00  0.00     0.173 A 
ATOM     69  F   UNL     1      -6.771  10.307   9.472  1.00  0.00    -0.203 F 
ATOM     70  C   UNL     1      -8.494  11.829   8.967  1.00  0.00     0.198 A 
ATOM     71  C   UNL     1      -8.168  13.493   7.267  1.00  0.00     0.198 A 
ATOM     72  F   UNL     1      -6.144  13.577   6.074  1.00  0.00    -0.203 F 
ATOM     73  F   UNL     1      -9.278  11.244   9.882  1.00  0.00    -0.200 F 
ATOM     74  C   UNL     1      -8.970  12.907   8.234  1.00  0.00     0.200 A 
ATOM     75  F   UNL     1      -8.620  14.543   6.568  1.00  0.00    -0.200 F 
ATOM     76  F   UNL     1     -10.204  13.378   8.459  1.00  0.00    -0.200 F 
ENDBRANCH  52  66
BRANCH  53  77
ATOM     77  C   UNL     1       2.815   8.360   6.132  1.00  0.00     0.064 A 
ATOM     78  C   UNL     1       3.740   8.182   7.171  1.00  0.00     0.173 A 
ATOM     79  C   UNL     1       3.259   8.124   4.822  1.00  0.00     0.173 A 
ATOM     80  F   UNL     1       3.376   8.422   8.440  1.00  0.00    -0.203 F 
ATOM     81  C   UNL     1       5.062   7.825   6.908  1.00  0.00     0.198 A 
ATOM     82  C   UNL     1       4.571   7.731   4.563  1.00  0.00     0.198 A 
ATOM     83  F   UNL     1       2.420   8.283   3.788  1.00  0.00    -0.203 F 
ATOM     84  F   UNL     1       5.942   7.734   7.915  1.00  0.00    -0.200 F 
ATOM     85  C   UNL     1       5.476   7.596   5.605  1.00  0.00     0.200 A 
ATOM     86  F   UNL     1       4.962   7.498   3.303  1.00  0.00    -0.200 F 
ATOM     87  F   UNL     1       6.748   7.260   5.352  1.00  0.00    -0.200 F 
ENDBRANCH  53  77
BRANCH  65  88
ATOM     88  C   UNL     1       0.337  14.332   8.740  1.00  0.00     0.064 A 
ATOM     89  C   UNL     1       1.031  15.229   7.916  1.00  0.00     0.173 A 
ATOM     90  C   UNL     1       0.244  14.636  10.108  1.00  0.00     0.173 A 
ATOM     91  F   UNL     1       1.159  14.981   6.604  1.00  0.00    -0.203 F 
ATOM     92  C   UNL     1       1.634  16.367   8.446  1.00  0.00     0.198 A 
ATOM     93  C   UNL     1       0.817  15.793  10.628  1.00  0.00     0.198 A 
ATOM     94  F   UNL     1      -0.418  13.817  10.940  1.00  0.00    -0.203 F 
ATOM     95  F   UNL     1       2.339  17.182   7.648  1.00  0.00    -0.200 F 
ATOM     96  C   UNL     1       1.520  16.653   9.798  1.00  0.00     0.200 A 
ATOM     97  F   UNL     1       0.688  16.076  11.931  1.00  0.00    -0.200 F 
ATOM     98  F   UNL     1       2.093  17.753  10.304  1.00  0.00    -0.200 F 
ENDBRANCH  65  88
ENDBRANCH  39  40
ENDBRANCH  32  34
ENDBRANCH  31  32
ENDBRANCH  30  31
ENDBRANCH  29  30
ENDBRANCH  28  29
ENDBRANCH  27  28
ENDBRANCH  26  27
ENDBRANCH  25  26
ENDBRANCH   1  25
TORSDOF 24
