REMARK SMILES COc1ccc(C)cc1Nc1nc(OCC(=O)OCCOCCOCCOCCOC(=O)c2ccc(-c3c4nc(c(-c5c(F)c(F)c(F)c(F)c5F)c5ccc([nH]5)c(-c5c(F)c(F)c(F)c(F)c5F)c5nc(c(-c6c(F)c(F)c(F)c(F)c6F)c6ccc3[nH]6)C=C5)C=C4)cc2)cc(C(C)(C)C)n1
REMARK SMILES IDX 22 1 21 2 20 3 19 4 18 5 16 6 17 7 15 8 14 9 13 10 11 11
REMARK SMILES IDX 12 12 102 13 97 14 96 15 10 16 9 18 3 19 4 20 5 21 8 22 6 23
REMARK SMILES IDX 7 24 2 25 1 26 98 27 99 28 100 29 101 30 23 31 24 32 25 33
REMARK SMILES IDX 26 34 27 35 28 36 29 37 30 38 31 39 32 40 33 41 34 42 95 43
REMARK SMILES IDX 35 44 94 45 36 46 37 47 38 48 88 49 39 50 93 51 87 52 89 53
REMARK SMILES IDX 40 54 92 55 86 56 85 57 41 59 73 60 53 61 72 62 54 63 57 64
REMARK SMILES IDX 71 65 90 66 55 67 56 68 70 70 91 71 58 72 42 73 43 74 51 75
REMARK SMILES IDX 44 76 45 77 49 78 52 79 46 80 47 81 50 82 48 83 74 84 75 85
REMARK SMILES IDX 83 86 76 87 77 88 81 89 84 90 78 91 79 92 82 93 80 94 59 95
REMARK SMILES IDX 60 96 68 97 61 98 62 99 66 100 69 101 63 102 64 103 67 104
REMARK SMILES IDX 65 105
REMARK H PARENT 10 17 89 58 57 69
REMARK Flexibility Score: inf
ROOT
ATOM      1  C   UNL     1      -3.608  -7.731  -3.893  1.00  0.00     0.188 C 
ENDROOT
BRANCH   1   2
ATOM      2  O   UNL     1      -4.731  -8.396  -5.108  1.00  0.00    -0.376 OA
BRANCH   2   3
ATOM      3  C   UNL     1      -5.860  -7.695  -6.296  1.00  0.00     0.202 C 
BRANCH   3   4
ATOM      4  C   UNL     1      -7.050  -6.214  -6.109  1.00  0.00     0.261 C 
BRANCH   4   5
ATOM      5  O   UNL     1      -7.497  -5.322  -4.603  1.00  0.00    -0.461 OA
BRANCH   5   6
ATOM      6  C   UNL     1      -7.825  -5.452  -3.193  1.00  0.00     0.344 C 
ATOM      7  O   UNL     1      -8.271  -6.442  -2.591  1.00  0.00    -0.248 OA
BRANCH   6   8
ATOM      8  C   UNL     1      -7.554  -4.264  -2.122  1.00  0.00     0.353 C 
BRANCH   8   9
ATOM      9  O   UNL     1      -6.430  -3.715  -1.394  1.00  0.00    -0.466 OA
BRANCH   9  10
ATOM     10  C   UNL     1      -5.373  -4.358  -0.782  1.00  0.00     0.218 A 
ATOM     11  C   UNL     1      -3.076  -4.119  -0.218  1.00  0.00     0.230 A 
ATOM     12  N   UNL     1      -4.253  -3.581  -0.653  1.00  0.00    -0.177 NA
ATOM     13  N   UNL     1      -2.998  -5.411   0.149  1.00  0.00    -0.217 NA
ATOM     14  C   UNL     1      -4.145  -6.172   0.108  1.00  0.00     0.055 A 
ATOM     15  C   UNL     1      -5.373  -5.657  -0.348  1.00  0.00     0.093 A 
BRANCH  11  16
ATOM     16  N   UNL     1      -1.987  -3.213  -0.133  1.00  0.00    -0.321 N 
ATOM     17  H   UNL     1      -2.337  -2.315   0.066  1.00  0.00     0.170 HD
BRANCH  16  18
ATOM     18  C   UNL     1      -0.562  -3.139  -0.232  1.00  0.00     0.084 A 
ATOM     19  C   UNL     1       0.049  -1.849  -0.163  1.00  0.00     0.142 A 
ATOM     20  C   UNL     1       1.406  -1.653  -0.482  1.00  0.00     0.049 A 
ATOM     21  C   UNL     1       2.191  -2.711  -0.893  1.00  0.00     0.007 A 
ATOM     22  C   UNL     1       0.307  -4.213  -0.494  1.00  0.00     0.033 A 
ATOM     23  C   UNL     1       1.660  -3.997  -0.901  1.00  0.00    -0.049 A 
ATOM     24  C   UNL     1       2.541  -5.046  -1.523  1.00  0.00     0.044 C 
BRANCH  19  25
ATOM     25  O   UNL     1      -0.775  -0.801   0.198  1.00  0.00    -0.495 OA
ATOM     26  C   UNL     1      -0.138   0.471   0.319  1.00  0.00     0.278 C 
ENDBRANCH  19  25
ENDBRANCH  16  18
ENDBRANCH  11  16
BRANCH  14  27
ATOM     27  C   UNL     1      -3.998  -7.660   0.526  1.00  0.00     0.004 C 
ATOM     28  C   UNL     1      -2.703  -8.284  -0.052  1.00  0.00     0.017 C 
ATOM     29  C   UNL     1      -3.941  -7.764   2.055  1.00  0.00     0.017 C 
ATOM     30  C   UNL     1      -5.160  -8.553   0.058  1.00  0.00     0.017 C 
ENDBRANCH  14  27
ENDBRANCH   9  10
ENDBRANCH   8   9
ENDBRANCH   6   8
ENDBRANCH   5   6
ENDBRANCH   4   5
ENDBRANCH   3   4
ENDBRANCH   2   3
ENDBRANCH   1   2
BRANCH   1  31
ATOM     31  C   UNL     1      -3.444  -6.251  -3.040  1.00  0.00     0.188 C 
BRANCH  31  32
ATOM     32  O   UNL     1      -3.232  -4.883  -3.438  1.00  0.00    -0.377 OA
BRANCH  32  33
ATOM     33  C   UNL     1      -2.068  -4.249  -3.944  1.00  0.00     0.188 C 
BRANCH  33  34
ATOM     34  C   UNL     1      -0.775  -4.912  -3.596  1.00  0.00     0.188 C 
BRANCH  34  35
ATOM     35  O   UNL     1      -0.985  -6.292  -3.786  1.00  0.00    -0.376 OA
BRANCH  35  36
ATOM     36  C   UNL     1      -0.317  -7.152  -2.890  1.00  0.00     0.202 C 
BRANCH  36  37
ATOM     37  C   UNL     1       1.045  -7.466  -3.467  1.00  0.00     0.261 C 
BRANCH  37  38
ATOM     38  O   UNL     1       0.870  -7.984  -4.811  1.00  0.00    -0.460 OA
BRANCH  38  39
ATOM     39  C   UNL     1       0.799  -7.030  -5.783  1.00  0.00     0.338 C 
ATOM     40  O   UNL     1       1.629  -6.105  -5.917  1.00  0.00    -0.246 OA
BRANCH  39  41
ATOM     41  C   UNL     1      -0.544  -7.029  -6.433  1.00  0.00     0.060 A 
ATOM     42  C   UNL     1      -1.153  -5.858  -6.872  1.00  0.00     0.016 A 
ATOM     43  C   UNL     1      -1.371  -8.113  -6.323  1.00  0.00     0.016 A 
ATOM     44  C   UNL     1      -2.574  -5.674  -6.742  1.00  0.00     0.010 A 
ATOM     45  C   UNL     1      -2.772  -7.898  -6.310  1.00  0.00     0.010 A 
ATOM     46  C   UNL     1      -3.428  -6.602  -6.130  1.00  0.00    -0.014 A 
BRANCH  46  47
ATOM     47  C   UNL     1      -4.867  -6.118  -5.043  1.00  0.00     0.031 A 
ATOM     48  C   UNL     1      -6.125  -7.308  -4.061  1.00  0.00     0.074 A 
ATOM     49  C   UNL     1      -5.015  -4.744  -5.144  1.00  0.00     0.049 A 
ATOM     50  N   UNL     1      -7.405  -7.539  -4.503  1.00  0.00    -0.248 NA
ATOM     51  C   UNL     1      -6.044  -8.672  -3.239  1.00  0.00     0.031 C 
ATOM     52  C   UNL     1      -5.661  -3.803  -4.260  1.00  0.00     0.029 A 
ATOM     53  N   UNL     1      -4.734  -3.874  -6.200  1.00  0.00    -0.354 N 
ATOM     54  C   UNL     1      -8.145  -8.605  -4.073  1.00  0.00     0.074 A 
ATOM     55  C   UNL     1      -7.190  -9.366  -3.368  1.00  0.00     0.031 C 
ATOM     56  C   UNL     1      -6.261  -2.808  -4.924  1.00  0.00     0.029 A 
ATOM     57  C   UNL     1      -5.786  -2.943  -6.265  1.00  0.00     0.049 A 
ATOM     58  H   UNL     1      -3.946  -3.907  -6.789  1.00  0.00     0.167 HD
ATOM     59  C   UNL     1      -9.487  -8.758  -4.330  1.00  0.00     0.037 A 
ATOM     60  C   UNL     1      -6.227  -2.273  -7.342  1.00  0.00     0.037 A 
ATOM     61  C   UNL     1     -10.156  -7.544  -4.821  1.00  0.00     0.049 A 
ATOM     62  C   UNL     1      -7.526  -2.923  -7.790  1.00  0.00     0.074 A 
ATOM     63  C   UNL     1     -10.784  -6.490  -4.172  1.00  0.00     0.029 A 
ATOM     64  N   UNL     1     -10.082  -7.148  -6.142  1.00  0.00    -0.354 N 
ATOM     65  N   UNL     1      -8.362  -3.633  -7.059  1.00  0.00    -0.248 NA
ATOM     66  C   UNL     1      -7.927  -2.836  -9.191  1.00  0.00     0.031 C 
ATOM     67  C   UNL     1     -10.877  -5.385  -5.074  1.00  0.00     0.029 A 
ATOM     68  C   UNL     1     -10.388  -5.787  -6.303  1.00  0.00     0.049 A 
ATOM     69  H   UNL     1      -9.842  -7.749  -6.884  1.00  0.00     0.167 HD
ATOM     70  C   UNL     1      -9.308  -4.198  -7.903  1.00  0.00     0.074 A 
ATOM     71  C   UNL     1      -9.004  -3.628  -9.212  1.00  0.00     0.031 C 
ATOM     72  C   UNL     1     -10.253  -5.156  -7.617  1.00  0.00     0.037 A 
BRANCH  59  73
ATOM     73  C   UNL     1     -10.233  -9.976  -3.814  1.00  0.00     0.064 A 
ATOM     74  C   UNL     1     -11.494  -9.877  -3.195  1.00  0.00     0.173 A 
ATOM     75  C   UNL     1      -9.697 -11.280  -3.876  1.00  0.00     0.173 A 
ATOM     76  F   UNL     1     -12.175  -8.723  -3.185  1.00  0.00    -0.203 F 
ATOM     77  C   UNL     1     -12.094 -10.966  -2.549  1.00  0.00     0.198 A 
ATOM     78  C   UNL     1     -10.273 -12.357  -3.191  1.00  0.00     0.198 A 
ATOM     79  F   UNL     1      -8.597 -11.532  -4.602  1.00  0.00    -0.203 F 
ATOM     80  F   UNL     1     -13.283 -10.813  -1.948  1.00  0.00    -0.200 F 
ATOM     81  C   UNL     1     -11.460 -12.193  -2.505  1.00  0.00     0.200 A 
ATOM     82  F   UNL     1      -9.658 -13.550  -3.179  1.00  0.00    -0.200 F 
ATOM     83  F   UNL     1     -11.996 -13.211  -1.818  1.00  0.00    -0.200 F 
ENDBRANCH  59  73
BRANCH  60  84
ATOM     84  C   UNL     1      -5.019  -1.837  -8.115  1.00  0.00     0.064 A 
ATOM     85  C   UNL     1      -4.278  -0.815  -7.462  1.00  0.00     0.173 A 
ATOM     86  C   UNL     1      -4.306  -2.711  -8.946  1.00  0.00     0.173 A 
ATOM     87  F   UNL     1      -4.911   0.047  -6.648  1.00  0.00    -0.203 F 
ATOM     88  C   UNL     1      -2.885  -0.826  -7.444  1.00  0.00     0.198 A 
ATOM     89  C   UNL     1      -2.904  -2.692  -8.951  1.00  0.00     0.198 A 
ATOM     90  F   UNL     1      -4.940  -3.709  -9.575  1.00  0.00    -0.203 F 
ATOM     91  F   UNL     1      -2.218   0.004  -6.629  1.00  0.00    -0.200 F 
ATOM     92  C   UNL     1      -2.200  -1.795  -8.155  1.00  0.00     0.200 A 
ATOM     93  F   UNL     1      -2.230  -3.652  -9.600  1.00  0.00    -0.200 F 
ATOM     94  F   UNL     1      -0.874  -1.923  -8.002  1.00  0.00    -0.200 F 
ENDBRANCH  60  84
BRANCH  72  95
ATOM     95  C   UNL     1     -11.215  -5.587  -8.688  1.00  0.00     0.064 A 
ATOM     96  C   UNL     1     -12.035  -4.660  -9.352  1.00  0.00     0.173 A 
ATOM     97  C   UNL     1     -11.413  -6.945  -8.996  1.00  0.00     0.173 A 
ATOM     98  F   UNL     1     -11.913  -3.346  -9.108  1.00  0.00    -0.203 F 
ATOM     99  C   UNL     1     -12.977  -5.070 -10.293  1.00  0.00     0.198 A 
ATOM    100  C   UNL     1     -12.405  -7.356  -9.881  1.00  0.00     0.198 A 
ATOM    101  F   UNL     1     -10.630  -7.896  -8.464  1.00  0.00    -0.203 F 
ATOM    102  F   UNL     1     -13.689  -4.154 -10.965  1.00  0.00    -0.200 F 
ATOM    103  C   UNL     1     -13.178  -6.418 -10.540  1.00  0.00     0.200 A 
ATOM    104  F   UNL     1     -12.601  -8.664 -10.097  1.00  0.00    -0.200 F 
ATOM    105  F   UNL     1     -14.105  -6.813 -11.422  1.00  0.00    -0.200 F 
ENDBRANCH  72  95
ENDBRANCH  46  47
ENDBRANCH  39  41
ENDBRANCH  38  39
ENDBRANCH  37  38
ENDBRANCH  36  37
ENDBRANCH  35  36
ENDBRANCH  34  35
ENDBRANCH  33  34
ENDBRANCH  32  33
ENDBRANCH  31  32
ENDBRANCH   1  31
TORSDOF 26
