REMARK SMILES O=C(N[C@@H](Cc1ccc(O)cc1)C(=O)N[C@@H](Cc1c[nH]c2ccccc12)C(=O)N[C@@H](CO)C(=O)OCCOCCOCCOCCOC(=O)c1ccc(-c2c3nc(c(-c4c(F)c(F)c(F)c(F)c4F)c4ccc([nH]4)c(-c4c(F)c(F)c(F)c(F)c4F)c4nc(c(-c5c(F)c(F)c(F)c(F)c5F)c5ccc2[nH]5)C=C4)C=C3)cc1)c1ccc(F)cc1
REMARK SMILES IDX 39 1 38 2 37 3 36 4 35 5 33 6 34 7 30 8 29 9 27 10 28 11
REMARK SMILES IDX 16 13 15 14 13 15 14 16 4 18 3 19 1 20 2 21 113 23 114 24
REMARK SMILES IDX 119 25 115 26 118 27 116 28 117 29 5 30 6 31 7 32 12 33 8 34
REMARK SMILES IDX 11 35 9 36 10 37 17 39 18 40 19 41 26 42 20 43 21 44 25 45
REMARK SMILES IDX 22 47 24 48 23 49 31 50 32 51 40 53 41 54 42 55 43 56 44 57
REMARK SMILES IDX 45 58 46 59 47 60 48 61 49 62 50 63 51 64 112 65 52 66
REMARK SMILES IDX 111 67 53 68 54 69 55 70 105 71 56 72 110 73 104 74 106 75
REMARK SMILES IDX 57 76 109 77 103 78 102 79 58 81 90 82 70 83 89 84 71 85
REMARK SMILES IDX 74 86 88 87 107 88 72 89 73 90 87 92 108 93 75 94 59 95
REMARK SMILES IDX 60 96 68 97 61 98 62 99 66 100 69 101 63 102 64 103 67 104
REMARK SMILES IDX 65 105 91 106 92 107 100 108 93 109 94 110 98 111 101 112
REMARK SMILES IDX 95 113 96 114 99 115 97 116 76 117 77 118 85 119 78 120
REMARK SMILES IDX 79 121 83 122 86 123 80 124 81 125 84 126 82 127
REMARK H PARENT 29 12 15 17 3 22 10 38 20 46 32 52 106 80 74 91
REMARK Flexibility Score: inf
ROOT
ATOM      1  C   UNL     1       0.988   0.279 -10.533  1.00  0.00     0.188 C 
ENDROOT
BRANCH   1   2
ATOM      2  O   UNL     1       1.919   0.127 -11.611  1.00  0.00    -0.376 OA
BRANCH   2   3
ATOM      3  C   UNL     1       3.301  -0.287 -11.520  1.00  0.00     0.202 C 
BRANCH   3   4
ATOM      4  C   UNL     1       4.492   0.740 -11.156  1.00  0.00     0.261 C 
BRANCH   4   5
ATOM      5  O   UNL     1       5.266   0.471  -9.889  1.00  0.00    -0.462 OA
BRANCH   5   6
ATOM      6  C   UNL     1       5.692   1.547  -9.132  1.00  0.00     0.331 C 
ATOM      7  O   UNL     1       5.720   2.684  -9.608  1.00  0.00    -0.250 OA
BRANCH   6   8
ATOM      8  C   UNL     1       6.110   1.309  -7.577  1.00  0.00     0.218 C 
BRANCH   8   9
ATOM      9  N   UNL     1       5.934   0.036  -6.806  1.00  0.00    -0.339 N 
ATOM     10  C   UNL     1       5.990  -0.301  -5.480  1.00  0.00     0.243 C 
ATOM     11  O   UNL     1       6.832  -1.203  -5.281  1.00  0.00    -0.273 OA
ATOM     12  H   UNL     1       5.733  -0.734  -7.386  1.00  0.00     0.164 HD
BRANCH  10  13
ATOM     13  C   UNL     1       5.123   0.136  -4.163  1.00  0.00     0.175 C 
BRANCH  13  14
ATOM     14  N   UNL     1       5.997   0.504  -3.044  1.00  0.00    -0.342 N 
ATOM     15  C   UNL     1       5.869   0.250  -1.713  1.00  0.00     0.243 C 
ATOM     16  O   UNL     1       6.627   0.903  -0.981  1.00  0.00    -0.273 OA
ATOM     17  H   UNL     1       6.801   1.013  -3.295  1.00  0.00     0.164 HD
BRANCH  15  18
ATOM     18  C   UNL     1       4.830  -0.731  -1.056  1.00  0.00     0.176 C 
BRANCH  18  19
ATOM     19  N   UNL     1       3.421  -0.318  -1.023  1.00  0.00    -0.340 N 
ATOM     20  O   UNL     1       1.449   0.280  -0.121  1.00  0.00    -0.269 OA
ATOM     21  C   UNL     1       2.664   0.171   0.012  1.00  0.00     0.251 C 
ATOM     22  H   UNL     1       2.944  -0.405  -1.879  1.00  0.00     0.164 HD
BRANCH  21  23
ATOM     23  C   UNL     1       3.293   0.507   1.300  1.00  0.00     0.040 A 
ATOM     24  C   UNL     1       4.327   1.446   1.363  1.00  0.00     0.017 A 
ATOM     25  C   UNL     1       2.839  -0.136   2.458  1.00  0.00     0.017 A 
ATOM     26  C   UNL     1       4.964   1.684   2.580  1.00  0.00     0.040 A 
ATOM     27  C   UNL     1       3.474   0.115   3.675  1.00  0.00     0.040 A 
ATOM     28  C   UNL     1       4.539   1.010   3.721  1.00  0.00     0.123 A 
ATOM     29  F   UNL     1       5.167   1.226   4.883  1.00  0.00    -0.207 F 
ENDBRANCH  21  23
ENDBRANCH  18  19
BRANCH  18  30
ATOM     30  C   UNL     1       5.058  -2.251  -1.249  1.00  0.00     0.070 C 
BRANCH  30  31
ATOM     31  C   UNL     1       4.557  -3.067  -2.423  1.00  0.00    -0.045 A 
ATOM     32  C   UNL     1       3.253  -3.019  -2.934  1.00  0.00     0.007 A 
ATOM     33  C   UNL     1       5.424  -4.040  -2.955  1.00  0.00     0.007 A 
ATOM     34  C   UNL     1       2.883  -3.810  -4.035  1.00  0.00     0.046 A 
ATOM     35  C   UNL     1       5.056  -4.836  -4.041  1.00  0.00     0.046 A 
ATOM     36  C   UNL     1       3.808  -4.670  -4.611  1.00  0.00     0.115 A 
BRANCH  36  37
ATOM     37  O   UNL     1       3.536  -5.354  -5.755  1.00  0.00    -0.508 OA
ATOM     38  H   UNL     1       2.699  -5.264  -6.167  1.00  0.00     0.293 HD
ENDBRANCH  36  37
ENDBRANCH  30  31
ENDBRANCH  18  30
ENDBRANCH  15  18
ENDBRANCH  13  14
BRANCH  13  39
ATOM     39  C   UNL     1       3.791   0.908  -3.968  1.00  0.00     0.072 C 
BRANCH  39  40
ATOM     40  C   UNL     1       3.051   1.235  -5.168  1.00  0.00    -0.020 A 
ATOM     41  C   UNL     1       2.631   2.456  -5.646  1.00  0.00     0.087 A 
ATOM     42  C   UNL     1       2.779   0.243  -6.116  1.00  0.00     0.003 A 
ATOM     43  N   UNL     1       2.365   2.262  -6.975  1.00  0.00    -0.361 N 
ATOM     44  C   UNL     1       2.682   0.961  -7.276  1.00  0.00     0.046 A 
ATOM     45  C   UNL     1       3.011  -1.146  -6.125  1.00  0.00     0.010 A 
ATOM     46  H   UNL     1       2.011   2.934  -7.602  1.00  0.00     0.166 HD
ATOM     47  C   UNL     1       3.049   0.357  -8.443  1.00  0.00     0.026 A 
ATOM     48  C   UNL     1       3.448  -1.749  -7.281  1.00  0.00     0.001 A 
ATOM     49  C   UNL     1       3.529  -0.970  -8.405  1.00  0.00     0.002 A 
ENDBRANCH  39  40
ENDBRANCH  13  39
ENDBRANCH  10  13
ENDBRANCH   8   9
BRANCH   8  50
ATOM     50  C   UNL     1       7.618   1.661  -7.524  1.00  0.00     0.193 C 
BRANCH  50  51
ATOM     51  O   UNL     1       8.407   0.586  -8.049  1.00  0.00    -0.394 OA
ATOM     52  H   UNL     1       8.259  -0.213  -7.518  1.00  0.00     0.210 HD
ENDBRANCH  50  51
ENDBRANCH   8  50
ENDBRANCH   6   8
ENDBRANCH   5   6
ENDBRANCH   4   5
ENDBRANCH   3   4
ENDBRANCH   2   3
ENDBRANCH   1   2
BRANCH   1  53
ATOM     53  C   UNL     1       0.431  -0.876  -9.642  1.00  0.00     0.188 C 
BRANCH  53  54
ATOM     54  O   UNL     1       1.291  -1.947  -9.332  1.00  0.00    -0.377 OA
BRANCH  54  55
ATOM     55  C   UNL     1       1.065  -3.196  -9.948  1.00  0.00     0.188 C 
BRANCH  55  56
ATOM     56  C   UNL     1      -0.295  -3.848  -9.661  1.00  0.00     0.188 C 
BRANCH  56  57
ATOM     57  O   UNL     1      -0.747  -3.909  -8.311  1.00  0.00    -0.376 OA
BRANCH  57  58
ATOM     58  C   UNL     1       0.145  -4.341  -7.288  1.00  0.00     0.202 C 
BRANCH  58  59
ATOM     59  C   UNL     1       0.513  -5.827  -7.290  1.00  0.00     0.261 C 
BRANCH  59  60
ATOM     60  O   UNL     1       1.559  -6.082  -8.244  1.00  0.00    -0.460 OA
BRANCH  60  61
ATOM     61  C   UNL     1       1.201  -6.816  -9.312  1.00  0.00     0.338 C 
ATOM     62  O   UNL     1       0.097  -7.309  -9.556  1.00  0.00    -0.246 OA
BRANCH  61  63
ATOM     63  C   UNL     1       2.293  -6.826 -10.283  1.00  0.00     0.060 A 
ATOM     64  C   UNL     1       2.071  -6.246 -11.539  1.00  0.00     0.016 A 
ATOM     65  C   UNL     1       3.482  -7.498  -9.999  1.00  0.00     0.016 A 
ATOM     66  C   UNL     1       3.025  -6.377 -12.540  1.00  0.00     0.010 A 
ATOM     67  C   UNL     1       4.428  -7.651 -11.012  1.00  0.00     0.010 A 
ATOM     68  C   UNL     1       4.181  -7.128 -12.294  1.00  0.00    -0.014 A 
BRANCH  68  69
ATOM     69  C   UNL     1       5.029  -7.548 -13.427  1.00  0.00     0.031 A 
ATOM     70  C   UNL     1       4.774  -8.893 -14.045  1.00  0.00     0.074 A 
ATOM     71  C   UNL     1       5.997  -6.744 -13.894  1.00  0.00     0.049 A 
ATOM     72  N   UNL     1       5.444  -9.521 -14.975  1.00  0.00    -0.248 NA
ATOM     73  C   UNL     1       3.602  -9.630 -13.543  1.00  0.00     0.031 C 
ATOM     74  C   UNL     1       6.284  -5.397 -13.405  1.00  0.00     0.029 A 
ATOM     75  N   UNL     1       6.929  -6.956 -14.877  1.00  0.00    -0.354 N 
ATOM     76  C   UNL     1       4.782 -10.728 -15.161  1.00  0.00     0.074 A 
ATOM     77  C   UNL     1       3.670 -10.755 -14.238  1.00  0.00     0.031 C 
ATOM     78  C   UNL     1       7.344  -4.912 -14.074  1.00  0.00     0.029 A 
ATOM     79  C   UNL     1       7.828  -5.929 -15.005  1.00  0.00     0.049 A 
ATOM     80  H   UNL     1       6.952  -7.767 -15.435  1.00  0.00     0.167 HD
ATOM     81  C   UNL     1       5.080 -11.722 -16.030  1.00  0.00     0.037 A 
ATOM     82  C   UNL     1       8.937  -5.845 -15.763  1.00  0.00     0.037 A 
ATOM     83  C   UNL     1       6.196 -11.685 -16.936  1.00  0.00     0.049 A 
ATOM     84  C   UNL     1       9.305  -7.007 -16.654  1.00  0.00     0.074 A 
ATOM     85  C   UNL     1       6.585 -12.631 -17.866  1.00  0.00     0.029 A 
ATOM     86  N   UNL     1       7.110 -10.644 -17.013  1.00  0.00    -0.354 N 
ATOM     87  N   UNL     1       8.669  -8.139 -16.837  1.00  0.00    -0.248 NA
ATOM     88  C   UNL     1      10.540  -6.879 -17.431  1.00  0.00     0.031 C 
ATOM     89  C   UNL     1       7.766 -12.184 -18.471  1.00  0.00     0.029 A 
ATOM     90  C   UNL     1       8.081 -10.937 -17.954  1.00  0.00     0.049 A 
ATOM     91  H   UNL     1       7.073  -9.818 -16.477  1.00  0.00     0.167 HD
ATOM     92  C   UNL     1       9.418  -8.849 -17.770  1.00  0.00     0.074 A 
ATOM     93  C   UNL     1      10.544  -8.012 -18.121  1.00  0.00     0.031 C 
ATOM     94  C   UNL     1       9.192 -10.082 -18.288  1.00  0.00     0.037 A 
BRANCH  81  95
ATOM     95  C   UNL     1       4.208 -12.942 -16.012  1.00  0.00     0.064 A 
ATOM     96  C   UNL     1       2.894 -12.919 -16.506  1.00  0.00     0.173 A 
ATOM     97  C   UNL     1       4.700 -14.158 -15.515  1.00  0.00     0.173 A 
ATOM     98  F   UNL     1       2.370 -11.777 -16.975  1.00  0.00    -0.203 F 
ATOM     99  C   UNL     1       2.100 -14.062 -16.481  1.00  0.00     0.198 A 
ATOM    100  C   UNL     1       3.913 -15.306 -15.517  1.00  0.00     0.198 A 
ATOM    101  F   UNL     1       5.949 -14.234 -15.031  1.00  0.00    -0.203 F 
ATOM    102  F   UNL     1       0.833 -14.006 -16.916  1.00  0.00    -0.200 F 
ATOM    103  C   UNL     1       2.611 -15.256 -15.993  1.00  0.00     0.200 A 
ATOM    104  F   UNL     1       4.412 -16.460 -15.054  1.00  0.00    -0.200 F 
ATOM    105  F   UNL     1       1.847 -16.357 -15.975  1.00  0.00    -0.200 F 
ENDBRANCH  81  95
BRANCH  82 106
ATOM    106  C   UNL     1       9.794  -4.634 -15.696  1.00  0.00     0.064 A 
ATOM    107  C   UNL     1       9.902  -3.763 -16.783  1.00  0.00     0.173 A 
ATOM    108  C   UNL     1      10.533  -4.329 -14.538  1.00  0.00     0.173 A 
ATOM    109  F   UNL     1       9.237  -4.022 -17.919  1.00  0.00    -0.203 F 
ATOM    110  C   UNL     1      10.728  -2.637 -16.727  1.00  0.00     0.198 A 
ATOM    111  C   UNL     1      11.332  -3.194 -14.473  1.00  0.00     0.198 A 
ATOM    112  F   UNL     1      10.464  -5.135 -13.468  1.00  0.00    -0.203 F 
ATOM    113  F   UNL     1      10.845  -1.844 -17.800  1.00  0.00    -0.200 F 
ATOM    114  C   UNL     1      11.435  -2.351 -15.573  1.00  0.00     0.200 A 
ATOM    115  F   UNL     1      12.007  -2.914 -13.350  1.00  0.00    -0.200 F 
ATOM    116  F   UNL     1      12.224  -1.270 -15.517  1.00  0.00    -0.200 F 
ENDBRANCH  82 106
BRANCH  94 117
ATOM    117  C   UNL     1      10.168 -10.586 -19.309  1.00  0.00     0.064 A 
ATOM    118  C   UNL     1      11.456 -11.009 -18.949  1.00  0.00     0.173 A 
ATOM    119  C   UNL     1       9.790 -10.700 -20.657  1.00  0.00     0.173 A 
ATOM    120  F   UNL     1      11.868 -10.905 -17.677  1.00  0.00    -0.203 F 
ATOM    121  C   UNL     1      12.336 -11.510 -19.904  1.00  0.00     0.198 A 
ATOM    122  C   UNL     1      10.662 -11.229 -21.603  1.00  0.00     0.198 A 
ATOM    123  F   UNL     1       8.566 -10.316 -21.049  1.00  0.00    -0.203 F 
ATOM    124  F   UNL     1      13.576 -11.869 -19.545  1.00  0.00    -0.200 F 
ATOM    125  C   UNL     1      11.936 -11.627 -21.227  1.00  0.00     0.200 A 
ATOM    126  F   UNL     1      10.269 -11.355 -22.877  1.00  0.00    -0.200 F 
ATOM    127  F   UNL     1      12.781 -12.120 -22.142  1.00  0.00    -0.200 F 
ENDBRANCH  94 117
ENDBRANCH  68  69
ENDBRANCH  61  63
ENDBRANCH  60  61
ENDBRANCH  59  60
ENDBRANCH  58  59
ENDBRANCH  57  58
ENDBRANCH  56  57
ENDBRANCH  55  56
ENDBRANCH  54  55
ENDBRANCH  53  54
ENDBRANCH   1  53
TORSDOF 33
