REMARK SMILES COc1cc2c(c(OC)c1)[C@H](C)C[C@H](CC(=O)OCCOCCOCCOCCOC(=O)c1ccc(-c3c4nc(c(-c5c(F)c(F)c(F)c(F)c5F)c5ccc([nH]5)c(-c5c(F)c(F)c(F)c(F)c5F)c5nc(c(-c6c(F)c(F)c(F)c(F)c6F)c6ccc3[nH]6)C=C5)C=C4)cc1)C2
REMARK SMILES IDX 24 1 23 2 22 3 21 4 20 5 19 6 18 7 16 8 17 9 15 10 14 11
REMARK SMILES IDX 3 12 4 13 10 14 5 15 7 16 6 17 96 18 11 19 12 20 13 21 2 22
REMARK SMILES IDX 1 23 8 24 9 25 25 26 26 27 27 28 28 29 29 30 30 31 31 32
REMARK SMILES IDX 32 33 33 34 34 35 95 36 35 37 94 38 36 39 37 40 38 41 88 42
REMARK SMILES IDX 39 43 93 44 87 45 89 46 40 47 92 48 86 49 85 50 41 52 73 53
REMARK SMILES IDX 53 54 72 55 54 56 57 57 71 58 90 59 55 60 56 61 70 63 91 64
REMARK SMILES IDX 58 65 42 66 43 67 51 68 44 69 45 70 49 71 52 72 46 73 47 74
REMARK SMILES IDX 50 75 48 76 74 77 75 78 83 79 76 80 77 81 81 82 84 83 78 84
REMARK SMILES IDX 79 85 82 86 80 87 59 88 60 89 68 90 61 91 62 92 66 93 69 94
REMARK SMILES IDX 63 95 64 96 67 97 65 98
REMARK H PARENT 89 51 57 62
REMARK Flexibility Score: inf
ROOT
ATOM      1  O   UNL     1       1.784   9.076  -2.221  1.00  0.00    -0.377 OA
ENDROOT
BRANCH   1   2
ATOM      2  C   UNL     1       0.831   8.866  -3.246  1.00  0.00     0.188 C 
BRANCH   2   3
ATOM      3  C   UNL     1      -0.009  10.083  -3.650  1.00  0.00     0.188 C 
BRANCH   3   4
ATOM      4  O   UNL     1       0.515  11.384  -3.471  1.00  0.00    -0.376 OA
BRANCH   4   5
ATOM      5  C   UNL     1       0.806  11.874  -2.169  1.00  0.00     0.202 C 
BRANCH   5   6
ATOM      6  C   UNL     1       0.053  11.426  -0.903  1.00  0.00     0.261 C 
BRANCH   6   7
ATOM      7  O   UNL     1      -0.117  10.009  -0.724  1.00  0.00    -0.463 OA
BRANCH   7   8
ATOM      8  C   UNL     1      -1.385   9.568  -0.577  1.00  0.00     0.306 C 
ATOM      9  O   UNL     1      -2.374  10.296  -0.602  1.00  0.00    -0.252 OA
BRANCH   8  10
ATOM     10  C   UNL     1      -1.540   8.065  -0.425  1.00  0.00     0.126 C 
BRANCH  10  11
ATOM     11  C   UNL     1      -0.340   7.107  -0.354  1.00  0.00     0.005 C 
ATOM     12  C   UNL     1       0.937   2.353  -0.572  1.00  0.00     0.122 A 
ATOM     13  C   UNL     1      -0.040   3.339  -0.589  1.00  0.00     0.050 A 
ATOM     14  C   UNL     1       2.240   2.689  -0.227  1.00  0.00     0.093 A 
ATOM     15  C   UNL     1       0.257   4.657  -0.194  1.00  0.00    -0.037 A 
ATOM     16  C   UNL     1       2.555   4.001   0.160  1.00  0.00     0.126 A 
ATOM     17  C   UNL     1       1.556   4.997   0.249  1.00  0.00     0.000 A 
ATOM     18  C   UNL     1      -0.862   5.667  -0.222  1.00  0.00     0.040 C 
ATOM     19  C   UNL     1       1.844   6.411   0.749  1.00  0.00     0.020 C 
ATOM     20  C   UNL     1       2.488   6.445   2.142  1.00  0.00     0.013 C 
ATOM     21  C   UNL     1       0.618   7.361   0.800  1.00  0.00     0.012 C 
BRANCH  12  22
ATOM     22  O   UNL     1       0.553   1.100  -0.965  1.00  0.00    -0.497 OA
ATOM     23  C   UNL     1       1.011   0.072  -0.087  1.00  0.00     0.278 C 
ENDBRANCH  12  22
BRANCH  16  24
ATOM     24  O   UNL     1       3.868   4.168   0.521  1.00  0.00    -0.496 OA
ATOM     25  C   UNL     1       4.571   5.150  -0.234  1.00  0.00     0.278 C 
ENDBRANCH  16  24
ENDBRANCH  10  11
ENDBRANCH   8  10
ENDBRANCH   7   8
ENDBRANCH   6   7
ENDBRANCH   5   6
ENDBRANCH   4   5
ENDBRANCH   3   4
ENDBRANCH   2   3
ENDBRANCH   1   2
BRANCH   1  26
ATOM     26  C   UNL     1       3.090   9.522  -2.567  1.00  0.00     0.188 C 
BRANCH  26  27
ATOM     27  C   UNL     1       3.376  10.091  -3.970  1.00  0.00     0.188 C 
BRANCH  27  28
ATOM     28  O   UNL     1       2.770   9.380  -5.036  1.00  0.00    -0.376 OA
BRANCH  28  29
ATOM     29  C   UNL     1       3.501   8.346  -5.679  1.00  0.00     0.202 C 
BRANCH  29  30
ATOM     30  C   UNL     1       3.956   7.146  -4.831  1.00  0.00     0.261 C 
BRANCH  30  31
ATOM     31  O   UNL     1       4.874   7.429  -3.761  1.00  0.00    -0.460 OA
BRANCH  31  32
ATOM     32  C   UNL     1       6.024   8.068  -4.066  1.00  0.00     0.338 C 
ATOM     33  O   UNL     1       6.433   8.377  -5.164  1.00  0.00    -0.246 OA
BRANCH  32  34
ATOM     34  C   UNL     1       6.641   8.504  -2.795  1.00  0.00     0.060 A 
ATOM     35  C   UNL     1       6.840   9.873  -2.576  1.00  0.00     0.016 A 
ATOM     36  C   UNL     1       7.049   7.567  -1.844  1.00  0.00     0.016 A 
ATOM     37  C   UNL     1       7.493  10.306  -1.422  1.00  0.00     0.010 A 
ATOM     38  C   UNL     1       7.715   8.001  -0.695  1.00  0.00     0.010 A 
ATOM     39  C   UNL     1       7.978   9.369  -0.500  1.00  0.00    -0.014 A 
BRANCH  39  40
ATOM     40  C   UNL     1       8.940   9.803   0.544  1.00  0.00     0.031 A 
ATOM     41  C   UNL     1      10.408   9.580   0.297  1.00  0.00     0.074 A 
ATOM     42  C   UNL     1       8.529  10.415   1.668  1.00  0.00     0.049 A 
ATOM     43  N   UNL     1      11.432   9.829   1.073  1.00  0.00    -0.248 NA
ATOM     44  C   UNL     1      10.769   8.995  -1.005  1.00  0.00     0.031 C 
ATOM     45  C   UNL     1       7.143  10.736   1.998  1.00  0.00     0.029 A 
ATOM     46  N   UNL     1       9.248  10.873   2.745  1.00  0.00    -0.354 N 
ATOM     47  C   UNL     1      12.553   9.426   0.357  1.00  0.00     0.074 A 
ATOM     48  C   UNL     1      12.084   8.883  -0.899  1.00  0.00     0.031 C 
ATOM     49  C   UNL     1       7.110  11.331   3.204  1.00  0.00     0.029 A 
ATOM     50  C   UNL     1       8.467  11.399   3.744  1.00  0.00     0.049 A 
ATOM     51  H   UNL     1      10.230  10.828   2.795  1.00  0.00     0.167 HD
ATOM     52  C   UNL     1      13.857   9.513   0.709  1.00  0.00     0.037 A 
ATOM     53  C   UNL     1       8.811  11.858   4.964  1.00  0.00     0.037 A 
ATOM     54  C   UNL     1      14.322  10.052   1.960  1.00  0.00     0.049 A 
ATOM     55  C   UNL     1      10.266  11.859   5.369  1.00  0.00     0.074 A 
ATOM     56  C   UNL     1      15.623  10.188   2.411  1.00  0.00     0.029 A 
ATOM     57  N   UNL     1      13.498  10.540   2.963  1.00  0.00    -0.354 N 
ATOM     58  N   UNL     1      11.321  11.493   4.682  1.00  0.00    -0.248 NA
ATOM     59  C   UNL     1      10.576  12.344   6.722  1.00  0.00     0.031 C 
ATOM     60  C   UNL     1      15.584  10.700   3.711  1.00  0.00     0.029 A 
ATOM     61  C   UNL     1      14.262  10.952   4.043  1.00  0.00     0.049 A 
ATOM     62  H   UNL     1      12.516  10.586   2.916  1.00  0.00     0.167 HD
ATOM     63  C   UNL     1      12.418  11.740   5.500  1.00  0.00     0.074 A 
ATOM     64  C   UNL     1      11.900  12.300   6.730  1.00  0.00     0.031 C 
ATOM     65  C   UNL     1      13.735  11.524   5.256  1.00  0.00     0.037 A 
BRANCH  52  66
ATOM     66  C   UNL     1      14.877   8.986  -0.260  1.00  0.00     0.064 A 
ATOM     67  C   UNL     1      15.144   9.632  -1.477  1.00  0.00     0.173 A 
ATOM     68  C   UNL     1      15.623   7.839   0.050  1.00  0.00     0.173 A 
ATOM     69  F   UNL     1      14.448  10.724  -1.830  1.00  0.00    -0.203 F 
ATOM     70  C   UNL     1      16.102   9.135  -2.357  1.00  0.00     0.198 A 
ATOM     71  C   UNL     1      16.604   7.364  -0.817  1.00  0.00     0.198 A 
ATOM     72  F   UNL     1      15.409   7.183   1.200  1.00  0.00    -0.203 F 
ATOM     73  F   UNL     1      16.306   9.741  -3.535  1.00  0.00    -0.200 F 
ATOM     74  C   UNL     1      16.837   8.008  -2.022  1.00  0.00     0.200 A 
ATOM     75  F   UNL     1      17.322   6.283  -0.485  1.00  0.00    -0.200 F 
ATOM     76  F   UNL     1      17.767   7.537  -2.865  1.00  0.00    -0.200 F 
ENDBRANCH  52  66
BRANCH  53  77
ATOM     77  C   UNL     1       7.767  12.341   5.909  1.00  0.00     0.064 A 
ATOM     78  C   UNL     1       7.720  13.683   6.314  1.00  0.00     0.173 A 
ATOM     79  C   UNL     1       6.824  11.462   6.463  1.00  0.00     0.173 A 
ATOM     80  F   UNL     1       8.615  14.559   5.835  1.00  0.00    -0.203 F 
ATOM     81  C   UNL     1       6.792  14.119   7.258  1.00  0.00     0.198 A 
ATOM     82  C   UNL     1       5.874  11.907   7.380  1.00  0.00     0.198 A 
ATOM     83  F   UNL     1       6.825  10.167   6.113  1.00  0.00    -0.203 F 
ATOM     84  F   UNL     1       6.812  15.393   7.675  1.00  0.00    -0.200 F 
ATOM     85  C   UNL     1       5.867  13.232   7.787  1.00  0.00     0.200 A 
ATOM     86  F   UNL     1       4.974  11.048   7.878  1.00  0.00    -0.200 F 
ATOM     87  F   UNL     1       4.976  13.651   8.696  1.00  0.00    -0.200 F 
ENDBRANCH  53  77
BRANCH  65  88
ATOM     88  C   UNL     1      14.716  11.948   6.313  1.00  0.00     0.064 A 
ATOM     89  C   UNL     1      14.817  11.284   7.544  1.00  0.00     0.173 A 
ATOM     90  C   UNL     1      15.597  13.015   6.071  1.00  0.00     0.173 A 
ATOM     91  F   UNL     1      13.993  10.265   7.832  1.00  0.00    -0.203 F 
ATOM     92  C   UNL     1      15.738  11.694   8.506  1.00  0.00     0.198 A 
ATOM     93  C   UNL     1      16.541  13.397   7.020  1.00  0.00     0.198 A 
ATOM     94  F   UNL     1      15.553  13.679   4.906  1.00  0.00    -0.203 F 
ATOM     95  F   UNL     1      15.775  11.082   9.698  1.00  0.00    -0.200 F 
ATOM     96  C   UNL     1      16.604  12.744   8.241  1.00  0.00     0.200 A 
ATOM     97  F   UNL     1      17.390  14.400   6.753  1.00  0.00    -0.200 F 
ATOM     98  F   UNL     1      17.494  13.131   9.165  1.00  0.00    -0.200 F 
ENDBRANCH  65  88
ENDBRANCH  39  40
ENDBRANCH  32  34
ENDBRANCH  31  32
ENDBRANCH  30  31
ENDBRANCH  29  30
ENDBRANCH  28  29
ENDBRANCH  27  28
ENDBRANCH  26  27
ENDBRANCH   1  26
TORSDOF 23
