REMARK SMILES C[NH2+][C@]1(C(=O)OCCOCCOCCOCCOC(=O)c2ccc(-c3c4nc(c(-c5c(F)c(F)c(F)c(F)c5F)c5ccc([nH]5)c(-c5c(F)c(F)c(F)c(F)c5F)c5nc(c(-c6c(F)c(F)c(F)c(F)c6F)c6ccc3[nH]6)C=C5)C=C4)cc2)CCC[C@@H](Sc2nccn2C)C1
REMARK SMILES IDX 12 1 11 2 10 3 9 4 8 5 7 6 6 7 4 8 5 9 3 10 84 11 95 12
REMARK SMILES IDX 85 13 87 14 86 15 2 16 1 17 88 20 89 21 90 22 93 23 91 24
REMARK SMILES IDX 92 25 94 26 13 27 14 28 15 29 16 30 17 31 18 32 19 33 20 34
REMARK SMILES IDX 21 35 22 36 83 37 23 38 82 39 24 40 25 41 26 42 76 43 27 44
REMARK SMILES IDX 81 45 75 46 77 47 28 48 80 49 74 50 73 51 29 53 61 54 41 55
REMARK SMILES IDX 60 56 42 57 45 58 59 59 78 60 43 61 44 62 58 64 79 65 46 66
REMARK SMILES IDX 30 67 31 68 39 69 32 70 33 71 37 72 40 73 34 74 35 75 38 76
REMARK SMILES IDX 36 77 62 78 63 79 71 80 64 81 65 82 69 83 72 84 66 85 67 86
REMARK SMILES IDX 70 87 68 88 47 89 48 90 56 91 49 92 50 93 54 94 57 95 51 96
REMARK SMILES IDX 52 97 55 98 53 99
REMARK H PARENT 2 18 2 19 77 52 45 63
REMARK Flexibility Score: inf
ROOT
ATOM      1  O   UNL     1       1.993  -3.711   0.135  1.00  0.00    -0.377 OA
ENDROOT
BRANCH   1   2
ATOM      2  C   UNL     1       1.259  -3.401  -1.031  1.00  0.00     0.188 C 
BRANCH   2   3
ATOM      3  C   UNL     1       1.879  -2.325  -1.943  1.00  0.00     0.188 C 
BRANCH   3   4
ATOM      4  O   UNL     1       3.048  -1.613  -1.565  1.00  0.00    -0.376 OA
BRANCH   4   5
ATOM      5  C   UNL     1       3.395  -1.420  -0.205  1.00  0.00     0.202 C 
BRANCH   5   6
ATOM      6  C   UNL     1       2.418  -0.769   0.792  1.00  0.00     0.261 C 
BRANCH   6   7
ATOM      7  O   UNL     1       1.046  -1.197   0.773  1.00  0.00    -0.459 OA
BRANCH   7   8
ATOM      8  C   UNL     1       0.238  -0.513  -0.077  1.00  0.00     0.368 C 
ATOM      9  O   UNL     1       0.629   0.385  -0.822  1.00  0.00    -0.245 OA
BRANCH   8  10
ATOM     10  C   UNL     1      -1.268  -0.925   0.000  1.00  0.00     0.195 C 
ATOM     11  C   UNL     1      -1.623  -2.190   0.826  1.00  0.00     0.081 C 
ATOM     12  C   UNL     1      -1.851   0.289   0.748  1.00  0.00     0.096 C 
ATOM     13  C   UNL     1      -3.128  -2.348   1.062  1.00  0.00     0.008 C 
ATOM     14  C   UNL     1      -3.341   0.175   1.053  1.00  0.00     0.061 C 
ATOM     15  C   UNL     1      -3.709  -1.131   1.767  1.00  0.00     0.015 C 
BRANCH  10  16
ATOM     16  N   UNL     1      -1.863  -0.888  -1.371  1.00  0.00    -0.335 N 
ATOM     17  C   UNL     1      -1.877  -2.104  -2.164  1.00  0.00     0.331 C 
ATOM     18  H   UNL     1      -2.832  -0.587  -1.269  1.00  0.00     0.347 HD
ATOM     19  H   UNL     1      -1.245  -0.265  -1.890  1.00  0.00     0.347 HD
ENDBRANCH  10  16
BRANCH  14  20
ATOM     20  S   UNL     1      -3.897   1.649   1.995  1.00  0.00    -0.084 SA
BRANCH  20  21
ATOM     21  C   UNL     1      -3.050   1.435   3.493  1.00  0.00     0.167 A 
ATOM     22  N   UNL     1      -1.744   1.455   3.639  1.00  0.00    -0.231 NA
ATOM     23  N   UNL     1      -3.678   1.144   4.671  1.00  0.00    -0.329 N 
ATOM     24  C   UNL     1      -1.513   1.123   4.946  1.00  0.00     0.132 A 
ATOM     25  C   UNL     1      -2.700   0.927   5.610  1.00  0.00     0.108 A 
ATOM     26  C   UNL     1      -5.091   1.037   4.929  1.00  0.00     0.152 C 
ENDBRANCH  20  21
ENDBRANCH  14  20
ENDBRANCH   8  10
ENDBRANCH   7   8
ENDBRANCH   6   7
ENDBRANCH   5   6
ENDBRANCH   4   5
ENDBRANCH   3   4
ENDBRANCH   2   3
ENDBRANCH   1   2
BRANCH   1  27
ATOM     27  C   UNL     1       2.868  -4.822   0.042  1.00  0.00     0.188 C 
BRANCH  27  28
ATOM     28  C   UNL     1       3.633  -5.006  -1.282  1.00  0.00     0.188 C 
BRANCH  28  29
ATOM     29  O   UNL     1       2.798  -4.989  -2.432  1.00  0.00    -0.376 OA
BRANCH  29  30
ATOM     30  C   UNL     1       2.362  -6.205  -3.014  1.00  0.00     0.202 C 
BRANCH  30  31
ATOM     31  C   UNL     1       1.389  -7.087  -2.214  1.00  0.00     0.261 C 
BRANCH  31  32
ATOM     32  O   UNL     1       1.806  -7.482  -0.900  1.00  0.00    -0.460 OA
BRANCH  32  33
ATOM     33  C   UNL     1       2.961  -8.168  -0.785  1.00  0.00     0.338 C 
ATOM     34  O   UNL     1       3.680  -8.560  -1.688  1.00  0.00    -0.246 OA
BRANCH  33  35
ATOM     35  C   UNL     1       3.328  -8.186   0.647  1.00  0.00     0.060 A 
ATOM     36  C   UNL     1       4.557  -7.634   1.036  1.00  0.00     0.016 A 
ATOM     37  C   UNL     1       2.458  -8.717   1.602  1.00  0.00     0.016 A 
ATOM     38  C   UNL     1       4.934  -7.644   2.378  1.00  0.00     0.010 A 
ATOM     39  C   UNL     1       2.851  -8.756   2.942  1.00  0.00     0.010 A 
ATOM     40  C   UNL     1       4.106  -8.253   3.329  1.00  0.00    -0.014 A 
BRANCH  40  41
ATOM     41  C   UNL     1       4.651  -8.571   4.670  1.00  0.00     0.031 A 
ATOM     42  C   UNL     1       5.203  -9.952   4.894  1.00  0.00     0.074 A 
ATOM     43  C   UNL     1       4.684  -7.657   5.654  1.00  0.00     0.049 A 
ATOM     44  N   UNL     1       5.684 -10.492   5.984  1.00  0.00    -0.248 NA
ATOM     45  C   UNL     1       5.210 -10.846   3.725  1.00  0.00     0.031 C 
ATOM     46  C   UNL     1       4.229  -6.275   5.541  1.00  0.00     0.029 A 
ATOM     47  N   UNL     1       5.119  -7.767   6.952  1.00  0.00    -0.354 N 
ATOM     48  C   UNL     1       6.043 -11.787   5.633  1.00  0.00     0.074 A 
ATOM     49  C   UNL     1       5.695 -11.964   4.241  1.00  0.00     0.031 C 
ATOM     50  C   UNL     1       4.391  -5.666   6.729  1.00  0.00     0.029 A 
ATOM     51  C   UNL     1       4.929  -6.627   7.692  1.00  0.00     0.049 A 
ATOM     52  H   UNL     1       5.527  -8.585   7.317  1.00  0.00     0.167 HD
ATOM     53  C   UNL     1       6.622 -12.739   6.401  1.00  0.00     0.037 A 
ATOM     54  C   UNL     1       5.140  -6.400   9.004  1.00  0.00     0.037 A 
ATOM     55  C   UNL     1       6.959 -12.560   7.787  1.00  0.00     0.049 A 
ATOM     56  C   UNL     1       5.703  -7.507   9.863  1.00  0.00     0.074 A 
ATOM     57  C   UNL     1       7.555 -13.459   8.654  1.00  0.00     0.029 A 
ATOM     58  N   UNL     1       6.719 -11.402   8.514  1.00  0.00    -0.354 N 
ATOM     59  N   UNL     1       6.060  -8.723   9.522  1.00  0.00    -0.248 NA
ATOM     60  C   UNL     1       5.895  -7.208  11.289  1.00  0.00     0.031 C 
ATOM     61  C   UNL     1       7.616 -12.868   9.920  1.00  0.00     0.029 A 
ATOM     62  C   UNL     1       7.126 -11.575   9.826  1.00  0.00     0.049 A 
ATOM     63  H   UNL     1       6.318 -10.580   8.150  1.00  0.00     0.167 HD
ATOM     64  C   UNL     1       6.549  -9.318  10.679  1.00  0.00     0.074 A 
ATOM     65  C   UNL     1       6.455  -8.326  11.729  1.00  0.00     0.031 C 
ATOM     66  C   UNL     1       7.035 -10.572  10.857  1.00  0.00     0.037 A 
BRANCH  53  67
ATOM     67  C   UNL     1       6.892 -14.072   5.764  1.00  0.00     0.064 A 
ATOM     68  C   UNL     1       7.873 -14.236   4.775  1.00  0.00     0.173 A 
ATOM     69  C   UNL     1       6.172 -15.207   6.168  1.00  0.00     0.173 A 
ATOM     70  F   UNL     1       8.577 -13.180   4.340  1.00  0.00    -0.203 F 
ATOM     71  C   UNL     1       8.103 -15.480   4.193  1.00  0.00     0.198 A 
ATOM     72  C   UNL     1       6.429 -16.456   5.609  1.00  0.00     0.198 A 
ATOM     73  F   UNL     1       5.223 -15.107   7.110  1.00  0.00    -0.203 F 
ATOM     74  F   UNL     1       9.007 -15.602   3.211  1.00  0.00    -0.200 F 
ATOM     75  C   UNL     1       7.387 -16.590   4.616  1.00  0.00     0.200 A 
ATOM     76  F   UNL     1       5.745 -17.529   6.029  1.00  0.00    -0.200 F 
ATOM     77  F   UNL     1       7.615 -17.788   4.061  1.00  0.00    -0.200 F 
ENDBRANCH  53  67
BRANCH  54  78
ATOM     78  C   UNL     1       4.800  -5.079   9.598  1.00  0.00     0.064 A 
ATOM     79  C   UNL     1       5.796  -4.233  10.107  1.00  0.00     0.173 A 
ATOM     80  C   UNL     1       3.468  -4.649   9.699  1.00  0.00     0.173 A 
ATOM     81  F   UNL     1       7.082  -4.610  10.061  1.00  0.00    -0.203 F 
ATOM     82  C   UNL     1       5.471  -3.021  10.713  1.00  0.00     0.198 A 
ATOM     83  C   UNL     1       3.148  -3.422  10.275  1.00  0.00     0.198 A 
ATOM     84  F   UNL     1       2.475  -5.421   9.233  1.00  0.00    -0.203 F 
ATOM     85  F   UNL     1       6.439  -2.259  11.242  1.00  0.00    -0.200 F 
ATOM     86  C   UNL     1       4.148  -2.613  10.791  1.00  0.00     0.200 A 
ATOM     87  F   UNL     1       1.869  -3.027  10.337  1.00  0.00    -0.200 F 
ATOM     88  F   UNL     1       3.837  -1.447  11.373  1.00  0.00    -0.200 F 
ENDBRANCH  54  78
BRANCH  66  89
ATOM     89  C   UNL     1       7.548 -10.932  12.224  1.00  0.00     0.064 A 
ATOM     90  C   UNL     1       6.688 -11.098  13.320  1.00  0.00     0.173 A 
ATOM     91  C   UNL     1       8.918 -11.160  12.427  1.00  0.00     0.173 A 
ATOM     92  F   UNL     1       5.371 -10.882  13.184  1.00  0.00    -0.203 F 
ATOM     93  C   UNL     1       7.184 -11.449  14.573  1.00  0.00     0.198 A 
ATOM     94  C   UNL     1       9.406 -11.547  13.672  1.00  0.00     0.198 A 
ATOM     95  F   UNL     1       9.785 -11.026  11.412  1.00  0.00    -0.203 F 
ATOM     96  F   UNL     1       6.350 -11.550  15.617  1.00  0.00    -0.200 F 
ATOM     97  C   UNL     1       8.541 -11.682  14.746  1.00  0.00     0.200 A 
ATOM     98  F   UNL     1      10.715 -11.790  13.832  1.00  0.00    -0.200 F 
ATOM     99  F   UNL     1       9.014 -12.030  15.951  1.00  0.00    -0.200 F 
ENDBRANCH  66  89
ENDBRANCH  40  41
ENDBRANCH  33  35
ENDBRANCH  32  33
ENDBRANCH  31  32
ENDBRANCH  30  31
ENDBRANCH  29  30
ENDBRANCH  28  29
ENDBRANCH  27  28
ENDBRANCH   1  27
TORSDOF 23
