REMARK SMILES Cc1[nH]c2c(C(=O)N3CC[C@H](O)C[C@@H]3C(=O)OCCOCCOCCOCCOC(=O)c3ccc(-c4c5nc(c(-c6c(F)c(F)c(F)c(F)c6F)c6ccc([nH]6)c(-c6c(F)c(F)c(F)c(F)c6F)c6nc(c(-c7c(F)c(F)c(F)c(F)c7F)c7ccc4[nH]7)C=C6)C=C5)cc3)cccc2c1C
REMARK SMILES IDX 23 1 22 2 21 3 20 4 19 5 18 6 17 7 15 8 16 9 14 10 8 11 9 12
REMARK SMILES IDX 10 13 13 14 11 15 6 16 7 17 5 18 1 19 2 20 3 21 99 22 4 23
REMARK SMILES IDX 98 25 100 26 97 27 95 28 96 29 12 30 24 32 25 33 26 34 27 35
REMARK SMILES IDX 28 36 29 37 30 38 31 39 32 40 33 41 94 42 34 43 93 44 35 45
REMARK SMILES IDX 36 46 37 47 87 48 38 49 92 50 86 51 88 52 39 53 91 54 85 55
REMARK SMILES IDX 84 56 40 58 72 59 52 60 71 61 53 62 56 63 70 64 89 65 54 66
REMARK SMILES IDX 55 67 69 69 90 70 57 71 41 72 42 73 50 74 43 75 44 76 48 77
REMARK SMILES IDX 51 78 45 79 46 80 49 81 47 82 73 83 74 84 82 85 75 86 76 87
REMARK SMILES IDX 80 88 83 89 77 90 78 91 81 92 79 93 58 94 59 95 67 96 60 97
REMARK SMILES IDX 61 98 65 99 68 100 62 101 63 102 66 103 64 104
REMARK H PARENT 3 24 12 31 88 57 56 68
REMARK Flexibility Score: inf
ROOT
ATOM      1  O   UNL     1      -2.290  -6.582   1.583  1.00  0.00    -0.377 OA
ENDROOT
BRANCH   1   2
ATOM      2  C   UNL     1      -1.966  -6.691   2.971  1.00  0.00     0.188 C 
BRANCH   2   3
ATOM      3  C   UNL     1      -2.317  -5.497   3.861  1.00  0.00     0.188 C 
BRANCH   3   4
ATOM      4  O   UNL     1      -3.630  -5.017   3.667  1.00  0.00    -0.376 OA
BRANCH   4   5
ATOM      5  C   UNL     1      -3.836  -3.919   2.787  1.00  0.00     0.202 C 
BRANCH   5   6
ATOM      6  C   UNL     1      -2.693  -3.195   2.050  1.00  0.00     0.261 C 
BRANCH   6   7
ATOM      7  O   UNL     1      -1.745  -3.993   1.300  1.00  0.00    -0.462 OA
BRANCH   7   8
ATOM      8  C   UNL     1      -0.440  -3.850   1.677  1.00  0.00     0.329 C 
ATOM      9  O   UNL     1      -0.098  -3.158   2.636  1.00  0.00    -0.250 OA
BRANCH   8  10
ATOM     10  C   UNL     1       0.606  -4.414   0.698  1.00  0.00     0.198 C 
ATOM     11  N   UNL     1       0.875  -3.396  -0.320  1.00  0.00    -0.325 N 
ATOM     12  C   UNL     1       0.238  -3.517  -1.630  1.00  0.00     0.123 C 
ATOM     13  C   UNL     1       0.420  -4.923  -2.190  1.00  0.00     0.053 C 
ATOM     14  C   UNL     1       0.525  -5.835   0.154  1.00  0.00     0.069 C 
ATOM     15  C   UNL     1      -0.143  -5.948  -1.211  1.00  0.00     0.118 C 
BRANCH  11  16
ATOM     16  C   UNL     1       1.923  -2.522  -0.073  1.00  0.00     0.256 C 
ATOM     17  O   UNL     1       3.002  -2.928   0.353  1.00  0.00    -0.269 OA
BRANCH  16  18
ATOM     18  C   UNL     1       1.683  -1.060  -0.191  1.00  0.00     0.064 A 
ATOM     19  C   UNL     1      -3.261  -0.359  -0.271  1.00  0.00     0.064 C 
ATOM     20  C   UNL     1      -1.819  -0.019  -0.178  1.00  0.00     0.016 A 
ATOM     21  N   UNL     1      -0.856  -0.988  -0.094  1.00  0.00    -0.358 N 
ATOM     22  C   UNL     1      -1.171   1.201  -0.122  1.00  0.00    -0.023 A 
ATOM     23  C   UNL     1       0.409  -0.455  -0.163  1.00  0.00     0.059 A 
ATOM     24  H   UNL     1      -1.046  -1.949   0.004  1.00  0.00     0.166 HD
ATOM     25  C   UNL     1       0.238   0.931  -0.138  1.00  0.00     0.003 A 
ATOM     26  C   UNL     1      -1.804   2.545  -0.072  1.00  0.00     0.047 C 
ATOM     27  C   UNL     1       1.383   1.753  -0.120  1.00  0.00     0.010 A 
ATOM     28  C   UNL     1       2.800  -0.207  -0.175  1.00  0.00     0.016 A 
ATOM     29  C   UNL     1       2.655   1.176  -0.140  1.00  0.00     0.002 A 
ENDBRANCH  16  18
ENDBRANCH  11  16
BRANCH  15  30
ATOM     30  O   UNL     1      -1.548  -5.755  -1.098  1.00  0.00    -0.393 OA
ATOM     31  H   UNL     1      -1.725  -4.863  -0.761  1.00  0.00     0.210 HD
ENDBRANCH  15  30
ENDBRANCH   8  10
ENDBRANCH   7   8
ENDBRANCH   6   7
ENDBRANCH   5   6
ENDBRANCH   4   5
ENDBRANCH   3   4
ENDBRANCH   2   3
ENDBRANCH   1   2
BRANCH   1  32
ATOM     32  C   UNL     1      -3.640  -6.844   1.181  1.00  0.00     0.188 C 
BRANCH  32  33
ATOM     33  C   UNL     1      -4.475  -7.802   2.029  1.00  0.00     0.188 C 
BRANCH  33  34
ATOM     34  O   UNL     1      -3.915  -9.082   2.324  1.00  0.00    -0.376 OA
BRANCH  34  35
ATOM     35  C   UNL     1      -2.953  -9.644   1.437  1.00  0.00     0.202 C 
BRANCH  35  36
ATOM     36  C   UNL     1      -3.542 -10.435   0.274  1.00  0.00     0.261 C 
BRANCH  36  37
ATOM     37  O   UNL     1      -4.155  -9.575  -0.699  1.00  0.00    -0.460 OA
BRANCH  37  38
ATOM     38  C   UNL     1      -5.500  -9.476  -0.604  1.00  0.00     0.338 C 
ATOM     39  O   UNL     1      -6.234 -10.026   0.197  1.00  0.00    -0.246 OA
BRANCH  38  40
ATOM     40  C   UNL     1      -5.991  -8.487  -1.580  1.00  0.00     0.060 A 
ATOM     41  C   UNL     1      -6.952  -7.562  -1.154  1.00  0.00     0.016 A 
ATOM     42  C   UNL     1      -5.598  -8.545  -2.919  1.00  0.00     0.016 A 
ATOM     43  C   UNL     1      -7.577  -6.735  -2.083  1.00  0.00     0.010 A 
ATOM     44  C   UNL     1      -6.228  -7.719  -3.850  1.00  0.00     0.010 A 
ATOM     45  C   UNL     1      -7.252  -6.848  -3.441  1.00  0.00    -0.014 A 
BRANCH  45  46
ATOM     46  C   UNL     1      -8.107  -6.195  -4.457  1.00  0.00     0.031 A 
ATOM     47  C   UNL     1      -9.148  -7.022  -5.158  1.00  0.00     0.074 A 
ATOM     48  C   UNL     1      -7.963  -4.889  -4.737  1.00  0.00     0.049 A 
ATOM     49  N   UNL     1      -9.960  -6.691  -6.128  1.00  0.00    -0.248 NA
ATOM     50  C   UNL     1      -9.287  -8.417  -4.706  1.00  0.00     0.031 C 
ATOM     51  C   UNL     1      -7.016  -3.987  -4.086  1.00  0.00     0.029 A 
ATOM     52  N   UNL     1      -8.610  -4.101  -5.653  1.00  0.00    -0.354 N 
ATOM     53  C   UNL     1     -10.700  -7.834  -6.405  1.00  0.00     0.074 A 
ATOM     54  C   UNL     1     -10.219  -8.877  -5.527  1.00  0.00     0.031 C 
ATOM     55  C   UNL     1      -7.136  -2.765  -4.633  1.00  0.00     0.029 A 
ATOM     56  C   UNL     1      -8.139  -2.813  -5.695  1.00  0.00     0.049 A 
ATOM     57  H   UNL     1      -9.342  -4.427  -6.225  1.00  0.00     0.167 HD
ATOM     58  C   UNL     1     -11.697  -7.992  -7.307  1.00  0.00     0.037 A 
ATOM     59  C   UNL     1      -8.466  -1.800  -6.519  1.00  0.00     0.037 A 
ATOM     60  C   UNL     1     -12.164  -6.947  -8.180  1.00  0.00     0.049 A 
ATOM     61  C   UNL     1      -9.523  -2.026  -7.570  1.00  0.00     0.074 A 
ATOM     62  C   UNL     1     -13.172  -6.996  -9.126  1.00  0.00     0.029 A 
ATOM     63  N   UNL     1     -11.642  -5.661  -8.216  1.00  0.00    -0.354 N 
ATOM     64  N   UNL     1     -10.232  -3.101  -7.818  1.00  0.00    -0.248 NA
ATOM     65  C   UNL     1      -9.827  -0.893  -8.456  1.00  0.00     0.031 C 
ATOM     66  C   UNL     1     -13.224  -5.756  -9.771  1.00  0.00     0.029 A 
ATOM     67  C   UNL     1     -12.290  -4.915  -9.185  1.00  0.00     0.049 A 
ATOM     68  H   UNL     1     -10.918  -5.329  -7.637  1.00  0.00     0.167 HD
ATOM     69  C   UNL     1     -11.085  -2.768  -8.862  1.00  0.00     0.074 A 
ATOM     70  C   UNL     1     -10.813  -1.384  -9.193  1.00  0.00     0.031 C 
ATOM     71  C   UNL     1     -12.010  -3.534  -9.490  1.00  0.00     0.037 A 
BRANCH  58  72
ATOM     72  C   UNL     1     -12.329  -9.350  -7.413  1.00  0.00     0.064 A 
ATOM     73  C   UNL     1     -13.147  -9.866  -6.396  1.00  0.00     0.173 A 
ATOM     74  C   UNL     1     -12.138 -10.136  -8.560  1.00  0.00     0.173 A 
ATOM     75  F   UNL     1     -13.351  -9.163  -5.271  1.00  0.00    -0.203 F 
ATOM     76  C   UNL     1     -13.726 -11.127  -6.511  1.00  0.00     0.198 A 
ATOM     77  C   UNL     1     -12.744 -11.383  -8.686  1.00  0.00     0.198 A 
ATOM     78  F   UNL     1     -11.367  -9.691  -9.564  1.00  0.00    -0.203 F 
ATOM     79  F   UNL     1     -14.463 -11.620  -5.506  1.00  0.00    -0.200 F 
ATOM     80  C   UNL     1     -13.531 -11.881  -7.659  1.00  0.00     0.200 A 
ATOM     81  F   UNL     1     -12.563 -12.105  -9.801  1.00  0.00    -0.200 F 
ATOM     82  F   UNL     1     -14.095 -13.092  -7.772  1.00  0.00    -0.200 F 
ENDBRANCH  58  72
BRANCH  59  83
ATOM     83  C   UNL     1      -7.784  -0.486  -6.391  1.00  0.00     0.064 A 
ATOM     84  C   UNL     1      -8.483   0.651  -5.962  1.00  0.00     0.173 A 
ATOM     85  C   UNL     1      -6.425  -0.336  -6.704  1.00  0.00     0.173 A 
ATOM     86  F   UNL     1      -9.790   0.563  -5.672  1.00  0.00    -0.203 F 
ATOM     87  C   UNL     1      -7.854   1.890  -5.869  1.00  0.00     0.198 A 
ATOM     88  C   UNL     1      -5.789   0.897  -6.582  1.00  0.00     0.198 A 
ATOM     89  F   UNL     1      -5.710  -1.393  -7.118  1.00  0.00    -0.203 F 
ATOM     90  F   UNL     1      -8.557   2.970  -5.501  1.00  0.00    -0.200 F 
ATOM     91  C   UNL     1      -6.506   2.011  -6.173  1.00  0.00     0.200 A 
ATOM     92  F   UNL     1      -4.484   1.006  -6.862  1.00  0.00    -0.200 F 
ATOM     93  F   UNL     1      -5.900   3.203  -6.078  1.00  0.00    -0.200 F 
ENDBRANCH  59  83
BRANCH  71  94
ATOM     94  C   UNL     1     -12.828  -2.882 -10.569  1.00  0.00     0.064 A 
ATOM     95  C   UNL     1     -12.275  -2.539 -11.811  1.00  0.00     0.173 A 
ATOM     96  C   UNL     1     -14.196  -2.639 -10.368  1.00  0.00     0.173 A 
ATOM     97  F   UNL     1     -10.970  -2.739 -12.047  1.00  0.00    -0.203 F 
ATOM     98  C   UNL     1     -13.055  -1.951 -12.803  1.00  0.00     0.198 A 
ATOM     99  C   UNL     1     -14.980  -2.082 -11.374  1.00  0.00     0.198 A 
ATOM    100  F   UNL     1     -14.776  -2.956  -9.201  1.00  0.00    -0.203 F 
ATOM    101  F   UNL     1     -12.494  -1.585 -13.963  1.00  0.00    -0.200 F 
ATOM    102  C   UNL     1     -14.407  -1.730 -12.587  1.00  0.00     0.200 A 
ATOM    103  F   UNL     1     -16.290  -1.885 -11.170  1.00  0.00    -0.200 F 
ATOM    104  F   UNL     1     -15.158  -1.172 -13.547  1.00  0.00    -0.200 F 
ENDBRANCH  71  94
ENDBRANCH  45  46
ENDBRANCH  38  40
ENDBRANCH  37  38
ENDBRANCH  36  37
ENDBRANCH  35  36
ENDBRANCH  34  35
ENDBRANCH  33  34
ENDBRANCH  32  33
ENDBRANCH   1  32
TORSDOF 23
