REMARK SMILES COCCCC(=O)N[C@H]1CC[C@@H](C(=O)OCCOCCOCCOCCOC(=O)c2ccc(-c3c4nc(c(-c5c(F)c(F)c(F)c(F)c5F)c5ccc([nH]5)c(-c5c(F)c(F)c(F)c(F)c5F)c5nc(c(-c6c(F)c(F)c(F)c(F)c6F)c6ccc3[nH]6)C=C5)C=C4)cc2)CC1
REMARK SMILES IDX 19 1 18 2 17 3 16 4 15 5 13 6 14 7 12 8 9 9 10 10 94 11
REMARK SMILES IDX 11 12 93 13 8 14 6 15 7 16 5 18 4 19 3 20 2 21 1 22 20 23
REMARK SMILES IDX 21 24 22 25 23 26 24 27 25 28 26 29 27 30 28 31 29 32 30 33
REMARK SMILES IDX 31 34 92 35 32 36 91 37 33 38 34 39 35 40 85 41 36 42 90 43
REMARK SMILES IDX 84 44 86 45 37 46 89 47 83 48 82 49 38 51 70 52 50 53 69 54
REMARK SMILES IDX 51 55 54 56 68 57 87 58 52 59 53 60 67 62 88 63 55 64 39 65
REMARK SMILES IDX 40 66 48 67 41 68 42 69 46 70 49 71 43 72 44 73 47 74 45 75
REMARK SMILES IDX 71 76 72 77 80 78 73 79 74 80 78 81 81 82 75 83 76 84 79 85
REMARK SMILES IDX 77 86 56 87 57 88 65 89 58 90 59 91 63 92 66 93 60 94 61 95
REMARK SMILES IDX 64 96 62 97
REMARK H PARENT 8 17 86 50 54 61
REMARK Flexibility Score: inf
ROOT
ATOM      1  C   UNL     1      -0.245   6.063   2.405  1.00  0.00     0.188 C 
ENDROOT
BRANCH   1   2
ATOM      2  O   UNL     1      -0.676   5.676   3.691  1.00  0.00    -0.376 OA
BRANCH   2   3
ATOM      3  C   UNL     1      -0.695   4.302   4.046  1.00  0.00     0.202 C 
BRANCH   3   4
ATOM      4  C   UNL     1      -0.754   3.162   3.011  1.00  0.00     0.261 C 
BRANCH   4   5
ATOM      5  O   UNL     1       0.295   3.093   2.013  1.00  0.00    -0.463 OA
BRANCH   5   6
ATOM      6  C   UNL     1      -0.083   3.157   0.712  1.00  0.00     0.309 C 
ATOM      7  O   UNL     1      -1.255   3.258   0.357  1.00  0.00    -0.252 OA
BRANCH   6   8
ATOM      8  C   UNL     1       1.042   3.056  -0.335  1.00  0.00     0.099 C 
ATOM      9  C   UNL     1       3.068   0.923   0.347  1.00  0.00     0.082 C 
ATOM     10  C   UNL     1       1.797   0.582  -0.427  1.00  0.00     0.026 C 
ATOM     11  C   UNL     1       3.120   2.340   0.920  1.00  0.00     0.026 C 
ATOM     12  C   UNL     1       1.003   1.721  -1.080  1.00  0.00     0.017 C 
ATOM     13  C   UNL     1       2.498   3.363  -0.005  1.00  0.00     0.017 C 
BRANCH   9  14
ATOM     14  N   UNL     1       3.472  -0.015   1.412  1.00  0.00    -0.353 N 
ATOM     15  C   UNL     1       2.824  -0.703   2.391  1.00  0.00     0.220 C 
ATOM     16  O   UNL     1       3.437  -0.872   3.451  1.00  0.00    -0.275 OA
ATOM     17  H   UNL     1       4.442  -0.185   1.414  1.00  0.00     0.163 HD
BRANCH  15  18
ATOM     18  C   UNL     1       1.470  -1.363   2.196  1.00  0.00     0.102 C 
BRANCH  18  19
ATOM     19  C   UNL     1       0.298  -0.648   2.874  1.00  0.00     0.038 C 
BRANCH  19  20
ATOM     20  C   UNL     1      -0.812  -0.107   1.968  1.00  0.00     0.160 C 
BRANCH  20  21
ATOM     21  O   UNL     1      -1.595  -1.113   1.340  1.00  0.00    -0.385 OA
ATOM     22  C   UNL     1      -1.180  -1.483   0.035  1.00  0.00     0.194 C 
ENDBRANCH  20  21
ENDBRANCH  19  20
ENDBRANCH  18  19
ENDBRANCH  15  18
ENDBRANCH   9  14
ENDBRANCH   6   8
ENDBRANCH   5   6
ENDBRANCH   4   5
ENDBRANCH   3   4
ENDBRANCH   2   3
ENDBRANCH   1   2
BRANCH   1  23
ATOM     23  C   UNL     1       1.231   5.884   2.045  1.00  0.00     0.188 C 
BRANCH  23  24
ATOM     24  O   UNL     1       1.951   4.885   2.743  1.00  0.00    -0.377 OA
BRANCH  24  25
ATOM     25  C   UNL     1       2.474   5.134   4.041  1.00  0.00     0.188 C 
BRANCH  25  26
ATOM     26  C   UNL     1       2.145   6.442   4.776  1.00  0.00     0.188 C 
BRANCH  26  27
ATOM     27  O   UNL     1       2.071   7.585   3.943  1.00  0.00    -0.376 OA
BRANCH  27  28
ATOM     28  C   UNL     1       3.249   8.342   3.704  1.00  0.00     0.202 C 
BRANCH  28  29
ATOM     29  C   UNL     1       4.468   7.623   3.098  1.00  0.00     0.261 C 
BRANCH  29  30
ATOM     30  O   UNL     1       5.070   6.595   3.904  1.00  0.00    -0.460 OA
BRANCH  30  31
ATOM     31  C   UNL     1       5.447   6.922   5.157  1.00  0.00     0.338 C 
ATOM     32  O   UNL     1       5.429   8.021   5.672  1.00  0.00    -0.246 OA
BRANCH  31  33
ATOM     33  C   UNL     1       5.723   5.673   5.895  1.00  0.00     0.060 A 
ATOM     34  C   UNL     1       4.974   5.408   7.047  1.00  0.00     0.016 A 
ATOM     35  C   UNL     1       6.739   4.803   5.491  1.00  0.00     0.016 A 
ATOM     36  C   UNL     1       5.283   4.304   7.836  1.00  0.00     0.010 A 
ATOM     37  C   UNL     1       7.059   3.703   6.294  1.00  0.00     0.010 A 
ATOM     38  C   UNL     1       6.363   3.478   7.494  1.00  0.00    -0.014 A 
BRANCH  38  39
ATOM     39  C   UNL     1       6.857   2.515   8.508  1.00  0.00     0.031 A 
ATOM     40  C   UNL     1       8.028   2.908   9.368  1.00  0.00     0.074 A 
ATOM     41  C   UNL     1       6.213   1.357   8.729  1.00  0.00     0.049 A 
ATOM     42  N   UNL     1       8.576   2.273  10.372  1.00  0.00    -0.248 NA
ATOM     43  C   UNL     1       8.663   4.199   9.056  1.00  0.00     0.031 C 
ATOM     44  C   UNL     1       5.050   0.884   7.982  1.00  0.00     0.029 A 
ATOM     45  N   UNL     1       6.442   0.374   9.659  1.00  0.00    -0.354 N 
ATOM     46  C   UNL     1       9.615   3.084  10.811  1.00  0.00     0.074 A 
ATOM     47  C   UNL     1       9.647   4.239   9.942  1.00  0.00     0.031 C 
ATOM     48  C   UNL     1       4.660  -0.298   8.488  1.00  0.00     0.029 A 
ATOM     49  C   UNL     1       5.560  -0.675   9.576  1.00  0.00     0.049 A 
ATOM     50  H   UNL     1       7.168   0.417  10.322  1.00  0.00     0.167 HD
ATOM     51  C   UNL     1      10.459   2.888  11.852  1.00  0.00     0.037 A 
ATOM     52  C   UNL     1       5.497  -1.813  10.294  1.00  0.00     0.037 A 
ATOM     53  C   UNL     1      10.426   1.732  12.712  1.00  0.00     0.049 A 
ATOM     54  C   UNL     1       6.483  -2.031  11.414  1.00  0.00     0.074 A 
ATOM     55  C   UNL     1      11.229   1.443  13.802  1.00  0.00     0.029 A 
ATOM     56  N   UNL     1       9.548   0.667  12.571  1.00  0.00    -0.354 N 
ATOM     57  N   UNL     1       7.443  -1.247  11.842  1.00  0.00    -0.248 NA
ATOM     58  C   UNL     1       6.364  -3.292  12.159  1.00  0.00     0.031 C 
ATOM     59  C   UNL     1      10.878   0.176  14.280  1.00  0.00     0.029 A 
ATOM     60  C   UNL     1       9.808  -0.294  13.535  1.00  0.00     0.049 A 
ATOM     61  H   UNL     1       8.843   0.604  11.886  1.00  0.00     0.167 HD
ATOM     62  C   UNL     1       8.024  -1.905  12.919  1.00  0.00     0.074 A 
ATOM     63  C   UNL     1       7.289  -3.140  13.095  1.00  0.00     0.031 C 
ATOM     64  C   UNL     1       9.073  -1.524  13.693  1.00  0.00     0.037 A 
BRANCH  51  65
ATOM     65  C   UNL     1      11.514   3.930  12.095  1.00  0.00     0.064 A 
ATOM     66  C   UNL     1      11.197   5.214  12.565  1.00  0.00     0.173 A 
ATOM     67  C   UNL     1      12.868   3.630  11.877  1.00  0.00     0.173 A 
ATOM     68  F   UNL     1       9.918   5.561  12.774  1.00  0.00    -0.203 F 
ATOM     69  C   UNL     1      12.192   6.166  12.778  1.00  0.00     0.198 A 
ATOM     70  C   UNL     1      13.862   4.572  12.123  1.00  0.00     0.198 A 
ATOM     71  F   UNL     1      13.228   2.417  11.431  1.00  0.00    -0.203 F 
ATOM     72  F   UNL     1      11.861   7.403  13.174  1.00  0.00    -0.200 F 
ATOM     73  C   UNL     1      13.524   5.842  12.565  1.00  0.00     0.200 A 
ATOM     74  F   UNL     1      15.149   4.253  11.929  1.00  0.00    -0.200 F 
ATOM     75  F   UNL     1      14.480   6.757  12.777  1.00  0.00    -0.200 F 
ENDBRANCH  51  65
BRANCH  52  76
ATOM     76  C   UNL     1       4.466  -2.836   9.976  1.00  0.00     0.064 A 
ATOM     77  C   UNL     1       3.434  -3.138  10.875  1.00  0.00     0.173 A 
ATOM     78  C   UNL     1       4.508  -3.552   8.770  1.00  0.00     0.173 A 
ATOM     79  F   UNL     1       3.366  -2.503  12.055  1.00  0.00    -0.203 F 
ATOM     80  C   UNL     1       2.498  -4.130  10.590  1.00  0.00     0.198 A 
ATOM     81  C   UNL     1       3.552  -4.520   8.471  1.00  0.00     0.198 A 
ATOM     82  F   UNL     1       5.481  -3.310   7.879  1.00  0.00    -0.203 F 
ATOM     83  F   UNL     1       1.556  -4.439  11.493  1.00  0.00    -0.200 F 
ATOM     84  C   UNL     1       2.552  -4.815   9.385  1.00  0.00     0.200 A 
ATOM     85  F   UNL     1       3.604  -5.174   7.303  1.00  0.00    -0.200 F 
ATOM     86  F   UNL     1       1.651  -5.768   9.112  1.00  0.00    -0.200 F 
ENDBRANCH  52  76
BRANCH  64  87
ATOM     87  C   UNL     1       9.460  -2.443  14.820  1.00  0.00     0.064 A 
ATOM     88  C   UNL     1      10.014  -3.711  14.586  1.00  0.00     0.173 A 
ATOM     89  C   UNL     1       9.269  -2.049  16.154  1.00  0.00     0.173 A 
ATOM     90  F   UNL     1      10.209  -4.142  13.331  1.00  0.00    -0.203 F 
ATOM     91  C   UNL     1      10.310  -4.570  15.642  1.00  0.00     0.198 A 
ATOM     92  C   UNL     1       9.605  -2.895  17.208  1.00  0.00     0.198 A 
ATOM     93  F   UNL     1       8.757  -0.843  16.438  1.00  0.00    -0.203 F 
ATOM     94  F   UNL     1      10.764  -5.806  15.390  1.00  0.00    -0.200 F 
ATOM     95  C   UNL     1      10.109  -4.160  16.951  1.00  0.00     0.200 A 
ATOM     96  F   UNL     1       9.428  -2.489  18.473  1.00  0.00    -0.200 F 
ATOM     97  F   UNL     1      10.389  -4.990  17.965  1.00  0.00    -0.200 F 
ENDBRANCH  64  87
ENDBRANCH  38  39
ENDBRANCH  31  33
ENDBRANCH  30  31
ENDBRANCH  29  30
ENDBRANCH  28  29
ENDBRANCH  27  28
ENDBRANCH  26  27
ENDBRANCH  25  26
ENDBRANCH  24  25
ENDBRANCH  23  24
ENDBRANCH   1  23
TORSDOF 25
