REMARK SMILES O=C(Cc1cc(=O)[nH]c(=O)[nH]1)Nc1cccc(C(=O)OCCOCCOCCOCCOC(=O)c2ccc(-c3c4nc(c(-c5c(F)c(F)c(F)c(F)c5F)c5ccc([nH]5)c(-c5c(F)c(F)c(F)c(F)c5F)c5nc(c(-c6c(F)c(F)c(F)c(F)c6F)c6ccc3[nH]6)C=C5)C=C4)cc2)c1
REMARK SMILES IDX 25 1 24 2 23 3 22 4 21 5 20 6 18 7 19 8 17 9 13 10 14 11
REMARK SMILES IDX 98 12 15 13 16 14 12 15 1 16 2 17 3 19 4 20 5 21 11 22 6 23
REMARK SMILES IDX 9 24 7 26 8 27 10 28 26 30 27 31 28 32 29 33 30 34 31 35
REMARK SMILES IDX 32 36 33 37 34 38 35 39 36 40 97 41 37 42 96 43 38 44 39 45
REMARK SMILES IDX 40 46 90 47 41 48 95 49 89 50 91 51 42 52 94 53 88 54 87 55
REMARK SMILES IDX 43 57 75 58 55 59 74 60 56 61 59 62 73 63 92 64 57 65 58 66
REMARK SMILES IDX 72 68 93 69 60 70 44 71 45 72 53 73 46 74 47 75 51 76 54 77
REMARK SMILES IDX 48 78 49 79 52 80 50 81 76 82 77 83 85 84 78 85 79 86 83 87
REMARK SMILES IDX 86 88 80 89 81 90 84 91 82 92 61 93 62 94 70 95 63 96 64 97
REMARK SMILES IDX 68 98 71 99 65 100 66 101 69 102 67 103
REMARK H PARENT 12 18 11 25 8 29 91 56 59 67
REMARK Flexibility Score: inf
ROOT
ATOM      1  C   UNL     1       0.830   4.323  -3.980  1.00  0.00     0.188 C 
ENDROOT
BRANCH   1   2
ATOM      2  C   UNL     1      -0.446   4.202  -4.844  1.00  0.00     0.188 C 
BRANCH   2   3
ATOM      3  O   UNL     1      -1.527   4.991  -4.383  1.00  0.00    -0.376 OA
BRANCH   3   4
ATOM      4  C   UNL     1      -2.666   4.355  -3.838  1.00  0.00     0.202 C 
BRANCH   4   5
ATOM      5  C   UNL     1      -2.490   3.471  -2.598  1.00  0.00     0.261 C 
BRANCH   5   6
ATOM      6  O   UNL     1      -1.361   2.595  -2.608  1.00  0.00    -0.460 OA
BRANCH   6   7
ATOM      7  C   UNL     1      -1.417   1.496  -3.393  1.00  0.00     0.338 C 
ATOM      8  O   UNL     1      -2.338   1.160  -4.120  1.00  0.00    -0.246 OA
BRANCH   7   9
ATOM      9  C   UNL     1      -0.061   0.898  -3.394  1.00  0.00     0.062 A 
ATOM     10  C   UNL     1       1.974   0.343  -2.201  1.00  0.00     0.042 A 
ATOM     11  C   UNL     1       2.594   0.057  -3.424  1.00  0.00     0.026 A 
ATOM     12  C   UNL     1       0.656   0.796  -2.197  1.00  0.00     0.041 A 
ATOM     13  C   UNL     1       1.876   0.151  -4.622  1.00  0.00     0.003 A 
ATOM     14  C   UNL     1       0.540   0.552  -4.607  1.00  0.00     0.016 A 
BRANCH  10  15
ATOM     15  N   UNL     1       2.717   0.160  -1.016  1.00  0.00    -0.326 N 
ATOM     16  O   UNL     1       0.992   0.090   0.556  1.00  0.00    -0.274 OA
ATOM     17  C   UNL     1       2.184   0.070   0.263  1.00  0.00     0.230 C 
ATOM     18  H   UNL     1       3.695   0.090  -1.103  1.00  0.00     0.169 HD
BRANCH  17  19
ATOM     19  C   UNL     1       3.232  -0.098   1.353  1.00  0.00     0.154 C 
BRANCH  19  20
ATOM     20  C   UNL     1       3.977  -1.395   1.195  1.00  0.00     0.034 A 
ATOM     21  C   UNL     1       3.389  -2.597   1.289  1.00  0.00     0.093 A 
ATOM     22  N   UNL     1       5.327  -1.318   0.946  1.00  0.00    -0.311 N 
ATOM     23  C   UNL     1       4.201  -3.817   1.111  1.00  0.00     0.253 A 
ATOM     24  C   UNL     1       6.138  -2.405   0.770  1.00  0.00     0.325 A 
ATOM     25  H   UNL     1       5.735  -0.424   0.890  1.00  0.00     0.171 HD
ATOM     26  O   UNL     1       3.695  -4.930   1.184  1.00  0.00    -0.269 OA
ATOM     27  N   UNL     1       5.529  -3.621   0.859  1.00  0.00    -0.274 N 
ATOM     28  O   UNL     1       7.335  -2.278   0.539  1.00  0.00    -0.248 OA
ATOM     29  H   UNL     1       6.089  -4.420   0.732  1.00  0.00     0.175 HD
ENDBRANCH  19  20
ENDBRANCH  17  19
ENDBRANCH  10  15
ENDBRANCH   7   9
ENDBRANCH   6   7
ENDBRANCH   5   6
ENDBRANCH   4   5
ENDBRANCH   3   4
ENDBRANCH   2   3
ENDBRANCH   1   2
BRANCH   1  30
ATOM     30  O   UNL     1       0.797   5.050  -2.758  1.00  0.00    -0.377 OA
BRANCH  30  31
ATOM     31  C   UNL     1       0.103   6.292  -2.685  1.00  0.00     0.188 C 
BRANCH  31  32
ATOM     32  C   UNL     1      -0.016   7.219  -3.919  1.00  0.00     0.188 C 
BRANCH  32  33
ATOM     33  O   UNL     1       0.679   6.765  -5.066  1.00  0.00    -0.376 OA
BRANCH  33  34
ATOM     34  C   UNL     1       1.853   7.456  -5.448  1.00  0.00     0.202 C 
BRANCH  34  35
ATOM     35  C   UNL     1       3.027   7.437  -4.459  1.00  0.00     0.261 C 
BRANCH  35  36
ATOM     36  O   UNL     1       2.728   7.849  -3.116  1.00  0.00    -0.460 OA
BRANCH  36  37
ATOM     37  C   UNL     1       2.394   9.143  -2.935  1.00  0.00     0.338 C 
ATOM     38  O   UNL     1       2.327  10.016  -3.787  1.00  0.00    -0.246 OA
BRANCH  37  39
ATOM     39  C   UNL     1       1.935   9.304  -1.542  1.00  0.00     0.060 A 
ATOM     40  C   UNL     1       0.629   9.752  -1.306  1.00  0.00     0.016 A 
ATOM     41  C   UNL     1       2.793   9.023  -0.476  1.00  0.00     0.016 A 
ATOM     42  C   UNL     1       0.194   9.970  -0.000  1.00  0.00     0.010 A 
ATOM     43  C   UNL     1       2.362   9.260   0.832  1.00  0.00     0.010 A 
ATOM     44  C   UNL     1       1.076   9.776   1.072  1.00  0.00    -0.014 A 
BRANCH  44  45
ATOM     45  C   UNL     1       0.715  10.312   2.407  1.00  0.00     0.031 A 
ATOM     46  C   UNL     1       1.280  11.644   2.819  1.00  0.00     0.074 A 
ATOM     47  C   UNL     1      -0.138   9.658   3.215  1.00  0.00     0.049 A 
ATOM     48  N   UNL     1       1.102  12.320   3.925  1.00  0.00    -0.248 NA
ATOM     49  C   UNL     1       2.169  12.304   1.849  1.00  0.00     0.031 C 
ATOM     50  C   UNL     1      -0.776   8.380   2.913  1.00  0.00     0.029 A 
ATOM     51  N   UNL     1      -0.613   9.989   4.460  1.00  0.00    -0.354 N 
ATOM     52  C   UNL     1       1.858  13.477   3.785  1.00  0.00     0.074 A 
ATOM     53  C   UNL     1       2.528  13.396   2.506  1.00  0.00     0.031 C 
ATOM     54  C   UNL     1      -1.558   8.029   3.949  1.00  0.00     0.029 A 
ATOM     55  C   UNL     1      -1.451   9.043   4.996  1.00  0.00     0.049 A 
ATOM     56  H   UNL     1      -0.374  10.824   4.923  1.00  0.00     0.167 HD
ATOM     57  C   UNL     1       1.975  14.519   4.643  1.00  0.00     0.037 A 
ATOM     58  C   UNL     1      -2.048   8.999   6.203  1.00  0.00     0.037 A 
ATOM     59  C   UNL     1       1.307  14.597   5.915  1.00  0.00     0.049 A 
ATOM     60  C   UNL     1      -1.855  10.146   7.164  1.00  0.00     0.074 A 
ATOM     61  C   UNL     1       1.344  15.617   6.848  1.00  0.00     0.029 A 
ATOM     62  N   UNL     1       0.488  13.606   6.439  1.00  0.00    -0.354 N 
ATOM     63  N   UNL     1      -1.164  11.251   7.013  1.00  0.00    -0.248 NA
ATOM     64  C   UNL     1      -2.538  10.043   8.461  1.00  0.00     0.031 C 
ATOM     65  C   UNL     1       0.602  15.217   7.965  1.00  0.00     0.029 A 
ATOM     66  C   UNL     1       0.038  13.980   7.696  1.00  0.00     0.049 A 
ATOM     67  H   UNL     1       0.261  12.763   5.985  1.00  0.00     0.167 HD
ATOM     68  C   UNL     1      -1.359  11.988   8.176  1.00  0.00     0.074 A 
ATOM     69  C   UNL     1      -2.248  11.211   9.014  1.00  0.00     0.031 C 
ATOM     70  C   UNL     1      -0.850  13.198   8.519  1.00  0.00     0.037 A 
BRANCH  57  71
ATOM     71  C   UNL     1       2.888  15.645   4.247  1.00  0.00     0.064 A 
ATOM     72  C   UNL     1       2.580  16.516   3.190  1.00  0.00     0.173 A 
ATOM     73  C   UNL     1       4.075  15.875   4.958  1.00  0.00     0.173 A 
ATOM     74  F   UNL     1       1.466  16.332   2.465  1.00  0.00    -0.203 F 
ATOM     75  C   UNL     1       3.440  17.556   2.844  1.00  0.00     0.198 A 
ATOM     76  C   UNL     1       4.915  16.937   4.632  1.00  0.00     0.198 A 
ATOM     77  F   UNL     1       4.418  15.074   5.978  1.00  0.00    -0.203 F 
ATOM     78  F   UNL     1       3.151  18.342   1.797  1.00  0.00    -0.200 F 
ATOM     79  C   UNL     1       4.601  17.771   3.571  1.00  0.00     0.200 A 
ATOM     80  F   UNL     1       6.029  17.151   5.345  1.00  0.00    -0.200 F 
ATOM     81  F   UNL     1       5.422  18.778   3.243  1.00  0.00    -0.200 F 
ENDBRANCH  57  71
BRANCH  58  82
ATOM     82  C   UNL     1      -2.881   7.826   6.582  1.00  0.00     0.064 A 
ATOM     83  C   UNL     1      -4.262   7.948   6.789  1.00  0.00     0.173 A 
ATOM     84  C   UNL     1      -2.303   6.562   6.779  1.00  0.00     0.173 A 
ATOM     85  F   UNL     1      -4.859   9.140   6.640  1.00  0.00    -0.203 F 
ATOM     86  C   UNL     1      -5.028   6.860   7.205  1.00  0.00     0.198 A 
ATOM     87  C   UNL     1      -3.076   5.467   7.161  1.00  0.00     0.198 A 
ATOM     88  F   UNL     1      -0.986   6.389   6.598  1.00  0.00    -0.203 F 
ATOM     89  F   UNL     1      -6.335   7.021   7.455  1.00  0.00    -0.200 F 
ATOM     90  C   UNL     1      -4.435   5.620   7.385  1.00  0.00     0.200 A 
ATOM     91  F   UNL     1      -2.501   4.268   7.321  1.00  0.00    -0.200 F 
ATOM     92  F   UNL     1      -5.172   4.574   7.785  1.00  0.00    -0.200 F 
ENDBRANCH  58  82
BRANCH  70  93
ATOM     93  C   UNL     1      -1.286  13.781   9.837  1.00  0.00     0.064 A 
ATOM     94  C   UNL     1      -0.907  13.215  11.064  1.00  0.00     0.173 A 
ATOM     95  C   UNL     1      -2.091  14.931   9.870  1.00  0.00     0.173 A 
ATOM     96  F   UNL     1      -0.146  12.110  11.092  1.00  0.00    -0.203 F 
ATOM     97  C   UNL     1      -1.359  13.747  12.269  1.00  0.00     0.198 A 
ATOM     98  C   UNL     1      -2.506  15.485  11.078  1.00  0.00     0.198 A 
ATOM     99  F   UNL     1      -2.472  15.524   8.728  1.00  0.00    -0.203 F 
ATOM    100  F   UNL     1      -1.046  13.144  13.424  1.00  0.00    -0.200 F 
ATOM    101  C   UNL     1      -2.153  14.884  12.275  1.00  0.00     0.200 A 
ATOM    102  F   UNL     1      -3.256  16.596  11.081  1.00  0.00    -0.200 F 
ATOM    103  F   UNL     1      -2.588  15.393  13.436  1.00  0.00    -0.200 F 
ENDBRANCH  70  93
ENDBRANCH  44  45
ENDBRANCH  37  39
ENDBRANCH  36  37
ENDBRANCH  35  36
ENDBRANCH  34  35
ENDBRANCH  33  34
ENDBRANCH  32  33
ENDBRANCH  31  32
ENDBRANCH  30  31
ENDBRANCH   1  30
TORSDOF 23
