REMARK SMILES O=C(OCCOCCOCCOCCOC(=O)c1ccc2nc(Cl)sc2c1)c1ccc(-c2c3nc(c(-c4c(F)c(F)c(F)c(F)c4F)c4ccc([nH]4)c(-c4c(F)c(F)c(F)c(F)c4F)c4nc(c(-c5c(F)c(F)c(F)c(F)c5F)c5ccc2[nH]5)C=C4)C=C3)cc1
REMARK SMILES IDX 8 1 7 2 6 3 5 4 4 5 3 6 2 7 1 8 28 9 29 10 90 11 30 12 89 13
REMARK SMILES IDX 31 14 32 15 33 16 83 17 34 18 88 19 82 20 84 21 35 22 87 23
REMARK SMILES IDX 81 24 80 25 36 27 68 28 48 29 67 30 49 31 52 32 66 33 85 34
REMARK SMILES IDX 50 35 51 36 65 38 86 39 53 40 37 41 38 42 46 43 39 44 40 45
REMARK SMILES IDX 44 46 47 47 41 48 42 49 45 50 43 51 69 52 70 53 78 54 71 55
REMARK SMILES IDX 72 56 76 57 79 58 73 59 74 60 77 61 75 62 54 63 55 64 63 65
REMARK SMILES IDX 56 66 57 67 61 68 64 69 58 70 59 71 62 72 60 73 9 74 10 75
REMARK SMILES IDX 11 76 12 77 13 78 14 79 15 80 16 81 17 82 18 83 19 84 27 85
REMARK SMILES IDX 20 86 26 87 21 88 25 89 22 90 23 91 24 92
REMARK H PARENT 84 26 52 37
REMARK Flexibility Score: inf
ROOT
ATOM      1  C   UNL     1       1.908   1.492   2.039  1.00  0.00     0.188 C 
ENDROOT
BRANCH   1   2
ATOM      2  C   UNL     1       2.390   1.031   0.656  1.00  0.00     0.188 C 
BRANCH   2   3
ATOM      3  O   UNL     1       3.653   0.379   0.762  1.00  0.00    -0.376 OA
BRANCH   3   4
ATOM      4  C   UNL     1       4.584   0.590  -0.295  1.00  0.00     0.202 C 
BRANCH   4   5
ATOM      5  C   UNL     1       4.174  -0.092  -1.595  1.00  0.00     0.261 C 
BRANCH   5   6
ATOM      6  O   UNL     1       4.037  -1.495  -1.327  1.00  0.00    -0.460 OA
BRANCH   6   7
ATOM      7  C   UNL     1       2.761  -1.885  -1.091  1.00  0.00     0.338 C 
ATOM      8  O   UNL     1       1.773  -1.531  -1.712  1.00  0.00    -0.246 OA
BRANCH   7   9
ATOM      9  C   UNL     1       2.713  -2.719   0.133  1.00  0.00     0.060 A 
ATOM     10  C   UNL     1       1.624  -3.564   0.356  1.00  0.00     0.016 A 
ATOM     11  C   UNL     1       3.688  -2.570   1.122  1.00  0.00     0.016 A 
ATOM     12  C   UNL     1       1.555  -4.307   1.539  1.00  0.00     0.010 A 
ATOM     13  C   UNL     1       3.579  -3.247   2.323  1.00  0.00     0.010 A 
ATOM     14  C   UNL     1       2.550  -4.171   2.522  1.00  0.00    -0.014 A 
BRANCH  14  15
ATOM     15  C   UNL     1       2.657  -5.154   3.620  1.00  0.00     0.031 A 
ATOM     16  C   UNL     1       4.060  -5.429   4.086  1.00  0.00     0.074 A 
ATOM     17  C   UNL     1       1.647  -5.432   4.466  1.00  0.00     0.049 A 
ATOM     18  N   UNL     1       4.664  -4.726   5.005  1.00  0.00    -0.248 NA
ATOM     19  C   UNL     1       4.963  -6.283   3.312  1.00  0.00     0.031 C 
ATOM     20  C   UNL     1       0.741  -4.421   5.016  1.00  0.00     0.029 A 
ATOM     21  N   UNL     1       1.398  -6.564   5.207  1.00  0.00    -0.354 N 
ATOM     22  C   UNL     1       6.020  -4.986   4.894  1.00  0.00     0.074 A 
ATOM     23  C   UNL     1       6.155  -5.974   3.845  1.00  0.00     0.031 C 
ATOM     24  C   UNL     1       0.169  -4.925   6.130  1.00  0.00     0.029 A 
ATOM     25  C   UNL     1       0.553  -6.328   6.285  1.00  0.00     0.049 A 
ATOM     26  H   UNL     1       1.778  -7.447   4.996  1.00  0.00     0.167 HD
ATOM     27  C   UNL     1       6.972  -4.364   5.641  1.00  0.00     0.037 A 
ATOM     28  C   UNL     1       0.619  -6.997   7.469  1.00  0.00     0.037 A 
ATOM     29  C   UNL     1       6.510  -3.395   6.586  1.00  0.00     0.049 A 
ATOM     30  C   UNL     1       1.863  -6.384   8.066  1.00  0.00     0.074 A 
ATOM     31  C   UNL     1       6.403  -2.025   6.681  1.00  0.00     0.029 A 
ATOM     32  N   UNL     1       5.998  -3.856   7.775  1.00  0.00    -0.354 N 
ATOM     33  N   UNL     1       1.954  -5.224   8.661  1.00  0.00    -0.248 NA
ATOM     34  C   UNL     1       3.147  -6.973   7.675  1.00  0.00     0.031 C 
ATOM     35  C   UNL     1       5.407  -1.789   7.686  1.00  0.00     0.029 A 
ATOM     36  C   UNL     1       4.946  -3.039   8.092  1.00  0.00     0.049 A 
ATOM     37  H   UNL     1       6.324  -4.625   8.297  1.00  0.00     0.167 HD
ATOM     38  C   UNL     1       3.282  -4.825   8.487  1.00  0.00     0.074 A 
ATOM     39  C   UNL     1       3.968  -5.961   7.911  1.00  0.00     0.031 C 
ATOM     40  C   UNL     1       3.710  -3.541   8.639  1.00  0.00     0.037 A 
BRANCH  27  41
ATOM     41  C   UNL     1       8.389  -4.773   5.683  1.00  0.00     0.064 A 
ATOM     42  C   UNL     1       8.786  -5.609   6.738  1.00  0.00     0.173 A 
ATOM     43  C   UNL     1       9.378  -4.215   4.870  1.00  0.00     0.173 A 
ATOM     44  F   UNL     1       7.859  -6.146   7.550  1.00  0.00    -0.203 F 
ATOM     45  C   UNL     1      10.128  -5.849   7.000  1.00  0.00     0.198 A 
ATOM     46  C   UNL     1      10.727  -4.468   5.128  1.00  0.00     0.198 A 
ATOM     47  F   UNL     1       9.046  -3.398   3.860  1.00  0.00    -0.203 F 
ATOM     48  F   UNL     1      10.475  -6.612   8.045  1.00  0.00    -0.200 F 
ATOM     49  C   UNL     1      11.100  -5.271   6.199  1.00  0.00     0.200 A 
ATOM     50  F   UNL     1      11.672  -3.909   4.359  1.00  0.00    -0.200 F 
ATOM     51  F   UNL     1      12.396  -5.479   6.469  1.00  0.00    -0.200 F 
ENDBRANCH  27  41
BRANCH  28  52
ATOM     52  C   UNL     1       0.392  -8.481   7.402  1.00  0.00     0.064 A 
ATOM     53  C   UNL     1      -0.712  -8.966   6.669  1.00  0.00     0.173 A 
ATOM     54  C   UNL     1       1.188  -9.455   8.024  1.00  0.00     0.173 A 
ATOM     55  F   UNL     1      -1.602  -8.110   6.142  1.00  0.00    -0.203 F 
ATOM     56  C   UNL     1      -0.922 -10.330   6.458  1.00  0.00     0.198 A 
ATOM     57  C   UNL     1       0.997 -10.820   7.790  1.00  0.00     0.198 A 
ATOM     58  F   UNL     1       2.177  -9.111   8.859  1.00  0.00    -0.203 F 
ATOM     59  F   UNL     1      -1.962 -10.740   5.721  1.00  0.00    -0.200 F 
ATOM     60  C   UNL     1      -0.045 -11.256   6.991  1.00  0.00     0.200 A 
ATOM     61  F   UNL     1       1.845 -11.710   8.324  1.00  0.00    -0.200 F 
ATOM     62  F   UNL     1      -0.206 -12.562   6.743  1.00  0.00    -0.200 F 
ENDBRANCH  28  52
BRANCH  40  63
ATOM     63  C   UNL     1       2.707  -2.584   9.172  1.00  0.00     0.064 A 
ATOM     64  C   UNL     1       2.416  -2.556  10.538  1.00  0.00     0.173 A 
ATOM     65  C   UNL     1       2.080  -1.648   8.339  1.00  0.00     0.173 A 
ATOM     66  F   UNL     1       2.993  -3.436  11.371  1.00  0.00    -0.203 F 
ATOM     67  C   UNL     1       1.557  -1.594  11.060  1.00  0.00     0.198 A 
ATOM     68  C   UNL     1       1.241  -0.673   8.866  1.00  0.00     0.198 A 
ATOM     69  F   UNL     1       2.306  -1.650   7.017  1.00  0.00    -0.203 F 
ATOM     70  F   UNL     1       1.304  -1.568  12.376  1.00  0.00    -0.200 F 
ATOM     71  C   UNL     1       0.985  -0.643  10.227  1.00  0.00     0.200 A 
ATOM     72  F   UNL     1       0.706   0.255   8.059  1.00  0.00    -0.200 F 
ATOM     73  F   UNL     1       0.197   0.313  10.739  1.00  0.00    -0.200 F 
ENDBRANCH  40  63
ENDBRANCH  14  15
ENDBRANCH   7   9
ENDBRANCH   6   7
ENDBRANCH   5   6
ENDBRANCH   4   5
ENDBRANCH   3   4
ENDBRANCH   2   3
ENDBRANCH   1   2
BRANCH   1  74
ATOM     74  O   UNL     1       2.641   2.571   2.633  1.00  0.00    -0.377 OA
BRANCH  74  75
ATOM     75  C   UNL     1       4.063   2.511   2.551  1.00  0.00     0.188 C 
BRANCH  75  76
ATOM     76  C   UNL     1       4.792   1.347   3.257  1.00  0.00     0.188 C 
BRANCH  76  77
ATOM     77  O   UNL     1       3.947   0.253   3.536  1.00  0.00    -0.376 OA
BRANCH  77  78
ATOM     78  C   UNL     1       3.557   0.040   4.883  1.00  0.00     0.202 C 
BRANCH  78  79
ATOM     79  C   UNL     1       3.000   1.184   5.758  1.00  0.00     0.261 C 
BRANCH  79  80
ATOM     80  O   UNL     1       3.475   2.513   5.500  1.00  0.00    -0.460 OA
BRANCH  80  81
ATOM     81  C   UNL     1       4.594   2.931   6.146  1.00  0.00     0.338 C 
ATOM     82  O   UNL     1       5.279   2.306   6.911  1.00  0.00    -0.246 OA
BRANCH  81  83
ATOM     83  C   UNL     1       4.955   4.248   5.552  1.00  0.00     0.061 A 
ATOM     84  C   UNL     1       4.069   5.324   5.604  1.00  0.00     0.018 A 
ATOM     85  C   UNL     1       6.162   4.336   4.840  1.00  0.00     0.037 A 
ATOM     86  C   UNL     1       4.369   6.515   4.927  1.00  0.00     0.031 A 
ATOM     87  C   UNL     1       6.415   5.514   4.116  1.00  0.00     0.057 A 
ATOM     88  C   UNL     1       5.544   6.609   4.151  1.00  0.00     0.083 A 
ATOM     89  S   UNL     1       7.727   5.878   3.055  1.00  0.00    -0.102 S 
ATOM     90  N   UNL     1       5.931   7.700   3.390  1.00  0.00    -0.225 NA
ATOM     91  C   UNL     1       7.052   7.409   2.782  1.00  0.00     0.184 A 
ATOM     92  Cl  UNL     1       7.840   8.514   1.731  1.00  0.00    -0.050 Cl
ENDBRANCH  81  83
ENDBRANCH  80  81
ENDBRANCH  79  80
ENDBRANCH  78  79
ENDBRANCH  77  78
ENDBRANCH  76  77
ENDBRANCH  75  76
ENDBRANCH  74  75
ENDBRANCH   1  74
TORSDOF 20
