REMARK SMILES Cc1ccc2c(c1)C=C(C(=O)OCCOCCOCCOCCOC(=O)c1ccc(-c3c4nc(c(-c5c(F)c(F)c(F)c(F)c5F)c5ccc([nH]5)c(-c5c(F)c(F)c(F)c(F)c5F)c5nc(c(-c6c(F)c(F)c(F)c(F)c6F)c6ccc3[nH]6)C=C5)C=C4)cc1)[C@@H](C(F)(F)F)O2
REMARK SMILES IDX 19 1 18 2 17 3 16 4 15 5 14 6 13 7 12 8 10 9 11 10 9 11 1 12
REMARK SMILES IDX 2 13 3 14 7 15 4 16 6 17 5 18 8 19 95 20 90 21 91 22 92 23
REMARK SMILES IDX 93 24 94 25 20 26 21 27 22 28 23 29 24 30 25 31 26 32 27 33
REMARK SMILES IDX 28 34 89 35 29 36 88 37 30 38 31 39 32 40 82 41 33 42 87 43
REMARK SMILES IDX 81 44 83 45 34 46 86 47 80 48 79 49 35 51 67 52 47 53 66 54
REMARK SMILES IDX 48 55 51 56 65 57 84 58 49 59 50 60 64 62 85 63 52 64 36 65
REMARK SMILES IDX 37 66 45 67 38 68 39 69 43 70 46 71 40 72 41 73 44 74 42 75
REMARK SMILES IDX 68 76 69 77 77 78 70 79 71 80 75 81 78 82 72 83 73 84 76 85
REMARK SMILES IDX 74 86 53 87 54 88 62 89 55 90 56 91 60 92 63 93 57 94 58 95
REMARK SMILES IDX 61 96 59 97
REMARK H PARENT 83 50 51 61
REMARK Flexibility Score: inf
ROOT
ATOM      1  C   UNL     1       3.762   9.483   1.855  1.00  0.00     0.188 C 
ENDROOT
BRANCH   1   2
ATOM      2  O   UNL     1       2.781   8.566   1.369  1.00  0.00    -0.377 OA
BRANCH   2   3
ATOM      3  C   UNL     1       3.227   7.288   0.944  1.00  0.00     0.188 C 
BRANCH   3   4
ATOM      4  C   UNL     1       3.815   7.297  -0.478  1.00  0.00     0.188 C 
BRANCH   4   5
ATOM      5  O   UNL     1       4.021   8.614  -0.989  1.00  0.00    -0.376 OA
BRANCH   5   6
ATOM      6  C   UNL     1       3.072   9.096  -1.933  1.00  0.00     0.202 C 
BRANCH   6   7
ATOM      7  C   UNL     1       1.658   9.382  -1.404  1.00  0.00     0.261 C 
BRANCH   7   8
ATOM      8  O   UNL     1       0.993   8.256  -0.813  1.00  0.00    -0.460 OA
BRANCH   8   9
ATOM      9  C   UNL     1       0.695   7.215  -1.615  1.00  0.00     0.338 C 
ATOM     10  O   UNL     1       0.873   7.149  -2.818  1.00  0.00    -0.246 OA
BRANCH   9  11
ATOM     11  C   UNL     1       0.260   6.090  -0.759  1.00  0.00     0.087 C 
ATOM     12  C   UNL     1       0.919   0.012   0.028  1.00  0.00     0.044 C 
ATOM     13  C   UNL     1       0.432   1.395   0.343  1.00  0.00    -0.050 A 
ATOM     14  C   UNL     1      -0.496   1.615   1.366  1.00  0.00     0.007 A 
ATOM     15  C   UNL     1       0.871   2.483  -0.425  1.00  0.00     0.015 A 
ATOM     16  C   UNL     1      -0.958   2.906   1.632  1.00  0.00     0.047 A 
ATOM     17  C   UNL     1       0.381   3.773  -0.183  1.00  0.00     0.017 A 
ATOM     18  C   UNL     1      -0.519   3.983   0.862  1.00  0.00     0.128 A 
ATOM     19  C   UNL     1       0.769   4.883  -1.037  1.00  0.00     0.027 C 
ATOM     20  O   UNL     1      -1.033   5.203   1.192  1.00  0.00    -0.475 OA
ATOM     21  C   UNL     1      -0.651   6.368   0.411  1.00  0.00     0.316 C 
BRANCH  21  22
ATOM     22  C   UNL     1      -1.935   7.096  -0.014  1.00  0.00     0.430 C 
ATOM     23  F   UNL     1      -2.765   7.287   1.039  1.00  0.00    -0.167 F 
ATOM     24  F   UNL     1      -1.679   8.322  -0.528  1.00  0.00    -0.167 F 
ATOM     25  F   UNL     1      -2.621   6.403  -0.952  1.00  0.00    -0.167 F 
ENDBRANCH  21  22
ENDBRANCH   9  11
ENDBRANCH   8   9
ENDBRANCH   7   8
ENDBRANCH   6   7
ENDBRANCH   5   6
ENDBRANCH   4   5
ENDBRANCH   3   4
ENDBRANCH   2   3
ENDBRANCH   1   2
BRANCH   1  26
ATOM     26  C   UNL     1       5.263   9.336   1.516  1.00  0.00     0.188 C 
BRANCH  26  27
ATOM     27  O   UNL     1       5.767   8.012   1.675  1.00  0.00    -0.376 OA
BRANCH  27  28
ATOM     28  C   UNL     1       6.641   7.787   2.773  1.00  0.00     0.202 C 
BRANCH  28  29
ATOM     29  C   UNL     1       5.914   7.638   4.115  1.00  0.00     0.261 C 
BRANCH  29  30
ATOM     30  O   UNL     1       5.200   8.807   4.547  1.00  0.00    -0.460 OA
BRANCH  30  31
ATOM     31  C   UNL     1       5.911   9.941   4.729  1.00  0.00     0.338 C 
ATOM     32  O   UNL     1       7.117  10.080   4.640  1.00  0.00    -0.246 OA
BRANCH  31  33
ATOM     33  C   UNL     1       4.946  11.054   4.858  1.00  0.00     0.060 A 
ATOM     34  C   UNL     1       3.872  10.962   5.746  1.00  0.00     0.016 A 
ATOM     35  C   UNL     1       5.109  12.190   4.055  1.00  0.00     0.016 A 
ATOM     36  C   UNL     1       2.982  12.030   5.864  1.00  0.00     0.010 A 
ATOM     37  C   UNL     1       4.213  13.256   4.168  1.00  0.00     0.010 A 
ATOM     38  C   UNL     1       3.164  13.195   5.097  1.00  0.00    -0.014 A 
BRANCH  38  39
ATOM     39  C   UNL     1       2.396  14.416   5.434  1.00  0.00     0.031 A 
ATOM     40  C   UNL     1       1.205  14.861   4.646  1.00  0.00     0.074 A 
ATOM     41  C   UNL     1       2.815  15.133   6.494  1.00  0.00     0.049 A 
ATOM     42  N   UNL     1       0.390  15.857   4.890  1.00  0.00    -0.248 NA
ATOM     43  C   UNL     1       0.889  14.105   3.428  1.00  0.00     0.031 C 
ATOM     44  C   UNL     1       3.986  14.807   7.310  1.00  0.00     0.029 A 
ATOM     45  N   UNL     1       2.309  16.268   7.072  1.00  0.00    -0.354 N 
ATOM     46  C   UNL     1      -0.553  15.835   3.873  1.00  0.00     0.074 A 
ATOM     47  C   UNL     1      -0.180  14.755   2.980  1.00  0.00     0.031 C 
ATOM     48  C   UNL     1       4.095  15.705   8.298  1.00  0.00     0.029 A 
ATOM     49  C   UNL     1       3.014  16.679   8.175  1.00  0.00     0.049 A 
ATOM     50  H   UNL     1       1.517  16.742   6.729  1.00  0.00     0.167 HD
ATOM     51  C   UNL     1      -1.636  16.634   3.718  1.00  0.00     0.037 A 
ATOM     52  C   UNL     1       2.809  17.718   9.005  1.00  0.00     0.037 A 
ATOM     53  C   UNL     1      -1.986  17.718   4.604  1.00  0.00     0.049 A 
ATOM     54  C   UNL     1       1.621  18.609   8.786  1.00  0.00     0.074 A 
ATOM     55  C   UNL     1      -3.090  18.552   4.551  1.00  0.00     0.029 A 
ATOM     56  N   UNL     1      -1.232  18.127   5.695  1.00  0.00    -0.354 N 
ATOM     57  N   UNL     1       0.686  18.526   7.872  1.00  0.00    -0.248 NA
ATOM     58  C   UNL     1       1.454  19.732   9.719  1.00  0.00     0.031 C 
ATOM     59  C   UNL     1      -2.977  19.498   5.574  1.00  0.00     0.029 A 
ATOM     60  C   UNL     1      -1.831  19.221   6.302  1.00  0.00     0.049 A 
ATOM     61  H   UNL     1      -0.395  17.704   5.994  1.00  0.00     0.167 HD
ATOM     62  C   UNL     1      -0.194  19.566   8.132  1.00  0.00     0.074 A 
ATOM     63  C   UNL     1       0.313  20.262   9.297  1.00  0.00     0.031 C 
ATOM     64  C   UNL     1      -1.321  19.908   7.462  1.00  0.00     0.037 A 
BRANCH  51  65
ATOM     65  C   UNL     1      -2.549  16.367   2.556  1.00  0.00     0.064 A 
ATOM     66  C   UNL     1      -3.395  15.249   2.539  1.00  0.00     0.173 A 
ATOM     67  C   UNL     1      -2.661  17.290   1.504  1.00  0.00     0.173 A 
ATOM     68  F   UNL     1      -3.329  14.338   3.521  1.00  0.00    -0.203 F 
ATOM     69  C   UNL     1      -4.312  15.058   1.508  1.00  0.00     0.198 A 
ATOM     70  C   UNL     1      -3.596  17.109   0.488  1.00  0.00     0.198 A 
ATOM     71  F   UNL     1      -1.885  18.384   1.479  1.00  0.00    -0.203 F 
ATOM     72  F   UNL     1      -5.097  13.972   1.503  1.00  0.00    -0.200 F 
ATOM     73  C   UNL     1      -4.419  15.993   0.489  1.00  0.00     0.200 A 
ATOM     74  F   UNL     1      -3.711  18.023  -0.486  1.00  0.00    -0.200 F 
ATOM     75  F   UNL     1      -5.317  15.820  -0.490  1.00  0.00    -0.200 F 
ENDBRANCH  51  65
BRANCH  52  76
ATOM     76  C   UNL     1       3.728  17.922  10.151  1.00  0.00     0.064 A 
ATOM     77  C   UNL     1       3.309  17.654  11.461  1.00  0.00     0.173 A 
ATOM     78  C   UNL     1       5.055  18.334   9.958  1.00  0.00     0.173 A 
ATOM     79  F   UNL     1       2.046  17.268  11.693  1.00  0.00    -0.203 F 
ATOM     80  C   UNL     1       4.181  17.796  12.537  1.00  0.00     0.198 A 
ATOM     81  C   UNL     1       5.933  18.452  11.032  1.00  0.00     0.198 A 
ATOM     82  F   UNL     1       5.505  18.592   8.722  1.00  0.00    -0.203 F 
ATOM     83  F   UNL     1       3.749  17.557  13.782  1.00  0.00    -0.200 F 
ATOM     84  C   UNL     1       5.495  18.187  12.321  1.00  0.00     0.200 A 
ATOM     85  F   UNL     1       7.206  18.811  10.818  1.00  0.00    -0.200 F 
ATOM     86  F   UNL     1       6.338  18.307  13.355  1.00  0.00    -0.200 F 
ENDBRANCH  52  76
BRANCH  64  87
ATOM     87  C   UNL     1      -2.103  21.082   7.975  1.00  0.00     0.064 A 
ATOM     88  C   UNL     1      -1.647  22.397   7.808  1.00  0.00     0.173 A 
ATOM     89  C   UNL     1      -3.358  20.892   8.575  1.00  0.00     0.173 A 
ATOM     90  F   UNL     1      -0.447  22.629   7.254  1.00  0.00    -0.203 F 
ATOM     91  C   UNL     1      -2.413  23.480   8.231  1.00  0.00     0.198 A 
ATOM     92  C   UNL     1      -4.133  21.978   8.973  1.00  0.00     0.198 A 
ATOM     93  F   UNL     1      -3.842  19.654   8.755  1.00  0.00    -0.203 F 
ATOM     94  F   UNL     1      -1.944  24.727   8.089  1.00  0.00    -0.200 F 
ATOM     95  C   UNL     1      -3.660  23.270   8.803  1.00  0.00     0.200 A 
ATOM     96  F   UNL     1      -5.343  21.774   9.512  1.00  0.00    -0.200 F 
ATOM     97  F   UNL     1      -4.403  24.314   9.193  1.00  0.00    -0.200 F 
ENDBRANCH  64  87
ENDBRANCH  38  39
ENDBRANCH  31  33
ENDBRANCH  30  31
ENDBRANCH  29  30
ENDBRANCH  28  29
ENDBRANCH  27  28
ENDBRANCH  26  27
ENDBRANCH   1  26
TORSDOF 21
