REMARK SMILES CC[C@@H]1CC[C@@](Cc2ccc(O)cc2)(C(=O)OCCOCCOCCOCCOC(=O)c2ccc(-c3c4nc(c(-c5c(F)c(F)c(F)c(F)c5F)c5ccc([nH]5)c(-c5c(F)c(F)c(F)c(F)c5F)c5nc(c(-c6c(F)c(F)c(F)c(F)c6F)c6ccc3[nH]6)C=C5)C=C4)cc2)C1
REMARK SMILES IDX 22 1 21 2 20 3 19 4 18 5 17 6 15 7 16 8 6 9 3 10 4 11 95 12
REMARK SMILES IDX 5 13 2 14 1 15 7 16 8 17 9 18 14 19 10 20 13 21 11 22 12 23
REMARK SMILES IDX 23 25 24 26 25 27 26 28 27 29 28 30 29 31 30 32 31 33 32 34
REMARK SMILES IDX 33 35 94 36 34 37 93 38 35 39 36 40 37 41 87 42 38 43 92 44
REMARK SMILES IDX 86 45 88 46 39 47 91 48 85 49 84 50 40 52 72 53 52 54 71 55
REMARK SMILES IDX 53 56 56 57 70 58 89 59 54 60 55 61 69 63 90 64 57 65 41 66
REMARK SMILES IDX 42 67 50 68 43 69 44 70 48 71 51 72 45 73 46 74 49 75 47 76
REMARK SMILES IDX 73 77 74 78 82 79 75 80 76 81 80 82 83 83 77 84 78 85 81 86
REMARK SMILES IDX 79 87 58 88 59 89 67 90 60 91 61 92 65 93 68 94 62 95 63 96
REMARK SMILES IDX 66 97 64 98
REMARK H PARENT 12 24 88 51 56 62
REMARK Flexibility Score: inf
ROOT
ATOM      1  C   UNL     1       0.226   0.414   5.415  1.00  0.00     0.188 C 
ENDROOT
BRANCH   1   2
ATOM      2  C   UNL     1       0.448  -1.050   5.840  1.00  0.00     0.188 C 
BRANCH   2   3
ATOM      3  O   UNL     1       0.722  -1.247   7.208  1.00  0.00    -0.376 OA
BRANCH   3   4
ATOM      4  C   UNL     1       2.017  -1.170   7.756  1.00  0.00     0.202 C 
BRANCH   4   5
ATOM      5  C   UNL     1       3.210  -0.410   7.156  1.00  0.00     0.261 C 
BRANCH   5   6
ATOM      6  O   UNL     1       3.046   0.306   5.927  1.00  0.00    -0.463 OA
BRANCH   6   7
ATOM      7  C   UNL     1       3.520  -0.294   4.806  1.00  0.00     0.312 C 
ATOM      8  O   UNL     1       3.940  -1.448   4.805  1.00  0.00    -0.252 OA
BRANCH   7   9
ATOM      9  C   UNL     1       3.603   0.630   3.562  1.00  0.00     0.072 C 
ATOM     10  C   UNL     1       1.716  -0.160   2.255  1.00  0.00    -0.010 C 
ATOM     11  C   UNL     1       1.491   1.335   2.409  1.00  0.00     0.005 C 
ATOM     12  C   UNL     1       3.249  -0.267   2.333  1.00  0.00     0.022 C 
ATOM     13  C   UNL     1       2.592   1.798   3.368  1.00  0.00     0.019 C 
BRANCH  10  14
ATOM     14  C   UNL     1       1.020  -0.812   1.059  1.00  0.00     0.000 C 
ATOM     15  C   UNL     1       1.285  -0.187  -0.299  1.00  0.00     0.004 C 
ENDBRANCH  10  14
BRANCH   9  16
ATOM     16  C   UNL     1       5.059   1.187   3.574  1.00  0.00     0.054 C 
BRANCH  16  17
ATOM     17  C   UNL     1       5.249   2.320   4.584  1.00  0.00    -0.047 A 
ATOM     18  C   UNL     1       5.432   2.054   5.949  1.00  0.00     0.007 A 
ATOM     19  C   UNL     1       5.102   3.658   4.185  1.00  0.00     0.007 A 
ATOM     20  C   UNL     1       5.336   3.075   6.901  1.00  0.00     0.046 A 
ATOM     21  C   UNL     1       5.026   4.683   5.131  1.00  0.00     0.046 A 
ATOM     22  C   UNL     1       5.111   4.380   6.482  1.00  0.00     0.115 A 
BRANCH  22  23
ATOM     23  O   UNL     1       4.953   5.400   7.373  1.00  0.00    -0.508 OA
ATOM     24  H   UNL     1       5.005   5.230   8.293  1.00  0.00     0.293 HD
ENDBRANCH  22  23
ENDBRANCH  16  17
ENDBRANCH   9  16
ENDBRANCH   7   9
ENDBRANCH   6   7
ENDBRANCH   5   6
ENDBRANCH   4   5
ENDBRANCH   3   4
ENDBRANCH   2   3
ENDBRANCH   1   2
BRANCH   1  25
ATOM     25  O   UNL     1      -0.497   1.371   6.163  1.00  0.00    -0.377 OA
BRANCH  25  26
ATOM     26  C   UNL     1      -0.534   1.198   7.562  1.00  0.00     0.188 C 
BRANCH  26  27
ATOM     27  C   UNL     1      -1.657   0.236   7.965  1.00  0.00     0.188 C 
BRANCH  27  28
ATOM     28  O   UNL     1      -2.221  -0.478   6.879  1.00  0.00    -0.376 OA
BRANCH  28  29
ATOM     29  C   UNL     1      -3.131   0.132   5.972  1.00  0.00     0.202 C 
BRANCH  29  30
ATOM     30  C   UNL     1      -3.249   1.640   5.642  1.00  0.00     0.261 C 
BRANCH  30  31
ATOM     31  O   UNL     1      -2.892   2.609   6.630  1.00  0.00    -0.460 OA
BRANCH  31  32
ATOM     32  C   UNL     1      -3.673   2.721   7.716  1.00  0.00     0.338 C 
ATOM     33  O   UNL     1      -4.689   2.097   7.967  1.00  0.00    -0.246 OA
BRANCH  32  34
ATOM     34  C   UNL     1      -2.963   3.605   8.665  1.00  0.00     0.060 A 
ATOM     35  C   UNL     1      -2.648   3.100   9.933  1.00  0.00     0.016 A 
ATOM     36  C   UNL     1      -2.594   4.906   8.308  1.00  0.00     0.016 A 
ATOM     37  C   UNL     1      -2.011   3.910  10.866  1.00  0.00     0.010 A 
ATOM     38  C   UNL     1      -1.987   5.733   9.258  1.00  0.00     0.010 A 
ATOM     39  C   UNL     1      -1.742   5.249  10.555  1.00  0.00    -0.014 A 
BRANCH  39  40
ATOM     40  C   UNL     1      -1.481   6.179  11.677  1.00  0.00     0.031 A 
ATOM     41  C   UNL     1      -2.660   6.903  12.268  1.00  0.00     0.074 A 
ATOM     42  C   UNL     1      -0.260   6.300  12.222  1.00  0.00     0.049 A 
ATOM     43  N   UNL     1      -2.713   7.718  13.290  1.00  0.00    -0.248 NA
ATOM     44  C   UNL     1      -3.962   6.667  11.620  1.00  0.00     0.031 C 
ATOM     45  C   UNL     1       0.943   5.607  11.767  1.00  0.00     0.029 A 
ATOM     46  N   UNL     1       0.163   7.049  13.291  1.00  0.00    -0.354 N 
ATOM     47  C   UNL     1      -4.048   8.086  13.406  1.00  0.00     0.074 A 
ATOM     48  C   UNL     1      -4.766   7.440  12.331  1.00  0.00     0.031 C 
ATOM     49  C   UNL     1       1.974   5.967  12.552  1.00  0.00     0.029 A 
ATOM     50  C   UNL     1       1.506   6.932  13.547  1.00  0.00     0.049 A 
ATOM     51  H   UNL     1      -0.440   7.616  13.824  1.00  0.00     0.167 HD
ATOM     52  C   UNL     1      -4.626   8.880  14.336  1.00  0.00     0.037 A 
ATOM     53  C   UNL     1       2.265   7.548  14.474  1.00  0.00     0.037 A 
ATOM     54  C   UNL     1      -3.906   9.525  15.401  1.00  0.00     0.049 A 
ATOM     55  C   UNL     1       1.609   8.495  15.448  1.00  0.00     0.074 A 
ATOM     56  C   UNL     1      -4.395  10.344  16.401  1.00  0.00     0.029 A 
ATOM     57  N   UNL     1      -2.535   9.429  15.594  1.00  0.00    -0.354 N 
ATOM     58  N   UNL     1       0.344   8.817  15.572  1.00  0.00    -0.248 NA
ATOM     59  C   UNL     1       2.491   9.158  16.419  1.00  0.00     0.031 C 
ATOM     60  C   UNL     1      -3.312  10.794  17.163  1.00  0.00     0.029 A 
ATOM     61  C   UNL     1      -2.156  10.201  16.680  1.00  0.00     0.049 A 
ATOM     62  H   UNL     1      -1.923   8.891  15.041  1.00  0.00     0.167 HD
ATOM     63  C   UNL     1       0.273   9.694  16.648  1.00  0.00     0.074 A 
ATOM     64  C   UNL     1       1.622   9.835  17.156  1.00  0.00     0.031 C 
ATOM     65  C   UNL     1      -0.807  10.328  17.169  1.00  0.00     0.037 A 
BRANCH  52  66
ATOM     66  C   UNL     1      -6.103   9.121  14.216  1.00  0.00     0.064 A 
ATOM     67  C   UNL     1      -7.042   8.110  14.467  1.00  0.00     0.173 A 
ATOM     68  C   UNL     1      -6.584  10.389  13.857  1.00  0.00     0.173 A 
ATOM     69  F   UNL     1      -6.634   6.874  14.794  1.00  0.00    -0.203 F 
ATOM     70  C   UNL     1      -8.408   8.352  14.337  1.00  0.00     0.198 A 
ATOM     71  C   UNL     1      -7.951  10.636  13.760  1.00  0.00     0.198 A 
ATOM     72  F   UNL     1      -5.729  11.391  13.603  1.00  0.00    -0.203 F 
ATOM     73  F   UNL     1      -9.285   7.357  14.530  1.00  0.00    -0.200 F 
ATOM     74  C   UNL     1      -8.861   9.616  13.992  1.00  0.00     0.200 A 
ATOM     75  F   UNL     1      -8.387  11.862  13.437  1.00  0.00    -0.200 F 
ATOM     76  F   UNL     1     -10.175   9.850  13.874  1.00  0.00    -0.200 F 
ENDBRANCH  52  66
BRANCH  53  77
ATOM     77  C   UNL     1       3.732   7.303  14.522  1.00  0.00     0.064 A 
ATOM     78  C   UNL     1       4.328   6.662  15.617  1.00  0.00     0.173 A 
ATOM     79  C   UNL     1       4.572   7.737  13.486  1.00  0.00     0.173 A 
ATOM     80  F   UNL     1       3.571   6.250  16.645  1.00  0.00    -0.203 F 
ATOM     81  C   UNL     1       5.709   6.486  15.684  1.00  0.00     0.198 A 
ATOM     82  C   UNL     1       5.949   7.531  13.539  1.00  0.00     0.198 A 
ATOM     83  F   UNL     1       4.055   8.356  12.415  1.00  0.00    -0.203 F 
ATOM     84  F   UNL     1       6.257   5.917  16.767  1.00  0.00    -0.200 F 
ATOM     85  C   UNL     1       6.518   6.915  14.643  1.00  0.00     0.200 A 
ATOM     86  F   UNL     1       6.724   7.932  12.523  1.00  0.00    -0.200 F 
ATOM     87  F   UNL     1       7.845   6.741  14.707  1.00  0.00    -0.200 F 
ENDBRANCH  53  77
BRANCH  65  88
ATOM     88  C   UNL     1      -0.578  11.206  18.368  1.00  0.00     0.064 A 
ATOM     89  C   UNL     1       0.128  12.415  18.275  1.00  0.00     0.173 A 
ATOM     90  C   UNL     1      -1.094  10.844  19.622  1.00  0.00     0.173 A 
ATOM     91  F   UNL     1       0.653  12.802  17.102  1.00  0.00    -0.203 F 
ATOM     92  C   UNL     1       0.343  13.207  19.400  1.00  0.00     0.198 A 
ATOM     93  C   UNL     1      -0.910  11.658  20.737  1.00  0.00     0.198 A 
ATOM     94  F   UNL     1      -1.788   9.705  19.766  1.00  0.00    -0.203 F 
ATOM     95  F   UNL     1       1.076  14.325  19.299  1.00  0.00    -0.200 F 
ATOM     96  C   UNL     1      -0.181  12.832  20.627  1.00  0.00     0.200 A 
ATOM     97  F   UNL     1      -1.434  11.302  21.918  1.00  0.00    -0.200 F 
ATOM     98  F   UNL     1       0.024  13.597  21.708  1.00  0.00    -0.200 F 
ENDBRANCH  65  88
ENDBRANCH  39  40
ENDBRANCH  32  34
ENDBRANCH  31  32
ENDBRANCH  30  31
ENDBRANCH  29  30
ENDBRANCH  28  29
ENDBRANCH  27  28
ENDBRANCH  26  27
ENDBRANCH  25  26
ENDBRANCH   1  25
TORSDOF 24
