REMARK SMILES Cc1ccc(C(=O)OCCOCCOCCOCCOC(=O)c2ccc(-c3c4nc(c(-c5c(F)c(F)c(F)c(F)c5F)c5ccc([nH]5)c(-c5c(F)c(F)c(F)c(F)c5F)c5nc(c(-c6c(F)c(F)c(F)c(F)c6F)c6ccc3[nH]6)C=C5)C=C4)cc2)c(Oc2cccc(F)c2C(N)=O)c1
REMARK SMILES IDX 13 1 12 2 11 3 10 4 9 5 8 6 6 7 7 8 5 9 1 10 2 11 3 12 98 13
REMARK SMILES IDX 4 14 86 15 87 16 88 17 89 18 94 19 90 20 92 21 91 22 93 23
REMARK SMILES IDX 95 24 96 25 97 26 14 29 15 30 16 31 17 32 18 33 19 34 20 35
REMARK SMILES IDX 21 36 22 37 23 38 24 39 85 40 25 41 84 42 26 43 27 44 28 45
REMARK SMILES IDX 78 46 29 47 83 48 77 49 79 50 30 51 82 52 76 53 75 54 31 56
REMARK SMILES IDX 63 57 43 58 62 59 44 60 47 61 61 62 80 63 45 64 46 65 60 67
REMARK SMILES IDX 81 68 48 69 32 70 33 71 41 72 34 73 35 74 39 75 42 76 36 77
REMARK SMILES IDX 37 78 40 79 38 80 64 81 65 82 73 83 66 84 67 85 71 86 74 87
REMARK SMILES IDX 68 88 69 89 72 90 70 91 49 92 50 93 58 94 51 95 52 96 56 97
REMARK SMILES IDX 59 98 53 99 54 100 57 101 55 102
REMARK H PARENT 96 27 96 28 79 55 47 66
REMARK Flexibility Score: inf
ROOT
ATOM      1  C   UNL     1      -1.810  -0.623  -2.768  1.00  0.00     0.188 C 
ENDROOT
BRANCH   1   2
ATOM      2  C   UNL     1      -2.214  -1.972  -2.157  1.00  0.00     0.188 C 
BRANCH   2   3
ATOM      3  O   UNL     1      -3.588  -2.293  -2.033  1.00  0.00    -0.376 OA
BRANCH   3   4
ATOM      4  C   UNL     1      -4.281  -1.630  -0.982  1.00  0.00     0.202 C 
BRANCH   4   5
ATOM      5  C   UNL     1      -3.583  -1.544   0.362  1.00  0.00     0.261 C 
BRANCH   5   6
ATOM      6  O   UNL     1      -2.594  -0.508   0.291  1.00  0.00    -0.460 OA
BRANCH   6   7
ATOM      7  C   UNL     1      -1.632  -0.616   1.210  1.00  0.00     0.342 C 
ATOM      8  O   UNL     1      -1.675  -1.267   2.253  1.00  0.00    -0.246 OA
BRANCH   7   9
ATOM      9  C   UNL     1      -0.351  -0.286   0.591  1.00  0.00     0.102 A 
ATOM     10  C   UNL     1       3.792   0.115  -0.266  1.00  0.00     0.044 C 
ATOM     11  C   UNL     1       2.317  -0.024  -0.067  1.00  0.00    -0.047 A 
ATOM     12  C   UNL     1       1.776  -1.300   0.061  1.00  0.00     0.004 A 
ATOM     13  C   UNL     1       1.489   1.111   0.023  1.00  0.00     0.051 A 
ATOM     14  C   UNL     1       0.456  -1.427   0.432  1.00  0.00     0.020 A 
ATOM     15  C   UNL     1       0.118   0.996   0.266  1.00  0.00     0.142 A 
BRANCH  15  16
ATOM     16  O   UNL     1      -0.772   2.048   0.184  1.00  0.00    -0.455 OA
BRANCH  16  17
ATOM     17  C   UNL     1      -0.329   3.333  -0.089  1.00  0.00     0.143 A 
ATOM     18  C   UNL     1      -0.614   4.265   0.923  1.00  0.00     0.048 A 
ATOM     19  C   UNL     1       0.302   3.786  -1.268  1.00  0.00     0.117 A 
ATOM     20  C   UNL     1      -0.218   5.602   0.806  1.00  0.00     0.007 A 
ATOM     21  C   UNL     1       0.699   5.127  -1.361  1.00  0.00     0.139 A 
ATOM     22  C   UNL     1       0.454   6.029  -0.333  1.00  0.00     0.040 A 
ATOM     23  F   UNL     1       1.303   5.599  -2.463  1.00  0.00    -0.206 F 
BRANCH  19  24
ATOM     24  C   UNL     1       0.604   2.970  -2.459  1.00  0.00     0.255 C 
ATOM     25  N   UNL     1      -0.358   2.116  -2.875  1.00  0.00    -0.365 N 
ATOM     26  O   UNL     1       1.657   3.064  -3.076  1.00  0.00    -0.269 OA
ATOM     27  H   UNL     1      -1.202   2.045  -2.374  1.00  0.00     0.159 HD
ATOM     28  H   UNL     1      -0.213   1.565  -3.678  1.00  0.00     0.159 HD
ENDBRANCH  19  24
ENDBRANCH  16  17
ENDBRANCH  15  16
ENDBRANCH   7   9
ENDBRANCH   6   7
ENDBRANCH   5   6
ENDBRANCH   4   5
ENDBRANCH   3   4
ENDBRANCH   2   3
ENDBRANCH   1   2
BRANCH   1  29
ATOM     29  O   UNL     1      -2.405   0.570  -2.272  1.00  0.00    -0.377 OA
BRANCH  29  30
ATOM     30  C   UNL     1      -3.456   1.188  -3.016  1.00  0.00     0.188 C 
BRANCH  30  31
ATOM     31  C   UNL     1      -3.664   0.826  -4.473  1.00  0.00     0.188 C 
BRANCH  31  32
ATOM     32  O   UNL     1      -4.140  -0.514  -4.492  1.00  0.00    -0.376 OA
BRANCH  32  33
ATOM     33  C   UNL     1      -3.917  -1.226  -5.700  1.00  0.00     0.202 C 
BRANCH  33  34
ATOM     34  C   UNL     1      -4.617  -0.588  -6.904  1.00  0.00     0.261 C 
BRANCH  34  35
ATOM     35  O   UNL     1      -6.045  -0.679  -6.718  1.00  0.00    -0.460 OA
BRANCH  35  36
ATOM     36  C   UNL     1      -6.670   0.486  -6.394  1.00  0.00     0.338 C 
ATOM     37  O   UNL     1      -6.584   1.526  -7.025  1.00  0.00    -0.246 OA
BRANCH  36  38
ATOM     38  C   UNL     1      -7.251   0.392  -5.021  1.00  0.00     0.060 A 
ATOM     39  C   UNL     1      -7.746   1.535  -4.374  1.00  0.00     0.016 A 
ATOM     40  C   UNL     1      -7.013  -0.753  -4.274  1.00  0.00     0.016 A 
ATOM     41  C   UNL     1      -7.814   1.583  -2.969  1.00  0.00     0.010 A 
ATOM     42  C   UNL     1      -6.978  -0.655  -2.896  1.00  0.00     0.010 A 
ATOM     43  C   UNL     1      -7.317   0.524  -2.215  1.00  0.00    -0.014 A 
BRANCH  43  44
ATOM     44  C   UNL     1      -6.957   0.580  -0.775  1.00  0.00     0.031 A 
ATOM     45  C   UNL     1      -7.321  -0.580   0.113  1.00  0.00     0.074 A 
ATOM     46  C   UNL     1      -5.983   1.446  -0.376  1.00  0.00     0.049 A 
ATOM     47  N   UNL     1      -6.901  -0.758   1.320  1.00  0.00    -0.248 NA
ATOM     48  C   UNL     1      -8.162  -1.696  -0.317  1.00  0.00     0.031 C 
ATOM     49  C   UNL     1      -5.057   1.274   0.741  1.00  0.00     0.029 A 
ATOM     50  N   UNL     1      -5.542   2.649  -0.931  1.00  0.00    -0.354 N 
ATOM     51  C   UNL     1      -7.064  -2.086   1.667  1.00  0.00     0.074 A 
ATOM     52  C   UNL     1      -7.948  -2.596   0.651  1.00  0.00     0.031 C 
ATOM     53  C   UNL     1      -4.208   2.303   0.855  1.00  0.00     0.029 A 
ATOM     54  C   UNL     1      -4.758   3.335   0.023  1.00  0.00     0.049 A 
ATOM     55  H   UNL     1      -5.744   2.967  -1.841  1.00  0.00     0.167 HD
ATOM     56  C   UNL     1      -6.301  -2.595   2.689  1.00  0.00     0.037 A 
ATOM     57  C   UNL     1      -5.216   4.514   0.542  1.00  0.00     0.037 A 
ATOM     58  C   UNL     1      -5.602  -1.505   3.415  1.00  0.00     0.049 A 
ATOM     59  C   UNL     1      -5.615   4.292   2.000  1.00  0.00     0.074 A 
ATOM     60  C   UNL     1      -4.284  -1.259   3.755  1.00  0.00     0.029 A 
ATOM     61  N   UNL     1      -6.288  -0.324   3.740  1.00  0.00    -0.354 N 
ATOM     62  N   UNL     1      -6.101   3.156   2.458  1.00  0.00    -0.248 NA
ATOM     63  C   UNL     1      -5.202   5.190   3.079  1.00  0.00     0.031 C 
ATOM     64  C   UNL     1      -4.154   0.123   4.080  1.00  0.00     0.029 A 
ATOM     65  C   UNL     1      -5.418   0.699   4.067  1.00  0.00     0.049 A 
ATOM     66  H   UNL     1      -7.269  -0.236   3.735  1.00  0.00     0.167 HD
ATOM     67  C   UNL     1      -5.886   3.092   3.814  1.00  0.00     0.074 A 
ATOM     68  C   UNL     1      -5.393   4.417   4.164  1.00  0.00     0.031 C 
ATOM     69  C   UNL     1      -5.903   1.965   4.596  1.00  0.00     0.037 A 
BRANCH  56  70
ATOM     70  C   UNL     1      -5.974  -4.088   2.931  1.00  0.00     0.064 A 
ATOM     71  C   UNL     1      -5.128  -4.484   4.000  1.00  0.00     0.173 A 
ATOM     72  C   UNL     1      -6.360  -5.168   2.104  1.00  0.00     0.173 A 
ATOM     73  F   UNL     1      -4.722  -3.610   4.929  1.00  0.00    -0.203 F 
ATOM     74  C   UNL     1      -4.667  -5.801   4.177  1.00  0.00     0.198 A 
ATOM     75  C   UNL     1      -5.947  -6.495   2.317  1.00  0.00     0.198 A 
ATOM     76  F   UNL     1      -7.131  -5.003   1.028  1.00  0.00    -0.203 F 
ATOM     77  F   UNL     1      -3.812  -6.082   5.172  1.00  0.00    -0.200 F 
ATOM     78  C   UNL     1      -5.081  -6.810   3.338  1.00  0.00     0.200 A 
ATOM     79  F   UNL     1      -6.389  -7.465   1.501  1.00  0.00    -0.200 F 
ATOM     80  F   UNL     1      -4.657  -8.069   3.512  1.00  0.00    -0.200 F 
ENDBRANCH  56  70
BRANCH  57  81
ATOM     81  C   UNL     1      -5.774   5.344  -0.579  1.00  0.00     0.064 A 
ATOM     82  C   UNL     1      -4.800   5.680  -1.557  1.00  0.00     0.173 A 
ATOM     83  C   UNL     1      -7.088   5.156  -1.038  1.00  0.00     0.173 A 
ATOM     84  F   UNL     1      -3.527   5.888  -1.179  1.00  0.00    -0.203 F 
ATOM     85  C   UNL     1      -5.058   5.532  -2.921  1.00  0.00     0.198 A 
ATOM     86  C   UNL     1      -7.354   5.080  -2.415  1.00  0.00     0.198 A 
ATOM     87  F   UNL     1      -8.065   4.833  -0.179  1.00  0.00    -0.203 F 
ATOM     88  F   UNL     1      -4.047   5.575  -3.802  1.00  0.00    -0.200 F 
ATOM     89  C   UNL     1      -6.327   5.185  -3.345  1.00  0.00     0.200 A 
ATOM     90  F   UNL     1      -8.582   4.750  -2.842  1.00  0.00    -0.200 F 
ATOM     91  F   UNL     1      -6.541   4.869  -4.631  1.00  0.00    -0.200 F 
ENDBRANCH  57  81
BRANCH  69  92
ATOM     92  C   UNL     1      -6.329   1.976   6.047  1.00  0.00     0.064 A 
ATOM     93  C   UNL     1      -7.107   3.009   6.590  1.00  0.00     0.173 A 
ATOM     94  C   UNL     1      -6.180   0.826   6.868  1.00  0.00     0.173 A 
ATOM     95  F   UNL     1      -7.400   4.109   5.884  1.00  0.00    -0.203 F 
ATOM     96  C   UNL     1      -7.665   2.915   7.864  1.00  0.00     0.198 A 
ATOM     97  C   UNL     1      -6.787   0.715   8.114  1.00  0.00     0.198 A 
ATOM     98  F   UNL     1      -5.488  -0.252   6.477  1.00  0.00    -0.203 F 
ATOM     99  F   UNL     1      -8.382   3.940   8.344  1.00  0.00    -0.200 F 
ATOM    100  C   UNL     1      -7.521   1.764   8.617  1.00  0.00     0.200 A 
ATOM    101  F   UNL     1      -6.681  -0.430   8.804  1.00  0.00    -0.200 F 
ATOM    102  F   UNL     1      -8.108   1.660   9.815  1.00  0.00    -0.200 F 
ENDBRANCH  69  92
ENDBRANCH  43  44
ENDBRANCH  36  38
ENDBRANCH  35  36
ENDBRANCH  34  35
ENDBRANCH  33  34
ENDBRANCH  32  33
ENDBRANCH  31  32
ENDBRANCH  30  31
ENDBRANCH  29  30
ENDBRANCH   1  29
TORSDOF 23
