REMARK SMILES CC[C@@H](O)CC[C@H]([NH3+])C(=O)OCCOCCOCCOCCOC(=O)c1ccc(-c2c3nc(c(-c4c(F)c(F)c(F)c(F)c4F)c4ccc([nH]4)c(-c4c(F)c(F)c(F)c(F)c4F)c4nc(c(-c5c(F)c(F)c(F)c(F)c5F)c5ccc2[nH]5)C=C4)C=C3)cc1
REMARK SMILES IDX 16 1 15 2 14 3 13 4 12 5 11 6 9 7 10 8 7 9 6 10 5 11 3 12
REMARK SMILES IDX 2 13 1 14 4 15 8 17 17 21 18 22 19 23 20 24 21 25 22 26
REMARK SMILES IDX 23 27 24 28 25 29 26 30 27 31 88 32 28 33 87 34 29 35 30 36
REMARK SMILES IDX 31 37 81 38 32 39 86 40 80 41 82 42 33 43 85 44 79 45 78 46
REMARK SMILES IDX 34 48 66 49 46 50 65 51 47 52 50 53 64 54 83 55 48 56 49 57
REMARK SMILES IDX 63 59 84 60 51 61 35 62 36 63 44 64 37 65 38 66 42 67 45 68
REMARK SMILES IDX 39 69 40 70 43 71 41 72 67 73 68 74 76 75 69 76 70 77 74 78
REMARK SMILES IDX 77 79 71 80 72 81 75 82 73 83 52 84 53 85 61 86 54 87 55 88
REMARK SMILES IDX 59 89 62 90 56 91 57 92 60 93 58 94
REMARK H PARENT 4 16 8 18 8 19 8 20 82 47 50 58
REMARK Flexibility Score: inf
ROOT
ATOM      1  C   UNL     1       1.759  -1.153  -4.789  1.00  0.00     0.188 C 
ENDROOT
BRANCH   1   2
ATOM      2  C   UNL     1       3.242  -0.781  -4.920  1.00  0.00     0.188 C 
BRANCH   2   3
ATOM      3  O   UNL     1       3.898  -0.843  -6.176  1.00  0.00    -0.376 OA
BRANCH   3   4
ATOM      4  C   UNL     1       4.032  -2.052  -6.914  1.00  0.00     0.202 C 
BRANCH   4   5
ATOM      5  C   UNL     1       4.261  -3.428  -6.273  1.00  0.00     0.261 C 
BRANCH   5   6
ATOM      6  O   UNL     1       3.415  -3.717  -5.163  1.00  0.00    -0.459 OA
BRANCH   6   7
ATOM      7  C   UNL     1       4.021  -3.839  -3.950  1.00  0.00     0.364 C 
ATOM      8  O   UNL     1       5.229  -3.771  -3.763  1.00  0.00    -0.245 OA
BRANCH   7   9
ATOM      9  C   UNL     1       2.986  -3.969  -2.814  1.00  0.00     0.291 C 
BRANCH   9  10
ATOM     10  C   UNL     1       3.286  -5.230  -2.004  1.00  0.00     0.080 C 
BRANCH  10  11
ATOM     11  C   UNL     1       2.571  -5.341  -0.653  1.00  0.00     0.038 C 
BRANCH  11  12
ATOM     12  C   UNL     1       1.041  -5.238  -0.633  1.00  0.00     0.114 C 
BRANCH  12  13
ATOM     13  C   UNL     1       0.321  -6.230  -1.558  1.00  0.00     0.028 C 
ATOM     14  C   UNL     1      -1.146  -5.856  -1.755  1.00  0.00     0.006 C 
ENDBRANCH  12  13
BRANCH  12  15
ATOM     15  O   UNL     1       0.635  -5.478   0.719  1.00  0.00    -0.393 OA
ATOM     16  H   UNL     1       0.908  -6.370   0.986  1.00  0.00     0.210 HD
ENDBRANCH  12  15
ENDBRANCH  11  12
ENDBRANCH  10  11
ENDBRANCH   9  10
BRANCH   9  17
ATOM     17  N   UNL     1       1.597  -4.014  -3.323  1.00  0.00    -0.346 N 
ATOM     18  H   UNL     1       1.481  -4.832  -3.922  1.00  0.00     0.345 HD
ATOM     19  H   UNL     1       1.405  -3.169  -3.861  1.00  0.00     0.345 HD
ATOM     20  H   UNL     1       0.949  -4.072  -2.538  1.00  0.00     0.345 HD
ENDBRANCH   9  17
ENDBRANCH   7   9
ENDBRANCH   6   7
ENDBRANCH   5   6
ENDBRANCH   4   5
ENDBRANCH   3   4
ENDBRANCH   2   3
ENDBRANCH   1   2
BRANCH   1  21
ATOM     21  O   UNL     1       1.338  -2.172  -5.675  1.00  0.00    -0.377 OA
BRANCH  21  22
ATOM     22  C   UNL     1       0.709  -1.772  -6.892  1.00  0.00     0.188 C 
BRANCH  22  23
ATOM     23  C   UNL     1       1.016  -0.386  -7.507  1.00  0.00     0.188 C 
BRANCH  23  24
ATOM     24  O   UNL     1       0.983   0.692  -6.586  1.00  0.00    -0.376 OA
BRANCH  24  25
ATOM     25  C   UNL     1      -0.199   1.471  -6.482  1.00  0.00     0.202 C 
BRANCH  25  26
ATOM     26  C   UNL     1      -1.476   0.765  -6.000  1.00  0.00     0.261 C 
BRANCH  26  27
ATOM     27  O   UNL     1      -1.946  -0.329  -6.804  1.00  0.00    -0.460 OA
BRANCH  27  28
ATOM     28  C   UNL     1      -2.189  -0.109  -8.112  1.00  0.00     0.338 C 
ATOM     29  O   UNL     1      -2.113   0.947  -8.716  1.00  0.00    -0.246 OA
BRANCH  28  30
ATOM     30  C   UNL     1      -2.392  -1.425  -8.746  1.00  0.00     0.060 A 
ATOM     31  C   UNL     1      -1.536  -1.838  -9.778  1.00  0.00     0.016 A 
ATOM     32  C   UNL     1      -3.435  -2.248  -8.318  1.00  0.00     0.016 A 
ATOM     33  C   UNL     1      -1.749  -3.062 -10.415  1.00  0.00     0.010 A 
ATOM     34  C   UNL     1      -3.661  -3.459  -8.970  1.00  0.00     0.010 A 
ATOM     35  C   UNL     1      -2.844  -3.853 -10.046  1.00  0.00    -0.014 A 
BRANCH  35  36
ATOM     36  C   UNL     1      -3.312  -4.956 -10.918  1.00  0.00     0.031 A 
ATOM     37  C   UNL     1      -4.443  -4.659 -11.863  1.00  0.00     0.074 A 
ATOM     38  C   UNL     1      -2.791  -6.192 -10.848  1.00  0.00     0.049 A 
ATOM     39  N   UNL     1      -5.173  -5.476 -12.576  1.00  0.00    -0.248 NA
ATOM     40  C   UNL     1      -4.808  -3.240 -12.010  1.00  0.00     0.031 C 
ATOM     41  C   UNL     1      -1.651  -6.588 -10.025  1.00  0.00     0.029 A 
ATOM     42  N   UNL     1      -3.181  -7.354 -11.468  1.00  0.00    -0.354 N 
ATOM     43  C   UNL     1      -6.092  -4.673 -13.239  1.00  0.00     0.074 A 
ATOM     44  C   UNL     1      -5.848  -3.309 -12.824  1.00  0.00     0.031 C 
ATOM     45  C   UNL     1      -1.450  -7.910 -10.171  1.00  0.00     0.029 A 
ATOM     46  C   UNL     1      -2.478  -8.459 -11.054  1.00  0.00     0.049 A 
ATOM     47  H   UNL     1      -3.896  -7.391 -12.144  1.00  0.00     0.167 HD
ATOM     48  C   UNL     1      -7.051  -5.041 -14.120  1.00  0.00     0.037 A 
ATOM     49  C   UNL     1      -2.677  -9.764 -11.329  1.00  0.00     0.037 A 
ATOM     50  C   UNL     1      -7.293  -6.400 -14.520  1.00  0.00     0.049 A 
ATOM     51  C   UNL     1      -3.825 -10.162 -12.228  1.00  0.00     0.074 A 
ATOM     52  C   UNL     1      -8.250  -6.886 -15.392  1.00  0.00     0.029 A 
ATOM     53  N   UNL     1      -6.570  -7.493 -14.066  1.00  0.00    -0.354 N 
ATOM     54  N   UNL     1      -4.698  -9.405 -12.848  1.00  0.00    -0.248 NA
ATOM     55  C   UNL     1      -4.018 -11.602 -12.462  1.00  0.00     0.031 C 
ATOM     56  C   UNL     1      -8.141  -8.279 -15.425  1.00  0.00     0.029 A 
ATOM     57  C   UNL     1      -7.069  -8.654 -14.630  1.00  0.00     0.049 A 
ATOM     58  H   UNL     1      -5.814  -7.450 -13.437  1.00  0.00     0.167 HD
ATOM     59  C   UNL     1      -5.503 -10.267 -13.583  1.00  0.00     0.074 A 
ATOM     60  C   UNL     1      -5.020 -11.607 -13.330  1.00  0.00     0.031 C 
ATOM     61  C   UNL     1      -6.545  -9.976 -14.401  1.00  0.00     0.037 A 
BRANCH  48  62
ATOM     62  C   UNL     1      -7.927  -3.962 -14.685  1.00  0.00     0.064 A 
ATOM     63  C   UNL     1      -7.432  -3.006 -15.585  1.00  0.00     0.173 A 
ATOM     64  C   UNL     1      -9.287  -3.900 -14.345  1.00  0.00     0.173 A 
ATOM     65  F   UNL     1      -6.135  -3.010 -15.928  1.00  0.00    -0.203 F 
ATOM     66  C   UNL     1      -8.260  -2.014 -16.104  1.00  0.00     0.198 A 
ATOM     67  C   UNL     1     -10.120  -2.928 -14.892  1.00  0.00     0.198 A 
ATOM     68  F   UNL     1      -9.812  -4.789 -13.489  1.00  0.00    -0.203 F 
ATOM     69  F   UNL     1      -7.753  -1.081 -16.921  1.00  0.00    -0.200 F 
ATOM     70  C   UNL     1      -9.605  -1.981 -15.764  1.00  0.00     0.200 A 
ATOM     71  F   UNL     1     -11.422  -2.907 -14.574  1.00  0.00    -0.200 F 
ATOM     72  F   UNL     1     -10.402  -1.032 -16.273  1.00  0.00    -0.200 F 
ENDBRANCH  48  62
BRANCH  49  73
ATOM     73  C   UNL     1      -1.793 -10.805 -10.736  1.00  0.00     0.064 A 
ATOM     74  C   UNL     1      -0.969 -11.596 -11.549  1.00  0.00     0.173 A 
ATOM     75  C   UNL     1      -1.791 -11.067  -9.358  1.00  0.00     0.173 A 
ATOM     76  F   UNL     1      -0.955 -11.404 -12.876  1.00  0.00    -0.203 F 
ATOM     77  C   UNL     1      -0.202 -12.629 -11.011  1.00  0.00     0.198 A 
ATOM     78  C   UNL     1      -0.997 -12.078  -8.817  1.00  0.00     0.198 A 
ATOM     79  F   UNL     1      -2.563 -10.345  -8.534  1.00  0.00    -0.203 F 
ATOM     80  F   UNL     1       0.524 -13.411 -11.821  1.00  0.00    -0.200 F 
ATOM     81  C   UNL     1      -0.214 -12.866  -9.646  1.00  0.00     0.200 A 
ATOM     82  F   UNL     1      -1.003 -12.297  -7.495  1.00  0.00    -0.200 F 
ATOM     83  F   UNL     1       0.518 -13.863  -9.130  1.00  0.00    -0.200 F 
ENDBRANCH  49  73
BRANCH  61  84
ATOM     84  C   UNL     1      -7.181 -11.104 -15.162  1.00  0.00     0.064 A 
ATOM     85  C   UNL     1      -7.994 -12.061 -14.540  1.00  0.00     0.173 A 
ATOM     86  C   UNL     1      -7.038 -11.171 -16.558  1.00  0.00     0.173 A 
ATOM     87  F   UNL     1      -8.154 -12.048 -13.208  1.00  0.00    -0.203 F 
ATOM     88  C   UNL     1      -8.629 -13.052 -15.285  1.00  0.00     0.198 A 
ATOM     89  C   UNL     1      -7.701 -12.142 -17.303  1.00  0.00     0.198 A 
ATOM     90  F   UNL     1      -6.279 -10.273 -17.204  1.00  0.00    -0.203 F 
ATOM     91  F   UNL     1      -9.373 -13.979 -14.666  1.00  0.00    -0.200 F 
ATOM     92  C   UNL     1      -8.492 -13.085 -16.665  1.00  0.00     0.200 A 
ATOM     93  F   UNL     1      -7.582 -12.158 -18.637  1.00  0.00    -0.200 F 
ATOM     94  F   UNL     1      -9.122 -14.026 -17.381  1.00  0.00    -0.200 F 
ENDBRANCH  61  84
ENDBRANCH  35  36
ENDBRANCH  28  30
ENDBRANCH  27  28
ENDBRANCH  26  27
ENDBRANCH  25  26
ENDBRANCH  24  25
ENDBRANCH  23  24
ENDBRANCH  22  23
ENDBRANCH  21  22
ENDBRANCH   1  21
TORSDOF 26
