REMARK SMILES C[C@@H](C(=O)OCCOCCOCCOCCOC(=O)c1ccc(-c2c3nc(c(-c4c(F)c(F)c(F)c(F)c4F)c4ccc([nH]4)c(-c4c(F)c(F)c(F)c(F)c4F)c4nc(c(-c5c(F)c(F)c(F)c(F)c5F)c5ccc2[nH]5)C=C4)C=C3)cc1)S(=O)(=O)N[C@@]12C[C@@H]3C[C@@](C)(C[C@@](C)(C3)C1)C2
REMARK SMILES IDX 10 1 9 2 8 3 7 4 6 5 5 6 3 7 4 8 2 9 1 10 83 11 84 12 85 13
REMARK SMILES IDX 86 14 87 16 88 17 97 18 98 19 89 20 94 21 91 22 96 23 90 24
REMARK SMILES IDX 93 25 95 26 92 27 11 28 12 29 13 30 14 31 15 32 16 33 17 34
REMARK SMILES IDX 18 35 19 36 20 37 21 38 82 39 22 40 81 41 23 42 24 43 25 44
REMARK SMILES IDX 75 45 26 46 80 47 74 48 76 49 27 50 79 51 73 52 72 53 28 55
REMARK SMILES IDX 60 56 40 57 59 58 41 59 44 60 58 61 77 62 42 63 43 64 57 66
REMARK SMILES IDX 78 67 45 68 29 69 30 70 38 71 31 72 32 73 36 74 39 75 33 76
REMARK SMILES IDX 34 77 37 78 35 79 61 80 62 81 70 82 63 83 64 84 68 85 71 86
REMARK SMILES IDX 65 87 66 88 69 89 67 90 46 91 47 92 55 93 48 94 49 95 53 96
REMARK SMILES IDX 56 97 50 98 51 99 54 100 52 101
REMARK H PARENT 86 15 76 54 44 65
REMARK Flexibility Score: inf
ROOT
ATOM      1  C   UNL     1       0.178  -1.135  -4.007  1.00  0.00     0.188 C 
ENDROOT
BRANCH   1   2
ATOM      2  C   UNL     1      -0.252   0.243  -4.508  1.00  0.00     0.188 C 
BRANCH   2   3
ATOM      3  O   UNL     1       0.581   0.815  -5.517  1.00  0.00    -0.376 OA
BRANCH   3   4
ATOM      4  C   UNL     1       1.972   0.936  -5.237  1.00  0.00     0.202 C 
BRANCH   4   5
ATOM      5  C   UNL     1       2.373   1.909  -4.120  1.00  0.00     0.261 C 
BRANCH   5   6
ATOM      6  O   UNL     1       1.876   1.552  -2.814  1.00  0.00    -0.462 OA
BRANCH   6   7
ATOM      7  C   UNL     1       0.912   2.354  -2.274  1.00  0.00     0.325 C 
ATOM      8  O   UNL     1       0.456   3.338  -2.843  1.00  0.00    -0.251 OA
BRANCH   7   9
ATOM      9  C   UNL     1       0.560   1.973  -0.865  1.00  0.00     0.230 C 
ATOM     10  C   UNL     1       1.653   1.242  -0.115  1.00  0.00     0.039 C 
BRANCH   9  11
ATOM     11  S   UNL     1      -1.135   1.404  -0.650  1.00  0.00     0.225 S 
ATOM     12  O   UNL     1      -1.458   1.577   0.749  1.00  0.00    -0.212 OA
ATOM     13  O   UNL     1      -1.961   2.067  -1.640  1.00  0.00    -0.212 OA
BRANCH  11  14
ATOM     14  N   UNL     1      -1.370  -0.215  -1.032  1.00  0.00    -0.208 NA
ATOM     15  H   UNL     1      -0.689  -0.415  -1.764  1.00  0.00     0.141 HD
BRANCH  14  16
ATOM     16  C   UNL     1      -1.285  -1.386  -0.093  1.00  0.00     0.034 C 
ATOM     17  C   UNL     1       0.176  -1.582   0.299  1.00  0.00     0.027 C 
ATOM     18  C   UNL     1      -2.175  -1.290   1.168  1.00  0.00     0.030 C 
ATOM     19  C   UNL     1      -1.774  -2.670  -0.838  1.00  0.00     0.030 C 
ATOM     20  C   UNL     1       0.379  -2.811   1.173  1.00  0.00    -0.008 C 
ATOM     21  C   UNL     1      -1.962  -2.528   2.092  1.00  0.00    -0.030 C 
ATOM     22  C   UNL     1      -1.559  -3.945   0.026  1.00  0.00    -0.030 C 
ATOM     23  C   UNL     1      -0.458  -2.636   2.443  1.00  0.00     0.010 C 
ATOM     24  C   UNL     1      -0.067  -4.054   0.405  1.00  0.00     0.010 C 
ATOM     25  C   UNL     1      -2.371  -3.806   1.329  1.00  0.00     0.013 C 
ATOM     26  C   UNL     1      -2.786  -2.401   3.381  1.00  0.00     0.011 C 
ATOM     27  C   UNL     1      -2.011  -5.209  -0.717  1.00  0.00     0.011 C 
ENDBRANCH  14  16
ENDBRANCH  11  14
ENDBRANCH   9  11
ENDBRANCH   7   9
ENDBRANCH   6   7
ENDBRANCH   5   6
ENDBRANCH   4   5
ENDBRANCH   3   4
ENDBRANCH   2   3
ENDBRANCH   1   2
BRANCH   1  28
ATOM     28  O   UNL     1       1.378  -1.075  -3.239  1.00  0.00    -0.377 OA
BRANCH  28  29
ATOM     29  C   UNL     1       2.378  -2.078  -3.432  1.00  0.00     0.188 C 
BRANCH  29  30
ATOM     30  C   UNL     1       2.215  -3.049  -4.609  1.00  0.00     0.188 C 
BRANCH  30  31
ATOM     31  O   UNL     1       1.084  -3.922  -4.599  1.00  0.00    -0.376 OA
BRANCH  31  32
ATOM     32  C   UNL     1       0.604  -4.386  -3.343  1.00  0.00     0.202 C 
BRANCH  32  33
ATOM     33  C   UNL     1       1.266  -5.665  -2.838  1.00  0.00     0.261 C 
BRANCH  33  34
ATOM     34  O   UNL     1       2.644  -5.420  -2.526  1.00  0.00    -0.460 OA
BRANCH  34  35
ATOM     35  C   UNL     1       3.505  -5.891  -3.451  1.00  0.00     0.338 C 
ATOM     36  O   UNL     1       3.249  -6.575  -4.433  1.00  0.00    -0.246 OA
BRANCH  35  37
ATOM     37  C   UNL     1       4.830  -5.298  -3.232  1.00  0.00     0.060 A 
ATOM     38  C   UNL     1       5.473  -4.757  -4.352  1.00  0.00     0.016 A 
ATOM     39  C   UNL     1       5.460  -5.336  -1.986  1.00  0.00     0.016 A 
ATOM     40  C   UNL     1       6.777  -4.304  -4.250  1.00  0.00     0.010 A 
ATOM     41  C   UNL     1       6.784  -4.909  -1.889  1.00  0.00     0.010 A 
ATOM     42  C   UNL     1       7.454  -4.444  -3.035  1.00  0.00    -0.014 A 
BRANCH  42  43
ATOM     43  C   UNL     1       8.925  -4.345  -3.057  1.00  0.00     0.031 A 
ATOM     44  C   UNL     1       9.712  -5.617  -3.199  1.00  0.00     0.074 A 
ATOM     45  C   UNL     1       9.528  -3.147  -3.047  1.00  0.00     0.049 A 
ATOM     46  N   UNL     1      11.006  -5.794  -3.239  1.00  0.00    -0.248 NA
ATOM     47  C   UNL     1       8.931  -6.860  -3.318  1.00  0.00     0.031 C 
ATOM     48  C   UNL     1       8.840  -1.859  -2.995  1.00  0.00     0.029 A 
ATOM     49  N   UNL     1      10.857  -2.823  -3.088  1.00  0.00    -0.354 N 
ATOM     50  C   UNL     1      11.191  -7.164  -3.376  1.00  0.00     0.074 A 
ATOM     51  C   UNL     1       9.883  -7.777  -3.385  1.00  0.00     0.031 C 
ATOM     52  C   UNL     1       9.758  -0.877  -2.996  1.00  0.00     0.029 A 
ATOM     53  C   UNL     1      11.091  -1.474  -3.009  1.00  0.00     0.049 A 
ATOM     54  H   UNL     1      11.574  -3.493  -3.167  1.00  0.00     0.167 HD
ATOM     55  C   UNL     1      12.355  -7.843  -3.490  1.00  0.00     0.037 A 
ATOM     56  C   UNL     1      12.259  -0.810  -2.928  1.00  0.00     0.037 A 
ATOM     57  C   UNL     1      13.648  -7.212  -3.480  1.00  0.00     0.049 A 
ATOM     58  C   UNL     1      13.543  -1.599  -2.964  1.00  0.00     0.074 A 
ATOM     59  C   UNL     1      14.896  -7.796  -3.590  1.00  0.00     0.029 A 
ATOM     60  N   UNL     1      13.853  -5.846  -3.341  1.00  0.00    -0.354 N 
ATOM     61  N   UNL     1      13.718  -2.893  -3.096  1.00  0.00    -0.248 NA
ATOM     62  C   UNL     1      14.790  -0.836  -2.844  1.00  0.00     0.031 C 
ATOM     63  C   UNL     1      15.858  -6.790  -3.452  1.00  0.00     0.029 A 
ATOM     64  C   UNL     1      15.210  -5.571  -3.330  1.00  0.00     0.049 A 
ATOM     65  H   UNL     1      13.139  -5.172  -3.262  1.00  0.00     0.167 HD
ATOM     66  C   UNL     1      15.091  -3.096  -3.107  1.00  0.00     0.074 A 
ATOM     67  C   UNL     1      15.702  -1.788  -2.983  1.00  0.00     0.031 C 
ATOM     68  C   UNL     1      15.788  -4.255  -3.212  1.00  0.00     0.037 A 
BRANCH  55  69
ATOM     69  C   UNL     1      12.283  -9.340  -3.586  1.00  0.00     0.064 A 
ATOM     70  C   UNL     1      11.770  -9.991  -4.719  1.00  0.00     0.173 A 
ATOM     71  C   UNL     1      12.753 -10.137  -2.531  1.00  0.00     0.173 A 
ATOM     72  F   UNL     1      11.288  -9.278  -5.748  1.00  0.00    -0.203 F 
ATOM     73  C   UNL     1      11.707 -11.382  -4.779  1.00  0.00     0.198 A 
ATOM     74  C   UNL     1      12.720 -11.527  -2.609  1.00  0.00     0.198 A 
ATOM     75  F   UNL     1      13.250  -9.567  -1.423  1.00  0.00    -0.203 F 
ATOM     76  F   UNL     1      11.164 -11.981  -5.848  1.00  0.00    -0.200 F 
ATOM     77  C   UNL     1      12.190 -12.148  -3.729  1.00  0.00     0.200 A 
ATOM     78  F   UNL     1      13.197 -12.264  -1.597  1.00  0.00    -0.200 F 
ATOM     79  F   UNL     1      12.136 -13.486  -3.792  1.00  0.00    -0.200 F 
ENDBRANCH  55  69
BRANCH  56  80
ATOM     80  C   UNL     1      12.265   0.668  -2.783  1.00  0.00     0.064 A 
ATOM     81  C   UNL     1      12.780   1.495  -3.791  1.00  0.00     0.173 A 
ATOM     82  C   UNL     1      11.764   1.286  -1.627  1.00  0.00     0.173 A 
ATOM     83  F   UNL     1      13.287   0.953  -4.907  1.00  0.00    -0.203 F 
ATOM     84  C   UNL     1      12.814   2.880  -3.638  1.00  0.00     0.198 A 
ATOM     85  C   UNL     1      11.769   2.672  -1.489  1.00  0.00     0.198 A 
ATOM     86  F   UNL     1      11.257   0.542  -0.632  1.00  0.00    -0.203 F 
ATOM     87  F   UNL     1      13.357   3.644  -4.596  1.00  0.00    -0.200 F 
ATOM     88  C   UNL     1      12.303   3.468  -2.490  1.00  0.00     0.200 A 
ATOM     89  F   UNL     1      11.257   3.235  -0.386  1.00  0.00    -0.200 F 
ATOM     90  F   UNL     1      12.331   4.799  -2.346  1.00  0.00    -0.200 F 
ENDBRANCH  56  80
BRANCH  68  91
ATOM     91  C   UNL     1      17.287  -4.155  -3.241  1.00  0.00     0.064 A 
ATOM     92  C   UNL     1      18.027  -3.796  -2.106  1.00  0.00     0.173 A 
ATOM     93  C   UNL     1      17.992  -4.468  -4.414  1.00  0.00     0.173 A 
ATOM     94  F   UNL     1      17.400  -3.475  -0.964  1.00  0.00    -0.203 F 
ATOM     95  C   UNL     1      19.417  -3.720  -2.154  1.00  0.00     0.198 A 
ATOM     96  C   UNL     1      19.382  -4.429  -4.447  1.00  0.00     0.198 A 
ATOM     97  F   UNL     1      17.332  -4.829  -5.525  1.00  0.00    -0.203 F 
ATOM     98  F   UNL     1      20.101  -3.319  -1.074  1.00  0.00    -0.200 F 
ATOM     99  C   UNL     1      20.093  -4.046  -3.320  1.00  0.00     0.200 A 
ATOM    100  F   UNL     1      20.034  -4.763  -5.569  1.00  0.00    -0.200 F 
ATOM    101  F   UNL     1      21.431  -3.982  -3.361  1.00  0.00    -0.200 F 
ENDBRANCH  68  91
ENDBRANCH  42  43
ENDBRANCH  35  37
ENDBRANCH  34  35
ENDBRANCH  33  34
ENDBRANCH  32  33
ENDBRANCH  31  32
ENDBRANCH  30  31
ENDBRANCH  29  30
ENDBRANCH  28  29
ENDBRANCH   1  28
TORSDOF 23
