REMARK SMILES Cc1cc2n(n1)CC[N@@H+](Cc1ncccc1C(=O)OCCOCCOCCOCCOC(=O)c1ccc(-c3c4nc(c(-c5c(F)c(F)c(F)c(F)c5F)c5ccc([nH]5)c(-c5c(F)c(F)c(F)c(F)c5F)c5nc(c(-c6c(F)c(F)c(F)c(F)c6F)c6ccc3[nH]6)C=C5)C=C4)cc1)C2
REMARK SMILES IDX 25 1 24 2 23 3 22 4 21 5 20 6 19 7 17 8 18 9 16 10 11 11
REMARK SMILES IDX 12 12 13 13 15 14 14 15 10 16 9 17 1 18 2 19 3 20 6 21 4 22
REMARK SMILES IDX 5 23 97 24 7 25 8 26 26 28 27 29 28 30 29 31 30 32 31 33
REMARK SMILES IDX 32 34 33 35 34 36 35 37 96 38 36 39 95 40 37 41 38 42 39 43
REMARK SMILES IDX 89 44 40 45 94 46 88 47 90 48 41 49 93 50 87 51 86 52 42 54
REMARK SMILES IDX 74 55 54 56 73 57 55 58 58 59 72 60 91 61 56 62 57 63 71 65
REMARK SMILES IDX 92 66 59 67 43 68 44 69 52 70 45 71 46 72 50 73 53 74 47 75
REMARK SMILES IDX 48 76 51 77 49 78 75 79 76 80 84 81 77 82 78 83 82 84 85 85
REMARK SMILES IDX 79 86 80 87 83 88 81 89 60 90 61 91 69 92 62 93 63 94 67 95
REMARK SMILES IDX 70 96 64 97 65 98 68 99 66 100
REMARK H PARENT 9 27 90 53 58 64
REMARK Flexibility Score: inf
ROOT
ATOM      1  O   UNL     1       1.861  -1.731   0.778  1.00  0.00    -0.377 OA
ENDROOT
BRANCH   1   2
ATOM      2  C   UNL     1       2.355  -2.956   0.246  1.00  0.00     0.188 C 
BRANCH   2   3
ATOM      3  C   UNL     1       1.610  -4.260   0.617  1.00  0.00     0.188 C 
BRANCH   3   4
ATOM      4  O   UNL     1       2.086  -4.948   1.770  1.00  0.00    -0.376 OA
BRANCH   4   5
ATOM      5  C   UNL     1       3.500  -5.014   1.894  1.00  0.00     0.202 C 
BRANCH   5   6
ATOM      6  C   UNL     1       4.292  -5.632   0.717  1.00  0.00     0.261 C 
BRANCH   6   7
ATOM      7  O   UNL     1       4.023  -5.080  -0.602  1.00  0.00    -0.460 OA
BRANCH   7   8
ATOM      8  C   UNL     1       3.386  -5.866  -1.526  1.00  0.00     0.340 C 
ATOM      9  O   UNL     1       3.010  -7.008  -1.333  1.00  0.00    -0.246 OA
BRANCH   8  10
ATOM     10  C   UNL     1       3.184  -5.127  -2.815  1.00  0.00     0.087 A 
ATOM     11  C   UNL     1       2.149  -5.394  -3.734  1.00  0.00     0.109 A 
ATOM     12  N   UNL     1       2.135  -4.831  -4.985  1.00  0.00    -0.254 NA
ATOM     13  C   UNL     1       3.089  -3.936  -5.302  1.00  0.00     0.111 A 
ATOM     14  C   UNL     1       4.136  -4.160  -3.179  1.00  0.00     0.019 A 
ATOM     15  C   UNL     1       4.082  -3.548  -4.428  1.00  0.00     0.021 A 
BRANCH  11  16
ATOM     16  C   UNL     1       0.933  -6.265  -3.466  1.00  0.00     0.320 C 
BRANCH  16  17
ATOM     17  N   UNL     1      -0.389  -5.593  -3.395  1.00  0.00    -0.323 N 
ATOM     18  C   UNL     1       1.206  -0.006  -2.295  1.00  0.00     0.069 C 
ATOM     19  C   UNL     1       0.448  -1.224  -2.662  1.00  0.00     0.060 A 
ATOM     20  C   UNL     1       0.011  -2.216  -1.768  1.00  0.00     0.054 A 
ATOM     21  N   UNL     1       0.157  -1.559  -3.928  1.00  0.00    -0.178 NA
ATOM     22  C   UNL     1      -0.291  -3.305  -2.538  1.00  0.00     0.093 A 
ATOM     23  N   UNL     1      -0.330  -2.815  -3.803  1.00  0.00    -0.258 N 
ATOM     24  C   UNL     1      -0.584  -4.723  -2.242  1.00  0.00     0.319 C 
ATOM     25  C   UNL     1      -0.944  -3.533  -4.891  1.00  0.00     0.206 C 
ATOM     26  C   UNL     1      -0.924  -5.060  -4.659  1.00  0.00     0.286 C 
ATOM     27  H   UNL     1      -1.005  -6.385  -3.215  1.00  0.00     0.348 HD
ENDBRANCH  16  17
ENDBRANCH  11  16
ENDBRANCH   8  10
ENDBRANCH   7   8
ENDBRANCH   6   7
ENDBRANCH   5   6
ENDBRANCH   4   5
ENDBRANCH   3   4
ENDBRANCH   2   3
ENDBRANCH   1   2
BRANCH   1  28
ATOM     28  C   UNL     1       1.352  -1.785   2.107  1.00  0.00     0.188 C 
BRANCH  28  29
ATOM     29  C   UNL     1      -0.159  -1.549   2.064  1.00  0.00     0.188 C 
BRANCH  29  30
ATOM     30  O   UNL     1      -0.856  -2.554   1.325  1.00  0.00    -0.376 OA
BRANCH  30  31
ATOM     31  C   UNL     1      -2.273  -2.407   1.209  1.00  0.00     0.202 C 
BRANCH  31  32
ATOM     32  C   UNL     1      -2.776  -1.427   0.142  1.00  0.00     0.261 C 
BRANCH  32  33
ATOM     33  O   UNL     1      -2.123  -0.170   0.142  1.00  0.00    -0.460 OA
BRANCH  33  34
ATOM     34  C   UNL     1      -2.191   0.574   1.259  1.00  0.00     0.338 C 
ATOM     35  O   UNL     1      -2.771   0.308   2.300  1.00  0.00    -0.246 OA
BRANCH  34  36
ATOM     36  C   UNL     1      -1.382   1.776   1.018  1.00  0.00     0.060 A 
ATOM     37  C   UNL     1      -1.282   2.712   2.042  1.00  0.00     0.016 A 
ATOM     38  C   UNL     1      -0.865   2.026  -0.265  1.00  0.00     0.016 A 
ATOM     39  C   UNL     1      -0.932   3.995   1.691  1.00  0.00     0.010 A 
ATOM     40  C   UNL     1      -0.446   3.284  -0.599  1.00  0.00     0.010 A 
ATOM     41  C   UNL     1      -0.641   4.273   0.345  1.00  0.00    -0.014 A 
BRANCH  41  42
ATOM     42  C   UNL     1      -0.624   5.652  -0.076  1.00  0.00     0.031 A 
ATOM     43  C   UNL     1       0.449   6.427   0.559  1.00  0.00     0.074 A 
ATOM     44  C   UNL     1      -1.537   6.150  -0.932  1.00  0.00     0.049 A 
ATOM     45  N   UNL     1       0.313   7.267   1.526  1.00  0.00    -0.248 NA
ATOM     46  C   UNL     1       1.837   6.073   0.241  1.00  0.00     0.031 C 
ATOM     47  C   UNL     1      -2.504   5.446  -1.779  1.00  0.00     0.029 A 
ATOM     48  N   UNL     1      -1.748   7.453  -1.254  1.00  0.00    -0.354 N 
ATOM     49  C   UNL     1       1.594   7.710   1.811  1.00  0.00     0.074 A 
ATOM     50  C   UNL     1       2.496   6.815   1.132  1.00  0.00     0.031 C 
ATOM     51  C   UNL     1      -3.034   6.313  -2.673  1.00  0.00     0.029 A 
ATOM     52  C   UNL     1      -2.564   7.650  -2.360  1.00  0.00     0.049 A 
ATOM     53  H   UNL     1      -1.353   8.197  -0.744  1.00  0.00     0.167 HD
ATOM     54  C   UNL     1       1.776   8.939   2.360  1.00  0.00     0.037 A 
ATOM     55  C   UNL     1      -2.764   8.838  -2.983  1.00  0.00     0.037 A 
ATOM     56  C   UNL     1       0.567   9.405   2.999  1.00  0.00     0.049 A 
ATOM     57  C   UNL     1      -2.433   9.907  -2.000  1.00  0.00     0.074 A 
ATOM     58  C   UNL     1      -0.220   8.919   4.028  1.00  0.00     0.029 A 
ATOM     59  N   UNL     1      -0.226  10.300   2.321  1.00  0.00    -0.354 N 
ATOM     60  N   UNL     1      -3.149  10.145  -0.934  1.00  0.00    -0.248 NA
ATOM     61  C   UNL     1      -1.048  10.355  -1.932  1.00  0.00     0.031 C 
ATOM     62  C   UNL     1      -1.564   9.168   3.620  1.00  0.00     0.029 A 
ATOM     63  C   UNL     1      -1.524   9.860   2.409  1.00  0.00     0.049 A 
ATOM     64  H   UNL     1       0.082  11.111   1.855  1.00  0.00     0.167 HD
ATOM     65  C   UNL     1      -2.221  10.361   0.075  1.00  0.00     0.074 A 
ATOM     66  C   UNL     1      -0.944  10.544  -0.613  1.00  0.00     0.031 C 
ATOM     67  C   UNL     1      -2.512  10.075   1.378  1.00  0.00     0.037 A 
BRANCH  54  68
ATOM     68  C   UNL     1       2.897   9.857   1.953  1.00  0.00     0.064 A 
ATOM     69  C   UNL     1       3.061  11.073   2.641  1.00  0.00     0.173 A 
ATOM     70  C   UNL     1       3.613   9.741   0.739  1.00  0.00     0.173 A 
ATOM     71  F   UNL     1       2.416  11.296   3.796  1.00  0.00    -0.203 F 
ATOM     72  C   UNL     1       3.812  12.122   2.108  1.00  0.00     0.198 A 
ATOM     73  C   UNL     1       4.403  10.770   0.238  1.00  0.00     0.198 A 
ATOM     74  F   UNL     1       3.492   8.684  -0.071  1.00  0.00    -0.203 F 
ATOM     75  F   UNL     1       3.832  13.307   2.732  1.00  0.00    -0.200 F 
ATOM     76  C   UNL     1       4.475  11.973   0.904  1.00  0.00     0.200 A 
ATOM     77  F   UNL     1       5.021  10.608  -0.940  1.00  0.00    -0.200 F 
ATOM     78  F   UNL     1       5.140  12.999   0.358  1.00  0.00    -0.200 F 
ENDBRANCH  54  68
BRANCH  55  79
ATOM     79  C   UNL     1      -2.857   9.091  -4.442  1.00  0.00     0.064 A 
ATOM     80  C   UNL     1      -3.288  10.334  -4.937  1.00  0.00     0.173 A 
ATOM     81  C   UNL     1      -2.258   8.223  -5.377  1.00  0.00     0.173 A 
ATOM     82  F   UNL     1      -3.827  11.240  -4.108  1.00  0.00    -0.203 F 
ATOM     83  C   UNL     1      -3.105  10.695  -6.277  1.00  0.00     0.198 A 
ATOM     84  C   UNL     1      -2.080   8.582  -6.714  1.00  0.00     0.198 A 
ATOM     85  F   UNL     1      -1.743   7.047  -4.993  1.00  0.00    -0.203 F 
ATOM     86  F   UNL     1      -3.472  11.914  -6.698  1.00  0.00    -0.200 F 
ATOM     87  C   UNL     1      -2.491   9.823  -7.161  1.00  0.00     0.200 A 
ATOM     88  F   UNL     1      -1.449   7.744  -7.548  1.00  0.00    -0.200 F 
ATOM     89  F   UNL     1      -2.258  10.193  -8.428  1.00  0.00    -0.200 F 
ENDBRANCH  55  79
BRANCH  67  90
ATOM     90  C   UNL     1      -3.940   9.742   1.722  1.00  0.00     0.064 A 
ATOM     91  C   UNL     1      -4.636   8.631   1.211  1.00  0.00     0.173 A 
ATOM     92  C   UNL     1      -4.577  10.496   2.716  1.00  0.00     0.173 A 
ATOM     93  F   UNL     1      -4.060   7.799   0.335  1.00  0.00    -0.203 F 
ATOM     94  C   UNL     1      -5.926   8.323   1.644  1.00  0.00     0.198 A 
ATOM     95  C   UNL     1      -5.849  10.164   3.174  1.00  0.00     0.198 A 
ATOM     96  F   UNL     1      -3.941  11.533   3.283  1.00  0.00    -0.203 F 
ATOM     97  F   UNL     1      -6.574   7.266   1.132  1.00  0.00    -0.200 F 
ATOM     98  C   UNL     1      -6.529   9.086   2.630  1.00  0.00     0.200 A 
ATOM     99  F   UNL     1      -6.406  10.874   4.165  1.00  0.00    -0.200 F 
ATOM    100  F   UNL     1      -7.752   8.767   3.077  1.00  0.00    -0.200 F 
ENDBRANCH  67  90
ENDBRANCH  41  42
ENDBRANCH  34  36
ENDBRANCH  33  34
ENDBRANCH  32  33
ENDBRANCH  31  32
ENDBRANCH  30  31
ENDBRANCH  29  30
ENDBRANCH  28  29
ENDBRANCH   1  28
TORSDOF 22
