REMARK SMILES O=C(Nc1ccccc1C(=O)OCCOCCOCCOCCOC(=O)c1ccc(-c2c3nc(c(-c4c(F)c(F)c(F)c(F)c4F)c4ccc([nH]4)c(-c4c(F)c(F)c(F)c(F)c4F)c4nc(c(-c5c(F)c(F)c(F)c(F)c5F)c5ccc2[nH]5)C=C4)C=C3)cc1)c1ccc(N2C(=O)[C@H]3CC=CC[C@H]3C2=O)cc1
REMARK SMILES IDX 17 1 16 2 15 3 14 4 13 5 12 6 10 7 11 8 9 9 4 10 5 11 6 12
REMARK SMILES IDX 8 13 7 14 3 15 1 16 2 17 90 19 91 20 106 21 92 22 105 23
REMARK SMILES IDX 93 24 94 25 95 26 103 27 96 28 97 29 102 30 104 31 98 32
REMARK SMILES IDX 101 33 99 34 100 35 18 36 19 37 20 38 21 39 22 40 23 41
REMARK SMILES IDX 24 42 25 43 26 44 27 45 28 46 89 47 29 48 88 49 30 50 31 51
REMARK SMILES IDX 32 52 82 53 33 54 87 55 81 56 83 57 34 58 86 59 80 60 79 61
REMARK SMILES IDX 35 63 67 64 47 65 66 66 48 67 51 68 65 69 84 70 49 71 50 72
REMARK SMILES IDX 64 74 85 75 52 76 36 77 37 78 45 79 38 80 39 81 43 82 46 83
REMARK SMILES IDX 40 84 41 85 44 86 42 87 68 88 69 89 77 90 70 91 71 92 75 93
REMARK SMILES IDX 78 94 72 95 73 96 76 97 74 98 53 99 54 100 62 101 55 102
REMARK SMILES IDX 56 103 60 104 63 105 57 106 58 107 61 108 59 109
REMARK H PARENT 3 18 83 62 51 73
REMARK Flexibility Score: inf
ROOT
ATOM      1  C   UNL     1       4.484  -3.598  -0.687  1.00  0.00     0.188 C 
ENDROOT
BRANCH   1   2
ATOM      2  C   UNL     1       5.024  -4.048   0.692  1.00  0.00     0.188 C 
BRANCH   2   3
ATOM      3  O   UNL     1       4.020  -4.394   1.623  1.00  0.00    -0.376 OA
BRANCH   3   4
ATOM      4  C   UNL     1       3.655  -3.511   2.658  1.00  0.00     0.202 C 
BRANCH   4   5
ATOM      5  C   UNL     1       3.126  -2.126   2.303  1.00  0.00     0.261 C 
BRANCH   5   6
ATOM      6  O   UNL     1       3.670  -1.462   1.157  1.00  0.00    -0.460 OA
BRANCH   6   7
ATOM      7  C   UNL     1       4.879  -0.876   1.290  1.00  0.00     0.340 C 
ATOM      8  O   UNL     1       5.622  -0.970   2.254  1.00  0.00    -0.246 OA
BRANCH   7   9
ATOM      9  C   UNL     1       5.299  -0.247   0.006  1.00  0.00     0.083 A 
ATOM     10  C   UNL     1       4.472   0.404  -0.935  1.00  0.00     0.056 A 
ATOM     11  C   UNL     1       5.029   0.723  -2.190  1.00  0.00     0.027 A 
ATOM     12  C   UNL     1       6.375   0.486  -2.482  1.00  0.00     0.002 A 
ATOM     13  C   UNL     1       6.658  -0.478  -0.303  1.00  0.00     0.018 A 
ATOM     14  C   UNL     1       7.194  -0.105  -1.532  1.00  0.00     0.001 A 
BRANCH  10  15
ATOM     15  N   UNL     1       3.119   0.800  -0.802  1.00  0.00    -0.321 N 
ATOM     16  O   UNL     1       1.118   1.261   0.130  1.00  0.00    -0.269 OA
ATOM     17  C   UNL     1       2.337   1.169   0.270  1.00  0.00     0.255 C 
ATOM     18  H   UNL     1       2.634   0.816  -1.659  1.00  0.00     0.170 HD
BRANCH  17  19
ATOM     19  C   UNL     1       2.932   1.489   1.583  1.00  0.00     0.040 A 
ATOM     20  C   UNL     1       4.150   2.165   1.706  1.00  0.00     0.016 A 
ATOM     21  C   UNL     1       2.307   0.955   2.710  1.00  0.00     0.016 A 
ATOM     22  C   UNL     1       4.855   2.099   2.912  1.00  0.00     0.027 A 
ATOM     23  C   UNL     1       3.025   0.864   3.898  1.00  0.00     0.027 A 
ATOM     24  C   UNL     1       4.337   1.350   3.973  1.00  0.00     0.052 A 
BRANCH  24  25
ATOM     25  N   UNL     1       5.133   0.996   5.079  1.00  0.00    -0.250 N 
ATOM     26  C   UNL     1       5.926   1.871   5.768  1.00  0.00     0.238 C 
ATOM     27  C   UNL     1       5.197  -0.282   5.583  1.00  0.00     0.238 C 
ATOM     28  O   UNL     1       6.206   3.027   5.481  1.00  0.00    -0.274 OA
ATOM     29  C   UNL     1       6.319   1.216   7.070  1.00  0.00     0.096 C 
ATOM     30  C   UNL     1       6.048  -0.274   6.829  1.00  0.00     0.096 C 
ATOM     31  O   UNL     1       4.690  -1.306   5.138  1.00  0.00    -0.274 OA
ATOM     32  C   UNL     1       5.486   1.843   8.201  1.00  0.00     0.041 C 
ATOM     33  C   UNL     1       5.255  -0.983   7.930  1.00  0.00     0.041 C 
ATOM     34  C   UNL     1       4.159   1.167   8.412  1.00  0.00    -0.030 C 
ATOM     35  C   UNL     1       4.054  -0.165   8.312  1.00  0.00    -0.030 C 
ENDBRANCH  24  25
ENDBRANCH  17  19
ENDBRANCH  10  15
ENDBRANCH   7   9
ENDBRANCH   6   7
ENDBRANCH   5   6
ENDBRANCH   4   5
ENDBRANCH   3   4
ENDBRANCH   2   3
ENDBRANCH   1   2
BRANCH   1  36
ATOM     36  O   UNL     1       3.348  -4.243  -1.248  1.00  0.00    -0.377 OA
BRANCH  36  37
ATOM     37  C   UNL     1       2.275  -4.527  -0.366  1.00  0.00     0.188 C 
BRANCH  37  38
ATOM     38  C   UNL     1       2.336  -5.944   0.243  1.00  0.00     0.188 C 
BRANCH  38  39
ATOM     39  O   UNL     1       3.446  -6.794   0.005  1.00  0.00    -0.376 OA
BRANCH  39  40
ATOM     40  C   UNL     1       4.057  -6.888  -1.269  1.00  0.00     0.202 C 
BRANCH  40  41
ATOM     41  C   UNL     1       3.289  -6.824  -2.606  1.00  0.00     0.261 C 
BRANCH  41  42
ATOM     42  O   UNL     1       1.954  -6.315  -2.603  1.00  0.00    -0.460 OA
BRANCH  42  43
ATOM     43  C   UNL     1       0.979  -7.200  -2.319  1.00  0.00     0.338 C 
ATOM     44  O   UNL     1       1.099  -8.390  -2.072  1.00  0.00    -0.246 OA
BRANCH  43  45
ATOM     45  C   UNL     1      -0.286  -6.449  -2.196  1.00  0.00     0.060 A 
ATOM     46  C   UNL     1      -0.962  -6.445  -0.967  1.00  0.00     0.016 A 
ATOM     47  C   UNL     1      -0.809  -5.766  -3.295  1.00  0.00     0.016 A 
ATOM     48  C   UNL     1      -2.177  -5.780  -0.838  1.00  0.00     0.010 A 
ATOM     49  C   UNL     1      -2.049  -5.137  -3.178  1.00  0.00     0.010 A 
ATOM     50  C   UNL     1      -2.752  -5.176  -1.960  1.00  0.00    -0.014 A 
BRANCH  50  51
ATOM     51  C   UNL     1      -4.185  -4.813  -1.925  1.00  0.00     0.031 A 
ATOM     52  C   UNL     1      -5.171  -5.806  -2.474  1.00  0.00     0.074 A 
ATOM     53  C   UNL     1      -4.601  -3.647  -1.405  1.00  0.00     0.049 A 
ATOM     54  N   UNL     1      -6.464  -5.694  -2.636  1.00  0.00    -0.248 NA
ATOM     55  C   UNL     1      -4.622  -7.103  -2.907  1.00  0.00     0.031 C 
ATOM     56  C   UNL     1      -3.741  -2.637  -0.793  1.00  0.00     0.029 A 
ATOM     57  N   UNL     1      -5.862  -3.112  -1.325  1.00  0.00    -0.354 N 
ATOM     58  C   UNL     1      -6.874  -6.891  -3.209  1.00  0.00     0.074 A 
ATOM     59  C   UNL     1      -5.697  -7.711  -3.382  1.00  0.00     0.031 C 
ATOM     60  C   UNL     1      -4.499  -1.591  -0.419  1.00  0.00     0.029 A 
ATOM     61  C   UNL     1      -5.887  -1.843  -0.802  1.00  0.00     0.049 A 
ATOM     62  H   UNL     1      -6.671  -3.593  -1.614  1.00  0.00     0.167 HD
ATOM     63  C   UNL     1      -8.125  -7.266  -3.561  1.00  0.00     0.037 A 
ATOM     64  C   UNL     1      -6.914  -0.979  -0.683  1.00  0.00     0.037 A 
ATOM     65  C   UNL     1      -9.292  -6.449  -3.370  1.00  0.00     0.049 A 
ATOM     66  C   UNL     1      -8.286  -1.401  -1.151  1.00  0.00     0.074 A 
ATOM     67  C   UNL     1     -10.612  -6.754  -3.652  1.00  0.00     0.029 A 
ATOM     68  N   UNL     1      -9.277  -5.160  -2.859  1.00  0.00    -0.354 N 
ATOM     69  N   UNL     1      -8.678  -2.546  -1.657  1.00  0.00    -0.248 NA
ATOM     70  C   UNL     1      -9.362  -0.406  -1.030  1.00  0.00     0.031 C 
ATOM     71  C   UNL     1     -11.386  -5.623  -3.380  1.00  0.00     0.029 A 
ATOM     72  C   UNL     1     -10.561  -4.641  -2.856  1.00  0.00     0.049 A 
ATOM     73  H   UNL     1      -8.474  -4.685  -2.546  1.00  0.00     0.167 HD
ATOM     74  C   UNL     1     -10.046  -2.423  -1.873  1.00  0.00     0.074 A 
ATOM     75  C   UNL     1     -10.419  -1.097  -1.432  1.00  0.00     0.031 C 
ATOM     76  C   UNL     1     -10.917  -3.325  -2.391  1.00  0.00     0.037 A 
BRANCH  63  77
ATOM     77  C   UNL     1      -8.298  -8.599  -4.228  1.00  0.00     0.064 A 
ATOM     78  C   UNL     1      -8.149  -9.807  -3.532  1.00  0.00     0.173 A 
ATOM     79  C   UNL     1      -8.679  -8.661  -5.578  1.00  0.00     0.173 A 
ATOM     80  F   UNL     1      -7.770  -9.803  -2.245  1.00  0.00    -0.203 F 
ATOM     81  C   UNL     1      -8.364 -11.028  -4.166  1.00  0.00     0.198 A 
ATOM     82  C   UNL     1      -8.924  -9.881  -6.199  1.00  0.00     0.198 A 
ATOM     83  F   UNL     1      -8.834  -7.534  -6.290  1.00  0.00    -0.203 F 
ATOM     84  F   UNL     1      -8.182 -12.172  -3.492  1.00  0.00    -0.200 F 
ATOM     85  C   UNL     1      -8.762 -11.064  -5.495  1.00  0.00     0.200 A 
ATOM     86  F   UNL     1      -9.323  -9.912  -7.478  1.00  0.00    -0.200 F 
ATOM     87  F   UNL     1      -8.988 -12.240  -6.097  1.00  0.00    -0.200 F 
ENDBRANCH  63  77
BRANCH  64  88
ATOM     88  C   UNL     1      -6.694   0.385  -0.130  1.00  0.00     0.064 A 
ATOM     89  C   UNL     1      -7.308   0.789   1.065  1.00  0.00     0.173 A 
ATOM     90  C   UNL     1      -5.923   1.335  -0.817  1.00  0.00     0.173 A 
ATOM     91  F   UNL     1      -8.079  -0.072   1.746  1.00  0.00    -0.203 F 
ATOM     92  C   UNL     1      -7.191   2.097   1.530  1.00  0.00     0.198 A 
ATOM     93  C   UNL     1      -5.776   2.633  -0.332  1.00  0.00     0.198 A 
ATOM     94  F   UNL     1      -5.319   1.006  -1.968  1.00  0.00    -0.203 F 
ATOM     95  F   UNL     1      -7.851   2.475   2.633  1.00  0.00    -0.200 F 
ATOM     96  C   UNL     1      -6.422   3.017   0.833  1.00  0.00     0.200 A 
ATOM     97  F   UNL     1      -5.027   3.517  -1.004  1.00  0.00    -0.200 F 
ATOM     98  F   UNL     1      -6.322   4.279   1.273  1.00  0.00    -0.200 F 
ENDBRANCH  64  88
BRANCH  76  99
ATOM     99  C   UNL     1     -12.367  -2.936  -2.452  1.00  0.00     0.064 A 
ATOM    100  C   UNL     1     -12.837  -1.954  -3.337  1.00  0.00     0.173 A 
ATOM    101  C   UNL     1     -13.308  -3.591  -1.641  1.00  0.00     0.173 A 
ATOM    102  F   UNL     1     -11.979  -1.290  -4.126  1.00  0.00    -0.203 F 
ATOM    103  C   UNL     1     -14.188  -1.621  -3.385  1.00  0.00     0.198 A 
ATOM    104  C   UNL     1     -14.663  -3.283  -1.720  1.00  0.00     0.198 A 
ATOM    105  F   UNL     1     -12.915  -4.547  -0.785  1.00  0.00    -0.203 F 
ATOM    106  F   UNL     1     -14.606  -0.641  -4.197  1.00  0.00    -0.200 F 
ATOM    107  C   UNL     1     -15.101  -2.292  -2.584  1.00  0.00     0.200 A 
ATOM    108  F   UNL     1     -15.545  -3.947  -0.960  1.00  0.00    -0.200 F 
ATOM    109  F   UNL     1     -16.402  -1.977  -2.640  1.00  0.00    -0.200 F 
ENDBRANCH  76  99
ENDBRANCH  50  51
ENDBRANCH  43  45
ENDBRANCH  42  43
ENDBRANCH  41  42
ENDBRANCH  40  41
ENDBRANCH  39  40
ENDBRANCH  38  39
ENDBRANCH  37  38
ENDBRANCH  36  37
ENDBRANCH   1  36
TORSDOF 23
