REMARK SMILES Cc1ccnc(C(=O)c2[nH]c3ccc(F)cc3c2CC(=O)OCCOCCOCCOCCOC(=O)c2ccc(-c3c4nc(c(-c5c(F)c(F)c(F)c(F)c5F)c5ccc([nH]5)c(-c5c(F)c(F)c(F)c(F)c5F)c5nc(c(-c6c(F)c(F)c(F)c(F)c6F)c6ccc3[nH]6)C=C5)C=C4)cc2)c1
REMARK SMILES IDX 27 1 26 2 25 3 24 4 23 5 22 6 20 7 21 8 19 9 18 10 9 11
REMARK SMILES IDX 10 12 11 13 17 15 12 16 16 17 13 18 14 19 15 20 7 21 8 22
REMARK SMILES IDX 6 23 1 24 2 25 3 26 100 27 4 28 5 29 28 30 29 31 30 32 31 33
REMARK SMILES IDX 32 34 33 35 34 36 35 37 36 38 37 39 38 40 99 41 39 42 98 43
REMARK SMILES IDX 40 44 41 45 42 46 92 47 43 48 97 49 91 50 93 51 44 52 96 53
REMARK SMILES IDX 90 54 89 55 45 57 77 58 57 59 76 60 58 61 61 62 75 63 94 64
REMARK SMILES IDX 59 65 60 66 74 68 95 69 62 70 46 71 47 72 55 73 48 74 49 75
REMARK SMILES IDX 53 76 56 77 50 78 51 79 54 80 52 81 78 82 79 83 87 84 80 85
REMARK SMILES IDX 81 86 85 87 88 88 82 89 83 90 86 91 84 92 63 93 64 94 72 95
REMARK SMILES IDX 65 96 66 97 70 98 73 99 67 100 68 101 71 102 69 103
REMARK H PARENT 10 14 93 56 61 67
REMARK Flexibility Score: inf
ROOT
ATOM      1  C   UNL     1      -1.625  -2.038  -0.112  1.00  0.00     0.188 C 
ENDROOT
BRANCH   1   2
ATOM      2  C   UNL     1      -1.422  -1.140  -1.347  1.00  0.00     0.188 C 
BRANCH   2   3
ATOM      3  O   UNL     1      -2.547  -0.340  -1.613  1.00  0.00    -0.376 OA
BRANCH   3   4
ATOM      4  C   UNL     1      -3.196  -0.763  -2.802  1.00  0.00     0.202 C 
BRANCH   4   5
ATOM      5  C   UNL     1      -3.616  -2.249  -2.727  1.00  0.00     0.261 C 
BRANCH   5   6
ATOM      6  O   UNL     1      -2.493  -3.196  -2.576  1.00  0.00    -0.463 OA
BRANCH   6   7
ATOM      7  C   UNL     1      -1.625  -3.343  -3.612  1.00  0.00     0.310 C 
ATOM      8  O   UNL     1      -1.977  -3.152  -4.773  1.00  0.00    -0.252 OA
BRANCH   7   9
ATOM      9  C   UNL     1      -0.134  -3.616  -3.243  1.00  0.00     0.161 C 
BRANCH   9  10
ATOM     10  C   UNL     1       0.367  -3.803  -1.791  1.00  0.00     0.000 A 
ATOM     11  C   UNL     1       1.315  -3.091  -0.963  1.00  0.00     0.093 A 
ATOM     12  N   UNL     1       1.630  -4.026   0.033  1.00  0.00    -0.352 N 
ATOM     13  C   UNL     1       0.797  -5.115   0.056  1.00  0.00     0.046 A 
ATOM     14  H   UNL     1       2.381  -3.910   0.659  1.00  0.00     0.167 HD
ATOM     15  C   UNL     1      -0.010  -5.018  -1.069  1.00  0.00     0.007 A 
ATOM     16  C   UNL     1       0.741  -6.202   0.950  1.00  0.00     0.030 A 
ATOM     17  C   UNL     1      -0.922  -6.073  -1.319  1.00  0.00     0.049 A 
ATOM     18  C   UNL     1      -0.191  -7.214   0.696  1.00  0.00     0.041 A 
ATOM     19  C   UNL     1      -1.006  -7.143  -0.422  1.00  0.00     0.123 A 
ATOM     20  F   UNL     1      -1.887  -8.127  -0.654  1.00  0.00    -0.207 F 
BRANCH  11  21
ATOM     21  C   UNL     1       2.222  -1.868  -1.002  1.00  0.00     0.227 C 
ATOM     22  O   UNL     1       3.430  -2.098  -1.118  1.00  0.00    -0.285 OA
BRANCH  21  23
ATOM     23  C   UNL     1       1.888  -0.369  -0.647  1.00  0.00     0.113 A 
ATOM     24  C   UNL     1      -0.974   1.854   0.637  1.00  0.00     0.044 C 
ATOM     25  C   UNL     1       0.399   1.434   0.164  1.00  0.00    -0.047 A 
ATOM     26  C   UNL     1       1.317   2.370  -0.252  1.00  0.00     0.023 A 
ATOM     27  C   UNL     1       0.795   0.078   0.082  1.00  0.00     0.036 A 
ATOM     28  C   UNL     1       2.500   1.887  -0.794  1.00  0.00     0.112 A 
ATOM     29  N   UNL     1       2.783   0.568  -1.047  1.00  0.00    -0.253 NA
ENDBRANCH  21  23
ENDBRANCH  11  21
ENDBRANCH   9  10
ENDBRANCH   7   9
ENDBRANCH   6   7
ENDBRANCH   5   6
ENDBRANCH   4   5
ENDBRANCH   3   4
ENDBRANCH   2   3
ENDBRANCH   1   2
BRANCH   1  30
ATOM     30  O   UNL     1      -2.008  -1.276   1.024  1.00  0.00    -0.377 OA
BRANCH  30  31
ATOM     31  C   UNL     1      -1.565  -1.861   2.242  1.00  0.00     0.188 C 
BRANCH  31  32
ATOM     32  C   UNL     1      -0.665  -0.894   3.009  1.00  0.00     0.188 C 
BRANCH  32  33
ATOM     33  O   UNL     1       0.696  -0.678   2.652  1.00  0.00    -0.376 OA
BRANCH  33  34
ATOM     34  C   UNL     1       1.638  -1.737   2.765  1.00  0.00     0.202 C 
BRANCH  34  35
ATOM     35  C   UNL     1       2.332  -1.830   4.126  1.00  0.00     0.261 C 
BRANCH  35  36
ATOM     36  O   UNL     1       1.368  -2.111   5.143  1.00  0.00    -0.460 OA
BRANCH  36  37
ATOM     37  C   UNL     1       0.958  -1.023   5.861  1.00  0.00     0.338 C 
ATOM     38  O   UNL     1       1.499   0.043   5.959  1.00  0.00    -0.246 OA
BRANCH  37  39
ATOM     39  C   UNL     1      -0.457  -1.287   6.244  1.00  0.00     0.060 A 
ATOM     40  C   UNL     1      -1.373  -0.231   6.074  1.00  0.00     0.016 A 
ATOM     41  C   UNL     1      -0.910  -2.587   6.501  1.00  0.00     0.016 A 
ATOM     42  C   UNL     1      -2.739  -0.468   6.194  1.00  0.00     0.010 A 
ATOM     43  C   UNL     1      -2.272  -2.818   6.657  1.00  0.00     0.010 A 
ATOM     44  C   UNL     1      -3.178  -1.747   6.557  1.00  0.00    -0.014 A 
BRANCH  44  45
ATOM     45  C   UNL     1      -4.480  -1.879   7.239  1.00  0.00     0.031 A 
ATOM     46  C   UNL     1      -4.449  -1.705   8.732  1.00  0.00     0.074 A 
ATOM     47  C   UNL     1      -5.616  -2.157   6.584  1.00  0.00     0.049 A 
ATOM     48  N   UNL     1      -5.396  -1.869   9.614  1.00  0.00    -0.248 NA
ATOM     49  C   UNL     1      -3.151  -1.308   9.312  1.00  0.00     0.031 C 
ATOM     50  C   UNL     1      -5.754  -2.301   5.138  1.00  0.00     0.029 A 
ATOM     51  N   UNL     1      -6.876  -2.384   7.072  1.00  0.00    -0.354 N 
ATOM     52  C   UNL     1      -4.804  -1.606  10.843  1.00  0.00     0.074 A 
ATOM     53  C   UNL     1      -3.412  -1.313  10.605  1.00  0.00     0.031 C 
ATOM     54  C   UNL     1      -7.032  -2.616   4.855  1.00  0.00     0.029 A 
ATOM     55  C   UNL     1      -7.786  -2.727   6.104  1.00  0.00     0.049 A 
ATOM     56  H   UNL     1      -7.107  -2.309   8.026  1.00  0.00     0.167 HD
ATOM     57  C   UNL     1      -5.376  -1.602  12.066  1.00  0.00     0.037 A 
ATOM     58  C   UNL     1      -9.070  -3.110   6.234  1.00  0.00     0.037 A 
ATOM     59  C   UNL     1      -6.758  -1.912  12.286  1.00  0.00     0.049 A 
ATOM     60  C   UNL     1      -9.673  -3.171   7.617  1.00  0.00     0.074 A 
ATOM     61  C   UNL     1      -7.458  -1.937  13.476  1.00  0.00     0.029 A 
ATOM     62  N   UNL     1      -7.648  -2.269  11.282  1.00  0.00    -0.354 N 
ATOM     63  N   UNL     1      -9.121  -2.897   8.777  1.00  0.00    -0.248 NA
ATOM     64  C   UNL     1     -11.077  -3.592   7.709  1.00  0.00     0.031 C 
ATOM     65  C   UNL     1      -8.759  -2.368  13.199  1.00  0.00     0.029 A 
ATOM     66  C   UNL     1      -8.888  -2.543  11.829  1.00  0.00     0.049 A 
ATOM     67  H   UNL     1      -7.429  -2.318  10.323  1.00  0.00     0.167 HD
ATOM     68  C   UNL     1     -10.116  -3.079   9.730  1.00  0.00     0.074 A 
ATOM     69  C   UNL     1     -11.309  -3.477   9.009  1.00  0.00     0.031 C 
ATOM     70  C   UNL     1     -10.056  -2.929  11.078  1.00  0.00     0.037 A 
BRANCH  57  71
ATOM     71  C   UNL     1      -4.489  -1.299  13.237  1.00  0.00     0.064 A 
ATOM     72  C   UNL     1      -3.927  -0.027  13.435  1.00  0.00     0.173 A 
ATOM     73  C   UNL     1      -4.177  -2.304  14.164  1.00  0.00     0.173 A 
ATOM     74  F   UNL     1      -4.165   0.961  12.559  1.00  0.00    -0.203 F 
ATOM     75  C   UNL     1      -3.061   0.216  14.498  1.00  0.00     0.198 A 
ATOM     76  C   UNL     1      -3.341  -2.047  15.246  1.00  0.00     0.198 A 
ATOM     77  F   UNL     1      -4.676  -3.540  14.015  1.00  0.00    -0.203 F 
ATOM     78  F   UNL     1      -2.482   1.418  14.626  1.00  0.00    -0.200 F 
ATOM     79  C   UNL     1      -2.776  -0.791  15.407  1.00  0.00     0.200 A 
ATOM     80  F   UNL     1      -3.071  -3.020  16.127  1.00  0.00    -0.200 F 
ATOM     81  F   UNL     1      -1.944  -0.555  16.431  1.00  0.00    -0.200 F 
ENDBRANCH  57  71
BRANCH  58  82
ATOM     82  C   UNL     1      -9.868  -3.472   5.031  1.00  0.00     0.064 A 
ATOM     83  C   UNL     1     -10.951  -2.685   4.617  1.00  0.00     0.173 A 
ATOM     84  C   UNL     1      -9.571  -4.617   4.277  1.00  0.00     0.173 A 
ATOM     85  F   UNL     1     -11.292  -1.593   5.317  1.00  0.00    -0.203 F 
ATOM     86  C   UNL     1     -11.717  -3.038   3.506  1.00  0.00     0.198 A 
ATOM     87  C   UNL     1     -10.319  -4.953   3.150  1.00  0.00     0.198 A 
ATOM     88  F   UNL     1      -8.547  -5.408   4.630  1.00  0.00    -0.203 F 
ATOM     89  F   UNL     1     -12.775  -2.292   3.161  1.00  0.00    -0.200 F 
ATOM     90  C   UNL     1     -11.396  -4.168   2.770  1.00  0.00     0.200 A 
ATOM     91  F   UNL     1      -9.997  -6.040   2.434  1.00  0.00    -0.200 F 
ATOM     92  F   UNL     1     -12.129  -4.503   1.699  1.00  0.00    -0.200 F 
ENDBRANCH  58  82
BRANCH  70  93
ATOM     93  C   UNL     1     -11.323  -3.150  11.854  1.00  0.00     0.064 A 
ATOM     94  C   UNL     1     -11.877  -4.427  12.019  1.00  0.00     0.173 A 
ATOM     95  C   UNL     1     -11.957  -2.070  12.489  1.00  0.00     0.173 A 
ATOM     96  F   UNL     1     -11.313  -5.490  11.426  1.00  0.00    -0.203 F 
ATOM     97  C   UNL     1     -13.037  -4.611  12.767  1.00  0.00     0.198 A 
ATOM     98  C   UNL     1     -13.094  -2.263  13.266  1.00  0.00     0.198 A 
ATOM     99  F   UNL     1     -11.459  -0.830  12.373  1.00  0.00    -0.203 F 
ATOM    100  F   UNL     1     -13.579  -5.832  12.869  1.00  0.00    -0.200 F 
ATOM    101  C   UNL     1     -13.639  -3.531  13.396  1.00  0.00     0.200 A 
ATOM    102  F   UNL     1     -13.661  -1.222  13.891  1.00  0.00    -0.200 F 
ATOM    103  F   UNL     1     -14.748  -3.712  14.125  1.00  0.00    -0.200 F 
ENDBRANCH  70  93
ENDBRANCH  44  45
ENDBRANCH  37  39
ENDBRANCH  36  37
ENDBRANCH  35  36
ENDBRANCH  34  35
ENDBRANCH  33  34
ENDBRANCH  32  33
ENDBRANCH  31  32
ENDBRANCH  30  31
ENDBRANCH   1  30
TORSDOF 23
