REMARK SMILES CC(C)C[C@@H](C(=O)OCCOCCOCCOCCOC(=O)c1ccc(-c2c3nc(c(-c4c(F)c(F)c(F)c(F)c4F)c4ccc([nH]4)c(-c4c(F)c(F)c(F)c(F)c4F)c4nc(c(-c5c(F)c(F)c(F)c(F)c5F)c5ccc2[nH]5)C=C4)C=C3)cc1)[C@@H]1CCC[C@@H](C)C1
REMARK SMILES IDX 14 1 13 2 12 3 11 4 10 5 9 6 8 7 6 8 7 9 5 10 4 11 2 12 1 13
REMARK SMILES IDX 3 14 86 15 87 16 92 17 88 18 90 19 89 20 91 21 15 22 16 23
REMARK SMILES IDX 17 24 18 25 19 26 20 27 21 28 22 29 23 30 24 31 85 32 25 33
REMARK SMILES IDX 84 34 26 35 27 36 28 37 78 38 29 39 83 40 77 41 79 42 30 43
REMARK SMILES IDX 82 44 76 45 75 46 31 48 63 49 43 50 62 51 44 52 47 53 61 54
REMARK SMILES IDX 80 55 45 56 46 57 60 59 81 60 48 61 32 62 33 63 41 64 34 65
REMARK SMILES IDX 35 66 39 67 42 68 36 69 37 70 40 71 38 72 64 73 65 74 73 75
REMARK SMILES IDX 66 76 67 77 71 78 74 79 68 80 69 81 72 82 70 83 49 84 50 85
REMARK SMILES IDX 58 86 51 87 52 88 56 89 59 90 53 91 54 92 57 93 55 94
REMARK H PARENT 79 47 47 58
REMARK Flexibility Score: inf
ROOT
ATOM      1  O   UNL     1      -5.536   1.954  -0.017  1.00  0.00    -0.377 OA
ENDROOT
BRANCH   1   2
ATOM      2  C   UNL     1      -6.869   1.484  -0.148  1.00  0.00     0.188 C 
BRANCH   2   3
ATOM      3  C   UNL     1      -7.175   0.507   0.986  1.00  0.00     0.188 C 
BRANCH   3   4
ATOM      4  O   UNL     1      -7.123   1.036   2.313  1.00  0.00    -0.376 OA
BRANCH   4   5
ATOM      5  C   UNL     1      -6.061   1.921   2.656  1.00  0.00     0.202 C 
BRANCH   5   6
ATOM      6  C   UNL     1      -4.621   1.374   2.840  1.00  0.00     0.261 C 
BRANCH   6   7
ATOM      7  O   UNL     1      -4.001   0.617   1.766  1.00  0.00    -0.463 OA
BRANCH   7   8
ATOM      8  C   UNL     1      -4.275  -0.700   1.838  1.00  0.00     0.309 C 
ATOM      9  O   UNL     1      -5.082  -1.139   2.660  1.00  0.00    -0.252 OA
BRANCH   8  10
ATOM     10  C   UNL     1      -3.546  -1.682   0.905  1.00  0.00     0.102 C 
BRANCH  10  11
ATOM     11  C   UNL     1      -2.804  -2.672   1.866  1.00  0.00     0.018 C 
BRANCH  11  12
ATOM     12  C   UNL     1      -3.692  -3.701   2.597  1.00  0.00    -0.017 C 
ATOM     13  C   UNL     1      -4.237  -4.753   1.633  1.00  0.00     0.007 C 
ATOM     14  C   UNL     1      -2.892  -4.354   3.724  1.00  0.00     0.007 C 
ENDBRANCH  11  12
ENDBRANCH  10  11
BRANCH  10  15
ATOM     15  C   UNL     1      -2.574  -1.392  -0.298  1.00  0.00     0.003 C 
ATOM     16  C   UNL     1      -2.246   0.028  -0.763  1.00  0.00     0.004 C 
ATOM     17  C   UNL     1      -2.983  -2.277  -1.522  1.00  0.00     0.007 C 
ATOM     18  C   UNL     1      -3.228   0.610  -1.760  1.00  0.00     0.001 C 
ATOM     19  C   UNL     1      -4.099  -1.640  -2.363  1.00  0.00    -0.014 C 
ATOM     20  C   UNL     1      -3.591  -0.310  -2.914  1.00  0.00     0.003 C 
ATOM     21  C   UNL     1      -4.565  -2.543  -3.503  1.00  0.00     0.007 C 
ENDBRANCH  10  15
ENDBRANCH   8  10
ENDBRANCH   7   8
ENDBRANCH   6   7
ENDBRANCH   5   6
ENDBRANCH   4   5
ENDBRANCH   3   4
ENDBRANCH   2   3
ENDBRANCH   1   2
BRANCH   1  22
ATOM     22  C   UNL     1      -5.182   3.254  -0.465  1.00  0.00     0.188 C 
BRANCH  22  23
ATOM     23  C   UNL     1      -6.229   4.061  -1.226  1.00  0.00     0.188 C 
BRANCH  23  24
ATOM     24  O   UNL     1      -6.788   3.478  -2.402  1.00  0.00    -0.376 OA
BRANCH  24  25
ATOM     25  C   UNL     1      -5.956   2.653  -3.211  1.00  0.00     0.202 C 
BRANCH  25  26
ATOM     26  C   UNL     1      -4.980   3.367  -4.146  1.00  0.00     0.261 C 
BRANCH  26  27
ATOM     27  O   UNL     1      -3.931   4.031  -3.425  1.00  0.00    -0.460 OA
BRANCH  27  28
ATOM     28  C   UNL     1      -4.082   5.370  -3.315  1.00  0.00     0.338 C 
ATOM     29  O   UNL     1      -4.970   6.062  -3.773  1.00  0.00    -0.246 OA
BRANCH  28  30
ATOM     30  C   UNL     1      -3.068   5.896  -2.388  1.00  0.00     0.060 A 
ATOM     31  C   UNL     1      -3.514   6.642  -1.290  1.00  0.00     0.016 A 
ATOM     32  C   UNL     1      -1.705   5.758  -2.658  1.00  0.00     0.016 A 
ATOM     33  C   UNL     1      -2.599   7.301  -0.483  1.00  0.00     0.010 A 
ATOM     34  C   UNL     1      -0.786   6.442  -1.861  1.00  0.00     0.010 A 
ATOM     35  C   UNL     1      -1.239   7.252  -0.805  1.00  0.00    -0.014 A 
BRANCH  35  36
ATOM     36  C   UNL     1      -0.338   8.241  -0.180  1.00  0.00     0.031 A 
ATOM     37  C   UNL     1      -0.043   9.506  -0.936  1.00  0.00     0.074 A 
ATOM     38  C   UNL     1       0.143   8.043   1.058  1.00  0.00     0.049 A 
ATOM     39  N   UNL     1       0.733  10.507  -0.614  1.00  0.00    -0.248 NA
ATOM     40  C   UNL     1      -0.722   9.664  -2.235  1.00  0.00     0.031 C 
ATOM     41  C   UNL     1      -0.143   6.881   1.897  1.00  0.00     0.029 A 
ATOM     42  N   UNL     1       0.975   8.818   1.821  1.00  0.00    -0.354 N 
ATOM     43  C   UNL     1       0.645  11.404  -1.671  1.00  0.00     0.074 A 
ATOM     44  C   UNL     1      -0.236  10.821  -2.657  1.00  0.00     0.031 C 
ATOM     45  C   UNL     1       0.519   7.013   3.059  1.00  0.00     0.029 A 
ATOM     46  C   UNL     1       1.301   8.246   3.025  1.00  0.00     0.049 A 
ATOM     47  H   UNL     1       1.307   9.699   1.533  1.00  0.00     0.167 HD
ATOM     48  C   UNL     1       1.246  12.609  -1.799  1.00  0.00     0.037 A 
ATOM     49  C   UNL     1       2.161   8.667   3.971  1.00  0.00     0.037 A 
ATOM     50  C   UNL     1       2.120  13.173  -0.805  1.00  0.00     0.049 A 
ATOM     51  C   UNL     1       2.879   9.977   3.767  1.00  0.00     0.074 A 
ATOM     52  C   UNL     1       2.781  14.388  -0.825  1.00  0.00     0.029 A 
ATOM     53  N   UNL     1       2.460  12.550   0.388  1.00  0.00    -0.354 N 
ATOM     54  N   UNL     1       2.789  10.827   2.771  1.00  0.00    -0.248 NA
ATOM     55  C   UNL     1       3.814  10.389   4.822  1.00  0.00     0.031 C 
ATOM     56  C   UNL     1       3.570  14.472   0.327  1.00  0.00     0.029 A 
ATOM     57  C   UNL     1       3.344  13.343   1.099  1.00  0.00     0.049 A 
ATOM     58  H   UNL     1       2.122  11.674   0.684  1.00  0.00     0.167 HD
ATOM     59  C   UNL     1       3.626  11.887   3.095  1.00  0.00     0.074 A 
ATOM     60  C   UNL     1       4.203  11.579   4.388  1.00  0.00     0.031 C 
ATOM     61  C   UNL     1       3.895  13.015   2.391  1.00  0.00     0.037 A 
BRANCH  48  62
ATOM     62  C   UNL     1       1.014  13.375  -3.069  1.00  0.00     0.064 A 
ATOM     63  C   UNL     1      -0.228  13.951  -3.375  1.00  0.00     0.173 A 
ATOM     64  C   UNL     1       2.064  13.561  -3.982  1.00  0.00     0.173 A 
ATOM     65  F   UNL     1      -1.271  13.787  -2.547  1.00  0.00    -0.203 F 
ATOM     66  C   UNL     1      -0.416  14.665  -4.557  1.00  0.00     0.198 A 
ATOM     67  C   UNL     1       1.881  14.303  -5.146  1.00  0.00     0.198 A 
ATOM     68  F   UNL     1       3.272  13.029  -3.741  1.00  0.00    -0.203 F 
ATOM     69  F   UNL     1      -1.624  15.166  -4.850  1.00  0.00    -0.200 F 
ATOM     70  C   UNL     1       0.641  14.848  -5.436  1.00  0.00     0.200 A 
ATOM     71  F   UNL     1       2.908  14.488  -5.988  1.00  0.00    -0.200 F 
ATOM     72  F   UNL     1       0.462  15.546  -6.566  1.00  0.00    -0.200 F 
ENDBRANCH  48  62
BRANCH  49  73
ATOM     73  C   UNL     1       2.407   7.836   5.179  1.00  0.00     0.064 A 
ATOM     74  C   UNL     1       2.039   8.281   6.456  1.00  0.00     0.173 A 
ATOM     75  C   UNL     1       3.040   6.587   5.083  1.00  0.00     0.173 A 
ATOM     76  F   UNL     1       1.450   9.477   6.605  1.00  0.00    -0.203 F 
ATOM     77  C   UNL     1       2.319   7.523   7.592  1.00  0.00     0.198 A 
ATOM     78  C   UNL     1       3.288   5.814   6.215  1.00  0.00     0.198 A 
ATOM     79  F   UNL     1       3.412   6.112   3.885  1.00  0.00    -0.203 F 
ATOM     80  F   UNL     1       2.008   7.998   8.805  1.00  0.00    -0.200 F 
ATOM     81  C   UNL     1       2.938   6.288   7.470  1.00  0.00     0.200 A 
ATOM     82  F   UNL     1       3.872   4.615   6.090  1.00  0.00    -0.200 F 
ATOM     83  F   UNL     1       3.207   5.559   8.562  1.00  0.00    -0.200 F 
ENDBRANCH  49  73
BRANCH  61  84
ATOM     84  C   UNL     1       4.812  14.021   3.027  1.00  0.00     0.064 A 
ATOM     85  C   UNL     1       6.183  13.774   3.194  1.00  0.00     0.173 A 
ATOM     86  C   UNL     1       4.314  15.266   3.444  1.00  0.00     0.173 A 
ATOM     87  F   UNL     1       6.707  12.596   2.823  1.00  0.00    -0.203 F 
ATOM     88  C   UNL     1       7.013  14.722   3.787  1.00  0.00     0.198 A 
ATOM     89  C   UNL     1       5.154  16.225   4.000  1.00  0.00     0.198 A 
ATOM     90  F   UNL     1       3.013  15.558   3.297  1.00  0.00    -0.203 F 
ATOM     91  F   UNL     1       8.307  14.440   3.991  1.00  0.00    -0.200 F 
ATOM     92  C   UNL     1       6.500  15.948   4.181  1.00  0.00     0.200 A 
ATOM     93  F   UNL     1       4.660  17.417   4.362  1.00  0.00    -0.200 F 
ATOM     94  F   UNL     1       7.303  16.862   4.745  1.00  0.00    -0.200 F 
ENDBRANCH  61  84
ENDBRANCH  35  36
ENDBRANCH  28  30
ENDBRANCH  27  28
ENDBRANCH  26  27
ENDBRANCH  25  26
ENDBRANCH  24  25
ENDBRANCH  23  24
ENDBRANCH  22  23
ENDBRANCH   1  22
TORSDOF 23
