REMARK SMILES C[C@@H](C(=O)OCCOCCOCCOCCOC(=O)c1ccc(-c2c3nc(c(-c4c(F)c(F)c(F)c(F)c4F)c4ccc([nH]4)c(-c4c(F)c(F)c(F)c(F)c4F)c4nc(c(-c5c(F)c(F)c(F)c(F)c5F)c5ccc2[nH]5)C=C4)C=C3)cc1)c1ccc(N[C@H]2CCC[C@@H]2O)cc1F
REMARK SMILES IDX 10 1 9 2 8 3 7 4 6 5 5 6 3 7 4 8 2 9 1 10 83 11 84 12 95 13
REMARK SMILES IDX 85 14 94 15 96 16 86 17 87 18 88 20 89 21 92 22 90 23 91 24
REMARK SMILES IDX 93 25 11 27 12 28 13 29 14 30 15 31 16 32 17 33 18 34 19 35
REMARK SMILES IDX 20 36 21 37 82 38 22 39 81 40 23 41 24 42 25 43 75 44 26 45
REMARK SMILES IDX 80 46 74 47 76 48 27 49 79 50 73 51 72 52 28 54 60 55 40 56
REMARK SMILES IDX 59 57 41 58 44 59 58 60 77 61 42 62 43 63 57 65 78 66 45 67
REMARK SMILES IDX 29 68 30 69 38 70 31 71 32 72 36 73 39 74 33 75 34 76 37 77
REMARK SMILES IDX 35 78 61 79 62 80 70 81 63 82 64 83 68 84 71 85 65 86 66 87
REMARK SMILES IDX 69 88 67 89 46 90 47 91 55 92 48 93 49 94 53 95 56 96 50 97
REMARK SMILES IDX 51 98 54 99 52 100
REMARK H PARENT 87 19 93 26 76 53 44 64
REMARK Flexibility Score: inf
ROOT
ATOM      1  C   UNL     1       1.222   2.185   1.686  1.00  0.00     0.188 C 
ENDROOT
BRANCH   1   2
ATOM      2  C   UNL     1       0.324   2.055   2.933  1.00  0.00     0.188 C 
BRANCH   2   3
ATOM      3  O   UNL     1       0.897   2.190   4.222  1.00  0.00    -0.376 OA
BRANCH   3   4
ATOM      4  C   UNL     1       2.104   1.508   4.526  1.00  0.00     0.202 C 
BRANCH   4   5
ATOM      5  C   UNL     1       2.412   0.077   4.025  1.00  0.00     0.261 C 
BRANCH   5   6
ATOM      6  O   UNL     1       1.951  -0.303   2.712  1.00  0.00    -0.463 OA
BRANCH   6   7
ATOM      7  C   UNL     1       0.930  -1.199   2.657  1.00  0.00     0.313 C 
ATOM      8  O   UNL     1       0.408  -1.686   3.656  1.00  0.00    -0.252 OA
BRANCH   7   9
ATOM      9  C   UNL     1       0.449  -1.531   1.226  1.00  0.00     0.129 C 
ATOM     10  C   UNL     1       1.252  -0.985   0.037  1.00  0.00     0.025 C 
BRANCH   9  11
ATOM     11  C   UNL     1      -1.048  -1.259   1.107  1.00  0.00     0.002 A 
ATOM     12  C   UNL     1      -1.575   0.028   0.968  1.00  0.00     0.010 A 
ATOM     13  C   UNL     1      -1.963  -2.293   1.273  1.00  0.00     0.129 A 
ATOM     14  C   UNL     1      -2.946   0.278   1.101  1.00  0.00     0.026 A 
ATOM     15  C   UNL     1      -3.341  -2.053   1.322  1.00  0.00     0.065 A 
ATOM     16  F   UNL     1      -1.527  -3.555   1.393  1.00  0.00    -0.207 F 
ATOM     17  C   UNL     1      -3.865  -0.754   1.258  1.00  0.00     0.037 A 
BRANCH  17  18
ATOM     18  N   UNL     1      -5.229  -0.577   1.321  1.00  0.00    -0.380 N 
ATOM     19  H   UNL     1      -5.757  -1.408   1.289  1.00  0.00     0.160 HD
BRANCH  18  20
ATOM     20  C   UNL     1      -6.019   0.649   1.428  1.00  0.00     0.107 C 
ATOM     21  C   UNL     1      -5.784   1.434   2.722  1.00  0.00     0.027 C 
ATOM     22  C   UNL     1      -5.861   1.667   0.288  1.00  0.00     0.136 C 
ATOM     23  C   UNL     1      -5.884   2.912   2.333  1.00  0.00     0.005 C 
ATOM     24  C   UNL     1      -6.431   2.934   0.910  1.00  0.00     0.034 C 
BRANCH  22  25
ATOM     25  O   UNL     1      -6.582   1.301  -0.878  1.00  0.00    -0.391 OA
ATOM     26  H   UNL     1      -7.521   1.197  -0.659  1.00  0.00     0.211 HD
ENDBRANCH  22  25
ENDBRANCH  18  20
ENDBRANCH  17  18
ENDBRANCH   9  11
ENDBRANCH   7   9
ENDBRANCH   6   7
ENDBRANCH   5   6
ENDBRANCH   4   5
ENDBRANCH   3   4
ENDBRANCH   2   3
ENDBRANCH   1   2
BRANCH   1  27
ATOM     27  O   UNL     1       2.596   2.338   1.971  1.00  0.00    -0.377 OA
BRANCH  27  28
ATOM     28  C   UNL     1       3.077   3.671   2.010  1.00  0.00     0.188 C 
BRANCH  28  29
ATOM     29  C   UNL     1       2.154   4.760   2.592  1.00  0.00     0.188 C 
BRANCH  29  30
ATOM     30  O   UNL     1       0.853   4.790   2.012  1.00  0.00    -0.376 OA
BRANCH  30  31
ATOM     31  C   UNL     1       0.572   5.758   1.011  1.00  0.00     0.202 C 
BRANCH  31  32
ATOM     32  C   UNL     1       1.218   5.541  -0.367  1.00  0.00     0.261 C 
BRANCH  32  33
ATOM     33  O   UNL     1       2.651   5.473  -0.395  1.00  0.00    -0.460 OA
BRANCH  33  34
ATOM     34  C   UNL     1       3.341   6.536   0.068  1.00  0.00     0.338 C 
ATOM     35  O   UNL     1       2.886   7.599   0.456  1.00  0.00    -0.246 OA
BRANCH  34  36
ATOM     36  C   UNL     1       4.751   6.122   0.226  1.00  0.00     0.060 A 
ATOM     37  C   UNL     1       5.338   6.197   1.497  1.00  0.00     0.016 A 
ATOM     38  C   UNL     1       5.481   5.636  -0.861  1.00  0.00     0.016 A 
ATOM     39  C   UNL     1       6.668   5.818   1.677  1.00  0.00     0.010 A 
ATOM     40  C   UNL     1       6.821   5.284  -0.686  1.00  0.00     0.010 A 
ATOM     41  C   UNL     1       7.429   5.406   0.577  1.00  0.00    -0.014 A 
BRANCH  41  42
ATOM     42  C   UNL     1       8.905   5.324   0.700  1.00  0.00     0.031 A 
ATOM     43  C   UNL     1       9.717   6.509   0.256  1.00  0.00     0.074 A 
ATOM     44  C   UNL     1       9.512   4.240   1.214  1.00  0.00     0.049 A 
ATOM     45  N   UNL     1      11.015   6.665   0.214  1.00  0.00    -0.248 NA
ATOM     46  C   UNL     1       8.955   7.681  -0.208  1.00  0.00     0.031 C 
ATOM     47  C   UNL     1       8.834   3.053   1.726  1.00  0.00     0.029 A 
ATOM     48  N   UNL     1      10.847   3.967   1.382  1.00  0.00    -0.354 N 
ATOM     49  C   UNL     1      11.223   7.943  -0.289  1.00  0.00     0.074 A 
ATOM     50  C   UNL     1       9.922   8.510  -0.566  1.00  0.00     0.031 C 
ATOM     51  C   UNL     1       9.759   2.169   2.141  1.00  0.00     0.029 A 
ATOM     52  C   UNL     1      11.092   2.715   1.891  1.00  0.00     0.049 A 
ATOM     53  H   UNL     1      11.561   4.607   1.159  1.00  0.00     0.167 HD
ATOM     54  C   UNL     1      12.396   8.588  -0.495  1.00  0.00     0.037 A 
ATOM     55  C   UNL     1      12.262   2.079   2.102  1.00  0.00     0.037 A 
ATOM     56  C   UNL     1      13.687   8.018  -0.219  1.00  0.00     0.049 A 
ATOM     57  C   UNL     1      13.556   2.788   1.783  1.00  0.00     0.074 A 
ATOM     58  C   UNL     1      14.935   8.595  -0.374  1.00  0.00     0.029 A 
ATOM     59  N   UNL     1      13.897   6.732   0.258  1.00  0.00    -0.354 N 
ATOM     60  N   UNL     1      13.748   4.005   1.334  1.00  0.00    -0.248 NA
ATOM     61  C   UNL     1      14.798   2.032   2.003  1.00  0.00     0.031 C 
ATOM     62  C   UNL     1      15.901   7.637  -0.055  1.00  0.00     0.029 A 
ATOM     63  C   UNL     1      15.256   6.487   0.370  1.00  0.00     0.049 A 
ATOM     64  H   UNL     1      13.186   6.090   0.483  1.00  0.00     0.167 HD
ATOM     65  C   UNL     1      15.126   4.173   1.254  1.00  0.00     0.074 A 
ATOM     66  C   UNL     1      15.722   2.936   1.713  1.00  0.00     0.031 C 
ATOM     67  C   UNL     1      15.835   5.253   0.841  1.00  0.00     0.037 A 
BRANCH  54  68
ATOM     68  C   UNL     1      12.335   9.968  -1.083  1.00  0.00     0.064 A 
ATOM     69  C   UNL     1      11.837  11.062  -0.360  1.00  0.00     0.173 A 
ATOM     70  C   UNL     1      12.811  10.203  -2.382  1.00  0.00     0.173 A 
ATOM     71  F   UNL     1      11.354  10.890   0.880  1.00  0.00    -0.203 F 
ATOM     72  C   UNL     1      11.793  12.334  -0.926  1.00  0.00     0.198 A 
ATOM     73  C   UNL     1      12.796  11.482  -2.932  1.00  0.00     0.198 A 
ATOM     74  F   UNL     1      13.298   9.192  -3.117  1.00  0.00    -0.203 F 
ATOM     75  F   UNL     1      11.263  13.354  -0.236  1.00  0.00    -0.200 F 
ATOM     76  C   UNL     1      12.280  12.544  -2.207  1.00  0.00     0.200 A 
ATOM     77  F   UNL     1      13.281  11.684  -4.165  1.00  0.00    -0.200 F 
ATOM     78  F   UNL     1      12.245  13.771  -2.747  1.00  0.00    -0.200 F 
ENDBRANCH  54  68
BRANCH  55  79
ATOM     79  C   UNL     1      12.274   0.687   2.630  1.00  0.00     0.064 A 
ATOM     80  C   UNL     1      12.806   0.396   3.894  1.00  0.00     0.173 A 
ATOM     81  C   UNL     1      11.789  -0.386   1.867  1.00  0.00     0.173 A 
ATOM     82  F   UNL     1      13.309   1.382   4.652  1.00  0.00    -0.203 F 
ATOM     83  C   UNL     1      12.875  -0.914   4.364  1.00  0.00     0.198 A 
ATOM     84  C   UNL     1      11.828  -1.692   2.351  1.00  0.00     0.198 A 
ATOM     85  F   UNL     1      11.275  -0.165   0.648  1.00  0.00    -0.203 F 
ATOM     86  F   UNL     1      13.441  -1.169   5.551  1.00  0.00    -0.200 F 
ATOM     87  C   UNL     1      12.380  -1.956   3.595  1.00  0.00     0.200 A 
ATOM     88  F   UNL     1      11.338  -2.694   1.609  1.00  0.00    -0.200 F 
ATOM     89  F   UNL     1      12.446  -3.216   4.047  1.00  0.00    -0.200 F 
ENDBRANCH  55  79
BRANCH  67  90
ATOM     90  C   UNL     1      17.334   5.171   0.913  1.00  0.00     0.064 A 
ATOM     91  C   UNL     1      18.075   4.344   0.056  1.00  0.00     0.173 A 
ATOM     92  C   UNL     1      18.043   5.971   1.824  1.00  0.00     0.173 A 
ATOM     93  F   UNL     1      17.448   3.551  -0.826  1.00  0.00    -0.203 F 
ATOM     94  C   UNL     1      19.465   4.298   0.129  1.00  0.00     0.198 A 
ATOM     95  C   UNL     1      19.434   5.950   1.869  1.00  0.00     0.198 A 
ATOM     96  F   UNL     1      17.386   6.789   2.660  1.00  0.00    -0.203 F 
ATOM     97  F   UNL     1      20.148   3.459  -0.662  1.00  0.00    -0.200 F 
ATOM     98  C   UNL     1      20.143   5.107   1.029  1.00  0.00     0.200 A 
ATOM     99  F   UNL     1      20.087   6.748   2.725  1.00  0.00    -0.200 F 
ATOM    100  F   UNL     1      21.482   5.069   1.091  1.00  0.00    -0.200 F 
ENDBRANCH  67  90
ENDBRANCH  41  42
ENDBRANCH  34  36
ENDBRANCH  33  34
ENDBRANCH  32  33
ENDBRANCH  31  32
ENDBRANCH  30  31
ENDBRANCH  29  30
ENDBRANCH  28  29
ENDBRANCH  27  28
ENDBRANCH   1  27
TORSDOF 24
