REMARK SMILES CC[C@H]([NH2+]C1c2ccccc2-c2ccccc21)C(=O)OCCOCCOCCOCCOC(=O)c1ccc(-c2c3nc(c(-c4c(F)c(F)c(F)c(F)c4F)c4ccc([nH]4)c(-c4c(F)c(F)c(F)c(F)c4F)c4nc(c(-c5c(F)c(F)c(F)c(F)c5F)c5ccc2[nH]5)C=C4)C=C3)cc1
REMARK SMILES IDX 26 1 25 2 24 3 23 4 22 5 21 6 20 7 18 8 19 9 3 10 2 11 1 12
REMARK SMILES IDX 4 13 5 16 6 17 17 18 7 19 11 20 12 21 16 22 8 23 10 24 13 25
REMARK SMILES IDX 15 26 9 27 14 28 27 29 28 30 29 31 30 32 31 33 32 34 33 35
REMARK SMILES IDX 34 36 35 37 36 38 97 39 37 40 96 41 38 42 39 43 40 44 90 45
REMARK SMILES IDX 41 46 95 47 89 48 91 49 42 50 94 51 88 52 87 53 43 55 75 56
REMARK SMILES IDX 55 57 74 58 56 59 59 60 73 61 92 62 57 63 58 64 72 66 93 67
REMARK SMILES IDX 60 68 44 69 45 70 53 71 46 72 47 73 51 74 54 75 48 76 49 77
REMARK SMILES IDX 52 78 50 79 76 80 77 81 85 82 78 83 79 84 83 85 86 86 80 87
REMARK SMILES IDX 81 88 84 89 82 90 61 91 62 92 70 93 63 94 64 95 68 96 71 97
REMARK SMILES IDX 65 98 66 99 69 100 67 101
REMARK H PARENT 4 14 4 15 91 54 59 65
REMARK Flexibility Score: inf
ROOT
ATOM      1  O   UNL     1      -0.572  -3.879  -1.589  1.00  0.00    -0.377 OA
ENDROOT
BRANCH   1   2
ATOM      2  C   UNL     1       0.837  -3.783  -1.664  1.00  0.00     0.188 C 
BRANCH   2   3
ATOM      3  C   UNL     1       1.582  -4.910  -0.935  1.00  0.00     0.188 C 
BRANCH   3   4
ATOM      4  O   UNL     1       0.968  -6.168  -0.710  1.00  0.00    -0.376 OA
BRANCH   4   5
ATOM      5  C   UNL     1      -0.280  -6.339  -0.057  1.00  0.00     0.202 C 
BRANCH   5   6
ATOM      6  C   UNL     1      -0.855  -5.445   1.056  1.00  0.00     0.261 C 
BRANCH   6   7
ATOM      7  O   UNL     1      -0.515  -4.061   1.021  1.00  0.00    -0.459 OA
BRANCH   7   8
ATOM      8  C   UNL     1       0.541  -3.721   1.807  1.00  0.00     0.364 C 
ATOM      9  O   UNL     1       1.116  -4.512   2.549  1.00  0.00    -0.245 OA
BRANCH   8  10
ATOM     10  C   UNL     1       1.016  -2.260   1.575  1.00  0.00     0.293 C 
BRANCH  10  11
ATOM     11  C   UNL     1       1.305  -1.688   2.972  1.00  0.00     0.074 C 
ATOM     12  C   UNL     1       2.415  -0.658   3.021  1.00  0.00     0.011 C 
ENDBRANCH  10  11
BRANCH  10  13
ATOM     13  N   UNL     1       0.219  -1.586   0.510  1.00  0.00    -0.325 N 
ATOM     14  H   UNL     1      -0.487  -2.268   0.232  1.00  0.00     0.347 HD
ATOM     15  H   UNL     1       0.972  -1.291  -0.111  1.00  0.00     0.347 HD
BRANCH  13  16
ATOM     16  C   UNL     1      -0.496  -0.331   0.646  1.00  0.00     0.246 C 
ATOM     17  C   UNL     1      -1.324  -0.242   1.903  1.00  0.00     0.022 A 
ATOM     18  C   UNL     1       0.390   0.896   0.735  1.00  0.00     0.022 A 
ATOM     19  C   UNL     1      -2.270  -1.153   2.349  1.00  0.00     0.011 A 
ATOM     20  C   UNL     1      -0.871   0.841   2.692  1.00  0.00    -0.008 A 
ATOM     21  C   UNL     1       0.149   1.568   1.956  1.00  0.00    -0.008 A 
ATOM     22  C   UNL     1       1.328   1.356  -0.182  1.00  0.00     0.011 A 
ATOM     23  C   UNL     1      -2.698  -1.036   3.666  1.00  0.00     0.001 A 
ATOM     24  C   UNL     1      -1.306   0.954   3.999  1.00  0.00     0.009 A 
ATOM     25  C   UNL     1       0.899   2.683   2.290  1.00  0.00     0.009 A 
ATOM     26  C   UNL     1       2.075   2.485   0.156  1.00  0.00     0.001 A 
ATOM     27  C   UNL     1      -2.205  -0.006   4.488  1.00  0.00     0.001 A 
ATOM     28  C   UNL     1       1.870   3.135   1.385  1.00  0.00     0.001 A 
ENDBRANCH  13  16
ENDBRANCH  10  13
ENDBRANCH   8  10
ENDBRANCH   7   8
ENDBRANCH   6   7
ENDBRANCH   5   6
ENDBRANCH   4   5
ENDBRANCH   3   4
ENDBRANCH   2   3
ENDBRANCH   1   2
BRANCH   1  29
ATOM     29  C   UNL     1      -1.229  -4.535  -2.670  1.00  0.00     0.188 C 
BRANCH  29  30
ATOM     30  C   UNL     1      -0.479  -5.612  -3.490  1.00  0.00     0.188 C 
BRANCH  30  31
ATOM     31  O   UNL     1       0.843  -5.265  -3.869  1.00  0.00    -0.376 OA
BRANCH  31  32
ATOM     32  C   UNL     1       1.075  -4.695  -5.148  1.00  0.00     0.202 C 
BRANCH  32  33
ATOM     33  C   UNL     1       0.398  -3.356  -5.487  1.00  0.00     0.261 C 
BRANCH  33  34
ATOM     34  O   UNL     1      -1.036  -3.319  -5.408  1.00  0.00    -0.460 OA
BRANCH  34  35
ATOM     35  C   UNL     1      -1.737  -4.193  -6.156  1.00  0.00     0.338 C 
ATOM     36  O   UNL     1      -1.296  -4.991  -6.968  1.00  0.00    -0.246 OA
BRANCH  35  37
ATOM     37  C   UNL     1      -3.137  -4.172  -5.683  1.00  0.00     0.060 A 
ATOM     38  C   UNL     1      -3.711  -5.358  -5.205  1.00  0.00     0.016 A 
ATOM     39  C   UNL     1      -3.882  -2.991  -5.716  1.00  0.00     0.016 A 
ATOM     40  C   UNL     1      -5.045  -5.377  -4.800  1.00  0.00     0.010 A 
ATOM     41  C   UNL     1      -5.227  -3.017  -5.332  1.00  0.00     0.010 A 
ATOM     42  C   UNL     1      -5.824  -4.219  -4.911  1.00  0.00    -0.014 A 
BRANCH  42  43
ATOM     43  C   UNL     1      -7.301  -4.311  -4.792  1.00  0.00     0.031 A 
ATOM     44  C   UNL     1      -8.112  -4.388  -6.058  1.00  0.00     0.074 A 
ATOM     45  C   UNL     1      -7.912  -4.347  -3.596  1.00  0.00     0.049 A 
ATOM     46  N   UNL     1      -9.411  -4.409  -6.217  1.00  0.00    -0.248 NA
ATOM     47  C   UNL     1      -7.351  -4.447  -7.316  1.00  0.00     0.031 C 
ATOM     48  C   UNL     1      -7.238  -4.330  -2.301  1.00  0.00     0.029 A 
ATOM     49  N   UNL     1      -9.248  -4.395  -3.281  1.00  0.00    -0.354 N 
ATOM     50  C   UNL     1      -9.620  -4.471  -7.589  1.00  0.00     0.074 A 
ATOM     51  C   UNL     1      -8.318  -4.453  -8.219  1.00  0.00     0.031 C 
ATOM     52  C   UNL     1      -8.166  -4.351  -1.327  1.00  0.00     0.029 A 
ATOM     53  C   UNL     1      -9.498  -4.345  -1.932  1.00  0.00     0.049 A 
ATOM     54  H   UNL     1      -9.960  -4.459  -3.959  1.00  0.00     0.167 HD
ATOM     55  C   UNL     1     -10.792  -4.545  -8.262  1.00  0.00     0.037 A 
ATOM     56  C   UNL     1     -10.668  -4.272  -1.267  1.00  0.00     0.037 A 
ATOM     57  C   UNL     1     -12.086  -4.562  -7.632  1.00  0.00     0.049 A 
ATOM     58  C   UNL     1     -11.962  -4.269  -2.045  1.00  0.00     0.074 A 
ATOM     59  C   UNL     1     -13.332  -4.652  -8.225  1.00  0.00     0.029 A 
ATOM     60  N   UNL     1     -12.299  -4.475  -6.264  1.00  0.00    -0.354 N 
ATOM     61  N   UNL     1     -12.154  -4.353  -3.339  1.00  0.00    -0.248 NA
ATOM     62  C   UNL     1     -13.204  -4.164  -1.265  1.00  0.00     0.031 C 
ATOM     63  C   UNL     1     -14.302  -4.553  -7.222  1.00  0.00     0.029 A 
ATOM     64  C   UNL     1     -13.659  -4.476  -5.997  1.00  0.00     0.049 A 
ATOM     65  H   UNL     1     -11.589  -4.420  -5.584  1.00  0.00     0.167 HD
ATOM     66  C   UNL     1     -13.532  -4.348  -3.525  1.00  0.00     0.074 A 
ATOM     67  C   UNL     1     -14.129  -4.266  -2.209  1.00  0.00     0.031 C 
ATOM     68  C   UNL     1     -14.240  -4.407  -4.680  1.00  0.00     0.037 A 
BRANCH  55  69
ATOM     69  C   UNL     1     -10.732  -4.578  -9.762  1.00  0.00     0.064 A 
ATOM     70  C   UNL     1     -10.238  -5.691 -10.461  1.00  0.00     0.173 A 
ATOM     71  C   UNL     1     -11.210  -3.493 -10.514  1.00  0.00     0.173 A 
ATOM     72  F   UNL     1      -9.755  -6.748  -9.792  1.00  0.00    -0.203 F 
ATOM     73  C   UNL     1     -10.200  -5.704 -11.853  1.00  0.00     0.198 A 
ATOM     74  C   UNL     1     -11.202  -3.524 -11.905  1.00  0.00     0.198 A 
ATOM     75  F   UNL     1     -11.695  -2.405  -9.897  1.00  0.00    -0.203 F 
ATOM     76  F   UNL     1      -9.676  -6.756 -12.497  1.00  0.00    -0.200 F 
ATOM     77  C   UNL     1     -10.690  -4.625 -12.574  1.00  0.00     0.200 A 
ATOM     78  F   UNL     1     -11.690  -2.486 -12.599  1.00  0.00    -0.200 F 
ATOM     79  F   UNL     1     -10.662  -4.644 -13.913  1.00  0.00    -0.200 F 
ENDBRANCH  55  69
BRANCH  56  80
ATOM     80  C   UNL     1     -10.680  -4.176   0.218  1.00  0.00     0.064 A 
ATOM     81  C   UNL     1     -11.215  -5.205   1.007  1.00  0.00     0.173 A 
ATOM     82  C   UNL     1     -10.192  -3.038   0.878  1.00  0.00     0.173 A 
ATOM     83  F   UNL     1     -11.720  -6.302   0.424  1.00  0.00    -0.203 F 
ATOM     84  C   UNL     1     -11.283  -5.088   2.394  1.00  0.00     0.198 A 
ATOM     85  C   UNL     1     -10.230  -2.937   2.267  1.00  0.00     0.198 A 
ATOM     86  F   UNL     1      -9.674  -2.022   0.172  1.00  0.00    -0.203 F 
ATOM     87  F   UNL     1     -11.852  -6.061   3.118  1.00  0.00    -0.200 F 
ATOM     88  C   UNL     1     -10.785  -3.958   3.023  1.00  0.00     0.200 A 
ATOM     89  F   UNL     1      -9.735  -1.849   2.871  1.00  0.00    -0.200 F 
ATOM     90  F   UNL     1     -10.850  -3.847   4.357  1.00  0.00    -0.200 F 
ENDBRANCH  56  80
BRANCH  68  91
ATOM     91  C   UNL     1     -15.740  -4.440  -4.578  1.00  0.00     0.064 A 
ATOM     92  C   UNL     1     -16.482  -3.323  -4.166  1.00  0.00     0.173 A 
ATOM     93  C   UNL     1     -16.449  -5.596  -4.943  1.00  0.00     0.173 A 
ATOM     94  F   UNL     1     -15.855  -2.196  -3.795  1.00  0.00    -0.203 F 
ATOM     95  C   UNL     1     -17.872  -3.372  -4.093  1.00  0.00     0.198 A 
ATOM     96  C   UNL     1     -17.840  -5.630  -4.905  1.00  0.00     0.198 A 
ATOM     97  F   UNL     1     -15.791  -6.691  -5.354  1.00  0.00    -0.203 F 
ATOM     98  F   UNL     1     -18.555  -2.310  -3.644  1.00  0.00    -0.200 F 
ATOM     99  C   UNL     1     -18.550  -4.521  -4.471  1.00  0.00     0.200 A 
ATOM    100  F   UNL     1     -18.493  -6.735  -5.289  1.00  0.00    -0.200 F 
ATOM    101  F   UNL     1     -19.888  -4.563  -4.410  1.00  0.00    -0.200 F 
ENDBRANCH  68  91
ENDBRANCH  42  43
ENDBRANCH  35  37
ENDBRANCH  34  35
ENDBRANCH  33  34
ENDBRANCH  32  33
ENDBRANCH  31  32
ENDBRANCH  30  31
ENDBRANCH  29  30
ENDBRANCH   1  29
TORSDOF 23
