REMARK SMILES CC(=O)NS(=O)(=O)c1ccc(-c2ccn(C(F)F)c(=O)c2)cc1C(=O)OCCOCCOCCOCCOC(=O)c1ccc(-c2c3nc(c(-c4c(F)c(F)c(F)c(F)c4F)c4ccc([nH]4)c(-c4c(F)c(F)c(F)c(F)c4F)c4nc(c(-c5c(F)c(F)c(F)c(F)c5F)c5ccc2[nH]5)C=C4)C=C3)cc1
REMARK SMILES IDX 32 1 31 2 30 3 29 4 28 5 27 6 26 7 24 8 25 9 23 10 8 11 9 12
REMARK SMILES IDX 10 13 22 14 11 15 5 16 6 17 7 18 4 19 1 20 2 21 3 22 12 24
REMARK SMILES IDX 13 25 21 26 14 27 19 28 15 29 20 30 16 31 17 32 18 33 33 34
REMARK SMILES IDX 34 35 35 36 36 37 37 38 38 39 39 40 40 41 41 42 42 43 103 44
REMARK SMILES IDX 43 45 102 46 44 47 45 48 46 49 96 50 47 51 101 52 95 53
REMARK SMILES IDX 97 54 48 55 100 56 94 57 93 58 49 60 81 61 61 62 80 63 62 64
REMARK SMILES IDX 65 65 79 66 98 67 63 68 64 69 78 71 99 72 66 73 50 74 51 75
REMARK SMILES IDX 59 76 52 77 53 78 57 79 60 80 54 81 55 82 58 83 56 84 82 85
REMARK SMILES IDX 83 86 91 87 84 88 85 89 89 90 92 91 86 92 87 93 90 94 88 95
REMARK SMILES IDX 67 96 68 97 76 98 69 99 70 100 74 101 77 102 71 103 72 104
REMARK SMILES IDX 75 105 73 106
REMARK H PARENT 4 23 97 59 65 70
REMARK Flexibility Score: inf
ROOT
ATOM      1  O   UNL     1      -0.827   4.454   2.263  1.00  0.00    -0.377 OA
ENDROOT
BRANCH   1   2
ATOM      2  C   UNL     1       0.383   3.959   2.812  1.00  0.00     0.188 C 
BRANCH   2   3
ATOM      3  C   UNL     1       1.092   4.830   3.855  1.00  0.00     0.188 C 
BRANCH   3   4
ATOM      4  O   UNL     1       1.464   6.107   3.341  1.00  0.00    -0.376 OA
BRANCH   4   5
ATOM      5  C   UNL     1       2.847   6.343   3.120  1.00  0.00     0.202 C 
BRANCH   5   6
ATOM      6  C   UNL     1       3.330   5.915   1.726  1.00  0.00     0.261 C 
BRANCH   6   7
ATOM      7  O   UNL     1       3.106   4.528   1.415  1.00  0.00    -0.460 OA
BRANCH   7   8
ATOM      8  C   UNL     1       3.804   3.632   2.125  1.00  0.00     0.339 C 
ATOM      9  O   UNL     1       4.638   3.904   2.975  1.00  0.00    -0.246 OA
BRANCH   8  10
ATOM     10  C   UNL     1       3.345   2.233   1.901  1.00  0.00     0.081 A 
ATOM     11  C   UNL     1       3.005   1.639   0.678  1.00  0.00     0.102 A 
ATOM     12  C   UNL     1       2.938   0.239   0.593  1.00  0.00     0.024 A 
ATOM     13  C   UNL     1       2.986  -0.548   1.741  1.00  0.00     0.010 A 
ATOM     14  C   UNL     1       3.374   1.426   3.059  1.00  0.00     0.025 A 
ATOM     15  C   UNL     1       3.149   0.048   2.992  1.00  0.00    -0.017 A 
BRANCH  11  16
ATOM     16  S   UNL     1       2.453   2.576  -0.725  1.00  0.00     0.264 S 
ATOM     17  O   UNL     1       3.633   3.028  -1.425  1.00  0.00    -0.201 OA
ATOM     18  O   UNL     1       1.393   3.469  -0.324  1.00  0.00    -0.201 OA
BRANCH  16  19
ATOM     19  N   UNL     1       1.710   1.451  -1.740  1.00  0.00    -0.249 N 
ATOM     20  C   UNL     1      -0.092   0.355  -0.403  1.00  0.00     0.115 C 
ATOM     21  C   UNL     1       0.338   1.118  -1.629  1.00  0.00     0.230 C 
ATOM     22  O   UNL     1      -0.396   1.257  -2.598  1.00  0.00    -0.274 OA
ATOM     23  H   UNL     1       2.250   1.009  -2.434  1.00  0.00     0.183 HD
ENDBRANCH  16  19
ENDBRANCH  11  16
BRANCH  15  24
ATOM     24  C   UNL     1       3.126  -0.772   4.213  1.00  0.00    -0.011 A 
ATOM     25  C   UNL     1       2.068  -0.702   5.204  1.00  0.00     0.027 A 
ATOM     26  C   UNL     1       4.143  -1.629   4.398  1.00  0.00     0.080 A 
ATOM     27  C   UNL     1       2.112  -1.478   6.295  1.00  0.00     0.095 A 
ATOM     28  C   UNL     1       4.201  -2.502   5.598  1.00  0.00     0.255 A 
ATOM     29  N   UNL     1       3.158  -2.361   6.498  1.00  0.00    -0.258 N 
ATOM     30  O   UNL     1       5.146  -3.275   5.708  1.00  0.00    -0.269 OA
BRANCH  29  31
ATOM     31  C   UNL     1       3.213  -3.179   7.682  1.00  0.00     0.451 C 
ATOM     32  F   UNL     1       3.232  -4.496   7.364  1.00  0.00    -0.185 F 
ATOM     33  F   UNL     1       4.326  -2.904   8.405  1.00  0.00    -0.185 F 
ENDBRANCH  29  31
ENDBRANCH  15  24
ENDBRANCH   8  10
ENDBRANCH   7   8
ENDBRANCH   6   7
ENDBRANCH   5   6
ENDBRANCH   4   5
ENDBRANCH   3   4
ENDBRANCH   2   3
ENDBRANCH   1   2
BRANCH   1  34
ATOM     34  C   UNL     1      -0.768   5.760   1.711  1.00  0.00     0.188 C 
BRANCH  34  35
ATOM     35  C   UNL     1      -1.256   6.873   2.665  1.00  0.00     0.188 C 
BRANCH  35  36
ATOM     36  O   UNL     1      -2.123   6.615   3.768  1.00  0.00    -0.376 OA
BRANCH  36  37
ATOM     37  C   UNL     1      -2.820   5.387   3.876  1.00  0.00     0.202 C 
BRANCH  37  38
ATOM     38  C   UNL     1      -3.924   5.085   2.852  1.00  0.00     0.261 C 
BRANCH  38  39
ATOM     39  O   UNL     1      -3.705   5.595   1.531  1.00  0.00    -0.460 OA
BRANCH  39  40
ATOM     40  C   UNL     1      -4.196   6.835   1.302  1.00  0.00     0.338 C 
ATOM     41  O   UNL     1      -4.842   7.532   2.066  1.00  0.00    -0.246 OA
BRANCH  40  42
ATOM     42  C   UNL     1      -3.716   7.309  -0.013  1.00  0.00     0.060 A 
ATOM     43  C   UNL     1      -3.089   8.560  -0.077  1.00  0.00     0.016 A 
ATOM     44  C   UNL     1      -3.912   6.557  -1.174  1.00  0.00     0.016 A 
ATOM     45  C   UNL     1      -2.679   9.076  -1.304  1.00  0.00     0.010 A 
ATOM     46  C   UNL     1      -3.532   7.089  -2.410  1.00  0.00     0.010 A 
ATOM     47  C   UNL     1      -2.945   8.365  -2.480  1.00  0.00    -0.014 A 
BRANCH  47  48
ATOM     48  C   UNL     1      -2.814   9.056  -3.784  1.00  0.00     0.031 A 
ATOM     49  C   UNL     1      -4.026   9.750  -4.341  1.00  0.00     0.074 A 
ATOM     50  C   UNL     1      -1.643   9.101  -4.441  1.00  0.00     0.049 A 
ATOM     51  N   UNL     1      -4.171  10.404  -5.465  1.00  0.00    -0.248 NA
ATOM     52  C   UNL     1      -5.242   9.701  -3.512  1.00  0.00     0.031 C 
ATOM     53  C   UNL     1      -0.391   8.508  -3.980  1.00  0.00     0.029 A 
ATOM     54  N   UNL     1      -1.325   9.673  -5.648  1.00  0.00    -0.354 N 
ATOM     55  C   UNL     1      -5.488  10.841  -5.476  1.00  0.00     0.074 A 
ATOM     56  C   UNL     1      -6.111  10.358  -4.264  1.00  0.00     0.031 C 
ATOM     57  C   UNL     1       0.562   8.735  -4.902  1.00  0.00     0.029 A 
ATOM     58  C   UNL     1      -0.022   9.464  -6.028  1.00  0.00     0.049 A 
ATOM     59  H   UNL     1      -1.969  10.185  -6.189  1.00  0.00     0.167 HD
ATOM     60  C   UNL     1      -6.121  11.587  -6.412  1.00  0.00     0.037 A 
ATOM     61  C   UNL     1       0.613   9.807  -7.166  1.00  0.00     0.037 A 
ATOM     62  C   UNL     1      -5.504  12.059  -7.622  1.00  0.00     0.049 A 
ATOM     63  C   UNL     1      -0.138  10.567  -8.231  1.00  0.00     0.074 A 
ATOM     64  C   UNL     1      -6.057  12.827  -8.630  1.00  0.00     0.029 A 
ATOM     65  N   UNL     1      -4.193  11.795  -7.990  1.00  0.00    -0.354 N 
ATOM     66  N   UNL     1      -1.375  11.000  -8.226  1.00  0.00    -0.248 NA
ATOM     67  C   UNL     1       0.601  10.888  -9.461  1.00  0.00     0.031 C 
ATOM     68  C   UNL     1      -5.095  12.987  -9.633  1.00  0.00     0.029 A 
ATOM     69  C   UNL     1      -3.926  12.363  -9.225  1.00  0.00     0.049 A 
ATOM     70  H   UNL     1      -3.548  11.280  -7.454  1.00  0.00     0.167 HD
ATOM     71  C   UNL     1      -1.554  11.666  -9.432  1.00  0.00     0.074 A 
ATOM     72  C   UNL     1      -0.294  11.591 -10.141  1.00  0.00     0.031 C 
ATOM     73  C   UNL     1      -2.662  12.286  -9.910  1.00  0.00     0.037 A 
BRANCH  60  74
ATOM     74  C   UNL     1      -7.566  11.909  -6.174  1.00  0.00     0.064 A 
ATOM     75  C   UNL     1      -7.963  12.828  -5.190  1.00  0.00     0.173 A 
ATOM     76  C   UNL     1      -8.564  11.306  -6.952  1.00  0.00     0.173 A 
ATOM     77  F   UNL     1      -7.047  13.418  -4.407  1.00  0.00    -0.203 F 
ATOM     78  C   UNL     1      -9.310  13.112  -4.980  1.00  0.00     0.198 A 
ATOM     79  C   UNL     1      -9.908  11.614  -6.758  1.00  0.00     0.198 A 
ATOM     80  F   UNL     1      -8.237  10.421  -7.905  1.00  0.00    -0.203 F 
ATOM     81  F   UNL     1      -9.670  13.958  -4.005  1.00  0.00    -0.200 F 
ATOM     82  C   UNL     1     -10.280  12.511  -5.768  1.00  0.00     0.200 A 
ATOM     83  F   UNL     1     -10.843  11.039  -7.526  1.00  0.00    -0.200 F 
ATOM     84  F   UNL     1     -11.575  12.790  -5.568  1.00  0.00    -0.200 F 
ENDBRANCH  60  74
BRANCH  61  85
ATOM     85  C   UNL     1       2.034   9.422  -7.371  1.00  0.00     0.064 A 
ATOM     86  C   UNL     1       3.048  10.388  -7.413  1.00  0.00     0.173 A 
ATOM     87  C   UNL     1       2.402   8.081  -7.557  1.00  0.00     0.173 A 
ATOM     88  F   UNL     1       2.742  11.686  -7.271  1.00  0.00    -0.203 F 
ATOM     89  C   UNL     1       4.373  10.031  -7.653  1.00  0.00     0.198 A 
ATOM     90  C   UNL     1       3.732   7.722  -7.769  1.00  0.00     0.198 A 
ATOM     91  F   UNL     1       1.469   7.118  -7.533  1.00  0.00    -0.203 F 
ATOM     92  F   UNL     1       5.316  10.980  -7.738  1.00  0.00    -0.200 F 
ATOM     93  C   UNL     1       4.715   8.698  -7.825  1.00  0.00     0.200 A 
ATOM     94  F   UNL     1       4.058   6.432  -7.928  1.00  0.00    -0.200 F 
ATOM     95  F   UNL     1       5.989   8.355  -8.056  1.00  0.00    -0.200 F 
ENDBRANCH  61  85
BRANCH  73  96
ATOM     96  C   UNL     1      -2.553  12.966 -11.245  1.00  0.00     0.064 A 
ATOM     97  C   UNL     1      -2.477  12.236 -12.440  1.00  0.00     0.173 A 
ATOM     98  C   UNL     1      -2.577  14.367 -11.330  1.00  0.00     0.173 A 
ATOM     99  F   UNL     1      -2.438  10.896 -12.411  1.00  0.00    -0.203 F 
ATOM    100  C   UNL     1      -2.406  12.884 -13.670  1.00  0.00     0.198 A 
ATOM    101  C   UNL     1      -2.536  15.011 -12.563  1.00  0.00     0.198 A 
ATOM    102  F   UNL     1      -2.658  15.111 -10.217  1.00  0.00    -0.203 F 
ATOM    103  F   UNL     1      -2.290  12.168 -14.797  1.00  0.00    -0.200 F 
ATOM    104  C   UNL     1      -2.443  14.270 -13.731  1.00  0.00     0.200 A 
ATOM    105  F   UNL     1      -2.587  16.349 -12.621  1.00  0.00    -0.200 F 
ATOM    106  F   UNL     1      -2.384  14.891 -14.917  1.00  0.00    -0.200 F 
ENDBRANCH  73  96
ENDBRANCH  47  48
ENDBRANCH  40  42
ENDBRANCH  39  40
ENDBRANCH  38  39
ENDBRANCH  37  38
ENDBRANCH  36  37
ENDBRANCH  35  36
ENDBRANCH  34  35
ENDBRANCH   1  34
TORSDOF 24
