REMARK SMILES COC(=O)c1ccc([C@H]2CC(=O)Nc3c(C(=O)OCCOCCOCCOCCOC(=O)c4ccc(-c5c6nc(c(-c7c(F)c(F)c(F)c(F)c7F)c7ccc([nH]7)c(-c7c(F)c(F)c(F)c(F)c7F)c7nc(c(-c8c(F)c(F)c(F)c(F)c8F)c8ccc5[nH]8)C=C7)C=C6)cc4)cn(-c4ccccc4)c32)cc1
REMARK SMILES IDX 23 1 22 2 21 3 20 4 19 5 18 6 16 7 17 8 15 9 9 10 10 11
REMARK SMILES IDX 104 12 11 13 14 14 97 15 12 16 13 17 96 18 8 20 5 21 6 22
REMARK SMILES IDX 106 23 7 24 105 25 3 26 4 27 2 28 1 29 98 30 99 31 103 32
REMARK SMILES IDX 100 33 102 34 101 35 24 36 25 37 26 38 27 39 28 40 29 41
REMARK SMILES IDX 30 42 31 43 32 44 33 45 34 46 95 47 35 48 94 49 36 50 37 51
REMARK SMILES IDX 38 52 88 53 39 54 93 55 87 56 89 57 40 58 92 59 86 60 85 61
REMARK SMILES IDX 41 63 73 64 53 65 72 66 54 67 57 68 71 69 90 70 55 71 56 72
REMARK SMILES IDX 70 74 91 75 58 76 42 77 43 78 51 79 44 80 45 81 49 82 52 83
REMARK SMILES IDX 46 84 47 85 50 86 48 87 74 88 75 89 83 90 76 91 77 92 81 93
REMARK SMILES IDX 84 94 78 95 79 96 82 97 80 98 59 99 60 100 68 101 61 102
REMARK SMILES IDX 62 103 66 104 69 105 63 106 64 107 67 108 65 109
REMARK H PARENT 13 19 89 62 57 73
REMARK Flexibility Score: inf
ROOT
ATOM      1  C   UNL     1      -5.015   9.884   4.111  1.00  0.00     0.188 C 
ENDROOT
BRANCH   1   2
ATOM      2  C   UNL     1      -4.990  10.455   2.678  1.00  0.00     0.188 C 
BRANCH   2   3
ATOM      3  O   UNL     1      -6.259  10.518   2.066  1.00  0.00    -0.376 OA
BRANCH   3   4
ATOM      4  C   UNL     1      -6.701   9.571   1.126  1.00  0.00     0.202 C 
BRANCH   4   5
ATOM      5  C   UNL     1      -6.448   8.064   1.274  1.00  0.00     0.261 C 
BRANCH   5   6
ATOM      6  O   UNL     1      -5.281   7.648   1.984  1.00  0.00    -0.460 OA
BRANCH   6   7
ATOM      7  C   UNL     1      -4.090   7.791   1.350  1.00  0.00     0.341 C 
ATOM      8  O   UNL     1      -3.959   8.192   0.195  1.00  0.00    -0.246 OA
BRANCH   7   9
ATOM      9  C   UNL     1      -2.980   7.577   2.264  1.00  0.00     0.102 A 
ATOM     10  C   UNL     1      -1.154   5.973   5.086  1.00  0.00     0.078 C 
ATOM     11  C   UNL     1      -2.354   5.330   5.801  1.00  0.00     0.115 C 
ATOM     12  C   UNL     1      -1.631   6.824   3.936  1.00  0.00     0.055 A 
ATOM     13  C   UNL     1      -3.514   4.948   4.897  1.00  0.00     0.225 C 
ATOM     14  C   UNL     1      -2.871   6.680   3.354  1.00  0.00     0.078 A 
ATOM     15  N   UNL     1      -0.945   7.787   3.215  1.00  0.00    -0.317 N 
ATOM     16  O   UNL     1      -4.275   4.024   5.185  1.00  0.00    -0.275 OA
ATOM     17  N   UNL     1      -3.760   5.737   3.806  1.00  0.00    -0.324 N 
ATOM     18  C   UNL     1      -1.803   8.312   2.271  1.00  0.00     0.109 A 
ATOM     19  H   UNL     1      -4.611   5.623   3.324  1.00  0.00     0.170 HD
BRANCH  10  20
ATOM     20  C   UNL     1      -0.241   6.616   6.130  1.00  0.00    -0.038 A 
ATOM     21  C   UNL     1       1.701   7.735   7.851  1.00  0.00     0.060 A 
ATOM     22  C   UNL     1       1.670   6.356   7.623  1.00  0.00     0.016 A 
ATOM     23  C   UNL     1       0.699   8.539   7.298  1.00  0.00     0.016 A 
ATOM     24  C   UNL     1       0.710   5.804   6.771  1.00  0.00     0.005 A 
ATOM     25  C   UNL     1      -0.286   7.976   6.473  1.00  0.00     0.005 A 
BRANCH  21  26
ATOM     26  C   UNL     1       2.842   8.285   8.633  1.00  0.00     0.337 C 
ATOM     27  O   UNL     1       3.797   7.611   8.987  1.00  0.00    -0.246 OA
BRANCH  26  28
ATOM     28  O   UNL     1       2.682   9.612   8.865  1.00  0.00    -0.465 OA
ATOM     29  C   UNL     1       3.773  10.208   9.570  1.00  0.00     0.282 C 
ENDBRANCH  26  28
ENDBRANCH  21  26
ENDBRANCH  10  20
BRANCH  15  30
ATOM     30  C   UNL     1       0.402   8.175   3.360  1.00  0.00     0.045 A 
ATOM     31  C   UNL     1       1.399   7.197   3.319  1.00  0.00     0.026 A 
ATOM     32  C   UNL     1       0.715   9.514   3.623  1.00  0.00     0.026 A 
ATOM     33  C   UNL     1       2.717   7.554   3.585  1.00  0.00     0.002 A 
ATOM     34  C   UNL     1       2.034   9.852   3.931  1.00  0.00     0.002 A 
ATOM     35  C   UNL     1       3.030   8.873   3.914  1.00  0.00     0.000 A 
ENDBRANCH  15  30
ENDBRANCH   7   9
ENDBRANCH   6   7
ENDBRANCH   5   6
ENDBRANCH   4   5
ENDBRANCH   3   4
ENDBRANCH   2   3
ENDBRANCH   1   2
BRANCH   1  36
ATOM     36  O   UNL     1      -6.184   9.231   4.575  1.00  0.00    -0.377 OA
BRANCH  36  37
ATOM     37  C   UNL     1      -7.458   9.866   4.504  1.00  0.00     0.188 C 
BRANCH  37  38
ATOM     38  C   UNL     1      -7.669  11.385   4.241  1.00  0.00     0.188 C 
BRANCH  38  39
ATOM     39  O   UNL     1      -6.504  12.162   4.056  1.00  0.00    -0.376 OA
BRANCH  39  40
ATOM     40  C   UNL     1      -5.958  13.047   5.008  1.00  0.00     0.202 C 
BRANCH  40  41
ATOM     41  C   UNL     1      -5.712  12.585   6.435  1.00  0.00     0.261 C 
BRANCH  41  42
ATOM     42  O   UNL     1      -6.606  11.586   6.868  1.00  0.00    -0.460 OA
BRANCH  42  43
ATOM     43  C   UNL     1      -7.831  12.046   7.165  1.00  0.00     0.338 C 
ATOM     44  O   UNL     1      -8.295  13.152   6.908  1.00  0.00    -0.246 OA
BRANCH  43  45
ATOM     45  C   UNL     1      -8.484  11.053   8.010  1.00  0.00     0.060 A 
ATOM     46  C   UNL     1      -9.791  11.359   8.384  1.00  0.00     0.016 A 
ATOM     47  C   UNL     1      -7.649  10.210   8.759  1.00  0.00     0.016 A 
ATOM     48  C   UNL     1     -10.145  11.090   9.678  1.00  0.00     0.010 A 
ATOM     49  C   UNL     1      -7.986   9.982  10.061  1.00  0.00     0.010 A 
ATOM     50  C   UNL     1      -9.185  10.516  10.521  1.00  0.00    -0.014 A 
BRANCH  50  51
ATOM     51  C   UNL     1      -9.532  10.336  11.906  1.00  0.00     0.031 A 
ATOM     52  C   UNL     1     -10.465   9.204  12.056  1.00  0.00     0.074 A 
ATOM     53  C   UNL     1      -8.976  11.069  12.887  1.00  0.00     0.049 A 
ATOM     54  N   UNL     1     -11.719   9.265  12.348  1.00  0.00    -0.248 NA
ATOM     55  C   UNL     1     -10.021   7.883  11.574  1.00  0.00     0.031 C 
ATOM     56  C   UNL     1      -7.863  12.018  12.789  1.00  0.00     0.029 A 
ATOM     57  N   UNL     1      -9.237  11.043  14.220  1.00  0.00    -0.354 N 
ATOM     58  C   UNL     1     -12.153   7.946  12.329  1.00  0.00     0.074 A 
ATOM     59  C   UNL     1     -11.163   7.198  11.608  1.00  0.00     0.031 C 
ATOM     60  C   UNL     1      -7.402  12.295  14.031  1.00  0.00     0.029 A 
ATOM     61  C   UNL     1      -8.261  11.648  15.006  1.00  0.00     0.049 A 
ATOM     62  H   UNL     1     -10.047  10.632  14.598  1.00  0.00     0.167 HD
ATOM     63  C   UNL     1     -13.080   7.537  13.233  1.00  0.00     0.037 A 
ATOM     64  C   UNL     1      -8.151  11.527  16.354  1.00  0.00     0.037 A 
ATOM     65  C   UNL     1     -13.829   8.666  13.734  1.00  0.00     0.049 A 
ATOM     66  C   UNL     1      -9.468  11.056  16.857  1.00  0.00     0.074 A 
ATOM     67  C   UNL     1     -14.637   9.633  13.168  1.00  0.00     0.029 A 
ATOM     68  N   UNL     1     -13.467   9.148  14.966  1.00  0.00    -0.354 N 
ATOM     69  N   UNL     1     -10.553  11.780  16.838  1.00  0.00    -0.248 NA
ATOM     70  C   UNL     1      -9.679   9.620  16.959  1.00  0.00     0.031 C 
ATOM     71  C   UNL     1     -14.383  10.823  13.914  1.00  0.00     0.029 A 
ATOM     72  C   UNL     1     -13.488  10.515  14.939  1.00  0.00     0.049 A 
ATOM     73  H   UNL     1     -13.229   8.597  15.747  1.00  0.00     0.167 HD
ATOM     74  C   UNL     1     -11.559  10.896  16.478  1.00  0.00     0.074 A 
ATOM     75  C   UNL     1     -10.982   9.568  16.668  1.00  0.00     0.031 C 
ATOM     76  C   UNL     1     -12.647  11.337  15.780  1.00  0.00     0.037 A 
BRANCH  63  77
ATOM     77  C   UNL     1     -12.944   6.244  14.014  1.00  0.00     0.064 A 
ATOM     78  C   UNL     1     -13.970   5.904  14.915  1.00  0.00     0.173 A 
ATOM     79  C   UNL     1     -11.744   5.507  14.162  1.00  0.00     0.173 A 
ATOM     80  F   UNL     1     -15.148   6.545  14.880  1.00  0.00    -0.203 F 
ATOM     81  C   UNL     1     -13.773   4.981  15.945  1.00  0.00     0.198 A 
ATOM     82  C   UNL     1     -11.570   4.549  15.157  1.00  0.00     0.198 A 
ATOM     83  F   UNL     1     -10.646   5.744  13.439  1.00  0.00    -0.203 F 
ATOM     84  F   UNL     1     -14.730   4.799  16.864  1.00  0.00    -0.200 F 
ATOM     85  C   UNL     1     -12.570   4.312  16.071  1.00  0.00     0.200 A 
ATOM     86  F   UNL     1     -10.387   3.929  15.271  1.00  0.00    -0.200 F 
ATOM     87  F   UNL     1     -12.355   3.479  17.097  1.00  0.00    -0.200 F 
ENDBRANCH  63  77
BRANCH  64  88
ATOM     88  C   UNL     1      -6.923  11.442  17.183  1.00  0.00     0.064 A 
ATOM     89  C   UNL     1      -6.987  11.569  18.582  1.00  0.00     0.173 A 
ATOM     90  C   UNL     1      -5.714  10.946  16.659  1.00  0.00     0.173 A 
ATOM     91  F   UNL     1      -8.118  11.988  19.169  1.00  0.00    -0.203 F 
ATOM     92  C   UNL     1      -5.920  11.195  19.405  1.00  0.00     0.198 A 
ATOM     93  C   UNL     1      -4.647  10.579  17.481  1.00  0.00     0.198 A 
ATOM     94  F   UNL     1      -5.578  10.711  15.346  1.00  0.00    -0.203 F 
ATOM     95  F   UNL     1      -6.045  11.268  20.738  1.00  0.00    -0.200 F 
ATOM     96  C   UNL     1      -4.754  10.690  18.854  1.00  0.00     0.200 A 
ATOM     97  F   UNL     1      -3.539  10.055  16.936  1.00  0.00    -0.200 F 
ATOM     98  F   UNL     1      -3.755  10.272  19.644  1.00  0.00    -0.200 F 
ENDBRANCH  64  88
BRANCH  76  99
ATOM     99  C   UNL     1     -12.879  12.822  15.725  1.00  0.00     0.064 A 
ATOM    100  C   UNL     1     -12.014  13.744  15.110  1.00  0.00     0.173 A 
ATOM    101  C   UNL     1     -14.098  13.309  16.215  1.00  0.00     0.173 A 
ATOM    102  F   UNL     1     -10.872  13.342  14.535  1.00  0.00    -0.203 F 
ATOM    103  C   UNL     1     -12.342  15.098  15.031  1.00  0.00     0.198 A 
ATOM    104  C   UNL     1     -14.440  14.652  16.100  1.00  0.00     0.198 A 
ATOM    105  F   UNL     1     -14.983  12.465  16.769  1.00  0.00    -0.203 F 
ATOM    106  F   UNL     1     -11.495  15.963  14.455  1.00  0.00    -0.200 F 
ATOM    107  C   UNL     1     -13.558  15.548  15.519  1.00  0.00     0.200 A 
ATOM    108  F   UNL     1     -15.638  15.072  16.529  1.00  0.00    -0.200 F 
ATOM    109  F   UNL     1     -13.892  16.841  15.407  1.00  0.00    -0.200 F 
ENDBRANCH  76  99
ENDBRANCH  50  51
ENDBRANCH  43  45
ENDBRANCH  42  43
ENDBRANCH  41  42
ENDBRANCH  40  41
ENDBRANCH  39  40
ENDBRANCH  38  39
ENDBRANCH  37  38
ENDBRANCH  36  37
ENDBRANCH   1  36
TORSDOF 24
