REMARK SMILES COC(=O)C[C@@H](NC(=O)c1ccccc1C(=O)OCCOCCOCCOCCOC(=O)c1ccc(-c2c3nc(c(-c4c(F)c(F)c(F)c(F)c4F)c4ccc([nH]4)c(-c4c(F)c(F)c(F)c(F)c4F)c4nc(c(-c5c(F)c(F)c(F)c(F)c5F)c5ccc2[nH]5)C=C4)C=C3)cc1)c1cccc(C)c1C
REMARK SMILES IDX 22 1 21 2 20 3 19 4 18 5 16 6 17 7 15 8 10 9 11 10 12 11
REMARK SMILES IDX 14 12 13 13 8 14 7 15 9 17 6 18 5 19 3 20 4 21 2 22 1 23
REMARK SMILES IDX 96 24 97 25 102 26 98 27 100 28 103 29 99 30 101 31 23 32
REMARK SMILES IDX 24 33 25 34 26 35 27 36 28 37 29 38 30 39 31 40 32 41 33 42
REMARK SMILES IDX 34 43 95 44 35 45 94 46 36 47 37 48 38 49 88 50 39 51 93 52
REMARK SMILES IDX 87 53 89 54 40 55 92 56 86 57 85 58 41 60 73 61 53 62 72 63
REMARK SMILES IDX 54 64 57 65 71 66 90 67 55 68 56 69 70 71 91 72 58 73 42 74
REMARK SMILES IDX 43 75 51 76 44 77 45 78 49 79 52 80 46 81 47 82 50 83 48 84
REMARK SMILES IDX 74 85 75 86 83 87 76 88 77 89 81 90 84 91 78 92 79 93 82 94
REMARK SMILES IDX 80 95 59 96 60 97 68 98 61 99 62 100 66 101 69 102 63 103
REMARK SMILES IDX 64 104 67 105 65 106
REMARK H PARENT 7 16 89 59 57 70
REMARK Flexibility Score: inf
ROOT
ATOM      1  C   UNL     1       3.048   0.145  -7.985  1.00  0.00     0.188 C 
ENDROOT
BRANCH   1   2
ATOM      2  O   UNL     1       4.386   0.578  -7.812  1.00  0.00    -0.376 OA
BRANCH   2   3
ATOM      3  C   UNL     1       4.639   1.342  -6.615  1.00  0.00     0.202 C 
BRANCH   3   4
ATOM      4  C   UNL     1       3.600   2.339  -6.044  1.00  0.00     0.261 C 
BRANCH   4   5
ATOM      5  O   UNL     1       2.249   1.867  -6.103  1.00  0.00    -0.460 OA
BRANCH   5   6
ATOM      6  C   UNL     1       1.457   2.096  -7.173  1.00  0.00     0.339 C 
ATOM      7  O   UNL     1       1.856   2.897  -8.015  1.00  0.00    -0.246 OA
BRANCH   6   8
ATOM      8  C   UNL     1       0.002   1.162  -7.378  1.00  0.00     0.072 A 
ATOM      9  C   UNL     1      -1.372   0.476  -6.204  1.00  0.00     0.054 A 
ATOM     10  C   UNL     1      -3.044   1.224  -6.356  1.00  0.00     0.015 A 
ATOM     11  C   UNL     1      -3.401   2.438  -7.596  1.00  0.00     0.001 A 
ATOM     12  C   UNL     1      -0.514   2.364  -8.674  1.00  0.00     0.016 A 
ATOM     13  C   UNL     1      -2.168   2.969  -8.767  1.00  0.00     0.001 A 
BRANCH   9  14
ATOM     14  C   UNL     1      -1.686  -0.016  -4.654  1.00  0.00     0.252 C 
ATOM     15  N   UNL     1      -1.529   0.749  -3.415  1.00  0.00    -0.345 N 
ATOM     16  H   UNL     1      -2.187   0.513  -2.722  1.00  0.00     0.164 HD
ATOM     17  O   UNL     1      -2.286  -1.093  -4.551  1.00  0.00    -0.269 OA
BRANCH  15  18
ATOM     18  C   UNL     1      -0.526   1.867  -2.970  1.00  0.00     0.124 C 
BRANCH  18  19
ATOM     19  C   UNL     1      -0.761   2.486  -1.596  1.00  0.00     0.152 C 
BRANCH  19  20
ATOM     20  C   UNL     1       0.216   1.859  -0.622  1.00  0.00     0.307 C 
ATOM     21  O   UNL     1       1.164   2.452  -0.123  1.00  0.00    -0.252 OA
BRANCH  20  22
ATOM     22  O   UNL     1      -0.063   0.540  -0.436  1.00  0.00    -0.469 OA
ATOM     23  C   UNL     1       0.883  -0.151   0.385  1.00  0.00     0.282 C 
ENDBRANCH  20  22
ENDBRANCH  19  20
ENDBRANCH  18  19
BRANCH  18  24
ATOM     24  C   UNL     1      -0.386   2.819  -4.115  1.00  0.00    -0.022 A 
ATOM     25  C   UNL     1      -0.607   4.168  -4.235  1.00  0.00     0.006 A 
ATOM     26  C   UNL     1      -0.302   2.117  -5.282  1.00  0.00    -0.043 A 
ATOM     27  C   UNL     1      -1.052   4.701  -5.458  1.00  0.00     0.001 A 
ATOM     28  C   UNL     1      -1.305   2.470  -6.622  1.00  0.00    -0.048 A 
ATOM     29  C   UNL     1       0.718   0.654  -4.926  1.00  0.00     0.045 C 
ATOM     30  C   UNL     1      -1.494   3.911  -6.554  1.00  0.00     0.004 A 
ATOM     31  C   UNL     1      -1.890   1.006  -8.047  1.00  0.00     0.044 C 
ENDBRANCH  18  24
ENDBRANCH  15  18
ENDBRANCH   9  14
ENDBRANCH   6   8
ENDBRANCH   5   6
ENDBRANCH   4   5
ENDBRANCH   3   4
ENDBRANCH   2   3
ENDBRANCH   1   2
BRANCH   1  32
ATOM     32  C   UNL     1       2.580  -1.225  -8.424  1.00  0.00     0.188 C 
BRANCH  32  33
ATOM     33  O   UNL     1       2.841  -2.272  -7.490  1.00  0.00    -0.377 OA
BRANCH  33  34
ATOM     34  C   UNL     1       4.108  -2.199  -6.844  1.00  0.00     0.188 C 
BRANCH  34  35
ATOM     35  C   UNL     1       5.340  -2.170  -7.771  1.00  0.00     0.188 C 
BRANCH  35  36
ATOM     36  O   UNL     1       5.069  -1.769  -9.106  1.00  0.00    -0.376 OA
BRANCH  36  37
ATOM     37  C   UNL     1       4.954  -2.783 -10.101  1.00  0.00     0.202 C 
BRANCH  37  38
ATOM     38  C   UNL     1       3.841  -3.853  -9.981  1.00  0.00     0.261 C 
BRANCH  38  39
ATOM     39  O   UNL     1       3.762  -4.554  -8.732  1.00  0.00    -0.460 OA
BRANCH  39  40
ATOM     40  C   UNL     1       4.835  -5.289  -8.391  1.00  0.00     0.338 C 
ATOM     41  O   UNL     1       5.833  -5.487  -9.059  1.00  0.00    -0.246 OA
BRANCH  40  42
ATOM     42  C   UNL     1       4.716  -5.651  -6.965  1.00  0.00     0.060 A 
ATOM     43  C   UNL     1       5.765  -5.292  -6.108  1.00  0.00     0.016 A 
ATOM     44  C   UNL     1       3.612  -6.357  -6.480  1.00  0.00     0.016 A 
ATOM     45  C   UNL     1       5.746  -5.689  -4.778  1.00  0.00     0.010 A 
ATOM     46  C   UNL     1       3.616  -6.800  -5.154  1.00  0.00     0.010 A 
ATOM     47  C   UNL     1       4.711  -6.512  -4.320  1.00  0.00    -0.014 A 
BRANCH  47  48
ATOM     48  C   UNL     1       4.955  -7.297  -3.089  1.00  0.00     0.031 A 
ATOM     49  C   UNL     1       5.566  -8.664  -3.248  1.00  0.00     0.074 A 
ATOM     50  C   UNL     1       4.755  -6.772  -1.869  1.00  0.00     0.049 A 
ATOM     51  N   UNL     1       5.917  -9.533  -2.336  1.00  0.00    -0.248 NA
ATOM     52  C   UNL     1       5.829  -9.106  -4.630  1.00  0.00     0.031 C 
ATOM     53  C   UNL     1       4.237  -5.433  -1.597  1.00  0.00     0.029 A 
ATOM     54  N   UNL     1       4.978  -7.309  -0.627  1.00  0.00    -0.354 N 
ATOM     55  C   UNL     1       6.453 -10.610  -3.031  1.00  0.00     0.074 A 
ATOM     56  C   UNL     1       6.342 -10.311  -4.441  1.00  0.00     0.031 C 
ATOM     57  C   UNL     1       4.173  -5.256  -0.265  1.00  0.00     0.029 A 
ATOM     58  C   UNL     1       4.621  -6.476   0.404  1.00  0.00     0.049 A 
ATOM     59  H   UNL     1       5.358  -8.206  -0.489  1.00  0.00     0.167 HD
ATOM     60  C   UNL     1       7.007 -11.741  -2.538  1.00  0.00     0.037 A 
ATOM     61  C   UNL     1       4.641  -6.694   1.733  1.00  0.00     0.037 A 
ATOM     62  C   UNL     1       7.100 -12.045  -1.136  1.00  0.00     0.049 A 
ATOM     63  C   UNL     1       5.168  -8.012   2.250  1.00  0.00     0.074 A 
ATOM     64  C   UNL     1       7.598 -13.183  -0.528  1.00  0.00     0.029 A 
ATOM     65  N   UNL     1       6.681 -11.198  -0.120  1.00  0.00    -0.354 N 
ATOM     66  N   UNL     1       5.670  -9.027   1.588  1.00  0.00    -0.248 NA
ATOM     67  C   UNL     1       5.141  -8.206   3.707  1.00  0.00     0.031 C 
ATOM     68  C   UNL     1       7.444 -13.042   0.855  1.00  0.00     0.029 A 
ATOM     69  C   UNL     1       6.905 -11.792   1.111  1.00  0.00     0.049 A 
ATOM     70  H   UNL     1       6.284 -10.307  -0.255  1.00  0.00     0.167 HD
ATOM     71  C   UNL     1       6.060  -9.955   2.547  1.00  0.00     0.074 A 
ATOM     72  C   UNL     1       5.754  -9.372   3.836  1.00  0.00     0.031 C 
ATOM     73  C   UNL     1       6.617 -11.181   2.382  1.00  0.00     0.037 A 
BRANCH  60  74
ATOM     74  C   UNL     1       7.543 -12.738  -3.523  1.00  0.00     0.064 A 
ATOM     75  C   UNL     1       8.714 -12.487  -4.255  1.00  0.00     0.173 A 
ATOM     76  C   UNL     1       6.905 -13.973  -3.708  1.00  0.00     0.173 A 
ATOM     77  F   UNL     1       9.350 -11.312  -4.131  1.00  0.00    -0.203 F 
ATOM     78  C   UNL     1       9.219 -13.432  -5.144  1.00  0.00     0.198 A 
ATOM     79  C   UNL     1       7.429 -14.927  -4.576  1.00  0.00     0.198 A 
ATOM     80  F   UNL     1       5.781 -14.260  -3.035  1.00  0.00    -0.203 F 
ATOM     81  F   UNL     1      10.318 -13.156  -5.861  1.00  0.00    -0.200 F 
ATOM     82  C   UNL     1       8.583 -14.655  -5.296  1.00  0.00     0.200 A 
ATOM     83  F   UNL     1       6.819 -16.112  -4.713  1.00  0.00    -0.200 F 
ATOM     84  F   UNL     1       9.079 -15.570  -6.140  1.00  0.00    -0.200 F 
ENDBRANCH  60  74
BRANCH  61  85
ATOM     85  C   UNL     1       4.134  -5.664   2.680  1.00  0.00     0.064 A 
ATOM     86  C   UNL     1       4.980  -5.064   3.625  1.00  0.00     0.173 A 
ATOM     87  C   UNL     1       2.775  -5.319   2.714  1.00  0.00     0.173 A 
ATOM     88  F   UNL     1       6.284  -5.376   3.651  1.00  0.00    -0.203 F 
ATOM     89  C   UNL     1       4.478  -4.198   4.595  1.00  0.00     0.198 A 
ATOM     90  C   UNL     1       2.281  -4.422   3.660  1.00  0.00     0.198 A 
ATOM     91  F   UNL     1       1.921  -5.859   1.833  1.00  0.00    -0.203 F 
ATOM     92  F   UNL     1       5.295  -3.703   5.535  1.00  0.00    -0.200 F 
ATOM     93  C   UNL     1       3.129  -3.877   4.611  1.00  0.00     0.200 A 
ATOM     94  F   UNL     1       0.981  -4.101   3.659  1.00  0.00    -0.200 F 
ATOM     95  F   UNL     1       2.644  -3.053   5.550  1.00  0.00    -0.200 F 
ENDBRANCH  61  85
BRANCH  73  96
ATOM     96  C   UNL     1       6.997 -11.936   3.625  1.00  0.00     0.064 A 
ATOM     97  C   UNL     1       6.034 -12.446   4.509  1.00  0.00     0.173 A 
ATOM     98  C   UNL     1       8.349 -12.153   3.933  1.00  0.00     0.173 A 
ATOM     99  F   UNL     1       4.728 -12.258   4.267  1.00  0.00    -0.203 F 
ATOM    100  C   UNL     1       6.412 -13.098   5.680  1.00  0.00     0.198 A 
ATOM    101  C   UNL     1       8.722 -12.841   5.085  1.00  0.00     0.198 A 
ATOM    102  F   UNL     1       9.312 -11.700   3.116  1.00  0.00    -0.203 F 
ATOM    103  F   UNL     1       5.475 -13.508   6.547  1.00  0.00    -0.200 F 
ATOM    104  C   UNL     1       7.754 -13.298   5.965  1.00  0.00     0.200 A 
ATOM    105  F   UNL     1      10.019 -13.050   5.348  1.00  0.00    -0.200 F 
ATOM    106  F   UNL     1       8.115 -13.921   7.095  1.00  0.00    -0.200 F 
ENDBRANCH  73  96
ENDBRANCH  47  48
ENDBRANCH  40  42
ENDBRANCH  39  40
ENDBRANCH  38  39
ENDBRANCH  37  38
ENDBRANCH  36  37
ENDBRANCH  35  36
ENDBRANCH  34  35
ENDBRANCH  33  34
ENDBRANCH  32  33
ENDBRANCH   1  32
TORSDOF 26
