REMARK SMILES O=C(NCc1ccc(C(=O)OCCOCCOCCOCCOC(=O)c2ccc(-c3c4nc(c(-c5c(F)c(F)c(F)c(F)c5F)c5ccc([nH]5)c(-c5c(F)c(F)c(F)c(F)c5F)c5nc(c(-c6c(F)c(F)c(F)c(F)c6F)c6ccc3[nH]6)C=C5)C=C4)cc2)o1)Nc1ccc(F)c(Cl)c1
REMARK SMILES IDX 16 1 15 2 14 3 13 4 12 5 11 6 9 7 10 8 8 9 5 10 6 11 89 12
REMARK SMILES IDX 7 13 4 14 3 15 1 16 2 17 90 18 91 21 92 22 98 23 93 24 96 25
REMARK SMILES IDX 94 26 97 27 95 28 17 29 18 30 19 31 20 32 21 33 22 34 23 35
REMARK SMILES IDX 24 36 25 37 26 38 27 39 88 40 28 41 87 42 29 43 30 44 31 45
REMARK SMILES IDX 81 46 32 47 86 48 80 49 82 50 33 51 85 52 79 53 78 54 34 56
REMARK SMILES IDX 66 57 46 58 65 59 47 60 50 61 64 62 83 63 48 64 49 65 63 67
REMARK SMILES IDX 84 68 51 69 35 70 36 71 44 72 37 73 38 74 42 75 45 76 39 77
REMARK SMILES IDX 40 78 43 79 41 80 67 81 68 82 76 83 69 84 70 85 74 86 77 87
REMARK SMILES IDX 71 88 72 89 75 90 73 91 52 92 53 93 61 94 54 95 55 96 59 97
REMARK SMILES IDX 62 98 56 99 57 100 60 101 58 102
REMARK H PARENT 3 19 90 20 82 55 50 66
REMARK Flexibility Score: inf
ROOT
ATOM      1  C   UNL     1       4.672  -0.106   6.450  1.00  0.00     0.188 C 
ENDROOT
BRANCH   1   2
ATOM      2  C   UNL     1       5.761  -1.182   6.596  1.00  0.00     0.188 C 
BRANCH   2   3
ATOM      3  O   UNL     1       6.622  -0.951   7.712  1.00  0.00    -0.376 OA
BRANCH   3   4
ATOM      4  C   UNL     1       7.909  -0.418   7.413  1.00  0.00     0.202 C 
BRANCH   4   5
ATOM      5  C   UNL     1       7.950   1.065   7.010  1.00  0.00     0.261 C 
BRANCH   5   6
ATOM      6  O   UNL     1       7.270   1.404   5.793  1.00  0.00    -0.457 OA
BRANCH   6   7
ATOM      7  C   UNL     1       7.659   0.793   4.640  1.00  0.00     0.374 C 
ATOM      8  O   UNL     1       8.635   0.058   4.538  1.00  0.00    -0.242 OA
BRANCH   7   9
ATOM      9  C   UNL     1       6.659   1.048   3.630  1.00  0.00     0.211 A 
ATOM     10  C   UNL     1       5.322   0.474   1.970  1.00  0.00     0.124 A 
ATOM     11  C   UNL     1       4.910   1.722   2.389  1.00  0.00     0.048 A 
ATOM     12  O   UNL     1       6.410   0.077   2.694  1.00  0.00    -0.452 OA
ATOM     13  C   UNL     1       5.758   2.083   3.462  1.00  0.00     0.058 A 
BRANCH  10  14
ATOM     14  C   UNL     1       4.814  -0.485   0.954  1.00  0.00     0.193 C 
BRANCH  14  15
ATOM     15  N   UNL     1       3.364  -0.455   0.975  1.00  0.00    -0.331 N 
ATOM     16  O   UNL     1       1.322   0.235   0.466  1.00  0.00    -0.248 OA
ATOM     17  C   UNL     1       2.480   0.077   0.091  1.00  0.00     0.319 C 
ATOM     18  N   UNL     1       2.967   0.374  -1.150  1.00  0.00    -0.308 N 
ATOM     19  H   UNL     1       2.954  -0.892   1.756  1.00  0.00     0.165 HD
ATOM     20  H   UNL     1       3.870   0.042  -1.359  1.00  0.00     0.171 HD
BRANCH  18  21
ATOM     21  C   UNL     1       2.313   1.104  -2.164  1.00  0.00     0.044 A 
ATOM     22  C   UNL     1       2.863   1.048  -3.453  1.00  0.00     0.029 A 
ATOM     23  C   UNL     1       1.176   1.889  -1.941  1.00  0.00     0.049 A 
ATOM     24  C   UNL     1       2.270   1.743  -4.510  1.00  0.00     0.043 A 
ATOM     25  C   UNL     1       0.591   2.593  -2.997  1.00  0.00     0.078 A 
ATOM     26  C   UNL     1       1.136   2.511  -4.276  1.00  0.00     0.141 A 
ATOM     27  Cl  UNL     1      -0.799   3.567  -2.702  1.00  0.00    -0.081 Cl
ATOM     28  F   UNL     1       0.584   3.174  -5.303  1.00  0.00    -0.205 F 
ENDBRANCH  18  21
ENDBRANCH  14  15
ENDBRANCH  10  14
ENDBRANCH   7   9
ENDBRANCH   6   7
ENDBRANCH   5   6
ENDBRANCH   4   5
ENDBRANCH   3   4
ENDBRANCH   2   3
ENDBRANCH   1   2
BRANCH   1  29
ATOM     29  O   UNL     1       4.838   0.950   7.387  1.00  0.00    -0.377 OA
BRANCH  29  30
ATOM     30  C   UNL     1       4.110   0.821   8.607  1.00  0.00     0.188 C 
BRANCH  30  31
ATOM     31  C   UNL     1       4.027  -0.561   9.284  1.00  0.00     0.188 C 
BRANCH  31  32
ATOM     32  O   UNL     1       3.347  -1.534   8.486  1.00  0.00    -0.376 OA
BRANCH  32  33
ATOM     33  C   UNL     1       2.038  -1.896   8.920  1.00  0.00     0.202 C 
BRANCH  33  34
ATOM     34  C   UNL     1       0.956  -0.905   8.472  1.00  0.00     0.261 C 
BRANCH  34  35
ATOM     35  O   UNL     1       1.058   0.396   9.074  1.00  0.00    -0.460 OA
BRANCH  35  36
ATOM     36  C   UNL     1       0.954   0.452  10.419  1.00  0.00     0.338 C 
ATOM     37  O   UNL     1       0.695  -0.463  11.179  1.00  0.00    -0.246 OA
BRANCH  36  38
ATOM     38  C   UNL     1       1.393   1.791  10.857  1.00  0.00     0.060 A 
ATOM     39  C   UNL     1       2.363   1.879  11.862  1.00  0.00     0.016 A 
ATOM     40  C   UNL     1       0.838   2.946  10.298  1.00  0.00     0.016 A 
ATOM     41  C   UNL     1       2.746   3.128  12.348  1.00  0.00     0.010 A 
ATOM     42  C   UNL     1       1.212   4.195  10.796  1.00  0.00     0.010 A 
ATOM     43  C   UNL     1       2.139   4.288  11.848  1.00  0.00    -0.014 A 
BRANCH  43  44
ATOM     44  C   UNL     1       2.325   5.578  12.551  1.00  0.00     0.031 A 
ATOM     45  C   UNL     1       1.327   5.968  13.604  1.00  0.00     0.074 A 
ATOM     46  C   UNL     1       3.358   6.387  12.262  1.00  0.00     0.049 A 
ATOM     47  N   UNL     1       1.271   7.048  14.339  1.00  0.00    -0.248 NA
ATOM     48  C   UNL     1       0.241   5.007  13.861  1.00  0.00     0.031 C 
ATOM     49  C   UNL     1       4.398   6.111  11.275  1.00  0.00     0.029 A 
ATOM     50  N   UNL     1       3.691   7.616  12.774  1.00  0.00    -0.354 N 
ATOM     51  C   UNL     1       0.152   6.895  15.146  1.00  0.00     0.074 A 
ATOM     52  C   UNL     1      -0.462   5.635  14.791  1.00  0.00     0.031 C 
ATOM     53  C   UNL     1       5.250   7.152  11.241  1.00  0.00     0.029 A 
ATOM     54  C   UNL     1       4.802   8.170  12.190  1.00  0.00     0.049 A 
ATOM     55  H   UNL     1       3.182   8.058  13.491  1.00  0.00     0.167 HD
ATOM     56  C   UNL     1      -0.317   7.726  16.106  1.00  0.00     0.037 A 
ATOM     57  C   UNL     1       5.378   9.371  12.393  1.00  0.00     0.037 A 
ATOM     58  C   UNL     1       0.283   8.985  16.453  1.00  0.00     0.049 A 
ATOM     59  C   UNL     1       4.799  10.308  13.421  1.00  0.00     0.074 A 
ATOM     60  C   UNL     1      -0.102   9.888  17.428  1.00  0.00     0.029 A 
ATOM     61  N   UNL     1       1.393   9.526  15.822  1.00  0.00    -0.354 N 
ATOM     62  N   UNL     1       3.770  10.135  14.215  1.00  0.00    -0.248 NA
ATOM     63  C   UNL     1       5.466  11.609  13.582  1.00  0.00     0.031 C 
ATOM     64  C   UNL     1       0.750  10.995  17.358  1.00  0.00     0.029 A 
ATOM     65  C   UNL     1       1.691  10.763  16.368  1.00  0.00     0.049 A 
ATOM     66  H   UNL     1       1.896   9.094  15.093  1.00  0.00     0.167 HD
ATOM     67  C   UNL     1       3.680  11.289  14.982  1.00  0.00     0.074 A 
ATOM     68  C   UNL     1       4.767  12.152  14.569  1.00  0.00     0.031 C 
ATOM     69  C   UNL     1       2.779  11.607  15.944  1.00  0.00     0.037 A 
BRANCH  56  70
ATOM     70  C   UNL     1      -1.555   7.301  16.835  1.00  0.00     0.064 A 
ATOM     71  C   UNL     1      -1.527   6.268  17.784  1.00  0.00     0.173 A 
ATOM     72  C   UNL     1      -2.779   7.941  16.593  1.00  0.00     0.173 A 
ATOM     73  F   UNL     1      -0.384   5.613  18.035  1.00  0.00    -0.203 F 
ATOM     74  C   UNL     1      -2.687   5.877  18.448  1.00  0.00     0.198 A 
ATOM     75  C   UNL     1      -3.931   7.563  17.276  1.00  0.00     0.198 A 
ATOM     76  F   UNL     1      -2.856   8.934  15.693  1.00  0.00    -0.203 F 
ATOM     77  F   UNL     1      -2.647   4.858  19.319  1.00  0.00    -0.200 F 
ATOM     78  C   UNL     1      -3.885   6.527  18.197  1.00  0.00     0.200 A 
ATOM     79  F   UNL     1      -5.088   8.196  17.037  1.00  0.00    -0.200 F 
ATOM     80  F   UNL     1      -5.000   6.150  18.838  1.00  0.00    -0.200 F 
ENDBRANCH  56  70
BRANCH  57  81
ATOM     81  C   UNL     1       6.572   9.763  11.602  1.00  0.00     0.064 A 
ATOM     82  C   UNL     1       7.835   9.859  12.202  1.00  0.00     0.173 A 
ATOM     83  C   UNL     1       6.471  10.071  10.238  1.00  0.00     0.173 A 
ATOM     84  F   UNL     1       7.976   9.601  13.510  1.00  0.00    -0.203 F 
ATOM     85  C   UNL     1       8.950  10.263  11.470  1.00  0.00     0.198 A 
ATOM     86  C   UNL     1       7.590  10.453   9.502  1.00  0.00     0.198 A 
ATOM     87  F   UNL     1       5.282  10.000   9.620  1.00  0.00    -0.203 F 
ATOM     88  F   UNL     1      10.138  10.388  12.076  1.00  0.00    -0.200 F 
ATOM     89  C   UNL     1       8.827  10.555  10.120  1.00  0.00     0.200 A 
ATOM     90  F   UNL     1       7.468  10.728   8.196  1.00  0.00    -0.200 F 
ATOM     91  F   UNL     1       9.899  10.945   9.416  1.00  0.00    -0.200 F 
ENDBRANCH  57  81
BRANCH  69  92
ATOM     92  C   UNL     1       2.941  12.931  16.631  1.00  0.00     0.064 A 
ATOM     93  C   UNL     1       2.613  14.134  15.989  1.00  0.00     0.173 A 
ATOM     94  C   UNL     1       3.386  12.993  17.960  1.00  0.00     0.173 A 
ATOM     95  F   UNL     1       2.197  14.127  14.714  1.00  0.00    -0.203 F 
ATOM     96  C   UNL     1       2.744  15.354  16.648  1.00  0.00     0.198 A 
ATOM     97  C   UNL     1       3.491  14.212  18.623  1.00  0.00     0.198 A 
ATOM     98  F   UNL     1       3.706  11.869  18.619  1.00  0.00    -0.203 F 
ATOM     99  F   UNL     1       2.463  16.495  16.003  1.00  0.00    -0.200 F 
ATOM    100  C   UNL     1       3.176  15.391  17.966  1.00  0.00     0.200 A 
ATOM    101  F   UNL     1       3.898  14.245  19.900  1.00  0.00    -0.200 F 
ATOM    102  F   UNL     1       3.296  16.566  18.600  1.00  0.00    -0.200 F 
ENDBRANCH  69  92
ENDBRANCH  43  44
ENDBRANCH  36  38
ENDBRANCH  35  36
ENDBRANCH  34  35
ENDBRANCH  33  34
ENDBRANCH  32  33
ENDBRANCH  31  32
ENDBRANCH  30  31
ENDBRANCH  29  30
ENDBRANCH   1  29
TORSDOF 23
