REMARK SMILES O=C(CC1(C(=O)OCCOCCOCCOCCOC(=O)c2ccc(-c3c4nc(c(-c5c(F)c(F)c(F)c(F)c5F)c5ccc([nH]5)c(-c5c(F)c(F)c(F)c(F)c5F)c5nc(c(-c6c(F)c(F)c(F)c(F)c6F)c6ccc3[nH]6)C=C5)C=C4)cc2)CCCCC1)Nc1ccc(N2CCOC2=O)cc1
REMARK SMILES IDX 12 1 11 2 10 3 9 4 8 5 7 6 5 7 6 8 4 9 85 10 89 11 86 12
REMARK SMILES IDX 88 13 87 14 3 15 2 16 1 17 90 18 91 20 92 21 102 22 93 23
REMARK SMILES IDX 101 24 94 25 95 26 96 27 99 28 97 29 98 30 100 31 13 32
REMARK SMILES IDX 14 33 15 34 16 35 17 36 18 37 19 38 20 39 21 40 22 41 23 42
REMARK SMILES IDX 84 43 24 44 83 45 25 46 26 47 27 48 77 49 28 50 82 51 76 52
REMARK SMILES IDX 78 53 29 54 81 55 75 56 74 57 30 59 62 60 42 61 61 62 43 63
REMARK SMILES IDX 46 64 60 65 79 66 44 67 45 68 59 70 80 71 47 72 31 73 32 74
REMARK SMILES IDX 40 75 33 76 34 77 38 78 41 79 35 80 36 81 39 82 37 83 63 84
REMARK SMILES IDX 64 85 72 86 65 87 66 88 70 89 73 90 67 91 68 92 71 93 69 94
REMARK SMILES IDX 48 95 49 96 57 97 50 98 51 99 55 100 58 101 52 102 53 103
REMARK SMILES IDX 56 104 54 105
REMARK H PARENT 90 19 78 58 46 69
REMARK Flexibility Score: inf
ROOT
ATOM      1  C   UNL     1       2.159  -3.476  -2.496  1.00  0.00     0.188 C 
ENDROOT
BRANCH   1   2
ATOM      2  C   UNL     1       1.011  -2.507  -2.808  1.00  0.00     0.188 C 
BRANCH   2   3
ATOM      3  O   UNL     1       0.767  -2.366  -4.191  1.00  0.00    -0.376 OA
BRANCH   3   4
ATOM      4  C   UNL     1       1.209  -1.194  -4.844  1.00  0.00     0.202 C 
BRANCH   4   5
ATOM      5  C   UNL     1       2.632  -0.631  -4.652  1.00  0.00     0.261 C 
BRANCH   5   6
ATOM      6  O   UNL     1       3.386  -1.065  -3.508  1.00  0.00    -0.463 OA
BRANCH   6   7
ATOM      7  C   UNL     1       3.359  -0.254  -2.433  1.00  0.00     0.312 C 
ATOM      8  O   UNL     1       2.671   0.761  -2.394  1.00  0.00    -0.252 OA
BRANCH   7   9
ATOM      9  C   UNL     1       4.347  -0.628  -1.302  1.00  0.00     0.077 C 
ATOM     10  C   UNL     1       5.400   0.517  -1.333  1.00  0.00     0.019 C 
ATOM     11  C   UNL     1       5.166  -1.952  -1.362  1.00  0.00     0.019 C 
ATOM     12  C   UNL     1       6.363   0.408  -2.523  1.00  0.00     0.001 C 
ATOM     13  C   UNL     1       6.140  -2.091  -2.521  1.00  0.00     0.001 C 
ATOM     14  C   UNL     1       7.103  -0.919  -2.557  1.00  0.00     0.000 C 
BRANCH   9  15
ATOM     15  C   UNL     1       3.543  -0.730   0.042  1.00  0.00     0.119 C 
BRANCH  15  16
ATOM     16  C   UNL     1       2.437   0.273   0.347  1.00  0.00     0.225 C 
ATOM     17  O   UNL     1       1.285  -0.100   0.553  1.00  0.00    -0.275 OA
ATOM     18  N   UNL     1       2.893   1.567   0.366  1.00  0.00    -0.326 N 
ATOM     19  H   UNL     1       3.867   1.695   0.303  1.00  0.00     0.169 HD
BRANCH  18  20
ATOM     20  C   UNL     1       2.113   2.719   0.467  1.00  0.00     0.041 A 
ATOM     21  C   UNL     1       2.528   3.814  -0.297  1.00  0.00     0.028 A 
ATOM     22  C   UNL     1       1.002   2.820   1.295  1.00  0.00     0.028 A 
ATOM     23  C   UNL     1       1.807   5.003  -0.266  1.00  0.00     0.028 A 
ATOM     24  C   UNL     1       0.348   4.048   1.409  1.00  0.00     0.028 A 
ATOM     25  C   UNL     1       0.735   5.134   0.616  1.00  0.00     0.047 A 
BRANCH  25  26
ATOM     26  N   UNL     1       0.033   6.342   0.691  1.00  0.00    -0.274 N 
ATOM     27  C   UNL     1      -0.327   7.117  -0.450  1.00  0.00     0.171 C 
ATOM     28  C   UNL     1      -0.341   6.985   1.848  1.00  0.00     0.414 C 
ATOM     29  C   UNL     1      -1.349   8.057   0.138  1.00  0.00     0.257 C 
ATOM     30  O   UNL     1      -1.034   8.123   1.532  1.00  0.00    -0.447 OA
ATOM     31  O   UNL     1      -0.075   6.669   3.005  1.00  0.00    -0.224 OA
ENDBRANCH  25  26
ENDBRANCH  18  20
ENDBRANCH  15  16
ENDBRANCH   9  15
ENDBRANCH   7   9
ENDBRANCH   6   7
ENDBRANCH   5   6
ENDBRANCH   4   5
ENDBRANCH   3   4
ENDBRANCH   2   3
ENDBRANCH   1   2
BRANCH   1  32
ATOM     32  O   UNL     1       3.140  -3.747  -3.491  1.00  0.00    -0.377 OA
BRANCH  32  33
ATOM     33  C   UNL     1       2.731  -4.217  -4.775  1.00  0.00     0.188 C 
BRANCH  33  34
ATOM     34  C   UNL     1       1.395  -4.974  -4.942  1.00  0.00     0.188 C 
BRANCH  34  35
ATOM     35  O   UNL     1       0.798  -5.402  -3.734  1.00  0.00    -0.376 OA
BRANCH  35  36
ATOM     36  C   UNL     1       1.045  -6.729  -3.300  1.00  0.00     0.202 C 
BRANCH  36  37
ATOM     37  C   UNL     1       2.503  -7.181  -3.112  1.00  0.00     0.261 C 
BRANCH  37  38
ATOM     38  O   UNL     1       3.364  -7.079  -4.259  1.00  0.00    -0.460 OA
BRANCH  38  39
ATOM     39  C   UNL     1       3.019  -7.758  -5.372  1.00  0.00     0.338 C 
ATOM     40  O   UNL     1       2.066  -8.498  -5.526  1.00  0.00    -0.246 OA
BRANCH  39  41
ATOM     41  C   UNL     1       3.908  -7.304  -6.462  1.00  0.00     0.060 A 
ATOM     42  C   UNL     1       3.355  -6.634  -7.563  1.00  0.00     0.016 A 
ATOM     43  C   UNL     1       5.280  -7.546  -6.398  1.00  0.00     0.016 A 
ATOM     44  C   UNL     1       4.171  -6.238  -8.622  1.00  0.00     0.010 A 
ATOM     45  C   UNL     1       6.094  -7.172  -7.471  1.00  0.00     0.010 A 
ATOM     46  C   UNL     1       5.536  -6.550  -8.603  1.00  0.00    -0.014 A 
BRANCH  46  47
ATOM     47  C   UNL     1       6.335  -6.420  -9.845  1.00  0.00     0.031 A 
ATOM     48  C   UNL     1       6.558  -7.653 -10.678  1.00  0.00     0.074 A 
ATOM     49  C   UNL     1       6.832  -5.235 -10.242  1.00  0.00     0.049 A 
ATOM     50  N   UNL     1       7.267  -7.808 -11.766  1.00  0.00    -0.248 NA
ATOM     51  C   UNL     1       5.889  -8.880 -10.214  1.00  0.00     0.031 C 
ATOM     52  C   UNL     1       6.641  -3.964  -9.549  1.00  0.00     0.029 A 
ATOM     53  N   UNL     1       7.612  -4.917 -11.326  1.00  0.00    -0.354 N 
ATOM     54  C   UNL     1       7.141  -9.149 -12.107  1.00  0.00     0.074 A 
ATOM     55  C   UNL     1       6.313  -9.770 -11.098  1.00  0.00     0.031 C 
ATOM     56  C   UNL     1       7.301  -3.002 -10.218  1.00  0.00     0.029 A 
ATOM     57  C   UNL     1       7.991  -3.598 -11.362  1.00  0.00     0.049 A 
ATOM     58  H   UNL     1       7.875  -5.572 -12.012  1.00  0.00     0.167 HD
ATOM     59  C   UNL     1       7.664  -9.801 -13.172  1.00  0.00     0.037 A 
ATOM     60  C   UNL     1       8.823  -2.957 -12.207  1.00  0.00     0.037 A 
ATOM     61  C   UNL     1       8.487  -9.177 -14.174  1.00  0.00     0.049 A 
ATOM     62  C   UNL     1       9.460  -3.725 -13.339  1.00  0.00     0.074 A 
ATOM     63  C   UNL     1       9.049  -9.745 -15.304  1.00  0.00     0.029 A 
ATOM     64  N   UNL     1       8.877  -7.846 -14.159  1.00  0.00    -0.354 N 
ATOM     65  N   UNL     1       9.316  -4.984 -13.674  1.00  0.00    -0.248 NA
ATOM     66  C   UNL     1      10.376  -2.978 -14.214  1.00  0.00     0.031 C 
ATOM     67  C   UNL     1       9.835  -8.775 -15.934  1.00  0.00     0.029 A 
ATOM     68  C   UNL     1       9.702  -7.583 -15.241  1.00  0.00     0.049 A 
ATOM     69  H   UNL     1       8.608  -7.186 -13.480  1.00  0.00     0.167 HD
ATOM     70  C   UNL     1      10.090  -5.171 -14.813  1.00  0.00     0.074 A 
ATOM     71  C   UNL     1      10.691  -3.891 -15.121  1.00  0.00     0.031 C 
ATOM     72  C   UNL     1      10.284  -6.299 -15.541  1.00  0.00     0.037 A 
BRANCH  59  73
ATOM     73  C   UNL     1       7.396 -11.274 -13.287  1.00  0.00     0.064 A 
ATOM     74  C   UNL     1       6.119 -11.777 -13.578  1.00  0.00     0.173 A 
ATOM     75  C   UNL     1       8.443 -12.196 -13.134  1.00  0.00     0.173 A 
ATOM     76  F   UNL     1       5.079 -10.941 -13.719  1.00  0.00    -0.203 F 
ATOM     77  C   UNL     1       5.895 -13.148 -13.684  1.00  0.00     0.198 A 
ATOM     78  C   UNL     1       8.223 -13.563 -13.276  1.00  0.00     0.198 A 
ATOM     79  F   UNL     1       9.685 -11.770 -12.858  1.00  0.00    -0.203 F 
ATOM     80  F   UNL     1       4.657 -13.608 -13.910  1.00  0.00    -0.200 F 
ATOM     81  C   UNL     1       6.948 -14.039 -13.541  1.00  0.00     0.200 A 
ATOM     82  F   UNL     1       9.246 -14.421 -13.153  1.00  0.00    -0.200 F 
ATOM     83  F   UNL     1       6.734 -15.357 -13.654  1.00  0.00    -0.200 F 
ENDBRANCH  59  73
BRANCH  60  84
ATOM     84  C   UNL     1       9.124  -1.513 -12.008  1.00  0.00     0.064 A 
ATOM     85  C   UNL     1       8.729  -0.552 -12.949  1.00  0.00     0.173 A 
ATOM     86  C   UNL     1       9.846  -1.067 -10.890  1.00  0.00     0.173 A 
ATOM     87  F   UNL     1       8.060  -0.928 -14.049  1.00  0.00    -0.203 F 
ATOM     88  C   UNL     1       9.065   0.792 -12.793  1.00  0.00     0.198 A 
ATOM     89  C   UNL     1      10.151   0.281 -10.717  1.00  0.00     0.198 A 
ATOM     90  F   UNL     1      10.253  -1.944  -9.960  1.00  0.00    -0.203 F 
ATOM     91  F   UNL     1       8.724   1.679 -13.738  1.00  0.00    -0.200 F 
ATOM     92  C   UNL     1       9.770   1.208 -11.675  1.00  0.00     0.200 A 
ATOM     93  F   UNL     1      10.820   0.680  -9.627  1.00  0.00    -0.200 F 
ATOM     94  F   UNL     1      10.091   2.501 -11.524  1.00  0.00    -0.200 F 
ENDBRANCH  60  84
BRANCH  72  95
ATOM     95  C   UNL     1      11.141  -6.194 -16.773  1.00  0.00     0.064 A 
ATOM     96  C   UNL     1      12.526  -5.984 -16.699  1.00  0.00     0.173 A 
ATOM     97  C   UNL     1      10.571  -6.353 -18.046  1.00  0.00     0.173 A 
ATOM     98  F   UNL     1      13.121  -5.815 -15.508  1.00  0.00    -0.203 F 
ATOM     99  C   UNL     1      13.302  -5.905 -17.853  1.00  0.00     0.198 A 
ATOM    100  C   UNL     1      11.355  -6.311 -19.196  1.00  0.00     0.198 A 
ATOM    101  F   UNL     1       9.253  -6.566 -18.175  1.00  0.00    -0.203 F 
ATOM    102  F   UNL     1      14.614  -5.647 -17.760  1.00  0.00    -0.200 F 
ATOM    103  C   UNL     1      12.717  -6.077 -19.099  1.00  0.00     0.200 A 
ATOM    104  F   UNL     1      10.790  -6.497 -20.397  1.00  0.00    -0.200 F 
ATOM    105  F   UNL     1      13.467  -6.010 -20.208  1.00  0.00    -0.200 F 
ENDBRANCH  72  95
ENDBRANCH  46  47
ENDBRANCH  39  41
ENDBRANCH  38  39
ENDBRANCH  37  38
ENDBRANCH  36  37
ENDBRANCH  35  36
ENDBRANCH  34  35
ENDBRANCH  33  34
ENDBRANCH  32  33
ENDBRANCH   1  32
TORSDOF 24
