REMARK SMILES C[C@H](Cc1cccc2c1OC(C)(C)C2)C(=O)OCCOCCOCCOCCOC(=O)c1ccc(-c2c3nc(c(-c4c(F)c(F)c(F)c(F)c4F)c4ccc([nH]4)c(-c4c(F)c(F)c(F)c(F)c4F)c4nc(c(-c5c(F)c(F)c(F)c(F)c5F)c5ccc2[nH]5)C=C4)C=C3)cc1
REMARK SMILES IDX 23 1 22 2 21 3 20 4 19 5 18 6 17 7 15 8 16 9 2 10 1 11 3 12
REMARK SMILES IDX 4 13 5 14 9 15 6 16 8 17 10 18 7 19 14 20 11 21 12 22 13 23
REMARK SMILES IDX 24 24 25 25 26 26 27 27 28 28 29 29 30 30 31 31 32 32 33 33
REMARK SMILES IDX 94 34 34 35 93 36 35 37 36 38 37 39 87 40 38 41 92 42 86 43
REMARK SMILES IDX 88 44 39 45 91 46 85 47 84 48 40 50 72 51 52 52 71 53 53 54
REMARK SMILES IDX 56 55 70 56 89 57 54 58 55 59 69 61 90 62 57 63 41 64 42 65
REMARK SMILES IDX 50 66 43 67 44 68 48 69 51 70 45 71 46 72 49 73 47 74 73 75
REMARK SMILES IDX 74 76 82 77 75 78 76 79 80 80 83 81 77 82 78 83 81 84 79 85
REMARK SMILES IDX 58 86 59 87 67 88 60 89 61 90 65 91 68 92 62 93 63 94 66 95
REMARK SMILES IDX 64 96
REMARK H PARENT 88 49 56 60
REMARK Flexibility Score: inf
ROOT
ATOM      1  O   UNL     1      -1.928   0.988  -0.016  1.00  0.00    -0.377 OA
ENDROOT
BRANCH   1   2
ATOM      2  C   UNL     1      -1.460   1.267  -1.322  1.00  0.00     0.188 C 
BRANCH   2   3
ATOM      3  C   UNL     1      -2.201   0.558  -2.466  1.00  0.00     0.188 C 
BRANCH   3   4
ATOM      4  O   UNL     1      -3.553   0.165  -2.301  1.00  0.00    -0.376 OA
BRANCH   4   5
ATOM      5  C   UNL     1      -3.910  -0.740  -1.265  1.00  0.00     0.202 C 
BRANCH   5   6
ATOM      6  C   UNL     1      -2.978  -1.864  -0.795  1.00  0.00     0.261 C 
BRANCH   6   7
ATOM      7  O   UNL     1      -1.622  -1.478  -0.512  1.00  0.00    -0.463 OA
BRANCH   7   8
ATOM      8  C   UNL     1      -0.652  -2.144  -1.175  1.00  0.00     0.309 C 
ATOM      9  O   UNL     1      -0.888  -3.003  -2.024  1.00  0.00    -0.252 OA
BRANCH   8  10
ATOM     10  C   UNL     1       0.783  -1.676  -0.899  1.00  0.00     0.100 C 
ATOM     11  C   UNL     1       1.712  -2.898  -0.866  1.00  0.00     0.020 C 
BRANCH  10  12
ATOM     12  C   UNL     1       1.155  -0.652   0.203  1.00  0.00     0.054 C 
BRANCH  12  13
ATOM     13  C   UNL     1       1.107  -0.963   1.674  1.00  0.00    -0.005 A 
ATOM     14  C   UNL     1       1.811  -0.144   2.578  1.00  0.00     0.007 A 
ATOM     15  C   UNL     1       0.364  -1.985   2.223  1.00  0.00     0.126 A 
ATOM     16  C   UNL     1       1.778  -0.387   3.961  1.00  0.00     0.001 A 
ATOM     17  C   UNL     1       0.345  -2.252   3.580  1.00  0.00    -0.002 A 
ATOM     18  O   UNL     1      -0.425  -2.819   1.493  1.00  0.00    -0.487 OA
ATOM     19  C   UNL     1       1.044  -1.458   4.472  1.00  0.00     0.008 A 
ATOM     20  C   UNL     1      -0.512  -3.433   3.843  1.00  0.00     0.087 C 
ATOM     21  C   UNL     1      -0.914  -3.823   2.403  1.00  0.00     0.108 C 
ATOM     22  C   UNL     1      -0.281  -5.130   1.928  1.00  0.00     0.057 C 
ATOM     23  C   UNL     1      -2.433  -3.878   2.244  1.00  0.00     0.057 C 
ENDBRANCH  12  13
ENDBRANCH  10  12
ENDBRANCH   8  10
ENDBRANCH   7   8
ENDBRANCH   6   7
ENDBRANCH   5   6
ENDBRANCH   4   5
ENDBRANCH   3   4
ENDBRANCH   2   3
ENDBRANCH   1   2
BRANCH   1  24
ATOM     24  C   UNL     1      -2.913   1.832   0.563  1.00  0.00     0.188 C 
BRANCH  24  25
ATOM     25  C   UNL     1      -3.834   2.658  -0.355  1.00  0.00     0.188 C 
BRANCH  25  26
ATOM     26  O   UNL     1      -3.168   3.303  -1.427  1.00  0.00    -0.376 OA
BRANCH  26  27
ATOM     27  C   UNL     1      -2.708   4.635  -1.257  1.00  0.00     0.202 C 
BRANCH  27  28
ATOM     28  C   UNL     1      -1.715   4.936  -0.121  1.00  0.00     0.261 C 
BRANCH  28  29
ATOM     29  O   UNL     1      -2.151   4.650   1.218  1.00  0.00    -0.460 OA
BRANCH  29  30
ATOM     30  C   UNL     1      -3.300   5.202   1.649  1.00  0.00     0.338 C 
ATOM     31  O   UNL     1      -4.007   6.001   1.054  1.00  0.00    -0.246 OA
BRANCH  30  32
ATOM     32  C   UNL     1      -3.680   4.539   2.912  1.00  0.00     0.060 A 
ATOM     33  C   UNL     1      -4.901   3.856   2.981  1.00  0.00     0.016 A 
ATOM     34  C   UNL     1      -2.849   4.617   4.032  1.00  0.00     0.016 A 
ATOM     35  C   UNL     1      -5.322   3.296   4.187  1.00  0.00     0.010 A 
ATOM     36  C   UNL     1      -3.280   4.074   5.245  1.00  0.00     0.010 A 
ATOM     37  C   UNL     1      -4.538   3.450   5.337  1.00  0.00    -0.014 A 
BRANCH  37  38
ATOM     38  C   UNL     1      -5.125   3.154   6.667  1.00  0.00     0.031 A 
ATOM     39  C   UNL     1      -5.667   4.301   7.477  1.00  0.00     0.074 A 
ATOM     40  C   UNL     1      -5.205   1.897   7.137  1.00  0.00     0.049 A 
ATOM     41  N   UNL     1      -6.176   4.304   8.683  1.00  0.00    -0.248 NA
ATOM     42  C   UNL     1      -5.625   5.626   6.839  1.00  0.00     0.031 C 
ATOM     43  C   UNL     1      -4.761   0.701   6.428  1.00  0.00     0.029 A 
ATOM     44  N   UNL     1      -5.684   1.425   8.334  1.00  0.00    -0.354 N 
ATOM     45  C   UNL     1      -6.503   5.628   8.949  1.00  0.00     0.074 A 
ATOM     46  C   UNL     1      -6.106   6.405   7.795  1.00  0.00     0.031 C 
ATOM     47  C   UNL     1      -4.975  -0.372   7.210  1.00  0.00     0.029 A 
ATOM     48  C   UNL     1      -5.536   0.069   8.488  1.00  0.00     0.049 A 
ATOM     49  H   UNL     1      -6.095   2.003   9.016  1.00  0.00     0.167 HD
ATOM     50  C   UNL     1      -7.088   6.148  10.054  1.00  0.00     0.037 A 
ATOM     51  C   UNL     1      -5.797  -0.718   9.550  1.00  0.00     0.037 A 
ATOM     52  C   UNL     1      -7.482   5.371  11.200  1.00  0.00     0.049 A 
ATOM     53  C   UNL     1      -6.378  -0.103  10.800  1.00  0.00     0.074 A 
ATOM     54  C   UNL     1      -8.099   5.800  12.361  1.00  0.00     0.029 A 
ATOM     55  N   UNL     1      -7.287   4.004  11.332  1.00  0.00    -0.354 N 
ATOM     56  N   UNL     1      -6.705   1.144  11.039  1.00  0.00    -0.248 NA
ATOM     57  C   UNL     1      -6.630  -1.011  11.929  1.00  0.00     0.031 C 
ATOM     58  C   UNL     1      -8.216   4.705  13.223  1.00  0.00     0.029 A 
ATOM     59  C   UNL     1      -7.742   3.579  12.570  1.00  0.00     0.049 A 
ATOM     60  H   UNL     1      -6.884   3.422  10.648  1.00  0.00     0.167 HD
ATOM     61  C   UNL     1      -7.231   1.165  12.325  1.00  0.00     0.074 A 
ATOM     62  C   UNL     1      -7.193  -0.198  12.812  1.00  0.00     0.031 C 
ATOM     63  C   UNL     1      -7.706   2.217  13.039  1.00  0.00     0.037 A 
BRANCH  50  64
ATOM     64  C   UNL     1      -7.307   7.633  10.092  1.00  0.00     0.064 A 
ATOM     65  C   UNL     1      -8.250   8.267   9.269  1.00  0.00     0.173 A 
ATOM     66  C   UNL     1      -6.583   8.430  10.993  1.00  0.00     0.173 A 
ATOM     67  F   UNL     1      -8.958   7.555   8.380  1.00  0.00    -0.203 F 
ATOM     68  C   UNL     1      -8.441   9.646   9.328  1.00  0.00     0.198 A 
ATOM     69  C   UNL     1      -6.801   9.803  11.073  1.00  0.00     0.198 A 
ATOM     70  F   UNL     1      -5.670   7.876  11.805  1.00  0.00    -0.203 F 
ATOM     71  F   UNL     1      -9.310  10.236   8.496  1.00  0.00    -0.200 F 
ATOM     72  C   UNL     1      -7.723  10.411  10.235  1.00  0.00     0.200 A 
ATOM     73  F   UNL     1      -6.117  10.537  11.961  1.00  0.00    -0.200 F 
ATOM     74  F   UNL     1      -7.916  11.735  10.297  1.00  0.00    -0.200 F 
ENDBRANCH  50  64
BRANCH  51  75
ATOM     75  C   UNL     1      -5.496  -2.174   9.491  1.00  0.00     0.064 A 
ATOM     76  C   UNL     1      -6.520  -3.130   9.534  1.00  0.00     0.173 A 
ATOM     77  C   UNL     1      -4.175  -2.639   9.418  1.00  0.00     0.173 A 
ATOM     78  F   UNL     1      -7.799  -2.737   9.631  1.00  0.00    -0.203 F 
ATOM     79  C   UNL     1      -6.234  -4.494   9.530  1.00  0.00     0.198 A 
ATOM     80  C   UNL     1      -3.891  -4.003   9.379  1.00  0.00     0.198 A 
ATOM     81  F   UNL     1      -3.155  -1.768   9.377  1.00  0.00    -0.203 F 
ATOM     82  F   UNL     1      -7.229  -5.385   9.629  1.00  0.00    -0.200 F 
ATOM     83  C   UNL     1      -4.920  -4.929   9.446  1.00  0.00     0.200 A 
ATOM     84  F   UNL     1      -2.621  -4.418   9.282  1.00  0.00    -0.200 F 
ATOM     85  F   UNL     1      -4.645  -6.240   9.438  1.00  0.00    -0.200 F 
ENDBRANCH  51  75
BRANCH  63  86
ATOM     86  C   UNL     1      -8.270   1.933  14.404  1.00  0.00     0.064 A 
ATOM     87  C   UNL     1      -7.455   1.547  15.479  1.00  0.00     0.173 A 
ATOM     88  C   UNL     1      -9.644   2.091  14.649  1.00  0.00     0.173 A 
ATOM     89  F   UNL     1      -6.138   1.370  15.299  1.00  0.00    -0.203 F 
ATOM     90  C   UNL     1      -7.999   1.297  16.737  1.00  0.00     0.198 A 
ATOM     91  C   UNL     1     -10.178   1.878  15.916  1.00  0.00     0.198 A 
ATOM     92  F   UNL     1     -10.468   2.470  13.660  1.00  0.00    -0.203 F 
ATOM     93  F   UNL     1      -7.210   0.874  17.734  1.00  0.00    -0.200 F 
ATOM     94  C   UNL     1      -9.358   1.471  16.957  1.00  0.00     0.200 A 
ATOM     95  F   UNL     1     -11.488   2.065  16.130  1.00  0.00    -0.200 F 
ATOM     96  F   UNL     1      -9.877   1.238  18.170  1.00  0.00    -0.200 F 
ENDBRANCH  63  86
ENDBRANCH  37  38
ENDBRANCH  30  32
ENDBRANCH  29  30
ENDBRANCH  28  29
ENDBRANCH  27  28
ENDBRANCH  26  27
ENDBRANCH  25  26
ENDBRANCH  24  25
ENDBRANCH   1  24
TORSDOF 22
