REMARK SMILES O=C(OCCOCCOCCOCCOC(=O)c1ccn(CC(F)(F)F)c1)c1ccc(-c2c3nc(c(-c4c(F)c(F)c(F)c(F)c4F)c4ccc([nH]4)c(-c4c(F)c(F)c(F)c(F)c4F)c4nc(c(-c5c(F)c(F)c(F)c(F)c5F)c5ccc2[nH]5)C=C4)C=C3)cc1
REMARK SMILES IDX 9 1 8 2 7 3 6 4 5 5 4 6 3 7 2 8 1 9 28 10 29 11 90 12 30 13
REMARK SMILES IDX 89 14 31 15 32 16 33 17 83 18 34 19 88 20 82 21 84 22 35 23
REMARK SMILES IDX 87 24 81 25 80 26 36 28 68 29 48 30 67 31 49 32 52 33 66 34
REMARK SMILES IDX 85 35 50 36 51 37 65 39 86 40 53 41 37 42 38 43 46 44 39 45
REMARK SMILES IDX 40 46 44 47 47 48 41 49 42 50 45 51 43 52 69 53 70 54 78 55
REMARK SMILES IDX 71 56 72 57 76 58 79 59 73 60 74 61 77 62 75 63 54 64 55 65
REMARK SMILES IDX 63 66 56 67 57 68 61 69 64 70 58 71 59 72 62 73 60 74 10 75
REMARK SMILES IDX 11 76 12 77 13 78 14 79 15 80 16 81 17 82 18 83 19 84 27 85
REMARK SMILES IDX 20 86 21 87 22 88 23 89 24 90 25 91 26 92
REMARK H PARENT 84 27 52 38
REMARK Flexibility Score: inf
ROOT
ATOM      1  O   UNL     1       2.597   1.988   2.751  1.00  0.00    -0.377 OA
ENDROOT
BRANCH   1   2
ATOM      2  C   UNL     1       2.183   1.110   1.724  1.00  0.00     0.188 C 
BRANCH   2   3
ATOM      3  C   UNL     1       2.962  -0.210   1.610  1.00  0.00     0.188 C 
BRANCH   3   4
ATOM      4  O   UNL     1       4.250  -0.350   1.017  1.00  0.00    -0.376 OA
BRANCH   4   5
ATOM      5  C   UNL     1       4.888   0.537   0.117  1.00  0.00     0.202 C 
BRANCH   5   6
ATOM      6  C   UNL     1       4.243   0.977  -1.206  1.00  0.00     0.261 C 
BRANCH   6   7
ATOM      7  O   UNL     1       2.823   1.132  -1.172  1.00  0.00    -0.460 OA
BRANCH   7   8
ATOM      8  C   UNL     1       1.858   0.191  -1.266  1.00  0.00     0.338 C 
ATOM      9  O   UNL     1       0.695   0.503  -1.020  1.00  0.00    -0.246 OA
BRANCH   8  10
ATOM     10  C   UNL     1       2.134  -1.202  -1.692  1.00  0.00     0.060 A 
ATOM     11  C   UNL     1       3.391  -1.801  -1.685  1.00  0.00     0.016 A 
ATOM     12  C   UNL     1       1.029  -1.945  -2.140  1.00  0.00     0.016 A 
ATOM     13  C   UNL     1       3.601  -2.994  -2.328  1.00  0.00     0.010 A 
ATOM     14  C   UNL     1       1.212  -3.188  -2.725  1.00  0.00     0.010 A 
ATOM     15  C   UNL     1       2.514  -3.659  -2.879  1.00  0.00    -0.014 A 
BRANCH  15  16
ATOM     16  C   UNL     1       2.842  -4.910  -3.557  1.00  0.00     0.031 A 
ATOM     17  C   UNL     1       3.186  -6.001  -2.544  1.00  0.00     0.074 A 
ATOM     18  C   UNL     1       2.934  -4.811  -4.915  1.00  0.00     0.049 A 
ATOM     19  N   UNL     1       4.027  -6.982  -2.641  1.00  0.00    -0.248 NA
ATOM     20  C   UNL     1       2.587  -5.934  -1.181  1.00  0.00     0.031 C 
ATOM     21  C   UNL     1       2.585  -3.601  -5.694  1.00  0.00     0.029 A 
ATOM     22  N   UNL     1       3.357  -5.662  -5.912  1.00  0.00    -0.354 N 
ATOM     23  C   UNL     1       3.877  -7.770  -1.481  1.00  0.00     0.074 A 
ATOM     24  C   UNL     1       3.113  -6.990  -0.557  1.00  0.00     0.031 C 
ATOM     25  C   UNL     1       2.862  -3.771  -7.002  1.00  0.00     0.029 A 
ATOM     26  C   UNL     1       3.401  -5.098  -7.215  1.00  0.00     0.049 A 
ATOM     27  H   UNL     1       3.612  -6.596  -5.734  1.00  0.00     0.167 HD
ATOM     28  C   UNL     1       4.234  -9.087  -1.438  1.00  0.00     0.037 A 
ATOM     29  C   UNL     1       3.866  -5.653  -8.377  1.00  0.00     0.037 A 
ATOM     30  C   UNL     1       4.822  -9.467  -2.679  1.00  0.00     0.049 A 
ATOM     31  C   UNL     1       4.152  -7.053  -8.034  1.00  0.00     0.074 A 
ATOM     32  C   UNL     1       6.029  -9.173  -3.256  1.00  0.00     0.029 A 
ATOM     33  N   UNL     1       3.969  -9.955  -3.642  1.00  0.00    -0.354 N 
ATOM     34  N   UNL     1       3.238  -7.945  -7.795  1.00  0.00    -0.248 NA
ATOM     35  C   UNL     1       5.545  -7.478  -7.863  1.00  0.00     0.031 C 
ATOM     36  C   UNL     1       5.723  -9.069  -4.628  1.00  0.00     0.029 A 
ATOM     37  C   UNL     1       4.407  -9.491  -4.856  1.00  0.00     0.049 A 
ATOM     38  H   UNL     1       3.187 -10.533  -3.487  1.00  0.00     0.167 HD
ATOM     39  C   UNL     1       3.943  -8.908  -7.114  1.00  0.00     0.074 A 
ATOM     40  C   UNL     1       5.334  -8.733  -7.471  1.00  0.00     0.031 C 
ATOM     41  C   UNL     1       3.450  -9.366  -5.934  1.00  0.00     0.037 A 
BRANCH  28  42
ATOM     42  C   UNL     1       3.864 -10.194  -0.491  1.00  0.00     0.064 A 
ATOM     43  C   UNL     1       4.612 -11.397  -0.555  1.00  0.00     0.173 A 
ATOM     44  C   UNL     1       2.638 -10.266   0.181  1.00  0.00     0.173 A 
ATOM     45  F   UNL     1       5.824 -11.424  -1.135  1.00  0.00    -0.203 F 
ATOM     46  C   UNL     1       4.096 -12.613  -0.115  1.00  0.00     0.198 A 
ATOM     47  C   UNL     1       2.147 -11.480   0.670  1.00  0.00     0.198 A 
ATOM     48  F   UNL     1       1.838  -9.199   0.291  1.00  0.00    -0.203 F 
ATOM     49  F   UNL     1       4.775 -13.748  -0.339  1.00  0.00    -0.200 F 
ATOM     50  C   UNL     1       2.852 -12.657   0.481  1.00  0.00     0.200 A 
ATOM     51  F   UNL     1       0.943 -11.517   1.257  1.00  0.00    -0.200 F 
ATOM     52  F   UNL     1       2.317 -13.832   0.838  1.00  0.00    -0.200 F 
ENDBRANCH  28  42
BRANCH  29  53
ATOM     53  C   UNL     1       4.182  -5.240  -9.798  1.00  0.00     0.064 A 
ATOM     54  C   UNL     1       4.014  -3.964 -10.350  1.00  0.00     0.173 A 
ATOM     55  C   UNL     1       4.805  -6.173 -10.679  1.00  0.00     0.173 A 
ATOM     56  F   UNL     1       3.365  -3.000  -9.691  1.00  0.00    -0.203 F 
ATOM     57  C   UNL     1       4.519  -3.626 -11.620  1.00  0.00     0.198 A 
ATOM     58  C   UNL     1       5.353  -5.826 -11.913  1.00  0.00     0.198 A 
ATOM     59  F   UNL     1       4.921  -7.471 -10.365  1.00  0.00    -0.203 F 
ATOM     60  F   UNL     1       4.338  -2.386 -12.097  1.00  0.00    -0.200 F 
ATOM     61  C   UNL     1       5.222  -4.543 -12.381  1.00  0.00     0.200 A 
ATOM     62  F   UNL     1       6.027  -6.744 -12.622  1.00  0.00    -0.200 F 
ATOM     63  F   UNL     1       5.764  -4.196 -13.556  1.00  0.00    -0.200 F 
ENDBRANCH  29  53
BRANCH  41  64
ATOM     64  C   UNL     1       1.936  -9.224  -5.809  1.00  0.00     0.064 A 
ATOM     65  C   UNL     1       1.089  -9.791  -6.777  1.00  0.00     0.173 A 
ATOM     66  C   UNL     1       1.298  -8.421  -4.850  1.00  0.00     0.173 A 
ATOM     67  F   UNL     1       1.596 -10.614  -7.708  1.00  0.00    -0.203 F 
ATOM     68  C   UNL     1      -0.284  -9.520  -6.812  1.00  0.00     0.198 A 
ATOM     69  C   UNL     1      -0.070  -8.140  -4.881  1.00  0.00     0.198 A 
ATOM     70  F   UNL     1       1.986  -7.905  -3.838  1.00  0.00    -0.203 F 
ATOM     71  F   UNL     1      -1.050 -10.073  -7.761  1.00  0.00    -0.200 F 
ATOM     72  C   UNL     1      -0.861  -8.682  -5.872  1.00  0.00     0.200 A 
ATOM     73  F   UNL     1      -0.613  -7.348  -3.943  1.00  0.00    -0.200 F 
ATOM     74  F   UNL     1      -2.175  -8.420  -5.905  1.00  0.00    -0.200 F 
ENDBRANCH  41  64
ENDBRANCH  15  16
ENDBRANCH   8  10
ENDBRANCH   7   8
ENDBRANCH   6   7
ENDBRANCH   5   6
ENDBRANCH   4   5
ENDBRANCH   3   4
ENDBRANCH   2   3
ENDBRANCH   1   2
BRANCH   1  75
ATOM     75  C   UNL     1       3.876   2.545   2.566  1.00  0.00     0.188 C 
BRANCH  75  76
ATOM     76  C   UNL     1       4.987   1.856   3.382  1.00  0.00     0.188 C 
BRANCH  76  77
ATOM     77  O   UNL     1       4.697   0.990   4.473  1.00  0.00    -0.376 OA
BRANCH  77  78
ATOM     78  C   UNL     1       3.465   1.072   5.168  1.00  0.00     0.202 C 
BRANCH  78  79
ATOM     79  C   UNL     1       3.139   2.353   5.952  1.00  0.00     0.261 C 
BRANCH  79  80
ATOM     80  O   UNL     1       3.361   3.592   5.267  1.00  0.00    -0.460 OA
BRANCH  80  81
ATOM     81  C   UNL     1       4.580   4.190   5.489  1.00  0.00     0.339 C 
ATOM     82  O   UNL     1       5.428   3.785   6.238  1.00  0.00    -0.246 OA
BRANCH  81  83
ATOM     83  C   UNL     1       4.786   5.308   4.561  1.00  0.00     0.077 A 
ATOM     84  C   UNL     1       3.971   6.447   4.330  1.00  0.00     0.035 A 
ATOM     85  C   UNL     1       5.848   5.407   3.672  1.00  0.00     0.101 A 
ATOM     86  C   UNL     1       4.559   7.192   3.328  1.00  0.00     0.087 A 
ATOM     87  N   UNL     1       5.651   6.506   2.873  1.00  0.00    -0.344 N 
BRANCH  87  88
ATOM     88  C   UNL     1       6.515   6.874   1.764  1.00  0.00     0.236 C 
BRANCH  88  89
ATOM     89  C   UNL     1       5.811   7.383   0.524  1.00  0.00     0.406 C 
ATOM     90  F   UNL     1       5.166   8.550   0.735  1.00  0.00    -0.169 F 
ATOM     91  F   UNL     1       6.721   7.611  -0.458  1.00  0.00    -0.169 F 
ATOM     92  F   UNL     1       4.925   6.488   0.037  1.00  0.00    -0.169 F 
ENDBRANCH  88  89
ENDBRANCH  87  88
ENDBRANCH  81  83
ENDBRANCH  80  81
ENDBRANCH  79  80
ENDBRANCH  78  79
ENDBRANCH  77  78
ENDBRANCH  76  77
ENDBRANCH  75  76
ENDBRANCH   1  75
TORSDOF 22
