REMARK SMILES Cc1ccc(-c2cc(Cl)cc3c2O[C@H](C(F)(F)F)C(C(=O)OCCOCCOCCOCCOC(=O)c2ccc(-c4c5nc(c(-c6c(F)c(F)c(F)c(F)c6F)c6ccc([nH]6)c(-c6c(F)c(F)c(F)c(F)c6F)c6nc(c(-c7c(F)c(F)c(F)c(F)c7F)c7ccc4[nH]7)C=C6)C=C5)cc2)=C3)cc1F
REMARK SMILES IDX 29 1 28 2 27 3 26 4 25 5 24 6 23 7 22 8 20 9 21 10 19 11
REMARK SMILES IDX 6 12 7 13 12 14 8 15 11 16 13 17 9 18 10 19 100 20 14 21
REMARK SMILES IDX 5 22 1 23 2 24 3 25 102 26 4 27 101 28 103 29 15 30 16 31
REMARK SMILES IDX 17 32 18 33 30 34 31 35 32 36 33 37 34 38 35 39 36 40 37 41
REMARK SMILES IDX 38 42 99 43 39 44 98 45 40 46 41 47 42 48 92 49 43 50 97 51
REMARK SMILES IDX 91 52 93 53 44 54 96 55 90 56 89 57 45 59 77 60 57 61 76 62
REMARK SMILES IDX 58 63 61 64 75 65 94 66 59 67 60 68 74 70 95 71 62 72 46 73
REMARK SMILES IDX 47 74 55 75 48 76 49 77 53 78 56 79 50 80 51 81 54 82 52 83
REMARK SMILES IDX 78 84 79 85 87 86 80 87 81 88 85 89 88 90 82 91 83 92 86 93
REMARK SMILES IDX 84 94 63 95 64 96 72 97 65 98 66 99 70 100 73 101 67 102
REMARK SMILES IDX 68 103 71 104 69 105
REMARK H PARENT 93 58 61 69
REMARK Flexibility Score: inf
ROOT
ATOM      1  C   UNL     1      -4.417  -3.907   8.185  1.00  0.00     0.188 C 
ENDROOT
BRANCH   1   2
ATOM      2  O   UNL     1      -3.736  -3.024   6.915  1.00  0.00    -0.377 OA
BRANCH   2   3
ATOM      3  C   UNL     1      -3.976  -2.984   4.902  1.00  0.00     0.188 C 
BRANCH   3   4
ATOM      4  C   UNL     1      -5.082  -4.236   4.007  1.00  0.00     0.188 C 
BRANCH   4   5
ATOM      5  O   UNL     1      -5.715  -5.561   4.295  1.00  0.00    -0.376 OA
BRANCH   5   6
ATOM      6  C   UNL     1      -5.401  -6.750   5.089  1.00  0.00     0.202 C 
BRANCH   6   7
ATOM      7  C   UNL     1      -4.212  -7.716   4.637  1.00  0.00     0.261 C 
BRANCH   7   8
ATOM      8  O   UNL     1      -3.257  -7.076   3.743  1.00  0.00    -0.460 OA
BRANCH   8   9
ATOM      9  C   UNL     1      -3.685  -7.021   2.471  1.00  0.00     0.338 C 
ATOM     10  O   UNL     1      -4.463  -7.832   1.986  1.00  0.00    -0.246 OA
BRANCH   9  11
ATOM     11  C   UNL     1      -3.314  -5.742   1.801  1.00  0.00     0.087 C 
ATOM     12  C   UNL     1      -3.080  -1.924  -0.035  1.00  0.00     0.026 A 
ATOM     13  C   UNL     1      -4.057  -1.652  -1.021  1.00  0.00     0.033 A 
ATOM     14  C   UNL     1      -3.222  -3.126   0.702  1.00  0.00     0.135 A 
ATOM     15  C   UNL     1      -5.147  -2.495  -1.225  1.00  0.00     0.042 A 
ATOM     16  C   UNL     1      -4.254  -4.021   0.390  1.00  0.00     0.019 A 
ATOM     17  O   UNL     1      -2.410  -3.378   1.781  1.00  0.00    -0.475 OA
ATOM     18  Cl  UNL     1      -6.329  -2.116  -2.413  1.00  0.00    -0.084 Cl
ATOM     19  C   UNL     1      -5.257  -3.674  -0.511  1.00  0.00     0.032 A 
ATOM     20  C   UNL     1      -4.301  -5.342   0.983  1.00  0.00     0.027 C 
ATOM     21  C   UNL     1      -2.210  -4.780   2.203  1.00  0.00     0.316 C 
BRANCH  12  22
ATOM     22  C   UNL     1      -1.926  -0.994   0.074  1.00  0.00    -0.012 A 
ATOM     23  C   UNL     1       1.484   1.711   0.015  1.00  0.00     0.047 C 
ATOM     24  C   UNL     1       0.296   0.797   0.032  1.00  0.00    -0.015 A 
ATOM     25  C   UNL     1      -1.009   1.290   0.052  1.00  0.00     0.007 A 
ATOM     26  C   UNL     1       0.476  -0.586   0.027  1.00  0.00     0.126 A 
ATOM     27  C   UNL     1      -2.101   0.407   0.075  1.00  0.00     0.009 A 
ATOM     28  C   UNL     1      -0.607  -1.469   0.044  1.00  0.00     0.048 A 
ATOM     29  F   UNL     1       1.717  -1.092  -0.016  1.00  0.00    -0.207 F 
ENDBRANCH  12  22
BRANCH  21  30
ATOM     30  C   UNL     1      -0.798  -5.152   1.771  1.00  0.00     0.430 C 
ATOM     31  F   UNL     1       0.069  -4.164   2.118  1.00  0.00    -0.167 F 
ATOM     32  F   UNL     1      -0.367  -6.277   2.377  1.00  0.00    -0.167 F 
ATOM     33  F   UNL     1      -0.700  -5.313   0.437  1.00  0.00    -0.167 F 
ENDBRANCH  21  30
ENDBRANCH   9  11
ENDBRANCH   8   9
ENDBRANCH   7   8
ENDBRANCH   6   7
ENDBRANCH   5   6
ENDBRANCH   4   5
ENDBRANCH   3   4
ENDBRANCH   2   3
ENDBRANCH   1   2
BRANCH   1  34
ATOM     34  C   UNL     1      -5.838  -4.147   8.818  1.00  0.00     0.188 C 
BRANCH  34  35
ATOM     35  O   UNL     1      -7.019  -4.000   8.106  1.00  0.00    -0.376 OA
BRANCH  35  36
ATOM     36  C   UNL     1      -7.898  -2.930   8.405  1.00  0.00     0.202 C 
BRANCH  36  37
ATOM     37  C   UNL     1      -7.478  -1.602   9.099  1.00  0.00     0.261 C 
BRANCH  37  38
ATOM     38  O   UNL     1      -6.162  -1.506   9.689  1.00  0.00    -0.460 OA
BRANCH  38  39
ATOM     39  C   UNL     1      -6.024  -1.837  11.010  1.00  0.00     0.338 C 
ATOM     40  O   UNL     1      -6.939  -2.088  11.778  1.00  0.00    -0.246 OA
BRANCH  39  41
ATOM     41  C   UNL     1      -4.611  -2.327  11.213  1.00  0.00     0.060 A 
ATOM     42  C   UNL     1      -3.500  -1.737  10.580  1.00  0.00     0.016 A 
ATOM     43  C   UNL     1      -4.519  -3.650  11.688  1.00  0.00     0.016 A 
ATOM     44  C   UNL     1      -2.356  -2.518  10.293  1.00  0.00     0.010 A 
ATOM     45  C   UNL     1      -3.442  -4.444  11.312  1.00  0.00     0.010 A 
ATOM     46  C   UNL     1      -2.388  -3.903  10.558  1.00  0.00    -0.014 A 
BRANCH  46  47
ATOM     47  C   UNL     1      -1.349  -4.872  10.182  1.00  0.00     0.031 A 
ATOM     48  C   UNL     1      -0.266  -4.939  11.159  1.00  0.00     0.074 A 
ATOM     49  C   UNL     1      -1.444  -5.777   9.171  1.00  0.00     0.049 A 
ATOM     50  N   UNL     1       0.922  -5.352  10.925  1.00  0.00    -0.248 NA
ATOM     51  C   UNL     1      -0.464  -4.503  12.541  1.00  0.00     0.031 C 
ATOM     52  C   UNL     1      -0.662  -6.960   8.807  1.00  0.00     0.029 A 
ATOM     53  N   UNL     1      -2.235  -5.690   8.043  1.00  0.00    -0.354 N 
ATOM     54  C   UNL     1       1.410  -5.720  12.157  1.00  0.00     0.074 A 
ATOM     55  C   UNL     1       0.647  -4.963  13.113  1.00  0.00     0.031 C 
ATOM     56  C   UNL     1      -0.666  -7.108   7.460  1.00  0.00     0.029 A 
ATOM     57  C   UNL     1      -1.401  -5.968   6.949  1.00  0.00     0.049 A 
ATOM     58  H   UNL     1      -3.195  -5.476   8.012  1.00  0.00     0.167 HD
ATOM     59  C   UNL     1       2.183  -6.841  12.220  1.00  0.00     0.037 A 
ATOM     60  C   UNL     1      -1.007  -4.941   6.142  1.00  0.00     0.037 A 
ATOM     61  C   UNL     1       2.385  -7.399  10.880  1.00  0.00     0.049 A 
ATOM     62  C   UNL     1       0.512  -4.903   6.140  1.00  0.00     0.074 A 
ATOM     63  C   UNL     1       1.916  -8.515  10.204  1.00  0.00     0.029 A 
ATOM     64  N   UNL     1       2.910  -6.572   9.906  1.00  0.00    -0.354 N 
ATOM     65  N   UNL     1       1.199  -5.327   7.178  1.00  0.00    -0.248 NA
ATOM     66  C   UNL     1       1.401  -4.591   5.019  1.00  0.00     0.031 C 
ATOM     67  C   UNL     1       2.221  -8.360   8.818  1.00  0.00     0.029 A 
ATOM     68  C   UNL     1       2.806  -7.118   8.652  1.00  0.00     0.049 A 
ATOM     69  H   UNL     1       3.312  -5.692  10.091  1.00  0.00     0.167 HD
ATOM     70  C   UNL     1       2.490  -5.579   6.807  1.00  0.00     0.074 A 
ATOM     71  C   UNL     1       2.608  -4.942   5.509  1.00  0.00     0.031 C 
ATOM     72  C   UNL     1       3.339  -6.365   7.539  1.00  0.00     0.037 A 
BRANCH  59  73
ATOM     73  C   UNL     1       2.531  -7.590  13.481  1.00  0.00     0.064 A 
ATOM     74  C   UNL     1       2.911  -8.948  13.416  1.00  0.00     0.173 A 
ATOM     75  C   UNL     1       2.547  -7.039  14.776  1.00  0.00     0.173 A 
ATOM     76  F   UNL     1       3.007  -9.605  12.255  1.00  0.00    -0.203 F 
ATOM     77  C   UNL     1       3.233  -9.699  14.544  1.00  0.00     0.198 A 
ATOM     78  C   UNL     1       2.837  -7.801  15.913  1.00  0.00     0.198 A 
ATOM     79  F   UNL     1       2.353  -5.735  14.995  1.00  0.00    -0.203 F 
ATOM     80  F   UNL     1       3.598 -10.980  14.400  1.00  0.00    -0.200 F 
ATOM     81  C   UNL     1       3.186  -9.129  15.796  1.00  0.00     0.200 A 
ATOM     82  F   UNL     1       2.797  -7.226  17.123  1.00  0.00    -0.200 F 
ATOM     83  F   UNL     1       3.505  -9.848  16.878  1.00  0.00    -0.200 F 
ENDBRANCH  59  73
BRANCH  60  84
ATOM     84  C   UNL     1      -2.120  -3.895   6.079  1.00  0.00     0.064 A 
ATOM     85  C   UNL     1      -3.753  -4.630   6.018  1.00  0.00     0.173 A 
ATOM     86  C   UNL     1      -2.033  -2.198   6.251  1.00  0.00     0.173 A 
ATOM     87  F   UNL     1      -3.593  -5.793   5.496  1.00  0.00    -0.203 F 
ATOM     88  C   UNL     1      -5.352  -3.611   6.203  1.00  0.00     0.198 A 
ATOM     89  C   UNL     1      -3.457  -1.175   6.432  1.00  0.00     0.198 A 
ATOM     90  F   UNL     1      -0.814  -1.634   6.293  1.00  0.00    -0.203 F 
ATOM     91  F   UNL     1      -6.574  -4.068   5.927  1.00  0.00    -0.200 F 
ATOM     92  C   UNL     1      -5.118  -1.828   6.444  1.00  0.00     0.200 A 
ATOM     93  F   UNL     1      -3.250   0.119   6.731  1.00  0.00    -0.200 F 
ATOM     94  F   UNL     1      -6.143  -0.993   6.636  1.00  0.00    -0.200 F 
ENDBRANCH  60  84
BRANCH  72  95
ATOM     95  C   UNL     1       4.814  -6.432   7.309  1.00  0.00     0.064 A 
ATOM     96  C   UNL     1       5.393  -6.529   6.046  1.00  0.00     0.173 A 
ATOM     97  C   UNL     1       5.706  -6.353   8.406  1.00  0.00     0.173 A 
ATOM     98  F   UNL     1       4.647  -6.809   4.968  1.00  0.00    -0.203 F 
ATOM     99  C   UNL     1       6.761  -6.333   5.872  1.00  0.00     0.198 A 
ATOM    100  C   UNL     1       7.074  -6.226   8.236  1.00  0.00     0.198 A 
ATOM    101  F   UNL     1       5.286  -6.348   9.678  1.00  0.00    -0.203 F 
ATOM    102  F   UNL     1       7.268  -6.282   4.634  1.00  0.00    -0.200 F 
ATOM    103  C   UNL     1       7.596  -6.155   6.965  1.00  0.00     0.200 A 
ATOM    104  F   UNL     1       7.867  -6.125   9.312  1.00  0.00    -0.200 F 
ATOM    105  F   UNL     1       8.900  -5.910   6.794  1.00  0.00    -0.200 F 
ENDBRANCH  72  95
ENDBRANCH  46  47
ENDBRANCH  39  41
ENDBRANCH  38  39
ENDBRANCH  37  38
ENDBRANCH  36  37
ENDBRANCH  35  36
ENDBRANCH  34  35
ENDBRANCH   1  34
TORSDOF 22
