REMARK SMILES CC(C)C[C@H](NC(=O)Cc1ccccc1)C(=O)OCCOCCOCCOCCOC(=O)c1ccc(-c2c3nc(c(-c4c(F)c(F)c(F)c(F)c4F)c4ccc([nH]4)c(-c4c(F)c(F)c(F)c(F)c4F)c4nc(c(-c5c(F)c(F)c(F)c(F)c5F)c5ccc2[nH]5)C=C4)C=C3)cc1
REMARK SMILES IDX 23 1 22 2 21 3 20 4 19 5 18 6 16 7 17 8 5 9 4 10 2 11 1 12
REMARK SMILES IDX 3 13 6 14 7 15 8 17 9 18 10 19 11 20 15 21 12 22 14 23 13 24
REMARK SMILES IDX 24 25 25 26 26 27 27 28 28 29 29 30 30 31 31 32 32 33 33 34
REMARK SMILES IDX 34 35 95 36 35 37 94 38 36 39 37 40 38 41 88 42 39 43 93 44
REMARK SMILES IDX 87 45 89 46 40 47 92 48 86 49 85 50 41 52 73 53 53 54 72 55
REMARK SMILES IDX 54 56 57 57 71 58 90 59 55 60 56 61 70 63 91 64 58 65 42 66
REMARK SMILES IDX 43 67 51 68 44 69 45 70 49 71 52 72 46 73 47 74 50 75 48 76
REMARK SMILES IDX 74 77 75 78 83 79 76 80 77 81 81 82 84 83 78 84 79 85 82 86
REMARK SMILES IDX 80 87 59 88 60 89 68 90 61 91 62 92 66 93 69 94 63 95 64 96
REMARK SMILES IDX 67 97 65 98
REMARK H PARENT 6 16 89 51 57 62
REMARK Flexibility Score: inf
ROOT
ATOM      1  C   UNL     1      -3.412   0.817  -0.896  1.00  0.00     0.188 C 
ENDROOT
BRANCH   1   2
ATOM      2  C   UNL     1      -4.106  -0.506  -0.532  1.00  0.00     0.188 C 
BRANCH   2   3
ATOM      3  O   UNL     1      -5.380  -0.576   0.093  1.00  0.00    -0.376 OA
BRANCH   3   4
ATOM      4  C   UNL     1      -5.919   0.362   1.008  1.00  0.00     0.202 C 
BRANCH   4   5
ATOM      5  C   UNL     1      -5.169   0.971   2.202  1.00  0.00     0.261 C 
BRANCH   5   6
ATOM      6  O   UNL     1      -3.770   1.175   2.055  1.00  0.00    -0.462 OA
BRANCH   6   7
ATOM      7  C   UNL     1      -3.061   0.035   2.223  1.00  0.00     0.328 C 
ATOM      8  O   UNL     1      -3.566  -1.055   2.477  1.00  0.00    -0.250 OA
BRANCH   7   9
ATOM      9  C   UNL     1      -1.553   0.293   2.259  1.00  0.00     0.192 C 
BRANCH   9  10
ATOM     10  C   UNL     1      -1.245   0.565   3.734  1.00  0.00     0.040 C 
BRANCH  10  11
ATOM     11  C   UNL     1      -1.721  -0.541   4.702  1.00  0.00    -0.015 C 
ATOM     12  C   UNL     1      -1.307  -1.959   4.293  1.00  0.00     0.007 C 
ATOM     13  C   UNL     1      -1.234  -0.237   6.113  1.00  0.00     0.007 C 
ENDBRANCH  10  11
ENDBRANCH   9  10
BRANCH   9  14
ATOM     14  N   UNL     1      -1.099   1.401   1.403  1.00  0.00    -0.342 N 
ATOM     15  C   UNL     1       0.022   1.459   0.612  1.00  0.00     0.225 C 
ATOM     16  H   UNL     1      -1.671   2.201   1.396  1.00  0.00     0.164 HD
ATOM     17  O   UNL     1       0.130   2.379  -0.202  1.00  0.00    -0.275 OA
BRANCH  15  18
ATOM     18  C   UNL     1       1.106   0.388   0.728  1.00  0.00     0.135 C 
BRANCH  18  19
ATOM     19  C   UNL     1       1.763   0.370   2.087  1.00  0.00    -0.039 A 
ATOM     20  C   UNL     1       2.158   1.573   2.695  1.00  0.00     0.004 A 
ATOM     21  C   UNL     1       1.897  -0.830   2.798  1.00  0.00     0.004 A 
ATOM     22  C   UNL     1       2.551   1.590   4.032  1.00  0.00     0.000 A 
ATOM     23  C   UNL     1       2.305  -0.810   4.133  1.00  0.00     0.000 A 
ATOM     24  C   UNL     1       2.601   0.401   4.758  1.00  0.00     0.000 A 
ENDBRANCH  18  19
ENDBRANCH  15  18
ENDBRANCH   9  14
ENDBRANCH   7   9
ENDBRANCH   6   7
ENDBRANCH   5   6
ENDBRANCH   4   5
ENDBRANCH   3   4
ENDBRANCH   2   3
ENDBRANCH   1   2
BRANCH   1  25
ATOM     25  O   UNL     1      -4.040   1.971  -0.376  1.00  0.00    -0.377 OA
BRANCH  25  26
ATOM     26  C   UNL     1      -4.962   2.630  -1.235  1.00  0.00     0.188 C 
BRANCH  26  27
ATOM     27  C   UNL     1      -5.847   1.761  -2.157  1.00  0.00     0.188 C 
BRANCH  27  28
ATOM     28  O   UNL     1      -5.134   0.779  -2.891  1.00  0.00    -0.376 OA
BRANCH  28  29
ATOM     29  C   UNL     1      -4.771   1.050  -4.234  1.00  0.00     0.202 C 
BRANCH  29  30
ATOM     30  C   UNL     1      -3.812   2.224  -4.488  1.00  0.00     0.261 C 
BRANCH  30  31
ATOM     31  O   UNL     1      -4.250   3.512  -4.025  1.00  0.00    -0.460 OA
BRANCH  31  32
ATOM     32  C   UNL     1      -5.427   3.981  -4.499  1.00  0.00     0.338 C 
ATOM     33  O   UNL     1      -6.131   3.477  -5.343  1.00  0.00    -0.246 OA
BRANCH  32  34
ATOM     34  C   UNL     1      -5.833   5.118  -3.640  1.00  0.00     0.060 A 
ATOM     35  C   UNL     1      -7.078   5.060  -3.000  1.00  0.00     0.016 A 
ATOM     36  C   UNL     1      -5.003   6.228  -3.469  1.00  0.00     0.016 A 
ATOM     37  C   UNL     1      -7.515   6.130  -2.222  1.00  0.00     0.010 A 
ATOM     38  C   UNL     1      -5.454   7.314  -2.712  1.00  0.00     0.010 A 
ATOM     39  C   UNL     1      -6.728   7.284  -2.117  1.00  0.00    -0.014 A 
BRANCH  39  40
ATOM     40  C   UNL     1      -7.333   8.519  -1.561  1.00  0.00     0.031 A 
ATOM     41  C   UNL     1      -7.889   9.535  -2.521  1.00  0.00     0.074 A 
ATOM     42  C   UNL     1      -7.443   8.709  -0.235  1.00  0.00     0.049 A 
ATOM     43  N   UNL     1      -8.458  10.688  -2.278  1.00  0.00    -0.248 NA
ATOM     44  C   UNL     1      -7.794   9.203  -3.953  1.00  0.00     0.031 C 
ATOM     45  C   UNL     1      -6.987   7.777   0.794  1.00  0.00     0.029 A 
ATOM     46  N   UNL     1      -7.977   9.758   0.472  1.00  0.00    -0.354 N 
ATOM     47  C   UNL     1      -8.790  11.214  -3.520  1.00  0.00     0.074 A 
ATOM     48  C   UNL     1      -8.327  10.275  -4.518  1.00  0.00     0.031 C 
ATOM     49  C   UNL     1      -7.250   8.302   2.004  1.00  0.00     0.029 A 
ATOM     50  C   UNL     1      -7.863   9.618   1.834  1.00  0.00     0.049 A 
ATOM     51  H   UNL     1      -8.400  10.536   0.044  1.00  0.00     0.167 HD
ATOM     52  C   UNL     1      -9.435  12.370  -3.803  1.00  0.00     0.037 A 
ATOM     53  C   UNL     1      -8.196  10.470   2.824  1.00  0.00     0.037 A 
ATOM     54  C   UNL     1      -9.891  13.306  -2.809  1.00  0.00     0.049 A 
ATOM     55  C   UNL     1      -8.835  11.793   2.474  1.00  0.00     0.074 A 
ATOM     56  C   UNL     1     -10.556  14.505  -2.995  1.00  0.00     0.029 A 
ATOM     57  N   UNL     1      -9.720  13.151  -1.442  1.00  0.00    -0.354 N 
ATOM     58  N   UNL     1      -9.167  12.272   1.299  1.00  0.00    -0.248 NA
ATOM     59  C   UNL     1      -9.152  12.691   3.594  1.00  0.00     0.031 C 
ATOM     60  C   UNL     1     -10.736  15.103  -1.744  1.00  0.00     0.029 A 
ATOM     61  C   UNL     1     -10.244  14.246  -0.773  1.00  0.00     0.049 A 
ATOM     62  H   UNL     1      -9.291  12.377  -1.010  1.00  0.00     0.167 HD
ATOM     63  C   UNL     1      -9.757  13.507   1.542  1.00  0.00     0.074 A 
ATOM     64  C   UNL     1      -9.762  13.691   2.977  1.00  0.00     0.031 C 
ATOM     65  C   UNL     1     -10.248  14.411   0.657  1.00  0.00     0.037 A 
BRANCH  52  66
ATOM     66  C   UNL     1      -9.672  12.701  -5.248  1.00  0.00     0.064 A 
ATOM     67  C   UNL     1     -10.603  11.995  -6.024  1.00  0.00     0.173 A 
ATOM     68  C   UNL     1      -8.998  13.776  -5.849  1.00  0.00     0.173 A 
ATOM     69  F   UNL     1     -11.261  10.948  -5.502  1.00  0.00    -0.203 F 
ATOM     70  C   UNL     1     -10.840  12.342  -7.351  1.00  0.00     0.198 A 
ATOM     71  C   UNL     1      -9.260  14.139  -7.167  1.00  0.00     0.198 A 
ATOM     72  F   UNL     1      -8.098  14.485  -5.151  1.00  0.00    -0.203 F 
ATOM     73  F   UNL     1     -11.705  11.629  -8.085  1.00  0.00    -0.200 F 
ATOM     74  C   UNL     1     -10.176  13.420  -7.918  1.00  0.00     0.200 A 
ATOM     75  F   UNL     1      -8.628  15.190  -7.708  1.00  0.00    -0.200 F 
ATOM     76  F   UNL     1     -10.418  13.764  -9.191  1.00  0.00    -0.200 F 
ENDBRANCH  52  66
BRANCH  53  77
ATOM     77  C   UNL     1      -7.911  10.125   4.244  1.00  0.00     0.064 A 
ATOM     78  C   UNL     1      -8.947   9.952   5.174  1.00  0.00     0.173 A 
ATOM     79  C   UNL     1      -6.593  10.021   4.714  1.00  0.00     0.173 A 
ATOM     80  F   UNL     1     -10.224  10.068   4.782  1.00  0.00    -0.203 F 
ATOM     81  C   UNL     1      -8.675   9.727   6.522  1.00  0.00     0.198 A 
ATOM     82  C   UNL     1      -6.323   9.759   6.055  1.00  0.00     0.198 A 
ATOM     83  F   UNL     1      -5.564  10.181   3.869  1.00  0.00    -0.203 F 
ATOM     84  F   UNL     1      -9.683   9.638   7.400  1.00  0.00    -0.200 F 
ATOM     85  C   UNL     1      -7.364   9.626   6.961  1.00  0.00     0.200 A 
ATOM     86  F   UNL     1      -5.054   9.650   6.472  1.00  0.00    -0.200 F 
ATOM     87  F   UNL     1      -7.103   9.416   8.258  1.00  0.00    -0.200 F 
ENDBRANCH  53  77
BRANCH  65  88
ATOM     88  C   UNL     1     -10.869  15.660   1.220  1.00  0.00     0.064 A 
ATOM     89  C   UNL     1     -10.101  16.645   1.861  1.00  0.00     0.173 A 
ATOM     90  C   UNL     1     -12.249  15.884   1.100  1.00  0.00     0.173 A 
ATOM     91  F   UNL     1      -8.778  16.477   2.013  1.00  0.00    -0.203 F 
ATOM     92  C   UNL     1     -10.697  17.783   2.398  1.00  0.00     0.198 A 
ATOM     93  C   UNL     1     -12.837  17.041   1.603  1.00  0.00     0.198 A 
ATOM     94  F   UNL     1     -13.031  14.982   0.486  1.00  0.00    -0.203 F 
ATOM     95  F   UNL     1      -9.953  18.676   3.064  1.00  0.00    -0.200 F 
ATOM     96  C   UNL     1     -12.063  17.983   2.263  1.00  0.00     0.200 A 
ATOM     97  F   UNL     1     -14.154  17.242   1.455  1.00  0.00    -0.200 F 
ATOM     98  F   UNL     1     -12.635  19.080   2.779  1.00  0.00    -0.200 F 
ENDBRANCH  65  88
ENDBRANCH  39  40
ENDBRANCH  32  34
ENDBRANCH  31  32
ENDBRANCH  30  31
ENDBRANCH  29  30
ENDBRANCH  28  29
ENDBRANCH  27  28
ENDBRANCH  26  27
ENDBRANCH  25  26
ENDBRANCH   1  25
TORSDOF 25
