REMARK SMILES COc1ccc(Br)cc1S(=O)(=O)N(C)CC(=O)OCCOCCOCCOCCOC(=O)c1ccc(-c2c3nc(c(-c4c(F)c(F)c(F)c(F)c4F)c4ccc([nH]4)c(-c4c(F)c(F)c(F)c(F)c4F)c4nc(c(-c5c(F)c(F)c(F)c(F)c5F)c5ccc2[nH]5)C=C4)C=C3)cc1
REMARK SMILES IDX 23 1 22 2 21 3 20 4 19 5 18 6 16 7 17 8 15 9 13 10 14 11
REMARK SMILES IDX 10 12 11 13 12 14 9 15 3 16 4 17 5 18 8 19 6 20 7 21 2 22
REMARK SMILES IDX 1 23 24 24 25 25 26 26 27 27 28 28 29 29 30 30 31 31 32 32
REMARK SMILES IDX 33 33 34 34 95 35 35 36 94 37 36 38 37 39 38 40 88 41 39 42
REMARK SMILES IDX 93 43 87 44 89 45 40 46 92 47 86 48 85 49 41 51 73 52 53 53
REMARK SMILES IDX 72 54 54 55 57 56 71 57 90 58 55 59 56 60 70 62 91 63 58 64
REMARK SMILES IDX 42 65 43 66 51 67 44 68 45 69 49 70 52 71 46 72 47 73 50 74
REMARK SMILES IDX 48 75 74 76 75 77 83 78 76 79 77 80 81 81 84 82 78 83 79 84
REMARK SMILES IDX 82 85 80 86 59 87 60 88 68 89 61 90 62 91 66 92 69 93 63 94
REMARK SMILES IDX 64 95 67 96 65 97
REMARK H PARENT 89 50 57 61
REMARK Flexibility Score: inf
ROOT
ATOM      1  C   UNL     1      -4.351   1.982   3.167  1.00  0.00     0.188 C 
ENDROOT
BRANCH   1   2
ATOM      2  C   UNL     1      -5.859   2.115   2.966  1.00  0.00     0.188 C 
BRANCH   2   3
ATOM      3  O   UNL     1      -6.673   0.977   3.211  1.00  0.00    -0.376 OA
BRANCH   3   4
ATOM      4  C   UNL     1      -6.287  -0.280   2.652  1.00  0.00     0.202 C 
BRANCH   4   5
ATOM      5  C   UNL     1      -5.845  -0.322   1.175  1.00  0.00     0.261 C 
BRANCH   5   6
ATOM      6  O   UNL     1      -4.505   0.180   0.913  1.00  0.00    -0.462 OA
BRANCH   6   7
ATOM      7  C   UNL     1      -4.354   1.028  -0.136  1.00  0.00     0.321 C 
ATOM      8  O   UNL     1      -5.291   1.355  -0.864  1.00  0.00    -0.251 OA
BRANCH   7   9
ATOM      9  C   UNL     1      -2.954   1.559  -0.401  1.00  0.00     0.224 C 
BRANCH   9  10
ATOM     10  N   UNL     1      -1.684   1.341   0.361  1.00  0.00    -0.190 NA
ATOM     11  C   UNL     1      -1.480  -0.024   0.849  1.00  0.00     0.125 C 
BRANCH  10  12
ATOM     12  S   UNL     1      -1.111   2.657   1.263  1.00  0.00     0.247 S 
ATOM     13  O   UNL     1      -1.712   2.551   2.574  1.00  0.00    -0.207 OA
ATOM     14  O   UNL     1      -1.296   3.862   0.482  1.00  0.00    -0.207 OA
BRANCH  12  15
ATOM     15  C   UNL     1       0.625   2.569   1.626  1.00  0.00     0.125 A 
ATOM     16  C   UNL     1       1.545   1.721   1.017  1.00  0.00     0.138 A 
ATOM     17  C   UNL     1       2.836   1.642   1.569  1.00  0.00     0.049 A 
ATOM     18  C   UNL     1       3.197   2.389   2.699  1.00  0.00     0.019 A 
ATOM     19  C   UNL     1       1.009   3.365   2.729  1.00  0.00     0.041 A 
ATOM     20  C   UNL     1       2.282   3.261   3.267  1.00  0.00     0.019 A 
ATOM     21  Br  UNL     1       2.744   4.273   4.793  1.00  0.00    -0.051 Br
BRANCH  16  22
ATOM     22  O   UNL     1       1.171   1.044  -0.106  1.00  0.00    -0.495 OA
ATOM     23  C   UNL     1       1.881  -0.159  -0.386  1.00  0.00     0.278 C 
ENDBRANCH  16  22
ENDBRANCH  12  15
ENDBRANCH  10  12
ENDBRANCH   9  10
ENDBRANCH   7   9
ENDBRANCH   6   7
ENDBRANCH   5   6
ENDBRANCH   4   5
ENDBRANCH   3   4
ENDBRANCH   2   3
ENDBRANCH   1   2
BRANCH   1  24
ATOM     24  O   UNL     1      -3.948   0.665   3.506  1.00  0.00    -0.377 OA
BRANCH  24  25
ATOM     25  C   UNL     1      -3.167   0.489   4.674  1.00  0.00     0.188 C 
BRANCH  25  26
ATOM     26  C   UNL     1      -3.758   1.129   5.931  1.00  0.00     0.188 C 
BRANCH  26  27
ATOM     27  O   UNL     1      -3.566   2.541   5.943  1.00  0.00    -0.376 OA
BRANCH  27  28
ATOM     28  C   UNL     1      -2.435   3.035   6.656  1.00  0.00     0.202 C 
BRANCH  28  29
ATOM     29  C   UNL     1      -1.044   2.667   6.112  1.00  0.00     0.261 C 
BRANCH  29  30
ATOM     30  O   UNL     1      -0.693   1.270   6.147  1.00  0.00    -0.460 OA
BRANCH  30  31
ATOM     31  C   UNL     1      -0.713   0.650   7.346  1.00  0.00     0.338 C 
ATOM     32  O   UNL     1      -0.942   1.135   8.429  1.00  0.00    -0.246 OA
BRANCH  31  33
ATOM     33  C   UNL     1      -0.564  -0.800   7.100  1.00  0.00     0.060 A 
ATOM     34  C   UNL     1      -1.582  -1.657   7.532  1.00  0.00     0.016 A 
ATOM     35  C   UNL     1       0.587  -1.311   6.495  1.00  0.00     0.016 A 
ATOM     36  C   UNL     1      -1.430  -3.037   7.402  1.00  0.00     0.010 A 
ATOM     37  C   UNL     1       0.744  -2.696   6.378  1.00  0.00     0.010 A 
ATOM     38  C   UNL     1      -0.248  -3.565   6.864  1.00  0.00    -0.014 A 
BRANCH  38  39
ATOM     39  C   UNL     1       0.014  -5.020   6.984  1.00  0.00     0.031 A 
ATOM     40  C   UNL     1       0.832  -5.511   8.147  1.00  0.00     0.074 A 
ATOM     41  C   UNL     1      -0.503  -5.896   6.105  1.00  0.00     0.049 A 
ATOM     42  N   UNL     1       1.166  -6.733   8.475  1.00  0.00    -0.248 NA
ATOM     43  C   UNL     1       1.341  -4.481   9.067  1.00  0.00     0.031 C 
ATOM     44  C   UNL     1      -1.337  -5.546   4.959  1.00  0.00     0.029 A 
ATOM     45  N   UNL     1      -0.401  -7.263   6.046  1.00  0.00    -0.354 N 
ATOM     46  C   UNL     1       1.915  -6.620   9.638  1.00  0.00     0.074 A 
ATOM     47  C   UNL     1       2.021  -5.209   9.940  1.00  0.00     0.031 C 
ATOM     48  C   UNL     1      -1.670  -6.673   4.304  1.00  0.00     0.029 A 
ATOM     49  C   UNL     1      -1.053  -7.818   4.974  1.00  0.00     0.049 A 
ATOM     50  H   UNL     1       0.094  -7.796   6.710  1.00  0.00     0.167 HD
ATOM     51  C   UNL     1       2.456  -7.604  10.395  1.00  0.00     0.037 A 
ATOM     52  C   UNL     1      -1.133  -9.103   4.575  1.00  0.00     0.037 A 
ATOM     53  C   UNL     1       2.357  -9.007  10.091  1.00  0.00     0.049 A 
ATOM     54  C   UNL     1      -0.463 -10.176   5.396  1.00  0.00     0.074 A 
ATOM     55  C   UNL     1       2.856 -10.083  10.804  1.00  0.00     0.029 A 
ATOM     56  N   UNL     1       1.723  -9.527   8.973  1.00  0.00    -0.354 N 
ATOM     57  N   UNL     1       0.213 -10.063   6.514  1.00  0.00    -0.248 NA
ATOM     58  C   UNL     1      -0.574 -11.556   4.901  1.00  0.00     0.031 C 
ATOM     59  C   UNL     1       2.571 -11.251  10.089  1.00  0.00     0.029 A 
ATOM     60  C   UNL     1       1.845 -10.908   8.959  1.00  0.00     0.049 A 
ATOM     61  H   UNL     1       1.255  -8.995   8.289  1.00  0.00     0.167 HD
ATOM     62  C   UNL     1       0.584 -11.354   6.870  1.00  0.00     0.074 A 
ATOM     63  C   UNL     1       0.047 -12.236   5.855  1.00  0.00     0.031 C 
ATOM     64  C   UNL     1       1.304 -11.772   7.941  1.00  0.00     0.037 A 
BRANCH  51  65
ATOM     65  C   UNL     1       3.230  -7.190  11.613  1.00  0.00     0.064 A 
ATOM     66  C   UNL     1       2.594  -6.663  12.748  1.00  0.00     0.173 A 
ATOM     67  C   UNL     1       4.624  -7.337  11.651  1.00  0.00     0.173 A 
ATOM     68  F   UNL     1       1.264  -6.487  12.756  1.00  0.00    -0.203 F 
ATOM     69  C   UNL     1       3.329  -6.273  13.864  1.00  0.00     0.198 A 
ATOM     70  C   UNL     1       5.353  -6.973  12.780  1.00  0.00     0.198 A 
ATOM     71  F   UNL     1       5.281  -7.837  10.594  1.00  0.00    -0.203 F 
ATOM     72  F   UNL     1       2.706  -5.725  14.917  1.00  0.00    -0.200 F 
ATOM     73  C   UNL     1       4.707  -6.434  13.882  1.00  0.00     0.200 A 
ATOM     74  F   UNL     1       6.683  -7.138  12.799  1.00  0.00    -0.200 F 
ATOM     75  F   UNL     1       5.413  -6.060  14.958  1.00  0.00    -0.200 F 
ENDBRANCH  51  65
BRANCH  52  76
ATOM     76  C   UNL     1      -1.873  -9.448   3.333  1.00  0.00     0.064 A 
ATOM     77  C   UNL     1      -3.071 -10.174   3.379  1.00  0.00     0.173 A 
ATOM     78  C   UNL     1      -1.389  -9.069   2.072  1.00  0.00     0.173 A 
ATOM     79  F   UNL     1      -3.562 -10.583   4.558  1.00  0.00    -0.203 F 
ATOM     80  C   UNL     1      -3.749 -10.519   2.211  1.00  0.00     0.198 A 
ATOM     81  C   UNL     1      -2.081  -9.390   0.907  1.00  0.00     0.198 A 
ATOM     82  F   UNL     1      -0.244  -8.376   1.973  1.00  0.00    -0.203 F 
ATOM     83  F   UNL     1      -4.870 -11.249   2.280  1.00  0.00    -0.200 F 
ATOM     84  C   UNL     1      -3.257 -10.120   0.976  1.00  0.00     0.200 A 
ATOM     85  F   UNL     1      -1.608  -8.993  -0.282  1.00  0.00    -0.200 F 
ATOM     86  F   UNL     1      -3.913 -10.447  -0.146  1.00  0.00    -0.200 F 
ENDBRANCH  52  76
BRANCH  64  87
ATOM     87  C   UNL     1       1.531 -13.249   8.087  1.00  0.00     0.064 A 
ATOM     88  C   UNL     1       2.407 -13.947   7.242  1.00  0.00     0.173 A 
ATOM     89  C   UNL     1       0.897 -13.968   9.113  1.00  0.00     0.173 A 
ATOM     90  F   UNL     1       3.027 -13.309   6.238  1.00  0.00    -0.203 F 
ATOM     91  C   UNL     1       2.619 -15.314   7.403  1.00  0.00     0.198 A 
ATOM     92  C   UNL     1       1.135 -15.328   9.289  1.00  0.00     0.198 A 
ATOM     93  F   UNL     1       0.056 -13.347   9.954  1.00  0.00    -0.203 F 
ATOM     94  F   UNL     1       3.424 -15.969   6.554  1.00  0.00    -0.200 F 
ATOM     95  C   UNL     1       1.990 -16.002   8.430  1.00  0.00     0.200 A 
ATOM     96  F   UNL     1       0.537 -15.987  10.291  1.00  0.00    -0.200 F 
ATOM     97  F   UNL     1       2.201 -17.316   8.587  1.00  0.00    -0.200 F 
ENDBRANCH  64  87
ENDBRANCH  38  39
ENDBRANCH  31  33
ENDBRANCH  30  31
ENDBRANCH  29  30
ENDBRANCH  28  29
ENDBRANCH  27  28
ENDBRANCH  26  27
ENDBRANCH  25  26
ENDBRANCH  24  25
ENDBRANCH   1  24
TORSDOF 24
