REMARK SMILES CC[NH+](CC)[C@@H](C(=O)OCCOCCOCCOCCOC(=O)c1ccc(-c2c3nc(c(-c4c(F)c(F)c(F)c(F)c4F)c4ccc([nH]4)c(-c4c(F)c(F)c(F)c(F)c4F)c4nc(c(-c5c(F)c(F)c(F)c(F)c5F)c5ccc2[nH]5)C=C4)C=C3)cc1)c1ccc(C2CC2)cc1
REMARK SMILES IDX 15 1 14 2 13 3 12 4 11 5 10 6 9 7 7 8 8 9 6 10 3 11 2 13
REMARK SMILES IDX 1 14 4 15 5 16 87 17 88 18 95 19 89 20 94 21 90 22 91 23
REMARK SMILES IDX 92 24 93 25 16 26 17 27 18 28 19 29 20 30 21 31 22 32 23 33
REMARK SMILES IDX 24 34 25 35 86 36 26 37 85 38 27 39 28 40 29 41 79 42 30 43
REMARK SMILES IDX 84 44 78 45 80 46 31 47 83 48 77 49 76 50 32 52 64 53 44 54
REMARK SMILES IDX 63 55 45 56 48 57 62 58 81 59 46 60 47 61 61 63 82 64 49 65
REMARK SMILES IDX 33 66 34 67 42 68 35 69 36 70 40 71 43 72 37 73 38 74 41 75
REMARK SMILES IDX 39 76 65 77 66 78 74 79 67 80 68 81 72 82 75 83 69 84 70 85
REMARK SMILES IDX 73 86 71 87 50 88 51 89 59 90 52 91 53 92 57 93 60 94 54 95
REMARK SMILES IDX 55 96 58 97 56 98
REMARK H PARENT 3 12 80 51 48 62
REMARK Flexibility Score: inf
ROOT
ATOM      1  O   UNL     1       1.653  -2.577   2.334  1.00  0.00    -0.377 OA
ENDROOT
BRANCH   1   2
ATOM      2  C   UNL     1       2.603  -2.865   1.324  1.00  0.00     0.188 C 
BRANCH   2   3
ATOM      3  C   UNL     1       4.038  -3.065   1.810  1.00  0.00     0.188 C 
BRANCH   3   4
ATOM      4  O   UNL     1       4.195  -3.908   2.937  1.00  0.00    -0.376 OA
BRANCH   4   5
ATOM      5  C   UNL     1       3.975  -3.332   4.227  1.00  0.00     0.202 C 
BRANCH   5   6
ATOM      6  C   UNL     1       4.161  -1.820   4.458  1.00  0.00     0.261 C 
BRANCH   6   7
ATOM      7  O   UNL     1       3.241  -0.979   3.715  1.00  0.00    -0.459 OA
BRANCH   7   8
ATOM      8  C   UNL     1       3.757   0.191   3.250  1.00  0.00     0.369 C 
ATOM      9  O   UNL     1       4.933   0.506   3.448  1.00  0.00    -0.245 OA
BRANCH   8  10
ATOM     10  C   UNL     1       2.819   1.111   2.422  1.00  0.00     0.326 C 
BRANCH  10  11
ATOM     11  N   UNL     1       1.346   0.985   2.558  1.00  0.00    -0.320 N 
ATOM     12  H   UNL     1       1.423   1.732   1.867  1.00  0.00     0.349 HD
BRANCH  11  13
ATOM     13  C   UNL     1       0.427   0.311   1.647  1.00  0.00     0.259 C 
ATOM     14  C   UNL     1       0.617   0.351   0.135  1.00  0.00     0.071 C 
ENDBRANCH  11  13
BRANCH  11  15
ATOM     15  C   UNL     1       0.785   1.234   3.887  1.00  0.00     0.259 C 
ATOM     16  C   UNL     1       0.471   0.006   4.738  1.00  0.00     0.071 C 
ENDBRANCH  11  15
ENDBRANCH  10  11
BRANCH  10  17
ATOM     17  C   UNL     1       3.340   1.382   1.006  1.00  0.00     0.021 A 
ATOM     18  C   UNL     1       4.072   0.442   0.274  1.00  0.00     0.011 A 
ATOM     19  C   UNL     1       3.067   2.607   0.382  1.00  0.00     0.011 A 
ATOM     20  C   UNL     1       4.440   0.677  -1.054  1.00  0.00     0.004 A 
ATOM     21  C   UNL     1       3.445   2.842  -0.949  1.00  0.00     0.004 A 
ATOM     22  C   UNL     1       4.116   1.873  -1.709  1.00  0.00    -0.045 A 
BRANCH  22  23
ATOM     23  C   UNL     1       4.473   2.030  -3.170  1.00  0.00     0.019 C 
ATOM     24  C   UNL     1       4.377   3.331  -3.924  1.00  0.00     0.009 C 
ATOM     25  C   UNL     1       5.722   2.796  -3.533  1.00  0.00     0.009 C 
ENDBRANCH  22  23
ENDBRANCH  10  17
ENDBRANCH   8  10
ENDBRANCH   7   8
ENDBRANCH   6   7
ENDBRANCH   5   6
ENDBRANCH   4   5
ENDBRANCH   3   4
ENDBRANCH   2   3
ENDBRANCH   1   2
BRANCH   1  26
ATOM     26  C   UNL     1       0.865  -3.629   2.877  1.00  0.00     0.188 C 
BRANCH  26  27
ATOM     27  C   UNL     1       0.786  -4.936   2.090  1.00  0.00     0.188 C 
BRANCH  27  28
ATOM     28  O   UNL     1       0.244  -4.894   0.767  1.00  0.00    -0.376 OA
BRANCH  28  29
ATOM     29  C   UNL     1      -0.593  -3.804   0.392  1.00  0.00     0.202 C 
BRANCH  29  30
ATOM     30  C   UNL     1      -2.072  -3.972   0.740  1.00  0.00     0.261 C 
BRANCH  30  31
ATOM     31  O   UNL     1      -2.304  -3.974   2.157  1.00  0.00    -0.460 OA
BRANCH  31  32
ATOM     32  C   UNL     1      -2.374  -5.197   2.721  1.00  0.00     0.338 C 
ATOM     33  O   UNL     1      -2.292  -6.286   2.163  1.00  0.00    -0.246 OA
BRANCH  32  34
ATOM     34  C   UNL     1      -2.449  -5.064   4.182  1.00  0.00     0.060 A 
ATOM     35  C   UNL     1      -1.578  -5.831   4.966  1.00  0.00     0.016 A 
ATOM     36  C   UNL     1      -3.442  -4.280   4.774  1.00  0.00     0.016 A 
ATOM     37  C   UNL     1      -1.738  -5.867   6.346  1.00  0.00     0.010 A 
ATOM     38  C   UNL     1      -3.611  -4.327   6.157  1.00  0.00     0.010 A 
ATOM     39  C   UNL     1      -2.790  -5.159   6.939  1.00  0.00    -0.014 A 
BRANCH  39  40
ATOM     40  C   UNL     1      -3.156  -5.449   8.341  1.00  0.00     0.031 A 
ATOM     41  C   UNL     1      -4.299  -6.390   8.602  1.00  0.00     0.074 A 
ATOM     42  C   UNL     1      -2.467  -4.902   9.356  1.00  0.00     0.049 A 
ATOM     43  N   UNL     1      -4.839  -6.750   9.737  1.00  0.00    -0.248 NA
ATOM     44  C   UNL     1      -4.922  -7.007   7.418  1.00  0.00     0.031 C 
ATOM     45  C   UNL     1      -1.318  -4.012   9.210  1.00  0.00     0.029 A 
ATOM     46  N   UNL     1      -2.646  -5.010  10.710  1.00  0.00    -0.354 N 
ATOM     47  C   UNL     1      -5.871  -7.619   9.404  1.00  0.00     0.074 A 
ATOM     48  C   UNL     1      -5.901  -7.714   7.962  1.00  0.00     0.031 C 
ATOM     49  C   UNL     1      -0.903  -3.637  10.432  1.00  0.00     0.029 A 
ATOM     50  C   UNL     1      -1.780  -4.233  11.438  1.00  0.00     0.049 A 
ATOM     51  H   UNL     1      -3.328  -5.588  11.121  1.00  0.00     0.167 HD
ATOM     52  C   UNL     1      -6.712  -8.280  10.233  1.00  0.00     0.037 A 
ATOM     53  C   UNL     1      -1.728  -4.011  12.765  1.00  0.00     0.037 A 
ATOM     54  C   UNL     1      -6.665  -8.180  11.668  1.00  0.00     0.049 A 
ATOM     55  C   UNL     1      -2.712  -4.717  13.661  1.00  0.00     0.074 A 
ATOM     56  C   UNL     1      -7.452  -8.826  12.604  1.00  0.00     0.029 A 
ATOM     57  N   UNL     1      -5.783  -7.372  12.372  1.00  0.00    -0.354 N 
ATOM     58  N   UNL     1      -3.669  -5.558  13.345  1.00  0.00    -0.248 NA
ATOM     59  C   UNL     1      -2.604  -4.449  15.102  1.00  0.00     0.031 C 
ATOM     60  C   UNL     1      -7.088  -8.362  13.873  1.00  0.00     0.029 A 
ATOM     61  C   UNL     1      -6.027  -7.481  13.732  1.00  0.00     0.049 A 
ATOM     62  H   UNL     1      -5.088  -6.806  11.966  1.00  0.00     0.167 HD
ATOM     63  C   UNL     1      -4.253  -5.944  14.545  1.00  0.00     0.074 A 
ATOM     64  C   UNL     1      -3.531  -5.256  15.596  1.00  0.00     0.031 C 
ATOM     65  C   UNL     1      -5.290  -6.791  14.761  1.00  0.00     0.037 A 
BRANCH  52  66
ATOM     66  C   UNL     1      -7.774  -9.139   9.611  1.00  0.00     0.064 A 
ATOM     67  C   UNL     1      -7.469 -10.339   8.950  1.00  0.00     0.173 A 
ATOM     68  C   UNL     1      -9.126  -8.773   9.710  1.00  0.00     0.173 A 
ATOM     69  F   UNL     1      -6.193 -10.728   8.812  1.00  0.00    -0.203 F 
ATOM     70  C   UNL     1      -8.474 -11.127   8.393  1.00  0.00     0.198 A 
ATOM     71  C   UNL     1     -10.130  -9.579   9.181  1.00  0.00     0.198 A 
ATOM     72  F   UNL     1      -9.474  -7.636  10.332  1.00  0.00    -0.203 F 
ATOM     73  F   UNL     1      -8.155 -12.245   7.726  1.00  0.00    -0.200 F 
ATOM     74  C   UNL     1      -9.803 -10.751   8.517  1.00  0.00     0.200 A 
ATOM     75  F   UNL     1     -11.414  -9.220   9.313  1.00  0.00    -0.200 F 
ATOM     76  F   UNL     1     -10.770 -11.516   7.991  1.00  0.00    -0.200 F 
ENDBRANCH  52  66
BRANCH  53  77
ATOM     77  C   UNL     1      -0.724  -3.067  13.322  1.00  0.00     0.064 A 
ATOM     78  C   UNL     1       0.313  -3.516  14.151  1.00  0.00     0.173 A 
ATOM     79  C   UNL     1      -0.794  -1.692  13.053  1.00  0.00     0.173 A 
ATOM     80  F   UNL     1       0.411  -4.818  14.456  1.00  0.00    -0.203 F 
ATOM     81  C   UNL     1       1.226  -2.623  14.710  1.00  0.00     0.198 A 
ATOM     82  C   UNL     1       0.139  -0.804  13.585  1.00  0.00     0.198 A 
ATOM     83  F   UNL     1      -1.765  -1.209  12.264  1.00  0.00    -0.203 F 
ATOM     84  F   UNL     1       2.174  -3.072  15.543  1.00  0.00    -0.200 F 
ATOM     85  C   UNL     1       1.141  -1.269  14.422  1.00  0.00     0.200 A 
ATOM     86  F   UNL     1       0.062   0.501  13.291  1.00  0.00    -0.200 F 
ATOM     87  F   UNL     1       2.020  -0.411  14.958  1.00  0.00    -0.200 F 
ENDBRANCH  53  77
BRANCH  65  88
ATOM     88  C   UNL     1      -5.674  -7.058  16.189  1.00  0.00     0.064 A 
ATOM     89  C   UNL     1      -6.282  -6.079  16.989  1.00  0.00     0.173 A 
ATOM     90  C   UNL     1      -5.458  -8.325  16.754  1.00  0.00     0.173 A 
ATOM     91  F   UNL     1      -6.500  -4.848  16.501  1.00  0.00    -0.203 F 
ATOM     92  C   UNL     1      -6.625  -6.347  18.311  1.00  0.00     0.198 A 
ATOM     93  C   UNL     1      -5.837  -8.600  18.064  1.00  0.00     0.198 A 
ATOM     94  F   UNL     1      -4.890  -9.301  16.030  1.00  0.00    -0.203 F 
ATOM     95  F   UNL     1      -7.148  -5.378  19.075  1.00  0.00    -0.200 F 
ATOM     96  C   UNL     1      -6.409  -7.608  18.845  1.00  0.00     0.200 A 
ATOM     97  F   UNL     1      -5.644  -9.826  18.572  1.00  0.00    -0.200 F 
ATOM     98  F   UNL     1      -6.745  -7.866  20.117  1.00  0.00    -0.200 F 
ENDBRANCH  65  88
ENDBRANCH  39  40
ENDBRANCH  32  34
ENDBRANCH  31  32
ENDBRANCH  30  31
ENDBRANCH  29  30
ENDBRANCH  28  29
ENDBRANCH  27  28
ENDBRANCH  26  27
ENDBRANCH   1  26
TORSDOF 25
