REMARK SMILES C[NH+](C)[C@@H]1CC[N@@H+](Cc2ccc(C(=O)OCCOCCOCCOCCOC(=O)c3ccc(-c4c5nc(c(-c6c(F)c(F)c(F)c(F)c6F)c6ccc([nH]6)c(-c6c(F)c(F)c(F)c(F)c6F)c6nc(c(-c7c(F)c(F)c(F)c(F)c7F)c7ccc4[nH]7)C=C6)C=C5)cc3)cn2)C1
REMARK SMILES IDX 20 1 19 2 18 3 17 4 16 5 15 6 13 7 14 8 12 9 9 10 10 11
REMARK SMILES IDX 94 12 11 13 93 14 8 15 7 16 4 17 5 18 95 19 6 20 2 22 1 23
REMARK SMILES IDX 3 24 21 26 22 27 23 28 24 29 25 30 26 31 27 32 28 33 29 34
REMARK SMILES IDX 30 35 31 36 92 37 32 38 91 39 33 40 34 41 35 42 85 43 36 44
REMARK SMILES IDX 90 45 84 46 86 47 37 48 89 49 83 50 82 51 38 53 70 54 50 55
REMARK SMILES IDX 69 56 51 57 54 58 68 59 87 60 52 61 53 62 67 64 88 65 55 66
REMARK SMILES IDX 39 67 40 68 48 69 41 70 42 71 46 72 49 73 43 74 44 75 47 76
REMARK SMILES IDX 45 77 71 78 72 79 80 80 73 81 74 82 78 83 81 84 75 85 76 86
REMARK SMILES IDX 79 87 77 88 56 89 57 90 65 91 58 92 59 93 63 94 66 95 60 96
REMARK SMILES IDX 61 97 64 98 62 99
REMARK H PARENT 7 21 2 25 86 52 54 63
REMARK Flexibility Score: inf
ROOT
ATOM      1  C   UNL     1       5.631   5.509   3.103  1.00  0.00     0.188 C 
ENDROOT
BRANCH   1   2
ATOM      2  C   UNL     1       4.804   6.614   3.789  1.00  0.00     0.188 C 
BRANCH   2   3
ATOM      3  O   UNL     1       4.798   6.504   5.201  1.00  0.00    -0.376 OA
BRANCH   3   4
ATOM      4  C   UNL     1       3.705   5.934   5.897  1.00  0.00     0.202 C 
BRANCH   4   5
ATOM      5  C   UNL     1       2.999   4.638   5.459  1.00  0.00     0.261 C 
BRANCH   5   6
ATOM      6  O   UNL     1       3.005   4.346   4.065  1.00  0.00    -0.460 OA
BRANCH   6   7
ATOM      7  C   UNL     1       2.095   4.981   3.302  1.00  0.00     0.339 C 
ATOM      8  O   UNL     1       1.206   5.721   3.683  1.00  0.00    -0.246 OA
BRANCH   7   9
ATOM      9  C   UNL     1       2.488   4.798   1.894  1.00  0.00     0.078 A 
ATOM     10  C   UNL     1       3.117   4.630  -0.766  1.00  0.00     0.095 A 
ATOM     11  C   UNL     1       3.557   3.620   0.088  1.00  0.00     0.031 A 
ATOM     12  N   UNL     1       2.517   5.762  -0.311  1.00  0.00    -0.254 NA
ATOM     13  C   UNL     1       3.202   3.688   1.432  1.00  0.00     0.019 A 
ATOM     14  C   UNL     1       2.222   5.825   1.006  1.00  0.00     0.127 A 
BRANCH  10  15
ATOM     15  C   UNL     1       3.053   4.381  -2.261  1.00  0.00     0.319 C 
BRANCH  15  16
ATOM     16  N   UNL     1       1.877   3.625  -2.743  1.00  0.00    -0.325 N 
ATOM     17  C   UNL     1       0.910   2.082  -1.109  1.00  0.00     0.245 C 
ATOM     18  C   UNL     1       0.131   3.407  -1.090  1.00  0.00     0.132 C 
ATOM     19  C   UNL     1       1.827   2.211  -2.350  1.00  0.00     0.328 C 
ATOM     20  C   UNL     1       0.584   4.179  -2.325  1.00  0.00     0.269 C 
ATOM     21  H   UNL     1       2.015   3.711  -3.750  1.00  0.00     0.348 HD
BRANCH  17  22
ATOM     22  N   UNL     1       0.214   0.781  -1.128  1.00  0.00    -0.333 N 
ATOM     23  C   UNL     1       0.778  -0.142  -0.140  1.00  0.00     0.332 C 
ATOM     24  C   UNL     1      -1.234   0.842  -0.998  1.00  0.00     0.332 C 
ATOM     25  H   UNL     1       0.382   0.426  -2.069  1.00  0.00     0.348 HD
ENDBRANCH  17  22
ENDBRANCH  15  16
ENDBRANCH  10  15
ENDBRANCH   7   9
ENDBRANCH   6   7
ENDBRANCH   5   6
ENDBRANCH   4   5
ENDBRANCH   3   4
ENDBRANCH   2   3
ENDBRANCH   1   2
BRANCH   1  26
ATOM     26  O   UNL     1       5.824   4.337   3.880  1.00  0.00    -0.377 OA
BRANCH  26  27
ATOM     27  C   UNL     1       6.730   4.394   4.985  1.00  0.00     0.188 C 
BRANCH  27  28
ATOM     28  C   UNL     1       7.418   5.704   5.451  1.00  0.00     0.188 C 
BRANCH  28  29
ATOM     29  O   UNL     1       7.583   6.694   4.449  1.00  0.00    -0.376 OA
BRANCH  29  30
ATOM     30  C   UNL     1       8.868   6.904   3.895  1.00  0.00     0.202 C 
BRANCH  30  31
ATOM     31  C   UNL     1       9.477   5.745   3.094  1.00  0.00     0.261 C 
BRANCH  31  32
ATOM     32  O   UNL     1       9.559   4.488   3.781  1.00  0.00    -0.460 OA
BRANCH  32  33
ATOM     33  C   UNL     1      10.369   4.438   4.857  1.00  0.00     0.338 C 
ATOM     34  O   UNL     1      11.063   5.339   5.305  1.00  0.00    -0.246 OA
BRANCH  33  35
ATOM     35  C   UNL     1      10.147   3.148   5.537  1.00  0.00     0.060 A 
ATOM     36  C   UNL     1       9.714   3.153   6.869  1.00  0.00     0.016 A 
ATOM     37  C   UNL     1      10.372   1.943   4.867  1.00  0.00     0.016 A 
ATOM     38  C   UNL     1       9.557   1.949   7.552  1.00  0.00     0.010 A 
ATOM     39  C   UNL     1      10.228   0.737   5.558  1.00  0.00     0.010 A 
ATOM     40  C   UNL     1       9.861   0.738   6.916  1.00  0.00    -0.014 A 
BRANCH  40  41
ATOM     41  C   UNL     1       9.977  -0.496   7.730  1.00  0.00     0.031 A 
ATOM     42  C   UNL     1      11.347  -0.957   8.148  1.00  0.00     0.074 A 
ATOM     43  C   UNL     1       8.884  -1.164   8.139  1.00  0.00     0.049 A 
ATOM     44  N   UNL     1      11.694  -1.985   8.879  1.00  0.00    -0.248 NA
ATOM     45  C   UNL     1      12.481  -0.146   7.676  1.00  0.00     0.031 C 
ATOM     46  C   UNL     1       7.505  -0.798   7.826  1.00  0.00     0.029 A 
ATOM     47  N   UNL     1       8.768  -2.292   8.912  1.00  0.00    -0.354 N 
ATOM     48  C   UNL     1      13.080  -1.944   8.953  1.00  0.00     0.074 A 
ATOM     49  C   UNL     1      13.515  -0.817   8.158  1.00  0.00     0.031 C 
ATOM     50  C   UNL     1       6.678  -1.687   8.403  1.00  0.00     0.029 A 
ATOM     51  C   UNL     1       7.471  -2.698   9.100  1.00  0.00     0.049 A 
ATOM     52  H   UNL     1       9.542  -2.765   9.295  1.00  0.00     0.167 HD
ATOM     53  C   UNL     1      13.916  -2.765   9.634  1.00  0.00     0.037 A 
ATOM     54  C   UNL     1       6.983  -3.772   9.752  1.00  0.00     0.037 A 
ATOM     55  C   UNL     1      13.479  -3.890  10.419  1.00  0.00     0.049 A 
ATOM     56  C   UNL     1       7.939  -4.708  10.448  1.00  0.00     0.074 A 
ATOM     57  C   UNL     1      14.244  -4.777  11.157  1.00  0.00     0.029 A 
ATOM     58  N   UNL     1      12.158  -4.291  10.560  1.00  0.00    -0.354 N 
ATOM     59  N   UNL     1       9.246  -4.646  10.541  1.00  0.00    -0.248 NA
ATOM     60  C   UNL     1       7.347  -5.859  11.144  1.00  0.00     0.031 C 
ATOM     61  C   UNL     1      13.393  -5.750  11.690  1.00  0.00     0.029 A 
ATOM     62  C   UNL     1      12.089  -5.427  11.351  1.00  0.00     0.049 A 
ATOM     63  H   UNL     1      11.384  -3.835  10.157  1.00  0.00     0.167 HD
ATOM     64  C   UNL     1       9.627  -5.720  11.336  1.00  0.00     0.074 A 
ATOM     65  C   UNL     1       8.410  -6.410  11.710  1.00  0.00     0.031 C 
ATOM     66  C   UNL     1      10.870  -6.099  11.725  1.00  0.00     0.037 A 
BRANCH  53  67
ATOM     67  C   UNL     1      15.390  -2.493   9.535  1.00  0.00     0.064 A 
ATOM     68  C   UNL     1      15.976  -1.357  10.116  1.00  0.00     0.173 A 
ATOM     69  C   UNL     1      16.235  -3.397   8.873  1.00  0.00     0.173 A 
ATOM     70  F   UNL     1      15.214  -0.452  10.748  1.00  0.00    -0.203 F 
ATOM     71  C   UNL     1      17.346  -1.124  10.013  1.00  0.00     0.198 A 
ATOM     72  C   UNL     1      17.608  -3.179   8.802  1.00  0.00     0.198 A 
ATOM     73  F   UNL     1      15.729  -4.500   8.300  1.00  0.00    -0.203 F 
ATOM     74  F   UNL     1      17.874  -0.005  10.529  1.00  0.00    -0.200 F 
ATOM     75  C   UNL     1      18.161  -2.039   9.364  1.00  0.00     0.200 A 
ATOM     76  F   UNL     1      18.395  -4.072   8.187  1.00  0.00    -0.200 F 
ATOM     77  F   UNL     1      19.480  -1.818   9.273  1.00  0.00    -0.200 F 
ENDBRANCH  53  67
BRANCH  54  78
ATOM     78  C   UNL     1       5.517  -4.024   9.783  1.00  0.00     0.064 A 
ATOM     79  C   UNL     1       4.792  -3.952  10.981  1.00  0.00     0.173 A 
ATOM     80  C   UNL     1       4.815  -4.368   8.618  1.00  0.00     0.173 A 
ATOM     81  F   UNL     1       5.421  -3.651  12.127  1.00  0.00    -0.203 F 
ATOM     82  C   UNL     1       3.429  -4.240  11.018  1.00  0.00     0.198 A 
ATOM     83  C   UNL     1       3.446  -4.622   8.650  1.00  0.00     0.198 A 
ATOM     84  F   UNL     1       5.460  -4.451   7.445  1.00  0.00    -0.203 F 
ATOM     85  F   UNL     1       2.773  -4.220  12.186  1.00  0.00    -0.200 F 
ATOM     86  C   UNL     1       2.756  -4.569   9.851  1.00  0.00     0.200 A 
ATOM     87  F   UNL     1       2.797  -4.924   7.517  1.00  0.00    -0.200 F 
ATOM     88  F   UNL     1       1.445  -4.843   9.885  1.00  0.00    -0.200 F 
ENDBRANCH  54  78
BRANCH  66  89
ATOM     89  C   UNL     1      10.975  -7.279  12.653  1.00  0.00     0.064 A 
ATOM     90  C   UNL     1      10.661  -8.583  12.242  1.00  0.00     0.173 A 
ATOM     91  C   UNL     1      11.414  -7.099  13.975  1.00  0.00     0.173 A 
ATOM     92  F   UNL     1      10.227  -8.812  10.993  1.00  0.00    -0.203 F 
ATOM     93  C   UNL     1      10.738  -9.653  13.131  1.00  0.00     0.198 A 
ATOM     94  C   UNL     1      11.529  -8.177  14.849  1.00  0.00     0.198 A 
ATOM     95  F   UNL     1      11.740  -5.876  14.420  1.00  0.00    -0.203 F 
ATOM     96  F   UNL     1      10.365 -10.878  12.735  1.00  0.00    -0.200 F 
ATOM     97  C   UNL     1      11.177  -9.450  14.431  1.00  0.00     0.200 A 
ATOM     98  F   UNL     1      11.973  -7.981  16.098  1.00  0.00    -0.200 F 
ATOM     99  F   UNL     1      11.251 -10.481  15.284  1.00  0.00    -0.200 F 
ENDBRANCH  66  89
ENDBRANCH  40  41
ENDBRANCH  33  35
ENDBRANCH  32  33
ENDBRANCH  31  32
ENDBRANCH  30  31
ENDBRANCH  29  30
ENDBRANCH  28  29
ENDBRANCH  27  28
ENDBRANCH  26  27
ENDBRANCH   1  26
TORSDOF 23
