REMARK SMILES O=C(Cc1ccn(-c2ccccc2F)c1)OCCOCCOCCOCCOC(=O)c1ccc(-c2c3nc(c(-c4c(F)c(F)c(F)c(F)c4F)c4ccc([nH]4)c(-c4c(F)c(F)c(F)c(F)c4F)c4nc(c(-c5c(F)c(F)c(F)c(F)c5F)c5ccc2[nH]5)C=C4)C=C3)cc1
REMARK SMILES IDX 22 1 21 2 20 3 19 4 18 5 17 6 16 7 2 8 1 9 3 10 4 11 5 12
REMARK SMILES IDX 15 13 6 14 7 15 8 16 9 17 13 18 10 19 12 20 14 21 11 22
REMARK SMILES IDX 23 23 24 24 25 25 26 26 27 27 28 28 29 29 30 30 31 31 32 32
REMARK SMILES IDX 93 33 33 34 92 35 34 36 35 37 36 38 86 39 37 40 91 41 85 42
REMARK SMILES IDX 87 43 38 44 90 45 84 46 83 47 39 49 71 50 51 51 70 52 52 53
REMARK SMILES IDX 55 54 69 55 88 56 53 57 54 58 68 60 89 61 56 62 40 63 41 64
REMARK SMILES IDX 49 65 42 66 43 67 47 68 50 69 44 70 45 71 48 72 46 73 72 74
REMARK SMILES IDX 73 75 81 76 74 77 75 78 79 79 82 80 76 81 77 82 80 83 78 84
REMARK SMILES IDX 57 85 58 86 66 87 59 88 60 89 64 90 67 91 61 92 62 93 65 94
REMARK SMILES IDX 63 95
REMARK H PARENT 87 48 55 59
REMARK Flexibility Score: inf
ROOT
ATOM      1  O   UNL     1       2.861  -2.326   2.959  1.00  0.00    -0.377 OA
ENDROOT
BRANCH   1   2
ATOM      2  C   UNL     1       2.143  -1.436   2.099  1.00  0.00     0.188 C 
BRANCH   2   3
ATOM      3  C   UNL     1       2.556  -1.586   0.635  1.00  0.00     0.188 C 
BRANCH   3   4
ATOM      4  O   UNL     1       3.963  -1.433   0.522  1.00  0.00    -0.376 OA
BRANCH   4   5
ATOM      5  C   UNL     1       4.477  -0.355  -0.233  1.00  0.00     0.202 C 
BRANCH   5   6
ATOM      6  C   UNL     1       4.000   1.037   0.177  1.00  0.00     0.261 C 
BRANCH   6   7
ATOM      7  O   UNL     1       2.588   1.334   0.037  1.00  0.00    -0.463 OA
BRANCH   7   8
ATOM      8  C   UNL     1       1.785   1.266  -1.049  1.00  0.00     0.310 C 
ATOM      9  O   UNL     1       0.611   1.620  -0.938  1.00  0.00    -0.252 OA
BRANCH   8  10
ATOM     10  C   UNL     1       2.266   0.628  -2.331  1.00  0.00     0.159 C 
BRANCH  10  11
ATOM     11  C   UNL     1       3.486   1.229  -2.937  1.00  0.00    -0.019 A 
ATOM     12  C   UNL     1       3.926   2.570  -2.852  1.00  0.00     0.024 A 
ATOM     13  C   UNL     1       4.425   0.559  -3.703  1.00  0.00     0.095 A 
ATOM     14  C   UNL     1       5.152   2.641  -3.472  1.00  0.00     0.091 A 
ATOM     15  N   UNL     1       5.452   1.417  -4.038  1.00  0.00    -0.321 N 
BRANCH  15  16
ATOM     16  C   UNL     1       6.601   1.117  -4.815  1.00  0.00     0.081 A 
ATOM     17  C   UNL     1       7.760   1.896  -4.675  1.00  0.00     0.030 A 
ATOM     18  C   UNL     1       6.592   0.076  -5.749  1.00  0.00     0.147 A 
ATOM     19  C   UNL     1       8.877   1.644  -5.475  1.00  0.00     0.002 A 
ATOM     20  C   UNL     1       7.700  -0.159  -6.561  1.00  0.00     0.041 A 
ATOM     21  F   UNL     1       5.506  -0.682  -5.954  1.00  0.00    -0.205 F 
ATOM     22  C   UNL     1       8.843   0.627  -6.428  1.00  0.00     0.003 A 
ENDBRANCH  15  16
ENDBRANCH  10  11
ENDBRANCH   8  10
ENDBRANCH   7   8
ENDBRANCH   6   7
ENDBRANCH   5   6
ENDBRANCH   4   5
ENDBRANCH   3   4
ENDBRANCH   2   3
ENDBRANCH   1   2
BRANCH   1  23
ATOM     23  C   UNL     1       4.210  -1.944   3.196  1.00  0.00     0.188 C 
BRANCH  23  24
ATOM     24  C   UNL     1       5.337  -2.872   2.669  1.00  0.00     0.188 C 
BRANCH  24  25
ATOM     25  O   UNL     1       5.186  -4.106   1.972  1.00  0.00    -0.376 OA
BRANCH  25  26
ATOM     26  C   UNL     1       3.926  -4.653   1.633  1.00  0.00     0.202 C 
BRANCH  26  27
ATOM     27  C   UNL     1       3.211  -5.489   2.692  1.00  0.00     0.261 C 
BRANCH  27  28
ATOM     28  O   UNL     1       3.198  -4.855   3.957  1.00  0.00    -0.460 OA
BRANCH  28  29
ATOM     29  C   UNL     1       4.360  -5.012   4.609  1.00  0.00     0.338 C 
ATOM     30  O   UNL     1       5.331  -5.686   4.274  1.00  0.00    -0.246 OA
BRANCH  29  31
ATOM     31  C   UNL     1       4.310  -4.329   5.896  1.00  0.00     0.060 A 
ATOM     32  C   UNL     1       5.548  -4.159   6.521  1.00  0.00     0.016 A 
ATOM     33  C   UNL     1       3.095  -4.314   6.590  1.00  0.00     0.016 A 
ATOM     34  C   UNL     1       5.598  -4.291   7.883  1.00  0.00     0.010 A 
ATOM     35  C   UNL     1       3.147  -4.479   7.952  1.00  0.00     0.010 A 
ATOM     36  C   UNL     1       4.406  -4.571   8.558  1.00  0.00    -0.014 A 
BRANCH  36  37
ATOM     37  C   UNL     1       4.518  -5.036   9.938  1.00  0.00     0.031 A 
ATOM     38  C   UNL     1       4.532  -3.889  10.913  1.00  0.00     0.074 A 
ATOM     39  C   UNL     1       4.646  -6.386  10.086  1.00  0.00     0.049 A 
ATOM     40  N   UNL     1       5.020  -3.837  12.110  1.00  0.00    -0.248 NA
ATOM     41  C   UNL     1       3.988  -2.576  10.470  1.00  0.00     0.031 C 
ATOM     42  C   UNL     1       4.631  -7.345   8.963  1.00  0.00     0.029 A 
ATOM     43  N   UNL     1       4.828  -7.225  11.165  1.00  0.00    -0.354 N 
ATOM     44  C   UNL     1       4.669  -2.584  12.624  1.00  0.00     0.074 A 
ATOM     45  C   UNL     1       4.164  -1.802  11.537  1.00  0.00     0.031 C 
ATOM     46  C   UNL     1       4.859  -8.596   9.400  1.00  0.00     0.029 A 
ATOM     47  C   UNL     1       5.021  -8.591  10.840  1.00  0.00     0.049 A 
ATOM     48  H   UNL     1       4.824  -6.899  12.094  1.00  0.00     0.167 HD
ATOM     49  C   UNL     1       4.662  -2.309  13.953  1.00  0.00     0.037 A 
ATOM     50  C   UNL     1       5.328  -9.640  11.664  1.00  0.00     0.037 A 
ATOM     51  C   UNL     1       5.153  -3.407  14.717  1.00  0.00     0.049 A 
ATOM     52  C   UNL     1       5.274  -9.092  13.037  1.00  0.00     0.074 A 
ATOM     53  C   UNL     1       6.411  -3.910  14.926  1.00  0.00     0.029 A 
ATOM     54  N   UNL     1       4.236  -4.341  15.135  1.00  0.00    -0.354 N 
ATOM     55  N   UNL     1       4.184  -8.740  13.656  1.00  0.00    -0.248 NA
ATOM     56  C   UNL     1       6.531  -8.818  13.742  1.00  0.00     0.031 C 
ATOM     57  C   UNL     1       6.218  -5.291  15.168  1.00  0.00     0.029 A 
ATOM     58  C   UNL     1       4.850  -5.574  15.141  1.00  0.00     0.049 A 
ATOM     59  H   UNL     1       3.302  -4.160  15.387  1.00  0.00     0.167 HD
ATOM     60  C   UNL     1       4.652  -7.919  14.659  1.00  0.00     0.074 A 
ATOM     61  C   UNL     1       6.048  -8.235  14.835  1.00  0.00     0.031 C 
ATOM     62  C   UNL     1       4.025  -6.742  14.915  1.00  0.00     0.037 A 
BRANCH  49  63
ATOM     63  C   UNL     1       4.021  -1.161  14.655  1.00  0.00     0.064 A 
ATOM     64  C   UNL     1       2.764  -0.647  14.299  1.00  0.00     0.173 A 
ATOM     65  C   UNL     1       4.541  -0.758  15.901  1.00  0.00     0.173 A 
ATOM     66  F   UNL     1       2.157  -1.020  13.164  1.00  0.00    -0.203 F 
ATOM     67  C   UNL     1       2.055   0.194  15.156  1.00  0.00     0.198 A 
ATOM     68  C   UNL     1       3.810   0.042  16.774  1.00  0.00     0.198 A 
ATOM     69  F   UNL     1       5.743  -1.193  16.312  1.00  0.00    -0.203 F 
ATOM     70  F   UNL     1       0.845   0.642  14.794  1.00  0.00    -0.200 F 
ATOM     71  C   UNL     1       2.563   0.511  16.404  1.00  0.00     0.200 A 
ATOM     72  F   UNL     1       4.294   0.312  17.994  1.00  0.00    -0.200 F 
ATOM     73  F   UNL     1       1.834   1.236  17.263  1.00  0.00    -0.200 F 
ENDBRANCH  49  63
BRANCH  50  74
ATOM     74  C   UNL     1       5.766 -11.083  11.498  1.00  0.00     0.064 A 
ATOM     75  C   UNL     1       6.224 -11.822  12.625  1.00  0.00     0.173 A 
ATOM     76  C   UNL     1       5.851 -11.793  10.290  1.00  0.00     0.173 A 
ATOM     77  F   UNL     1       6.089 -11.353  13.872  1.00  0.00    -0.203 F 
ATOM     78  C   UNL     1       6.848 -13.069  12.532  1.00  0.00     0.198 A 
ATOM     79  C   UNL     1       6.450 -13.063  10.198  1.00  0.00     0.198 A 
ATOM     80  F   UNL     1       5.344 -11.313   9.154  1.00  0.00    -0.203 F 
ATOM     81  F   UNL     1       7.334 -13.652  13.637  1.00  0.00    -0.200 F 
ATOM     82  C   UNL     1       6.980 -13.684  11.310  1.00  0.00     0.200 A 
ATOM     83  F   UNL     1       6.521 -13.676   9.008  1.00  0.00    -0.200 F 
ATOM     84  F   UNL     1       7.597 -14.868  11.210  1.00  0.00    -0.200 F 
ENDBRANCH  50  74
BRANCH  62  85
ATOM     85  C   UNL     1       2.578  -6.730  14.476  1.00  0.00     0.064 A 
ATOM     86  C   UNL     1       2.132  -6.059  13.326  1.00  0.00     0.173 A 
ATOM     87  C   UNL     1       1.630  -7.517  15.143  1.00  0.00     0.173 A 
ATOM     88  F   UNL     1       2.965  -5.286  12.634  1.00  0.00    -0.203 F 
ATOM     89  C   UNL     1       0.823  -6.160  12.861  1.00  0.00     0.198 A 
ATOM     90  C   UNL     1       0.317  -7.628  14.676  1.00  0.00     0.198 A 
ATOM     91  F   UNL     1       1.976  -8.184  16.254  1.00  0.00    -0.203 F 
ATOM     92  F   UNL     1       0.447  -5.484  11.764  1.00  0.00    -0.200 F 
ATOM     93  C   UNL     1      -0.086  -6.951  13.535  1.00  0.00     0.200 A 
ATOM     94  F   UNL     1      -0.565  -8.389  15.339  1.00  0.00    -0.200 F 
ATOM     95  F   UNL     1      -1.348  -7.051  13.094  1.00  0.00    -0.200 F 
ENDBRANCH  62  85
ENDBRANCH  36  37
ENDBRANCH  29  31
ENDBRANCH  28  29
ENDBRANCH  27  28
ENDBRANCH  26  27
ENDBRANCH  25  26
ENDBRANCH  24  25
ENDBRANCH  23  24
ENDBRANCH   1  23
TORSDOF 22
