REMARK SMILES NC(=O)CC[N@@H+]1[C@@H](C(=O)OCCOCCOCCOCCOC(=O)c2ccc(-c3c4nc(c(-c5c(F)c(F)c(F)c(F)c5F)c5ccc([nH]5)c(-c5c(F)c(F)c(F)c(F)c5F)c5nc(c(-c6c(F)c(F)c(F)c(F)c6F)c6ccc3[nH]6)C=C5)C=C4)cc2)CC[C@@H]2CCCC[C@H]21
REMARK SMILES IDX 15 1 14 2 13 3 12 4 11 5 10 6 8 7 9 8 7 9 6 10 95 11 88 13
REMARK SMILES IDX 90 14 94 15 89 16 91 17 93 18 92 19 5 20 4 21 2 22 1 23 3 26
REMARK SMILES IDX 16 27 17 28 18 29 19 30 20 31 21 32 22 33 23 34 24 35 25 36
REMARK SMILES IDX 26 37 87 38 27 39 86 40 28 41 29 42 30 43 80 44 31 45 85 46
REMARK SMILES IDX 79 47 81 48 32 49 84 50 78 51 77 52 33 54 65 55 45 56 64 57
REMARK SMILES IDX 46 58 49 59 63 60 82 61 47 62 48 63 62 65 83 66 50 67 34 68
REMARK SMILES IDX 35 69 43 70 36 71 37 72 41 73 44 74 38 75 39 76 42 77 40 78
REMARK SMILES IDX 66 79 67 80 75 81 68 82 69 83 73 84 76 85 70 86 71 87 74 88
REMARK SMILES IDX 72 89 51 90 52 91 60 92 53 93 54 94 58 95 61 96 55 97 56 98
REMARK SMILES IDX 59 99 57 100
REMARK H PARENT 6 12 1 24 1 25 81 53 49 64
REMARK Flexibility Score: inf
ROOT
ATOM      1  C   UNL     1       6.188  -4.780   0.277  1.00  0.00     0.188 C 
ENDROOT
BRANCH   1   2
ATOM      2  C   UNL     1       5.606  -5.787   1.271  1.00  0.00     0.188 C 
BRANCH   2   3
ATOM      3  O   UNL     1       4.883  -6.915   0.828  1.00  0.00    -0.376 OA
BRANCH   3   4
ATOM      4  C   UNL     1       3.765  -6.882  -0.041  1.00  0.00     0.202 C 
BRANCH   4   5
ATOM      5  C   UNL     1       2.748  -5.740  -0.239  1.00  0.00     0.261 C 
BRANCH   5   6
ATOM      6  O   UNL     1       3.205  -4.388  -0.335  1.00  0.00    -0.459 OA
BRANCH   6   7
ATOM      7  C   UNL     1       3.238  -3.743   0.853  1.00  0.00     0.364 C 
ATOM      8  O   UNL     1       2.983  -4.294   1.925  1.00  0.00    -0.245 OA
BRANCH   7   9
ATOM      9  C   UNL     1       3.574  -2.239   0.783  1.00  0.00     0.295 C 
ATOM     10  N   UNL     1       2.352  -1.339   0.922  1.00  0.00    -0.320 N 
ATOM     11  C   UNL     1       2.819   0.071   1.159  1.00  0.00     0.187 C 
ATOM     12  H   UNL     1       1.782  -1.305   0.077  1.00  0.00     0.349 HD
ATOM     13  C   UNL     1       4.405  -1.802  -0.427  1.00  0.00     0.078 C 
ATOM     14  C   UNL     1       3.811   0.538   0.041  1.00  0.00     0.048 C 
ATOM     15  C   UNL     1       1.680   1.115   1.182  1.00  0.00     0.065 C 
ATOM     16  C   UNL     1       4.976  -0.422  -0.145  1.00  0.00     0.016 C 
ATOM     17  C   UNL     1       4.338   1.956   0.299  1.00  0.00     0.010 C 
ATOM     18  C   UNL     1       2.165   2.550   1.370  1.00  0.00     0.006 C 
ATOM     19  C   UNL     1       3.187   2.949   0.321  1.00  0.00     0.001 C 
BRANCH  10  20
ATOM     20  C   UNL     1       1.477  -1.906   1.994  1.00  0.00     0.273 C 
BRANCH  20  21
ATOM     21  C   UNL     1       0.088  -1.364   2.320  1.00  0.00     0.161 C 
BRANCH  21  22
ATOM     22  C   UNL     1      -0.829  -1.075   1.149  1.00  0.00     0.223 C 
ATOM     23  N   UNL     1      -0.322  -1.224  -0.103  1.00  0.00    -0.369 N 
ATOM     24  H   UNL     1      -0.889  -1.045  -0.887  1.00  0.00     0.159 HD
ATOM     25  H   UNL     1       0.612  -1.510  -0.225  1.00  0.00     0.159 HD
ATOM     26  O   UNL     1      -1.991  -0.713   1.310  1.00  0.00    -0.275 OA
ENDBRANCH  21  22
ENDBRANCH  20  21
ENDBRANCH  10  20
ENDBRANCH   7   9
ENDBRANCH   6   7
ENDBRANCH   5   6
ENDBRANCH   4   5
ENDBRANCH   3   4
ENDBRANCH   2   3
ENDBRANCH   1   2
BRANCH   1  27
ATOM     27  O   UNL     1       5.659  -4.838  -1.031  1.00  0.00    -0.377 OA
BRANCH  27  28
ATOM     28  C   UNL     1       6.178  -5.791  -1.949  1.00  0.00     0.188 C 
BRANCH  28  29
ATOM     29  C   UNL     1       7.039  -6.963  -1.441  1.00  0.00     0.188 C 
BRANCH  29  30
ATOM     30  O   UNL     1       7.983  -6.608  -0.446  1.00  0.00    -0.376 OA
BRANCH  30  31
ATOM     31  C   UNL     1       9.306  -6.276  -0.837  1.00  0.00     0.202 C 
BRANCH  31  32
ATOM     32  C   UNL     1       9.505  -5.091  -1.796  1.00  0.00     0.261 C 
BRANCH  32  33
ATOM     33  O   UNL     1       8.883  -5.191  -3.088  1.00  0.00    -0.460 OA
BRANCH  33  34
ATOM     34  C   UNL     1       9.160  -6.271  -3.850  1.00  0.00     0.338 C 
ATOM     35  O   UNL     1       9.947  -7.160  -3.613  1.00  0.00    -0.246 OA
BRANCH  34  36
ATOM     36  C   UNL     1       8.181  -6.293  -4.961  1.00  0.00     0.060 A 
ATOM     37  C   UNL     1       7.326  -7.395  -5.091  1.00  0.00     0.016 A 
ATOM     38  C   UNL     1       8.120  -5.239  -5.874  1.00  0.00     0.016 A 
ATOM     39  C   UNL     1       6.436  -7.468  -6.163  1.00  0.00     0.010 A 
ATOM     40  C   UNL     1       7.245  -5.323  -6.961  1.00  0.00     0.010 A 
ATOM     41  C   UNL     1       6.427  -6.456  -7.130  1.00  0.00    -0.014 A 
BRANCH  41  42
ATOM     42  C   UNL     1       5.728  -6.676  -8.420  1.00  0.00     0.031 A 
ATOM     43  C   UNL     1       6.542  -7.127  -9.602  1.00  0.00     0.074 A 
ATOM     44  C   UNL     1       4.401  -6.501  -8.540  1.00  0.00     0.049 A 
ATOM     45  N   UNL     1       6.178  -7.314 -10.844  1.00  0.00    -0.248 NA
ATOM     46  C   UNL     1       7.965  -7.401  -9.344  1.00  0.00     0.031 C 
ATOM     47  C   UNL     1       3.496  -6.120  -7.459  1.00  0.00     0.029 A 
ATOM     48  N   UNL     1       3.586  -6.612  -9.640  1.00  0.00    -0.354 N 
ATOM     49  C   UNL     1       7.326  -7.716 -11.515  1.00  0.00     0.074 A 
ATOM     50  C   UNL     1       8.405  -7.715 -10.552  1.00  0.00     0.031 C 
ATOM     51  C   UNL     1       2.250  -6.013  -7.952  1.00  0.00     0.029 A 
ATOM     52  C   UNL     1       2.277  -6.279  -9.390  1.00  0.00     0.049 A 
ATOM     53  H   UNL     1       3.909  -6.903 -10.523  1.00  0.00     0.167 HD
ATOM     54  C   UNL     1       7.466  -8.062 -12.817  1.00  0.00     0.037 A 
ATOM     55  C   UNL     1       1.232  -6.173 -10.235  1.00  0.00     0.037 A 
ATOM     56  C   UNL     1       6.390  -8.059 -13.772  1.00  0.00     0.049 A 
ATOM     57  C   UNL     1       1.433  -6.476 -11.700  1.00  0.00     0.074 A 
ATOM     58  C   UNL     1       6.424  -8.403 -15.112  1.00  0.00     0.029 A 
ATOM     59  N   UNL     1       5.085  -7.680 -13.490  1.00  0.00    -0.354 N 
ATOM     60  N   UNL     1       2.515  -6.874 -12.326  1.00  0.00    -0.248 NA
ATOM     61  C   UNL     1       0.264  -6.316 -12.577  1.00  0.00     0.031 C 
ATOM     62  C   UNL     1       5.157  -8.171 -15.655  1.00  0.00     0.029 A 
ATOM     63  C   UNL     1       4.313  -7.753 -14.638  1.00  0.00     0.049 A 
ATOM     64  H   UNL     1       4.757  -7.401 -12.604  1.00  0.00     0.167 HD
ATOM     65  C   UNL     1       2.149  -7.046 -13.656  1.00  0.00     0.074 A 
ATOM     66  C   UNL     1       0.741  -6.721 -13.745  1.00  0.00     0.031 C 
ATOM     67  C   UNL     1       2.908  -7.440 -14.709  1.00  0.00     0.037 A 
BRANCH  54  68
ATOM     68  C   UNL     1       8.839  -8.442 -13.292  1.00  0.00     0.064 A 
ATOM     69  C   UNL     1       9.463  -9.630 -12.884  1.00  0.00     0.173 A 
ATOM     70  C   UNL     1       9.528  -7.617 -14.194  1.00  0.00     0.173 A 
ATOM     71  F   UNL     1       8.856 -10.447 -12.010  1.00  0.00    -0.203 F 
ATOM     72  C   UNL     1      10.736  -9.965 -13.340  1.00  0.00     0.198 A 
ATOM     73  C   UNL     1      10.786  -7.971 -14.675  1.00  0.00     0.198 A 
ATOM     74  F   UNL     1       8.978  -6.470 -14.619  1.00  0.00    -0.203 F 
ATOM     75  F   UNL     1      11.334 -11.079 -12.895  1.00  0.00    -0.200 F 
ATOM     76  C   UNL     1      11.393  -9.140 -14.241  1.00  0.00     0.200 A 
ATOM     77  F   UNL     1      11.412  -7.179 -15.557  1.00  0.00    -0.200 F 
ATOM     78  F   UNL     1      12.613  -9.467 -14.686  1.00  0.00    -0.200 F 
ENDBRANCH  54  68
BRANCH  55  79
ATOM     79  C   UNL     1      -0.099  -5.741  -9.729  1.00  0.00     0.064 A 
ATOM     80  C   UNL     1      -1.200  -6.609  -9.751  1.00  0.00     0.173 A 
ATOM     81  C   UNL     1      -0.307  -4.441  -9.245  1.00  0.00     0.173 A 
ATOM     82  F   UNL     1      -1.061  -7.854 -10.229  1.00  0.00    -0.203 F 
ATOM     83  C   UNL     1      -2.461  -6.186  -9.333  1.00  0.00     0.198 A 
ATOM     84  C   UNL     1      -1.560  -4.029  -8.796  1.00  0.00     0.198 A 
ATOM     85  F   UNL     1       0.710  -3.567  -9.206  1.00  0.00    -0.203 F 
ATOM     86  F   UNL     1      -3.507  -7.019  -9.420  1.00  0.00    -0.200 F 
ATOM     87  C   UNL     1      -2.638  -4.898  -8.850  1.00  0.00     0.200 A 
ATOM     88  F   UNL     1      -1.723  -2.788  -8.318  1.00  0.00    -0.200 F 
ATOM     89  F   UNL     1      -3.850  -4.492  -8.448  1.00  0.00    -0.200 F 
ENDBRANCH  55  79
BRANCH  67  90
ATOM     90  C   UNL     1       2.227  -7.594 -16.040  1.00  0.00     0.064 A 
ATOM     91  C   UNL     1       1.769  -6.490 -16.773  1.00  0.00     0.173 A 
ATOM     92  C   UNL     1       2.077  -8.868 -16.613  1.00  0.00     0.173 A 
ATOM     93  F   UNL     1       1.877  -5.252 -16.268  1.00  0.00    -0.203 F 
ATOM     94  C   UNL     1       1.160  -6.657 -18.015  1.00  0.00     0.198 A 
ATOM     95  C   UNL     1       1.501  -9.027 -17.870  1.00  0.00     0.198 A 
ATOM     96  F   UNL     1       2.507  -9.958 -15.961  1.00  0.00    -0.203 F 
ATOM     97  F   UNL     1       0.682  -5.591 -18.673  1.00  0.00    -0.200 F 
ATOM     98  C   UNL     1       1.035  -7.923 -18.566  1.00  0.00     0.200 A 
ATOM     99  F   UNL     1       1.400 -10.250 -18.409  1.00  0.00    -0.200 F 
ATOM    100  F   UNL     1       0.459  -8.080 -19.766  1.00  0.00    -0.200 F 
ENDBRANCH  67  90
ENDBRANCH  41  42
ENDBRANCH  34  36
ENDBRANCH  33  34
ENDBRANCH  32  33
ENDBRANCH  31  32
ENDBRANCH  30  31
ENDBRANCH  29  30
ENDBRANCH  28  29
ENDBRANCH  27  28
ENDBRANCH   1  27
TORSDOF 23
