REMARK SMILES CS(=O)(=O)c1ccc(/C=C(/C(=O)OCCOCCOCCOCCOC(=O)c2ccc(-c3c4nc(c(-c5c(F)c(F)c(F)c(F)c5F)c5ccc([nH]5)c(-c5c(F)c(F)c(F)c(F)c5F)c5nc(c(-c6c(F)c(F)c(F)c(F)c6F)c6ccc3[nH]6)C=C5)C=C4)cc2)c2ccc(-c3ccc(F)cc3F)cc2)cc1
REMARK SMILES IDX 19 1 18 2 17 3 16 4 15 5 14 6 13 7 11 8 12 9 10 10 9 11 8 12
REMARK SMILES IDX 5 13 6 14 106 15 7 16 105 17 2 18 1 19 3 20 4 21 91 22 92 23
REMARK SMILES IDX 104 24 93 25 103 26 94 27 95 28 96 29 101 30 97 31 100 32
REMARK SMILES IDX 102 33 98 34 99 35 20 36 21 37 22 38 23 39 24 40 25 41 26 42
REMARK SMILES IDX 27 43 28 44 29 45 90 46 30 47 89 48 31 49 32 50 33 51 83 52
REMARK SMILES IDX 34 53 88 54 82 55 84 56 35 57 87 58 81 59 80 60 36 62 68 63
REMARK SMILES IDX 48 64 67 65 49 66 52 67 66 68 85 69 50 70 51 71 65 73 86 74
REMARK SMILES IDX 53 75 37 76 38 77 46 78 39 79 40 80 44 81 47 82 41 83 42 84
REMARK SMILES IDX 45 85 43 86 69 87 70 88 78 89 71 90 72 91 76 92 79 93 73 94
REMARK SMILES IDX 74 95 77 96 75 97 54 98 55 99 63 100 56 101 57 102 61 103
REMARK SMILES IDX 64 104 58 105 59 106 62 107 60 108
REMARK H PARENT 84 61 52 72
REMARK Flexibility Score: inf
ROOT
ATOM      1  O   UNL     1       5.541  -3.953  -7.892  1.00  0.00    -0.377 OA
ENDROOT
BRANCH   1   2
ATOM      2  C   UNL     1       4.787  -5.050  -7.402  1.00  0.00     0.188 C 
BRANCH   2   3
ATOM      3  C   UNL     1       4.042  -5.965  -8.401  1.00  0.00     0.188 C 
BRANCH   3   4
ATOM      4  O   UNL     1       4.262  -5.635  -9.764  1.00  0.00    -0.376 OA
BRANCH   4   5
ATOM      5  C   UNL     1       3.166  -5.077 -10.467  1.00  0.00     0.202 C 
BRANCH   5   6
ATOM      6  C   UNL     1       2.694  -3.685 -10.018  1.00  0.00     0.261 C 
BRANCH   6   7
ATOM      7  O   UNL     1       2.531  -3.508  -8.600  1.00  0.00    -0.460 OA
BRANCH   7   8
ATOM      8  C   UNL     1       1.441  -4.078  -8.034  1.00  0.00     0.338 C 
ATOM      9  O   UNL     1       0.570  -4.678  -8.647  1.00  0.00    -0.246 OA
BRANCH   8  10
ATOM     10  C   UNL     1       1.514  -4.007  -6.532  1.00  0.00     0.067 C 
ATOM     11  C   UNL     1       2.017  -2.897  -5.939  1.00  0.00     0.024 C 
BRANCH  11  12
ATOM     12  C   UNL     1       1.968  -2.530  -4.503  1.00  0.00    -0.025 A 
ATOM     13  C   UNL     1       1.229  -1.764  -1.910  1.00  0.00     0.067 A 
ATOM     14  C   UNL     1       1.591  -3.085  -2.165  1.00  0.00     0.021 A 
ATOM     15  C   UNL     1       1.375  -0.791  -2.898  1.00  0.00     0.021 A 
ATOM     16  C   UNL     1       1.998  -3.452  -3.449  1.00  0.00     0.009 A 
ATOM     17  C   UNL     1       1.751  -1.179  -4.190  1.00  0.00     0.009 A 
BRANCH  13  18
ATOM     18  S   UNL     1       0.470  -1.379  -0.352  1.00  0.00     0.175 S 
ATOM     19  C   UNL     1       1.087   0.208   0.123  1.00  0.00     0.163 C 
ATOM     20  O   UNL     1       0.970  -2.337   0.617  1.00  0.00    -0.224 OA
ATOM     21  O   UNL     1      -0.951  -1.250  -0.612  1.00  0.00    -0.224 OA
ENDBRANCH  13  18
ENDBRANCH  11  12
BRANCH  10  22
ATOM     22  C   UNL     1       0.994  -5.167  -5.780  1.00  0.00    -0.011 A 
ATOM     23  C   UNL     1       1.794  -6.304  -5.595  1.00  0.00     0.009 A 
ATOM     24  C   UNL     1      -0.262  -5.132  -5.181  1.00  0.00     0.009 A 
ATOM     25  C   UNL     1       1.335  -7.403  -4.869  1.00  0.00     0.009 A 
ATOM     26  C   UNL     1      -0.708  -6.224  -4.427  1.00  0.00     0.009 A 
ATOM     27  C   UNL     1       0.065  -7.392  -4.280  1.00  0.00    -0.015 A 
BRANCH  27  28
ATOM     28  C   UNL     1      -0.453  -8.581  -3.576  1.00  0.00     0.018 A 
ATOM     29  C   UNL     1       0.371  -9.366  -2.744  1.00  0.00     0.015 A 
ATOM     30  C   UNL     1      -1.785  -9.004  -3.746  1.00  0.00     0.133 A 
ATOM     31  C   UNL     1      -0.120 -10.521  -2.128  1.00  0.00     0.040 A 
ATOM     32  C   UNL     1      -2.284 -10.145  -3.130  1.00  0.00     0.079 A 
ATOM     33  F   UNL     1      -2.617  -8.318  -4.545  1.00  0.00    -0.206 F 
ATOM     34  C   UNL     1      -1.443 -10.897  -2.329  1.00  0.00     0.126 A 
ATOM     35  F   UNL     1      -1.909 -12.007  -1.743  1.00  0.00    -0.207 F 
ENDBRANCH  27  28
ENDBRANCH  10  22
ENDBRANCH   8  10
ENDBRANCH   7   8
ENDBRANCH   6   7
ENDBRANCH   5   6
ENDBRANCH   4   5
ENDBRANCH   3   4
ENDBRANCH   2   3
ENDBRANCH   1   2
BRANCH   1  36
ATOM     36  C   UNL     1       6.376  -4.142  -9.027  1.00  0.00     0.188 C 
BRANCH  36  37
ATOM     37  C   UNL     1       7.026  -5.518  -9.306  1.00  0.00     0.188 C 
BRANCH  37  38
ATOM     38  O   UNL     1       6.840  -6.482  -8.282  1.00  0.00    -0.376 OA
BRANCH  38  39
ATOM     39  C   UNL     1       7.948  -6.798  -7.459  1.00  0.00     0.202 C 
BRANCH  39  40
ATOM     40  C   UNL     1       8.497  -5.677  -6.567  1.00  0.00     0.261 C 
BRANCH  40  41
ATOM     41  O   UNL     1       8.829  -4.448  -7.227  1.00  0.00    -0.460 OA
BRANCH  41  42
ATOM     42  C   UNL     1       9.825  -4.470  -8.136  1.00  0.00     0.338 C 
ATOM     43  O   UNL     1      10.498  -5.426  -8.482  1.00  0.00    -0.246 OA
BRANCH  42  44
ATOM     44  C   UNL     1       9.844  -3.143  -8.782  1.00  0.00     0.060 A 
ATOM     45  C   UNL     1       9.598  -3.034 -10.159  1.00  0.00     0.016 A 
ATOM     46  C   UNL     1      10.068  -2.006  -8.006  1.00  0.00     0.016 A 
ATOM     47  C   UNL     1       9.603  -1.778 -10.770  1.00  0.00     0.010 A 
ATOM     48  C   UNL     1      10.102  -0.756  -8.621  1.00  0.00     0.010 A 
ATOM     49  C   UNL     1       9.905  -0.642 -10.009  1.00  0.00    -0.014 A 
BRANCH  49  50
ATOM     50  C   UNL     1      10.276   0.630 -10.670  1.00  0.00     0.031 A 
ATOM     51  C   UNL     1      11.742   0.903 -10.861  1.00  0.00     0.074 A 
ATOM     52  C   UNL     1       9.357   1.535 -11.042  1.00  0.00     0.049 A 
ATOM     53  N   UNL     1      12.345   1.999 -11.239  1.00  0.00    -0.248 NA
ATOM     54  C   UNL     1      12.652  -0.217 -10.567  1.00  0.00     0.031 C 
ATOM     55  C   UNL     1       7.910   1.360 -10.955  1.00  0.00     0.029 A 
ATOM     56  N   UNL     1       9.517   2.802 -11.546  1.00  0.00    -0.354 N 
ATOM     57  C   UNL     1      13.702   1.706 -11.206  1.00  0.00     0.074 A 
ATOM     58  C   UNL     1      13.837   0.341 -10.749  1.00  0.00     0.031 C 
ATOM     59  C   UNL     1       7.312   2.493 -11.366  1.00  0.00     0.029 A 
ATOM     60  C   UNL     1       8.335   3.484 -11.698  1.00  0.00     0.049 A 
ATOM     61  H   UNL     1      10.395   3.185 -11.775  1.00  0.00     0.167 HD
ATOM     62  C   UNL     1      14.743   2.507 -11.529  1.00  0.00     0.037 A 
ATOM     63  C   UNL     1       8.117   4.772 -12.030  1.00  0.00     0.037 A 
ATOM     64  C   UNL     1      14.599   3.865 -11.977  1.00  0.00     0.049 A 
ATOM     65  C   UNL     1       9.297   5.673 -12.309  1.00  0.00     0.074 A 
ATOM     66  C   UNL     1      15.586   4.764 -12.339  1.00  0.00     0.029 A 
ATOM     67  N   UNL     1      13.385   4.523 -12.114  1.00  0.00    -0.354 N 
ATOM     68  N   UNL     1      10.578   5.394 -12.287  1.00  0.00    -0.248 NA
ATOM     69  C   UNL     1       8.999   7.070 -12.657  1.00  0.00     0.031 C 
ATOM     70  C   UNL     1      14.973   5.984 -12.639  1.00  0.00     0.029 A 
ATOM     71  C   UNL     1      13.600   5.825 -12.535  1.00  0.00     0.049 A 
ATOM     72  H   UNL     1      12.502   4.124 -11.939  1.00  0.00     0.167 HD
ATOM     73  C   UNL     1      11.233   6.561 -12.661  1.00  0.00     0.074 A 
ATOM     74  C   UNL     1      10.208   7.553 -12.904  1.00  0.00     0.031 C 
ATOM     75  C   UNL     1      12.563   6.790 -12.799  1.00  0.00     0.037 A 
BRANCH  62  76
ATOM     76  C   UNL     1      16.125   1.946 -11.370  1.00  0.00     0.064 A 
ATOM     77  C   UNL     1      16.613   0.927 -12.203  1.00  0.00     0.173 A 
ATOM     78  C   UNL     1      16.983   2.448 -10.379  1.00  0.00     0.173 A 
ATOM     79  F   UNL     1      15.827   0.397 -13.153  1.00  0.00    -0.203 F 
ATOM     80  C   UNL     1      17.895   0.413 -12.031  1.00  0.00     0.198 A 
ATOM     81  C   UNL     1      18.277   1.956 -10.233  1.00  0.00     0.198 A 
ATOM     82  F   UNL     1      16.567   3.422  -9.555  1.00  0.00    -0.203 F 
ATOM     83  F   UNL     1      18.319  -0.599 -12.801  1.00  0.00    -0.200 F 
ATOM     84  C   UNL     1      18.729   0.934 -11.053  1.00  0.00     0.200 A 
ATOM     85  F   UNL     1      19.085   2.471  -9.296  1.00  0.00    -0.200 F 
ATOM     86  F   UNL     1      19.966   0.444 -10.894  1.00  0.00    -0.200 F 
ENDBRANCH  62  76
BRANCH  63  87
ATOM     87  C   UNL     1       6.728   5.301 -12.100  1.00  0.00     0.064 A 
ATOM     88  C   UNL     1       6.172   5.711 -13.320  1.00  0.00     0.173 A 
ATOM     89  C   UNL     1       5.939   5.438 -10.947  1.00  0.00     0.173 A 
ATOM     90  F   UNL     1       6.895   5.626 -14.446  1.00  0.00    -0.203 F 
ATOM     91  C   UNL     1       4.891   6.256 -13.382  1.00  0.00     0.198 A 
ATOM     92  C   UNL     1       4.646   5.953 -11.015  1.00  0.00     0.198 A 
ATOM     93  F   UNL     1       6.422   5.065  -9.753  1.00  0.00    -0.203 F 
ATOM     94  F   UNL     1       4.406   6.690 -14.553  1.00  0.00    -0.200 F 
ATOM     95  C   UNL     1       4.127   6.372 -12.231  1.00  0.00     0.200 A 
ATOM     96  F   UNL     1       3.907   6.051  -9.902  1.00  0.00    -0.200 F 
ATOM     97  F   UNL     1       2.895   6.896 -12.291  1.00  0.00    -0.200 F 
ENDBRANCH  63  87
BRANCH  75  98
ATOM     98  C   UNL     1      12.994   8.138 -13.305  1.00  0.00     0.064 A 
ATOM     99  C   UNL     1      12.902   9.294 -12.518  1.00  0.00     0.173 A 
ATOM    100  C   UNL     1      13.576   8.254 -14.578  1.00  0.00     0.173 A 
ATOM    101  F   UNL     1      12.344   9.240 -11.299  1.00  0.00    -0.203 F 
ATOM    102  C   UNL     1      13.358  10.521 -12.995  1.00  0.00     0.198 A 
ATOM    103  C   UNL     1      14.061   9.475 -15.037  1.00  0.00     0.198 A 
ATOM    104  F   UNL     1      13.697   7.176 -15.368  1.00  0.00    -0.203 F 
ATOM    105  F   UNL     1      13.221  11.622 -12.243  1.00  0.00    -0.200 F 
ATOM    106  C   UNL     1      13.946  10.608 -14.248  1.00  0.00     0.200 A 
ATOM    107  F   UNL     1      14.647   9.551 -16.240  1.00  0.00    -0.200 F 
ATOM    108  F   UNL     1      14.400  11.787 -14.697  1.00  0.00    -0.200 F 
ENDBRANCH  75  98
ENDBRANCH  49  50
ENDBRANCH  42  44
ENDBRANCH  41  42
ENDBRANCH  40  41
ENDBRANCH  39  40
ENDBRANCH  38  39
ENDBRANCH  37  38
ENDBRANCH  36  37
ENDBRANCH   1  36
TORSDOF 24
