REMARK SMILES C#CCN(CC(=O)OCCOCCOCCOCCOC(=O)c1ccc(-c2c3nc(c(-c4c(F)c(F)c(F)c(F)c4F)c4ccc([nH]4)c(-c4c(F)c(F)c(F)c(F)c4F)c4nc(c(-c5c(F)c(F)c(F)c(F)c5F)c5ccc2[nH]5)C=C4)C=C3)cc1)S(=O)(=O)c1ccc(C(C)(C)C)cc1
REMARK SMILES IDX 13 1 12 2 11 3 10 4 9 5 8 6 6 7 7 8 5 9 4 10 3 11 2 12 1 13
REMARK SMILES IDX 86 14 87 15 88 16 89 17 90 18 98 19 91 20 97 21 92 22 93 23
REMARK SMILES IDX 94 24 95 25 96 26 14 27 15 28 16 29 17 30 18 31 19 32 20 33
REMARK SMILES IDX 21 34 22 35 23 36 24 37 85 38 25 39 84 40 26 41 27 42 28 43
REMARK SMILES IDX 78 44 29 45 83 46 77 47 79 48 30 49 82 50 76 51 75 52 31 54
REMARK SMILES IDX 63 55 43 56 62 57 44 58 47 59 61 60 80 61 45 62 46 63 60 65
REMARK SMILES IDX 81 66 48 67 32 68 33 69 41 70 34 71 35 72 39 73 42 74 36 75
REMARK SMILES IDX 37 76 40 77 38 78 64 79 65 80 73 81 66 82 67 83 71 84 74 85
REMARK SMILES IDX 68 86 69 87 72 88 70 89 49 90 50 91 58 92 51 93 52 94 56 95
REMARK SMILES IDX 59 96 53 97 54 98 57 99 55 100
REMARK H PARENT 79 53 47 64
REMARK Flexibility Score: inf
ROOT
ATOM      1  C   UNL     1      -3.510   0.473   3.468  1.00  0.00     0.188 C 
ENDROOT
BRANCH   1   2
ATOM      2  C   UNL     1      -4.972   0.554   3.908  1.00  0.00     0.188 C 
BRANCH   2   3
ATOM      3  O   UNL     1      -5.704  -0.648   4.091  1.00  0.00    -0.376 OA
BRANCH   3   4
ATOM      4  C   UNL     1      -5.548  -1.708   3.151  1.00  0.00     0.202 C 
BRANCH   4   5
ATOM      5  C   UNL     1      -5.667  -1.398   1.640  1.00  0.00     0.261 C 
BRANCH   5   6
ATOM      6  O   UNL     1      -4.641  -0.525   1.098  1.00  0.00    -0.462 OA
BRANCH   6   7
ATOM      7  C   UNL     1      -5.018   0.573   0.385  1.00  0.00     0.321 C 
ATOM      8  O   UNL     1      -6.183   0.810   0.080  1.00  0.00    -0.251 OA
BRANCH   7   9
ATOM      9  C   UNL     1      -3.867   1.527  -0.006  1.00  0.00     0.226 C 
BRANCH   9  10
ATOM     10  N   UNL     1      -2.524   1.305   0.605  1.00  0.00    -0.175 NA
BRANCH  10  11
ATOM     11  C   UNL     1      -1.877   0.062   0.058  1.00  0.00     0.192 C 
BRANCH  11  12
ATOM     12  C   UNL     1      -0.357   0.062   0.058  1.00  0.00    -0.090 C 
ATOM     13  C   UNL     1       0.947   0.062   0.058  1.00  0.00     0.005 C 
ENDBRANCH  11  12
ENDBRANCH  10  11
BRANCH  10  14
ATOM     14  S   UNL     1      -1.460   2.602   0.861  1.00  0.00     0.244 S 
ATOM     15  O   UNL     1      -0.545   2.215   1.917  1.00  0.00    -0.207 OA
ATOM     16  O   UNL     1      -0.982   2.984  -0.454  1.00  0.00    -0.207 OA
BRANCH  14  17
ATOM     17  C   UNL     1      -2.275   4.034   1.523  1.00  0.00     0.082 A 
ATOM     18  C   UNL     1      -1.861   5.271   1.027  1.00  0.00     0.022 A 
ATOM     19  C   UNL     1      -3.099   3.991   2.644  1.00  0.00     0.022 A 
ATOM     20  C   UNL     1      -2.289   6.451   1.632  1.00  0.00     0.005 A 
ATOM     21  C   UNL     1      -3.545   5.183   3.238  1.00  0.00     0.005 A 
ATOM     22  C   UNL     1      -3.158   6.437   2.738  1.00  0.00    -0.043 A 
BRANCH  22  23
ATOM     23  C   UNL     1      -3.646   7.771   3.328  1.00  0.00    -0.013 C 
ATOM     24  C   UNL     1      -2.453   8.570   3.895  1.00  0.00     0.016 C 
ATOM     25  C   UNL     1      -4.323   8.588   2.204  1.00  0.00     0.016 C 
ATOM     26  C   UNL     1      -4.679   7.616   4.464  1.00  0.00     0.016 C 
ENDBRANCH  22  23
ENDBRANCH  14  17
ENDBRANCH  10  14
ENDBRANCH   9  10
ENDBRANCH   7   9
ENDBRANCH   6   7
ENDBRANCH   5   6
ENDBRANCH   4   5
ENDBRANCH   3   4
ENDBRANCH   2   3
ENDBRANCH   1   2
BRANCH   1  27
ATOM     27  O   UNL     1      -3.017  -0.827   3.246  1.00  0.00    -0.377 OA
BRANCH  27  28
ATOM     28  C   UNL     1      -2.071  -1.317   4.178  1.00  0.00     0.188 C 
BRANCH  28  29
ATOM     29  C   UNL     1      -2.325  -0.962   5.650  1.00  0.00     0.188 C 
BRANCH  29  30
ATOM     30  O   UNL     1      -2.347   0.431   5.905  1.00  0.00    -0.376 OA
BRANCH  30  31
ATOM     31  C   UNL     1      -1.165   1.179   6.138  1.00  0.00     0.202 C 
BRANCH  31  32
ATOM     32  C   UNL     1       0.190   0.958   5.437  1.00  0.00     0.261 C 
BRANCH  32  33
ATOM     33  O   UNL     1       0.553  -0.365   5.037  1.00  0.00    -0.460 OA
BRANCH  33  34
ATOM     34  C   UNL     1       0.907  -1.247   5.984  1.00  0.00     0.338 C 
ATOM     35  O   UNL     1       0.949  -1.062   7.191  1.00  0.00    -0.246 OA
BRANCH  34  36
ATOM     36  C   UNL     1       1.058  -2.559   5.324  1.00  0.00     0.060 A 
ATOM     37  C   UNL     1       0.195  -3.599   5.689  1.00  0.00     0.016 A 
ATOM     38  C   UNL     1       2.045  -2.765   4.354  1.00  0.00     0.016 A 
ATOM     39  C   UNL     1       0.340  -4.860   5.116  1.00  0.00     0.010 A 
ATOM     40  C   UNL     1       2.207  -4.039   3.800  1.00  0.00     0.010 A 
ATOM     41  C   UNL     1       1.376  -5.098   4.205  1.00  0.00    -0.014 A 
BRANCH  41  42
ATOM     42  C   UNL     1       1.694  -6.493   3.820  1.00  0.00     0.031 A 
ATOM     43  C   UNL     1       2.802  -7.202   4.546  1.00  0.00     0.074 A 
ATOM     44  C   UNL     1       0.981  -7.129   2.875  1.00  0.00     0.049 A 
ATOM     45  N   UNL     1       3.282  -8.405   4.364  1.00  0.00    -0.248 NA
ATOM     46  C   UNL     1       3.457  -6.450   5.629  1.00  0.00     0.031 C 
ATOM     47  C   UNL     1      -0.149  -6.559   2.146  1.00  0.00     0.029 A 
ATOM     48  N   UNL     1       1.110  -8.396   2.364  1.00  0.00    -0.354 N 
ATOM     49  C   UNL     1       4.296  -8.551   5.302  1.00  0.00     0.074 A 
ATOM     50  C   UNL     1       4.383  -7.306   6.033  1.00  0.00     0.031 C 
ATOM     51  C   UNL     1      -0.605  -7.470   1.269  1.00  0.00     0.029 A 
ATOM     52  C   UNL     1       0.227  -8.670   1.350  1.00  0.00     0.049 A 
ATOM     53  H   UNL     1       1.772  -9.046   2.694  1.00  0.00     0.167 HD
ATOM     54  C   UNL     1       5.078  -9.632   5.535  1.00  0.00     0.037 A 
ATOM     55  C   UNL     1       0.127  -9.756   0.558  1.00  0.00     0.037 A 
ATOM     56  C   UNL     1       4.988 -10.864   4.796  1.00  0.00     0.049 A 
ATOM     57  C   UNL     1       1.073 -10.910   0.776  1.00  0.00     0.074 A 
ATOM     58  C   UNL     1       5.721 -12.025   4.961  1.00  0.00     0.029 A 
ATOM     59  N   UNL     1       4.115 -11.088   3.741  1.00  0.00    -0.354 N 
ATOM     60  N   UNL     1       2.013 -11.054   1.679  1.00  0.00    -0.248 NA
ATOM     61  C   UNL     1       0.944 -12.053  -0.139  1.00  0.00     0.031 C 
ATOM     62  C   UNL     1       5.340 -12.927   3.963  1.00  0.00     0.029 A 
ATOM     63  C   UNL     1       4.319 -12.355   3.219  1.00  0.00     0.049 A 
ATOM     64  H   UNL     1       3.449 -10.442   3.412  1.00  0.00     0.167 HD
ATOM     65  C   UNL     1       2.569 -12.308   1.459  1.00  0.00     0.074 A 
ATOM     66  C   UNL     1       1.845 -12.893   0.349  1.00  0.00     0.031 C 
ATOM     67  C   UNL     1       3.588 -12.920   2.112  1.00  0.00     0.037 A 
BRANCH  54  68
ATOM     68  C   UNL     1       6.127  -9.514   6.604  1.00  0.00     0.064 A 
ATOM     69  C   UNL     1       5.795  -9.438   7.965  1.00  0.00     0.173 A 
ATOM     70  C   UNL     1       7.488  -9.507   6.262  1.00  0.00     0.173 A 
ATOM     71  F   UNL     1       4.508  -9.426   8.347  1.00  0.00    -0.203 F 
ATOM     72  C   UNL     1       6.784  -9.332   8.940  1.00  0.00     0.198 A 
ATOM     73  C   UNL     1       8.475  -9.434   7.241  1.00  0.00     0.198 A 
ATOM     74  F   UNL     1       7.863  -9.580   4.976  1.00  0.00    -0.203 F 
ATOM     75  F   UNL     1       6.441  -9.209  10.230  1.00  0.00    -0.200 F 
ATOM     76  C   UNL     1       8.123  -9.338   8.578  1.00  0.00     0.200 A 
ATOM     77  F   UNL     1       9.768  -9.455   6.889  1.00  0.00    -0.200 F 
ATOM     78  F   UNL     1       9.074  -9.245   9.518  1.00  0.00    -0.200 F 
ENDBRANCH  54  68
BRANCH  55  79
ATOM     79  C   UNL     1      -0.887  -9.795  -0.529  1.00  0.00     0.064 A 
ATOM     80  C   UNL     1      -1.949 -10.709  -0.500  1.00  0.00     0.173 A 
ATOM     81  C   UNL     1      -0.801  -8.933  -1.634  1.00  0.00     0.173 A 
ATOM     82  F   UNL     1      -2.062 -11.572   0.520  1.00  0.00    -0.203 F 
ATOM     83  C   UNL     1      -2.874 -10.773  -1.541  1.00  0.00     0.198 A 
ATOM     84  C   UNL     1      -1.745  -8.976  -2.658  1.00  0.00     0.198 A 
ATOM     85  F   UNL     1       0.197  -8.041  -1.715  1.00  0.00    -0.203 F 
ATOM     86  F   UNL     1      -3.849 -11.692  -1.512  1.00  0.00    -0.200 F 
ATOM     87  C   UNL     1      -2.775  -9.902  -2.616  1.00  0.00     0.200 A 
ATOM     88  F   UNL     1      -1.653  -8.121  -3.686  1.00  0.00    -0.200 F 
ATOM     89  F   UNL     1      -3.667  -9.961  -3.614  1.00  0.00    -0.200 F 
ENDBRANCH  55  79
BRANCH  67  90
ATOM     90  C   UNL     1       3.964 -14.304   1.661  1.00  0.00     0.064 A 
ATOM     91  C   UNL     1       4.590 -14.534   0.427  1.00  0.00     0.173 A 
ATOM     92  C   UNL     1       3.731 -15.411   2.493  1.00  0.00     0.173 A 
ATOM     93  F   UNL     1       4.823 -13.513  -0.412  1.00  0.00    -0.203 F 
ATOM     94  C   UNL     1       4.939 -15.822   0.029  1.00  0.00     0.198 A 
ATOM     95  C   UNL     1       4.116 -16.692   2.109  1.00  0.00     0.198 A 
ATOM     96  F   UNL     1       3.144 -15.247   3.689  1.00  0.00    -0.203 F 
ATOM     97  F   UNL     1       5.485 -16.023  -1.178  1.00  0.00    -0.200 F 
ATOM     98  C   UNL     1       4.710 -16.898   0.874  1.00  0.00     0.200 A 
ATOM     99  F   UNL     1       3.910 -17.728   2.934  1.00  0.00    -0.200 F 
ATOM    100  F   UNL     1       5.056 -18.136   0.493  1.00  0.00    -0.200 F 
ENDBRANCH  67  90
ENDBRANCH  41  42
ENDBRANCH  34  36
ENDBRANCH  33  34
ENDBRANCH  32  33
ENDBRANCH  31  32
ENDBRANCH  30  31
ENDBRANCH  29  30
ENDBRANCH  28  29
ENDBRANCH  27  28
ENDBRANCH   1  27
TORSDOF 26
