REMARK SMILES Cc1ccccc1NC(=S)NN1C(=O)CS[C@H]1c1ccccc1C(=O)OCCOCCOCCOCCOC(=O)c1ccc(-c2c3nc(c(-c4c(F)c(F)c(F)c(F)c4F)c4ccc([nH]4)c(-c4c(F)c(F)c(F)c(F)c4F)c4nc(c(-c5c(F)c(F)c(F)c(F)c5F)c5ccc2[nH]5)C=C4)C=C3)cc1
REMARK SMILES IDX 30 1 29 2 28 3 27 4 26 5 24 6 25 7 23 8 18 9 19 10 20 11
REMARK SMILES IDX 22 12 21 13 17 14 12 15 13 16 14 17 15 18 16 19 11 20 9 22
REMARK SMILES IDX 10 23 8 24 7 26 1 27 2 28 3 29 4 30 6 31 5 32 31 33 32 34
REMARK SMILES IDX 33 35 34 36 35 37 36 38 37 39 38 40 39 41 40 42 41 43 42 44
REMARK SMILES IDX 103 45 43 46 102 47 44 48 45 49 46 50 96 51 47 52 101 53
REMARK SMILES IDX 95 54 97 55 48 56 100 57 94 58 93 59 49 61 81 62 61 63 80 64
REMARK SMILES IDX 62 65 65 66 79 67 98 68 63 69 64 70 78 72 99 73 66 74 50 75
REMARK SMILES IDX 51 76 59 77 52 78 53 79 57 80 60 81 54 82 55 83 58 84 56 85
REMARK SMILES IDX 82 86 83 87 91 88 84 89 85 90 89 91 92 92 86 93 87 94 90 95
REMARK SMILES IDX 88 96 67 97 68 98 76 99 69 100 70 101 74 102 77 103 71 104
REMARK SMILES IDX 72 105 75 106 73 107
REMARK H PARENT 11 21 8 25 97 60 65 71
REMARK Flexibility Score: inf
ROOT
ATOM      1  C   UNL     1      -2.274   6.128  -2.419  1.00  0.00     0.188 C 
ENDROOT
BRANCH   1   2
ATOM      2  O   UNL     1      -2.275   5.435  -1.192  1.00  0.00    -0.376 OA
BRANCH   2   3
ATOM      3  C   UNL     1      -1.400   4.281  -1.013  1.00  0.00     0.202 C 
BRANCH   3   4
ATOM      4  C   UNL     1      -1.720   3.106   0.359  1.00  0.00     0.261 C 
BRANCH   4   5
ATOM      5  O   UNL     1      -2.208   3.447   2.136  1.00  0.00    -0.460 OA
BRANCH   5   6
ATOM      6  C   UNL     1      -3.075   4.539   2.983  1.00  0.00     0.338 C 
ATOM      7  O   UNL     1      -3.135   4.416   4.209  1.00  0.00    -0.246 OA
BRANCH   6   8
ATOM      8  C   UNL     1      -4.194   5.716   2.379  1.00  0.00     0.066 A 
ATOM      9  C   UNL     1      -5.338   5.220   1.721  1.00  0.00     0.001 A 
ATOM     10  C   UNL     1      -6.255   5.943   0.925  1.00  0.00     0.008 A 
ATOM     11  C   UNL     1      -5.946   7.230   0.586  1.00  0.00     0.000 A 
ATOM     12  C   UNL     1      -3.987   7.081   2.112  1.00  0.00     0.016 A 
ATOM     13  C   UNL     1      -4.813   7.795   1.171  1.00  0.00     0.001 A 
BRANCH   9  14
ATOM     14  C   UNL     1      -5.306   3.796   1.473  1.00  0.00     0.197 C 
ATOM     15  N   UNL     1      -4.035   3.474   0.866  1.00  0.00    -0.236 N 
ATOM     16  C   UNL     1      -3.959   2.023   1.115  1.00  0.00     0.252 C 
ATOM     17  O   UNL     1      -3.843   1.167   0.230  1.00  0.00    -0.272 OA
ATOM     18  C   UNL     1      -4.461   1.613   2.501  1.00  0.00     0.174 C 
ATOM     19  S   UNL     1      -5.715   2.806   2.916  1.00  0.00    -0.120 SA
BRANCH  15  20
ATOM     20  N   UNL     1      -2.734   4.802   0.790  1.00  0.00    -0.270 N 
ATOM     21  H   UNL     1      -3.093   5.592   0.325  1.00  0.00     0.191 HD
BRANCH  20  22
ATOM     22  C   UNL     1      -1.079   5.103   1.276  1.00  0.00     0.189 C 
ATOM     23  S   UNL     1      -0.711   6.801   1.151  1.00  0.00    -0.039 S 
BRANCH  22  24
ATOM     24  N   UNL     1       0.234   4.050   1.367  1.00  0.00    -0.331 N 
ATOM     25  H   UNL     1       0.919   4.751   1.278  1.00  0.00     0.169 HD
BRANCH  24  26
ATOM     26  C   UNL     1       1.403   2.694   1.494  1.00  0.00     0.043 A 
ATOM     27  C   UNL     1       4.035   3.067   0.603  1.00  0.00     0.046 C 
ATOM     28  C   UNL     1       2.894   2.433   1.409  1.00  0.00    -0.028 A 
ATOM     29  C   UNL     1       3.574   1.134   1.790  1.00  0.00     0.005 A 
ATOM     30  C   UNL     1       2.929  -0.025   2.064  1.00  0.00     0.000 A 
ATOM     31  C   UNL     1       0.996   1.433   1.762  1.00  0.00     0.026 A 
ATOM     32  C   UNL     1       1.603   0.126   1.976  1.00  0.00     0.002 A 
ENDBRANCH  24  26
ENDBRANCH  22  24
ENDBRANCH  20  22
ENDBRANCH  15  20
ENDBRANCH   9  14
ENDBRANCH   6   8
ENDBRANCH   5   6
ENDBRANCH   4   5
ENDBRANCH   3   4
ENDBRANCH   2   3
ENDBRANCH   1   2
BRANCH   1  33
ATOM     33  C   UNL     1      -3.459   5.564  -3.192  1.00  0.00     0.188 C 
BRANCH  33  34
ATOM     34  O   UNL     1      -3.243   5.404  -4.583  1.00  0.00    -0.377 OA
BRANCH  34  35
ATOM     35  C   UNL     1      -2.479   4.247  -4.907  1.00  0.00     0.188 C 
BRANCH  35  36
ATOM     36  C   UNL     1      -0.982   4.509  -4.843  1.00  0.00     0.188 C 
BRANCH  36  37
ATOM     37  O   UNL     1      -0.549   5.772  -5.327  1.00  0.00    -0.376 OA
BRANCH  37  38
ATOM     38  C   UNL     1      -0.843   6.054  -6.691  1.00  0.00     0.202 C 
BRANCH  38  39
ATOM     39  C   UNL     1      -0.288   5.020  -7.684  1.00  0.00     0.261 C 
BRANCH  39  40
ATOM     40  O   UNL     1       1.140   4.932  -7.523  1.00  0.00    -0.460 OA
BRANCH  40  41
ATOM     41  C   UNL     1       1.616   3.684  -7.255  1.00  0.00     0.338 C 
ATOM     42  O   UNL     1       1.270   2.660  -7.807  1.00  0.00    -0.246 OA
BRANCH  41  43
ATOM     43  C   UNL     1       2.329   3.716  -5.943  1.00  0.00     0.060 A 
ATOM     44  C   UNL     1       2.567   2.497  -5.303  1.00  0.00     0.016 A 
ATOM     45  C   UNL     1       2.317   4.903  -5.205  1.00  0.00     0.016 A 
ATOM     46  C   UNL     1       2.560   2.461  -3.914  1.00  0.00     0.010 A 
ATOM     47  C   UNL     1       2.130   4.836  -3.836  1.00  0.00     0.010 A 
ATOM     48  C   UNL     1       2.176   3.610  -3.187  1.00  0.00    -0.014 A 
BRANCH  48  49
ATOM     49  C   UNL     1       1.713   3.480  -1.778  1.00  0.00     0.031 A 
ATOM     50  C   UNL     1       2.306   4.680  -0.748  1.00  0.00     0.074 A 
ATOM     51  C   UNL     1       0.893   2.347  -1.662  1.00  0.00     0.049 A 
ATOM     52  N   UNL     1       2.092   4.883   0.528  1.00  0.00    -0.248 NA
ATOM     53  C   UNL     1       3.225   5.754  -1.157  1.00  0.00     0.031 C 
ATOM     54  C   UNL     1      -0.190   1.960  -2.623  1.00  0.00     0.029 A 
ATOM     55  N   UNL     1       0.629   1.389  -0.705  1.00  0.00    -0.354 N 
ATOM     56  C   UNL     1       2.691   5.983   1.125  1.00  0.00     0.074 A 
ATOM     57  C   UNL     1       3.418   6.480  -0.033  1.00  0.00     0.031 C 
ATOM     58  C   UNL     1      -1.102   1.149  -2.031  1.00  0.00     0.029 A 
ATOM     59  C   UNL     1      -0.621   0.738  -0.712  1.00  0.00     0.049 A 
ATOM     60  H   UNL     1       1.305   1.163  -0.026  1.00  0.00     0.167 HD
ATOM     61  C   UNL     1       2.419   6.385   2.451  1.00  0.00     0.037 A 
ATOM     62  C   UNL     1      -1.208  -0.200   0.145  1.00  0.00     0.037 A 
ATOM     63  C   UNL     1       1.509   5.477   3.393  1.00  0.00     0.049 A 
ATOM     64  C   UNL     1      -1.348  -0.023   1.886  1.00  0.00     0.074 A 
ATOM     65  C   UNL     1       0.346   5.793   4.102  1.00  0.00     0.029 A 
ATOM     66  N   UNL     1       1.625   4.076   3.728  1.00  0.00    -0.354 N 
ATOM     67  N   UNL     1      -1.412   1.141   2.575  1.00  0.00    -0.248 NA
ATOM     68  C   UNL     1      -1.232  -1.084   2.901  1.00  0.00     0.031 C 
ATOM     69  C   UNL     1      -0.339   4.618   4.516  1.00  0.00     0.029 A 
ATOM     70  C   UNL     1       0.344   3.475   4.137  1.00  0.00     0.049 A 
ATOM     71  H   UNL     1       2.472   3.575   3.687  1.00  0.00     0.167 HD
ATOM     72  C   UNL     1      -0.751   1.048   3.855  1.00  0.00     0.074 A 
ATOM     73  C   UNL     1      -0.932  -0.407   4.048  1.00  0.00     0.031 C 
ATOM     74  C   UNL     1       0.077   2.007   4.571  1.00  0.00     0.037 A 
BRANCH  61  75
ATOM     75  C   UNL     1       2.515   7.942   2.823  1.00  0.00     0.064 A 
ATOM     76  C   UNL     1       1.935   8.449   4.013  1.00  0.00     0.173 A 
ATOM     77  C   UNL     1       2.926   8.985   1.964  1.00  0.00     0.173 A 
ATOM     78  F   UNL     1       1.802   7.675   5.099  1.00  0.00    -0.203 F 
ATOM     79  C   UNL     1       1.517   9.786   4.168  1.00  0.00     0.198 A 
ATOM     80  C   UNL     1       2.552  10.330   2.127  1.00  0.00     0.198 A 
ATOM     81  F   UNL     1       3.808   8.795   0.987  1.00  0.00    -0.203 F 
ATOM     82  F   UNL     1       0.855  10.160   5.274  1.00  0.00    -0.200 F 
ATOM     83  C   UNL     1       1.786  10.721   3.197  1.00  0.00     0.200 A 
ATOM     84  F   UNL     1       2.964  11.243   1.234  1.00  0.00    -0.200 F 
ATOM     85  F   UNL     1       1.389  11.995   3.327  1.00  0.00    -0.200 F 
ENDBRANCH  61  75
BRANCH  62  86
ATOM     86  C   UNL     1      -1.048  -1.506  -0.710  1.00  0.00     0.064 A 
ATOM     87  C   UNL     1      -1.999  -1.686  -1.747  1.00  0.00     0.173 A 
ATOM     88  C   UNL     1       0.294  -1.810  -1.098  1.00  0.00     0.173 A 
ATOM     89  F   UNL     1      -3.297  -1.467  -1.496  1.00  0.00    -0.203 F 
ATOM     90  C   UNL     1      -1.608  -1.805  -3.102  1.00  0.00     0.198 A 
ATOM     91  C   UNL     1       0.682  -1.887  -2.451  1.00  0.00     0.198 A 
ATOM     92  F   UNL     1       1.279  -1.744  -0.193  1.00  0.00    -0.203 F 
ATOM     93  F   UNL     1      -2.530  -1.707  -4.072  1.00  0.00    -0.200 F 
ATOM     94  C   UNL     1      -0.267  -1.827  -3.454  1.00  0.00     0.200 A 
ATOM     95  F   UNL     1       1.985  -1.862  -2.776  1.00  0.00    -0.200 F 
ATOM     96  F   UNL     1       0.107  -1.706  -4.738  1.00  0.00    -0.200 F 
ENDBRANCH  62  86
BRANCH  74  97
ATOM     97  C   UNL     1       0.783   1.758   5.957  1.00  0.00     0.064 A 
ATOM     98  C   UNL     1       1.270   0.530   6.418  1.00  0.00     0.173 A 
ATOM     99  C   UNL     1       1.095   2.851   6.840  1.00  0.00     0.173 A 
ATOM    100  F   UNL     1       1.202  -0.575   5.668  1.00  0.00    -0.203 F 
ATOM    101  C   UNL     1       1.920   0.397   7.665  1.00  0.00     0.198 A 
ATOM    102  C   UNL     1       1.798   2.728   8.037  1.00  0.00     0.198 A 
ATOM    103  F   UNL     1       0.747   4.117   6.598  1.00  0.00    -0.203 F 
ATOM    104  F   UNL     1       2.312  -0.816   8.079  1.00  0.00    -0.200 F 
ATOM    105  C   UNL     1       2.190   1.492   8.467  1.00  0.00     0.200 A 
ATOM    106  F   UNL     1       2.092   3.824   8.754  1.00  0.00    -0.200 F 
ATOM    107  F   UNL     1       2.838   1.360   9.632  1.00  0.00    -0.200 F 
ENDBRANCH  74  97
ENDBRANCH  48  49
ENDBRANCH  41  43
ENDBRANCH  40  41
ENDBRANCH  39  40
ENDBRANCH  38  39
ENDBRANCH  37  38
ENDBRANCH  36  37
ENDBRANCH  35  36
ENDBRANCH  34  35
ENDBRANCH  33  34
ENDBRANCH   1  33
TORSDOF 25
