REMARK SMILES CCc1cc(/C=C/C(=O)OCCOCCOCCOCCOC(=O)c2ccc(-c3c4nc(c(-c5c(F)c(F)c(F)c(F)c5F)c5ccc([nH]5)c(-c5c(F)c(F)c(F)c(F)c5F)c5nc(c(-c6c(F)c(F)c(F)c(F)c6F)c6ccc3[nH]6)C=C5)C=C4)cc2)cc(C(=O)c2ccccc2)c1
REMARK SMILES IDX 15 1 14 2 13 3 12 4 11 5 10 6 8 7 9 8 7 9 6 10 5 11 3 12
REMARK SMILES IDX 4 13 98 14 89 15 88 16 2 17 1 18 90 19 91 20 92 21 93 22
REMARK SMILES IDX 97 23 94 24 96 25 95 26 16 27 17 28 18 29 19 30 20 31 21 32
REMARK SMILES IDX 22 33 23 34 24 35 25 36 26 37 87 38 27 39 86 40 28 41 29 42
REMARK SMILES IDX 30 43 80 44 31 45 85 46 79 47 81 48 32 49 84 50 78 51 77 52
REMARK SMILES IDX 33 54 65 55 45 56 64 57 46 58 49 59 63 60 82 61 47 62 48 63
REMARK SMILES IDX 62 65 83 66 50 67 34 68 35 69 43 70 36 71 37 72 41 73 44 74
REMARK SMILES IDX 38 75 39 76 42 77 40 78 66 79 67 80 75 81 68 82 69 83 73 84
REMARK SMILES IDX 76 85 70 86 71 87 74 88 72 89 51 90 52 91 60 92 53 93 54 94
REMARK SMILES IDX 58 95 61 96 55 97 56 98 59 99 57 100
REMARK H PARENT 81 53 49 64
REMARK Flexibility Score: inf
ROOT
ATOM      1  C   UNL     1       1.518  -6.028  -0.527  1.00  0.00     0.188 C 
ENDROOT
BRANCH   1   2
ATOM      2  C   UNL     1       0.153  -6.625  -0.130  1.00  0.00     0.188 C 
BRANCH   2   3
ATOM      3  O   UNL     1       0.036  -8.018  -0.377  1.00  0.00    -0.376 OA
BRANCH   3   4
ATOM      4  C   UNL     1      -0.907  -8.439  -1.347  1.00  0.00     0.202 C 
BRANCH   4   5
ATOM      5  C   UNL     1      -0.586  -8.087  -2.806  1.00  0.00     0.261 C 
BRANCH   5   6
ATOM      6  O   UNL     1      -0.270  -6.708  -3.042  1.00  0.00    -0.460 OA
BRANCH   6   7
ATOM      7  C   UNL     1      -1.300  -5.837  -2.996  1.00  0.00     0.330 C 
ATOM      8  O   UNL     1      -2.472  -6.120  -2.800  1.00  0.00    -0.247 OA
BRANCH   7   9
ATOM      9  C   UNL     1      -0.817  -4.439  -3.043  1.00  0.00     0.094 C 
ATOM     10  C   UNL     1       0.402  -4.064  -3.468  1.00  0.00     0.015 C 
BRANCH  10  11
ATOM     11  C   UNL     1       0.895  -2.676  -3.425  1.00  0.00    -0.024 A 
ATOM     12  C   UNL     1       0.966  -0.457  -2.398  1.00  0.00    -0.047 A 
ATOM     13  C   UNL     1       0.505  -1.782  -2.417  1.00  0.00     0.011 A 
ATOM     14  C   UNL     1       1.844  -0.029  -3.402  1.00  0.00     0.016 A 
ATOM     15  C   UNL     1       2.297  -0.920  -4.383  1.00  0.00     0.023 A 
ATOM     16  C   UNL     1       1.820  -2.242  -4.383  1.00  0.00     0.020 A 
BRANCH  12  17
ATOM     17  C   UNL     1       0.508   0.497  -1.322  1.00  0.00     0.032 C 
ATOM     18  C   UNL     1       1.065   0.141   0.049  1.00  0.00     0.009 C 
ENDBRANCH  12  17
BRANCH  15  19
ATOM     19  C   UNL     1       3.225  -0.504  -5.478  1.00  0.00     0.193 C 
ATOM     20  O   UNL     1       3.443  -1.262  -6.420  1.00  0.00    -0.289 OA
BRANCH  19  21
ATOM     21  C   UNL     1       3.856   0.835  -5.506  1.00  0.00     0.022 A 
ATOM     22  C   UNL     1       3.701   1.614  -6.658  1.00  0.00     0.012 A 
ATOM     23  C   UNL     1       4.609   1.316  -4.429  1.00  0.00     0.012 A 
ATOM     24  C   UNL     1       4.255   2.893  -6.713  1.00  0.00     0.001 A 
ATOM     25  C   UNL     1       5.158   2.599  -4.488  1.00  0.00     0.001 A 
ATOM     26  C   UNL     1       4.975   3.387  -5.625  1.00  0.00     0.000 A 
ENDBRANCH  19  21
ENDBRANCH  15  19
ENDBRANCH  10  11
ENDBRANCH   7   9
ENDBRANCH   6   7
ENDBRANCH   5   6
ENDBRANCH   4   5
ENDBRANCH   3   4
ENDBRANCH   2   3
ENDBRANCH   1   2
BRANCH   1  27
ATOM     27  O   UNL     1       2.415  -6.805  -1.308  1.00  0.00    -0.377 OA
BRANCH  27  28
ATOM     28  C   UNL     1       2.676  -8.160  -0.949  1.00  0.00     0.188 C 
BRANCH  28  29
ATOM     29  C   UNL     1       2.575  -8.641   0.518  1.00  0.00     0.188 C 
BRANCH  29  30
ATOM     30  O   UNL     1       2.426  -7.601   1.470  1.00  0.00    -0.376 OA
BRANCH  30  31
ATOM     31  C   UNL     1       3.539  -7.341   2.308  1.00  0.00     0.202 C 
BRANCH  31  32
ATOM     32  C   UNL     1       4.786  -6.782   1.610  1.00  0.00     0.261 C 
BRANCH  32  33
ATOM     33  O   UNL     1       5.318  -7.579   0.538  1.00  0.00    -0.460 OA
BRANCH  33  34
ATOM     34  C   UNL     1       5.830  -8.791   0.843  1.00  0.00     0.338 C 
ATOM     35  O   UNL     1       5.903  -9.312   1.941  1.00  0.00    -0.246 OA
BRANCH  34  36
ATOM     36  C   UNL     1       6.131  -9.464  -0.438  1.00  0.00     0.060 A 
ATOM     37  C   UNL     1       5.438 -10.631  -0.790  1.00  0.00     0.016 A 
ATOM     38  C   UNL     1       7.064  -8.905  -1.313  1.00  0.00     0.016 A 
ATOM     39  C   UNL     1       5.676 -11.238  -2.026  1.00  0.00     0.010 A 
ATOM     40  C   UNL     1       7.318  -9.527  -2.536  1.00  0.00     0.010 A 
ATOM     41  C   UNL     1       6.636 -10.703  -2.895  1.00  0.00    -0.014 A 
BRANCH  41  42
ATOM     42  C   UNL     1       7.045 -11.428  -4.122  1.00  0.00     0.031 A 
ATOM     43  C   UNL     1       8.287 -12.270  -4.076  1.00  0.00     0.074 A 
ATOM     44  C   UNL     1       6.351 -11.309  -5.268  1.00  0.00     0.049 A 
ATOM     45  N   UNL     1       8.916 -12.883  -5.046  1.00  0.00    -0.248 NA
ATOM     46  C   UNL     1       8.905 -12.439  -2.752  1.00  0.00     0.031 C 
ATOM     47  C   UNL     1       5.108 -10.560  -5.429  1.00  0.00     0.029 A 
ATOM     48  N   UNL     1       6.615 -11.802  -6.522  1.00  0.00    -0.354 N 
ATOM     49  C   UNL     1      10.008 -13.501  -4.452  1.00  0.00     0.074 A 
ATOM     50  C   UNL     1       9.971 -13.169  -3.044  1.00  0.00     0.031 C 
ATOM     51  C   UNL     1       4.726 -10.626  -6.716  1.00  0.00     0.029 A 
ATOM     52  C   UNL     1       5.722 -11.380  -7.476  1.00  0.00     0.049 A 
ATOM     53  H   UNL     1       7.372 -12.400  -6.719  1.00  0.00     0.167 HD
ATOM     54  C   UNL     1      10.954 -14.278  -5.030  1.00  0.00     0.037 A 
ATOM     55  C   UNL     1       5.732 -11.553  -8.813  1.00  0.00     0.037 A 
ATOM     56  C   UNL     1      10.995 -14.592  -6.434  1.00  0.00     0.049 A 
ATOM     57  C   UNL     1       6.859 -12.328  -9.452  1.00  0.00     0.074 A 
ATOM     58  C   UNL     1      11.901 -15.384  -7.115  1.00  0.00     0.029 A 
ATOM     59  N   UNL     1      10.096 -14.111  -7.376  1.00  0.00    -0.354 N 
ATOM     60  N   UNL     1       7.874 -12.934  -8.886  1.00  0.00    -0.248 NA
ATOM     61  C   UNL     1       6.844 -12.434 -10.919  1.00  0.00     0.031 C 
ATOM     62  C   UNL     1      11.589 -15.332  -8.478  1.00  0.00     0.029 A 
ATOM     63  C   UNL     1      10.451 -14.559  -8.639  1.00  0.00     0.049 A 
ATOM     64  H   UNL     1       9.322 -13.537  -7.177  1.00  0.00     0.167 HD
ATOM     65  C   UNL     1       8.601 -13.514  -9.919  1.00  0.00     0.074 A 
ATOM     66  C   UNL     1       7.903 -13.198 -11.147  1.00  0.00     0.031 C 
ATOM     67  C   UNL     1       9.743 -14.242  -9.855  1.00  0.00     0.037 A 
BRANCH  54  68
ATOM     68  C   UNL     1      12.044 -14.811  -4.146  1.00  0.00     0.064 A 
ATOM     69  C   UNL     1      11.795 -15.793  -3.175  1.00  0.00     0.173 A 
ATOM     70  C   UNL     1      13.361 -14.347  -4.286  1.00  0.00     0.173 A 
ATOM     71  F   UNL     1      10.551 -16.261  -2.991  1.00  0.00    -0.203 F 
ATOM     72  C   UNL     1      12.816 -16.265  -2.355  1.00  0.00     0.198 A 
ATOM     73  C   UNL     1      14.386 -14.845  -3.487  1.00  0.00     0.198 A 
ATOM     74  F   UNL     1      13.655 -13.412  -5.202  1.00  0.00    -0.203 F 
ATOM     75  F   UNL     1      12.544 -17.161  -1.397  1.00  0.00    -0.200 F 
ATOM     76  C   UNL     1      14.111 -15.796  -2.516  1.00  0.00     0.200 A 
ATOM     77  F   UNL     1      15.639 -14.400  -3.653  1.00  0.00    -0.200 F 
ATOM     78  F   UNL     1      15.094 -16.254  -1.728  1.00  0.00    -0.200 F 
ENDBRANCH  54  68
BRANCH  55  79
ATOM     79  C   UNL     1       4.654 -10.960  -9.649  1.00  0.00     0.064 A 
ATOM     80  C   UNL     1       3.738 -11.776 -10.328  1.00  0.00     0.173 A 
ATOM     81  C   UNL     1       4.527  -9.572  -9.803  1.00  0.00     0.173 A 
ATOM     82  F   UNL     1       3.836 -13.110 -10.239  1.00  0.00    -0.203 F 
ATOM     83  C   UNL     1       2.746 -11.226 -11.139  1.00  0.00     0.198 A 
ATOM     84  C   UNL     1       3.517  -9.022 -10.589  1.00  0.00     0.198 A 
ATOM     85  F   UNL     1       5.383  -8.746  -9.183  1.00  0.00    -0.203 F 
ATOM     86  F   UNL     1       1.913 -12.031 -11.813  1.00  0.00    -0.200 F 
ATOM     87  C   UNL     1       2.631  -9.850 -11.262  1.00  0.00     0.200 A 
ATOM     88  F   UNL     1       3.404  -7.691 -10.699  1.00  0.00    -0.200 F 
ATOM     89  F   UNL     1       1.674  -9.322 -12.038  1.00  0.00    -0.200 F 
ENDBRANCH  55  79
BRANCH  67  90
ATOM     90  C   UNL     1      10.302 -14.778 -11.143  1.00  0.00     0.064 A 
ATOM     91  C   UNL     1      10.912 -13.940 -12.087  1.00  0.00     0.173 A 
ATOM     92  C   UNL     1      10.285 -16.157 -11.404  1.00  0.00     0.173 A 
ATOM     93  F   UNL     1      10.943 -12.613 -11.893  1.00  0.00    -0.203 F 
ATOM     94  C   UNL     1      11.469 -14.461 -13.253  1.00  0.00     0.198 A 
ATOM     95  C   UNL     1      10.871 -16.678 -12.555  1.00  0.00     0.198 A 
ATOM     96  F   UNL     1       9.720 -17.005 -10.530  1.00  0.00    -0.203 F 
ATOM     97  F   UNL     1      12.012 -13.637 -14.160  1.00  0.00    -0.200 F 
ATOM     98  C   UNL     1      11.457 -15.829 -13.481  1.00  0.00     0.200 A 
ATOM     99  F   UNL     1      10.873 -18.001 -12.764  1.00  0.00    -0.200 F 
ATOM    100  F   UNL     1      12.009 -16.329 -14.595  1.00  0.00    -0.200 F 
ENDBRANCH  67  90
ENDBRANCH  41  42
ENDBRANCH  34  36
ENDBRANCH  33  34
ENDBRANCH  32  33
ENDBRANCH  31  32
ENDBRANCH  30  31
ENDBRANCH  29  30
ENDBRANCH  28  29
ENDBRANCH  27  28
ENDBRANCH   1  27
TORSDOF 24
