REMARK SMILES CC(C)CCc1cc2c(cc1Cl)C=C(C(=O)OCCOCCOCCOCCOC(=O)c1ccc(-c3c4nc(c(-c5c(F)c(F)c(F)c(F)c5F)c5ccc([nH]5)c(-c5c(F)c(F)c(F)c(F)c5F)c5nc(c(-c6c(F)c(F)c(F)c(F)c6F)c6ccc3[nH]6)C=C5)C=C4)cc1)[C@@H](C(F)(F)F)O2
REMARK SMILES IDX 22 1 21 2 20 3 19 4 18 5 17 6 15 7 16 8 14 9 6 10 7 11 11 12
REMARK SMILES IDX 8 13 10 14 12 15 9 16 100 17 13 18 95 19 5 20 4 21 2 22 1 23
REMARK SMILES IDX 3 24 96 25 97 26 98 27 99 28 23 29 24 30 25 31 26 32 27 33
REMARK SMILES IDX 28 34 29 35 30 36 31 37 32 38 33 39 94 40 34 41 93 42 35 43
REMARK SMILES IDX 36 44 37 45 87 46 38 47 92 48 86 49 88 50 39 51 91 52 85 53
REMARK SMILES IDX 84 54 40 56 72 57 52 58 71 59 53 60 56 61 70 62 89 63 54 64
REMARK SMILES IDX 55 65 69 67 90 68 57 69 41 70 42 71 50 72 43 73 44 74 48 75
REMARK SMILES IDX 51 76 45 77 46 78 49 79 47 80 73 81 74 82 82 83 75 84 76 85
REMARK SMILES IDX 80 86 83 87 77 88 78 89 81 90 79 91 58 92 59 93 67 94 60 95
REMARK SMILES IDX 61 96 65 97 68 98 62 99 63 100 66 101 64 102
REMARK H PARENT 88 55 56 66
REMARK Flexibility Score: inf
ROOT
ATOM      1  C   UNL     1       2.723  -2.950  -8.136  1.00  0.00     0.188 C 
ENDROOT
BRANCH   1   2
ATOM      2  C   UNL     1       1.943  -4.081  -8.830  1.00  0.00     0.188 C 
BRANCH   2   3
ATOM      3  O   UNL     1       2.075  -4.074 -10.251  1.00  0.00    -0.376 OA
BRANCH   3   4
ATOM      4  C   UNL     1       0.944  -3.629 -10.991  1.00  0.00     0.202 C 
BRANCH   4   5
ATOM      5  C   UNL     1       0.704  -2.113 -10.969  1.00  0.00     0.261 C 
BRANCH   5   6
ATOM      6  O   UNL     1       0.475  -1.569  -9.659  1.00  0.00    -0.460 OA
BRANCH   6   7
ATOM      7  C   UNL     1      -0.644  -1.972  -9.027  1.00  0.00     0.338 C 
ATOM      8  O   UNL     1      -1.525  -2.678  -9.485  1.00  0.00    -0.246 OA
BRANCH   7   9
ATOM      9  C   UNL     1      -0.559  -1.550  -7.614  1.00  0.00     0.087 C 
ATOM     10  C   UNL     1      -1.162  -1.188  -2.635  1.00  0.00    -0.026 A 
ATOM     11  C   UNL     1      -0.644  -0.338  -3.635  1.00  0.00     0.052 A 
ATOM     12  C   UNL     1      -1.465  -2.512  -2.994  1.00  0.00     0.045 A 
ATOM     13  C   UNL     1      -0.511  -0.768  -4.959  1.00  0.00     0.128 A 
ATOM     14  C   UNL     1      -1.296  -2.950  -4.313  1.00  0.00     0.032 A 
ATOM     15  Cl  UNL     1      -2.152  -3.652  -1.895  1.00  0.00    -0.084 Cl
ATOM     16  C   UNL     1      -0.868  -2.067  -5.304  1.00  0.00     0.019 A 
ATOM     17  O   UNL     1      -0.060   0.158  -5.856  1.00  0.00    -0.475 OA
ATOM     18  C   UNL     1      -0.889  -2.469  -6.698  1.00  0.00     0.027 C 
ATOM     19  C   UNL     1      -0.078  -0.163  -7.277  1.00  0.00     0.316 C 
BRANCH  10  20
ATOM     20  C   UNL     1      -1.484  -0.583  -1.282  1.00  0.00     0.037 C 
BRANCH  20  21
ATOM     21  C   UNL     1      -0.837  -1.199  -0.035  1.00  0.00     0.008 C 
BRANCH  21  22
ATOM     22  C   UNL     1       0.700  -1.248  -0.042  1.00  0.00    -0.017 C 
ATOM     23  C   UNL     1       1.311   0.148   0.077  1.00  0.00     0.007 C 
ATOM     24  C   UNL     1       1.185  -2.128   1.114  1.00  0.00     0.007 C 
ENDBRANCH  21  22
ENDBRANCH  20  21
ENDBRANCH  10  20
BRANCH  19  25
ATOM     25  C   UNL     1      -0.882   0.923  -8.008  1.00  0.00     0.430 C 
ATOM     26  F   UNL     1      -0.463   2.164  -7.662  1.00  0.00    -0.167 F 
ATOM     27  F   UNL     1      -0.753   0.835  -9.353  1.00  0.00    -0.167 F 
ATOM     28  F   UNL     1      -2.203   0.847  -7.726  1.00  0.00    -0.167 F 
ENDBRANCH  19  25
ENDBRANCH   7   9
ENDBRANCH   6   7
ENDBRANCH   5   6
ENDBRANCH   4   5
ENDBRANCH   3   4
ENDBRANCH   2   3
ENDBRANCH   1   2
BRANCH   1  29
ATOM     29  O   UNL     1       3.232  -1.969  -9.022  1.00  0.00    -0.377 OA
BRANCH  29  30
ATOM     30  C   UNL     1       4.370  -2.301  -9.818  1.00  0.00     0.188 C 
BRANCH  30  31
ATOM     31  C   UNL     1       4.923  -3.741  -9.928  1.00  0.00     0.188 C 
BRANCH  31  32
ATOM     32  O   UNL     1       4.933  -4.458  -8.698  1.00  0.00    -0.376 OA
BRANCH  32  33
ATOM     33  C   UNL     1       6.209  -4.745  -8.141  1.00  0.00     0.202 C 
BRANCH  33  34
ATOM     34  C   UNL     1       6.811  -3.563  -7.377  1.00  0.00     0.261 C 
BRANCH  34  35
ATOM     35  O   UNL     1       7.078  -2.400  -8.175  1.00  0.00    -0.460 OA
BRANCH  35  36
ATOM     36  C   UNL     1       7.949  -2.523  -9.201  1.00  0.00     0.338 C 
ATOM     37  O   UNL     1       8.579  -3.512  -9.528  1.00  0.00    -0.246 OA
BRANCH  36  38
ATOM     38  C   UNL     1       7.855  -1.278  -9.990  1.00  0.00     0.060 A 
ATOM     39  C   UNL     1       7.981  -0.040  -9.355  1.00  0.00     0.016 A 
ATOM     40  C   UNL     1       7.571  -1.351 -11.359  1.00  0.00     0.016 A 
ATOM     41  C   UNL     1       7.833   1.131 -10.095  1.00  0.00     0.010 A 
ATOM     42  C   UNL     1       7.413  -0.175 -12.098  1.00  0.00     0.010 A 
ATOM     43  C   UNL     1       7.559   1.072 -11.472  1.00  0.00    -0.014 A 
BRANCH  43  44
ATOM     44  C   UNL     1       7.593   2.319 -12.268  1.00  0.00     0.031 A 
ATOM     45  C   UNL     1       6.347   3.065 -12.631  1.00  0.00     0.074 A 
ATOM     46  C   UNL     1       8.799   2.789 -12.636  1.00  0.00     0.049 A 
ATOM     47  N   UNL     1       6.232   4.222 -13.233  1.00  0.00    -0.248 NA
ATOM     48  C   UNL     1       5.067   2.437 -12.276  1.00  0.00     0.031 C 
ATOM     49  C   UNL     1      10.074   2.135 -12.342  1.00  0.00     0.029 A 
ATOM     50  N   UNL     1       9.151   3.924 -13.319  1.00  0.00    -0.354 N 
ATOM     51  C   UNL     1       4.871   4.478 -13.308  1.00  0.00     0.074 A 
ATOM     52  C   UNL     1       4.197   3.332 -12.729  1.00  0.00     0.031 C 
ATOM     53  C   UNL     1      11.073   2.890 -12.822  1.00  0.00     0.029 A 
ATOM     54  C   UNL     1      10.507   4.069 -13.471  1.00  0.00     0.049 A 
ATOM     55  H   UNL     1       8.496   4.572 -13.665  1.00  0.00     0.167 HD
ATOM     56  C   UNL     1       4.250   5.579 -13.799  1.00  0.00     0.037 A 
ATOM     57  C   UNL     1      11.218   5.047 -14.062  1.00  0.00     0.037 A 
ATOM     58  C   UNL     1       4.931   6.706 -14.390  1.00  0.00     0.049 A 
ATOM     59  C   UNL     1      10.498   6.228 -14.646  1.00  0.00     0.074 A 
ATOM     60  C   UNL     1       4.386   7.879 -14.885  1.00  0.00     0.029 A 
ATOM     61  N   UNL     1       6.303   6.796 -14.578  1.00  0.00    -0.354 N 
ATOM     62  N   UNL     1       9.214   6.491 -14.653  1.00  0.00    -0.248 NA
ATOM     63  C   UNL     1      11.326   7.252 -15.296  1.00  0.00     0.031 C 
ATOM     64  C   UNL     1       5.420   8.655 -15.418  1.00  0.00     0.029 A 
ATOM     65  C   UNL     1       6.618   7.991 -15.209  1.00  0.00     0.049 A 
ATOM     66  H   UNL     1       6.956   6.113 -14.303  1.00  0.00     0.167 HD
ATOM     67  C   UNL     1       9.081   7.716 -15.290  1.00  0.00     0.074 A 
ATOM     68  C   UNL     1      10.417   8.154 -15.638  1.00  0.00     0.031 C 
ATOM     69  C   UNL     1       7.950   8.413 -15.562  1.00  0.00     0.037 A 
BRANCH  56  70
ATOM     70  C   UNL     1       2.752   5.638 -13.714  1.00  0.00     0.064 A 
ATOM     71  C   UNL     1       2.101   5.854 -12.491  1.00  0.00     0.173 A 
ATOM     72  C   UNL     1       1.966   5.579 -14.875  1.00  0.00     0.173 A 
ATOM     73  F   UNL     1       2.808   5.916 -11.352  1.00  0.00    -0.203 F 
ATOM     74  C   UNL     1       0.717   6.001 -12.431  1.00  0.00     0.198 A 
ATOM     75  C   UNL     1       0.585   5.749 -14.814  1.00  0.00     0.198 A 
ATOM     76  F   UNL     1       2.540   5.386 -16.072  1.00  0.00    -0.203 F 
ATOM     77  F   UNL     1       0.115   6.188 -11.248  1.00  0.00    -0.200 F 
ATOM     78  C   UNL     1      -0.038   5.958 -13.593  1.00  0.00     0.200 A 
ATOM     79  F   UNL     1      -0.142   5.725 -15.940  1.00  0.00    -0.200 F 
ATOM     80  F   UNL     1      -1.367   6.121 -13.537  1.00  0.00    -0.200 F 
ENDBRANCH  56  70
BRANCH  57  81
ATOM     81  C   UNL     1      12.698   4.956 -14.088  1.00  0.00     0.064 A 
ATOM     82  C   UNL     1      13.483   5.806 -13.298  1.00  0.00     0.173 A 
ATOM     83  C   UNL     1      13.355   3.995 -14.870  1.00  0.00     0.173 A 
ATOM     84  F   UNL     1      12.898   6.750 -12.546  1.00  0.00    -0.203 F 
ATOM     85  C   UNL     1      14.872   5.705 -13.296  1.00  0.00     0.198 A 
ATOM     86  C   UNL     1      14.742   3.877 -14.848  1.00  0.00     0.198 A 
ATOM     87  F   UNL     1      12.645   3.154 -15.637  1.00  0.00    -0.203 F 
ATOM     88  F   UNL     1      15.601   6.549 -12.555  1.00  0.00    -0.200 F 
ATOM     89  C   UNL     1      15.499   4.735 -14.064  1.00  0.00     0.200 A 
ATOM     90  F   UNL     1      15.343   2.929 -15.578  1.00  0.00    -0.200 F 
ATOM     91  F   UNL     1      16.835   4.629 -14.051  1.00  0.00    -0.200 F 
ENDBRANCH  57  81
BRANCH  69  92
ATOM     92  C   UNL     1       8.107   9.727 -16.270  1.00  0.00     0.064 A 
ATOM     93  C   UNL     1       8.464   9.790 -17.626  1.00  0.00     0.173 A 
ATOM     94  C   UNL     1       7.855  10.935 -15.601  1.00  0.00     0.173 A 
ATOM     95  F   UNL     1       8.731   8.666 -18.306  1.00  0.00    -0.203 F 
ATOM     96  C   UNL     1       8.584  11.015 -18.279  1.00  0.00     0.198 A 
ATOM     97  C   UNL     1       7.947  12.155 -16.265  1.00  0.00     0.198 A 
ATOM     98  F   UNL     1       7.505  10.930 -14.306  1.00  0.00    -0.203 F 
ATOM     99  F   UNL     1       8.969  11.052 -19.562  1.00  0.00    -0.200 F 
ATOM    100  C   UNL     1       8.317  12.195 -17.600  1.00  0.00     0.200 A 
ATOM    101  F   UNL     1       7.677  13.294 -15.611  1.00  0.00    -0.200 F 
ATOM    102  F   UNL     1       8.424  13.371 -18.233  1.00  0.00    -0.200 F 
ENDBRANCH  69  92
ENDBRANCH  43  44
ENDBRANCH  36  38
ENDBRANCH  35  36
ENDBRANCH  34  35
ENDBRANCH  33  34
ENDBRANCH  32  33
ENDBRANCH  31  32
ENDBRANCH  30  31
ENDBRANCH  29  30
ENDBRANCH   1  29
TORSDOF 24
