REMARK SMILES O=C(OCCOCCOCCOCCOC(=O)c1ccccc1C(=O)c1cccc(S(=O)(=O)N2CCOCC2)c1)c1ccc(-c2c3nc(c(-c4c(F)c(F)c(F)c(F)c4F)c4ccc([nH]4)c(-c4c(F)c(F)c(F)c(F)c4F)c4nc(c(-c5c(F)c(F)c(F)c(F)c5F)c5ccc2[nH]5)C=C4)C=C3)cc1
REMARK SMILES IDX 10 1 9 2 8 3 7 4 6 5 5 6 4 7 3 8 2 9 1 10 41 11 42 12 103 13
REMARK SMILES IDX 43 14 102 15 44 16 45 17 46 18 96 19 47 20 101 21 95 22
REMARK SMILES IDX 97 23 48 24 100 25 94 26 93 27 49 29 81 30 61 31 80 32 62 33
REMARK SMILES IDX 65 34 79 35 98 36 63 37 64 38 78 40 99 41 66 42 50 43 51 44
REMARK SMILES IDX 59 45 52 46 53 47 57 48 60 49 54 50 55 51 58 52 56 53 82 54
REMARK SMILES IDX 83 55 91 56 84 57 85 58 89 59 92 60 86 61 87 62 90 63 88 64
REMARK SMILES IDX 67 65 68 66 76 67 69 68 70 69 74 70 77 71 71 72 72 73 75 74
REMARK SMILES IDX 73 75 11 76 12 77 13 78 14 79 15 80 16 81 17 82 18 83 19 84
REMARK SMILES IDX 23 85 20 86 22 87 21 88 24 89 25 90 26 91 27 92 40 93 28 94
REMARK SMILES IDX 30 95 29 96 31 97 32 98 33 99 34 100 35 101 39 102 36 103
REMARK SMILES IDX 38 104 37 105
REMARK H PARENT 97 28 65 39
REMARK Flexibility Score: inf
ROOT
ATOM      1  C   UNL     1       4.285  -3.231   0.616  1.00  0.00     0.188 C 
ENDROOT
BRANCH   1   2
ATOM      2  O   UNL     1       2.908  -3.421   0.300  1.00  0.00    -0.377 OA
BRANCH   2   3
ATOM      3  C   UNL     1       2.082  -2.253   0.200  1.00  0.00     0.188 C 
BRANCH   3   4
ATOM      4  C   UNL     1       2.339  -1.161   1.243  1.00  0.00     0.188 C 
BRANCH   4   5
ATOM      5  O   UNL     1       3.554  -0.501   0.901  1.00  0.00    -0.376 OA
BRANCH   5   6
ATOM      6  C   UNL     1       4.341  -0.017   1.984  1.00  0.00     0.202 C 
BRANCH   6   7
ATOM      7  C   UNL     1       3.800   1.293   2.538  1.00  0.00     0.261 C 
BRANCH   7   8
ATOM      8  O   UNL     1       3.768   2.230   1.455  1.00  0.00    -0.460 OA
BRANCH   8   9
ATOM      9  C   UNL     1       2.593   2.272   0.777  1.00  0.00     0.338 C 
ATOM     10  O   UNL     1       1.472   2.131   1.229  1.00  0.00    -0.246 OA
BRANCH   9  11
ATOM     11  C   UNL     1       2.912   2.520  -0.639  1.00  0.00     0.060 A 
ATOM     12  C   UNL     1       3.985   1.842  -1.238  1.00  0.00     0.016 A 
ATOM     13  C   UNL     1       2.179   3.471  -1.347  1.00  0.00     0.016 A 
ATOM     14  C   UNL     1       4.418   2.207  -2.499  1.00  0.00     0.010 A 
ATOM     15  C   UNL     1       2.618   3.847  -2.614  1.00  0.00     0.010 A 
ATOM     16  C   UNL     1       3.779   3.263  -3.150  1.00  0.00    -0.014 A 
BRANCH  16  17
ATOM     17  C   UNL     1       4.508   3.953  -4.226  1.00  0.00     0.031 A 
ATOM     18  C   UNL     1       5.284   5.179  -3.849  1.00  0.00     0.074 A 
ATOM     19  C   UNL     1       4.541   3.449  -5.466  1.00  0.00     0.049 A 
ATOM     20  N   UNL     1       5.853   6.072  -4.609  1.00  0.00    -0.248 NA
ATOM     21  C   UNL     1       5.441   5.429  -2.404  1.00  0.00     0.031 C 
ATOM     22  C   UNL     1       3.940   2.183  -5.876  1.00  0.00     0.029 A 
ATOM     23  N   UNL     1       5.103   3.950  -6.607  1.00  0.00    -0.354 N 
ATOM     24  C   UNL     1       6.389   7.013  -3.739  1.00  0.00     0.074 A 
ATOM     25  C   UNL     1       6.100   6.576  -2.394  1.00  0.00     0.031 C 
ATOM     26  C   UNL     1       4.146   2.014  -7.192  1.00  0.00     0.029 A 
ATOM     27  C   UNL     1       4.828   3.195  -7.717  1.00  0.00     0.049 A 
ATOM     28  H   UNL     1       5.650   4.769  -6.630  1.00  0.00     0.167 HD
ATOM     29  C   UNL     1       7.041   8.155  -4.052  1.00  0.00     0.037 A 
ATOM     30  C   UNL     1       5.049   3.474  -9.015  1.00  0.00     0.037 A 
ATOM     31  C   UNL     1       7.307   8.553  -5.406  1.00  0.00     0.049 A 
ATOM     32  C   UNL     1       5.709   4.783  -9.356  1.00  0.00     0.074 A 
ATOM     33  C   UNL     1       7.891   9.712  -5.876  1.00  0.00     0.029 A 
ATOM     34  N   UNL     1       6.994   7.776  -6.515  1.00  0.00    -0.354 N 
ATOM     35  N   UNL     1       6.131   5.729  -8.547  1.00  0.00    -0.248 NA
ATOM     36  C   UNL     1       5.905   5.079 -10.779  1.00  0.00     0.031 C 
ATOM     37  C   UNL     1       7.900   9.650  -7.275  1.00  0.00     0.029 A 
ATOM     38  C   UNL     1       7.360   8.434  -7.673  1.00  0.00     0.049 A 
ATOM     39  H   UNL     1       6.573   6.886  -6.480  1.00  0.00     0.167 HD
ATOM     40  C   UNL     1       6.649   6.728  -9.357  1.00  0.00     0.074 A 
ATOM     41  C   UNL     1       6.497   6.266 -10.725  1.00  0.00     0.031 C 
ATOM     42  C   UNL     1       7.195   7.920  -9.011  1.00  0.00     0.037 A 
BRANCH  29  43
ATOM     43  C   UNL     1       7.400   9.064  -2.914  1.00  0.00     0.064 A 
ATOM     44  C   UNL     1       8.418   8.752  -2.001  1.00  0.00     0.173 A 
ATOM     45  C   UNL     1       6.654  10.232  -2.691  1.00  0.00     0.173 A 
ATOM     46  F   UNL     1       9.138   7.630  -2.150  1.00  0.00    -0.203 F 
ATOM     47  C   UNL     1       8.649   9.555  -0.885  1.00  0.00     0.198 A 
ATOM     48  C   UNL     1       6.905  11.045  -1.589  1.00  0.00     0.198 A 
ATOM     49  F   UNL     1       5.662  10.571  -3.528  1.00  0.00    -0.203 F 
ATOM     50  F   UNL     1       9.579   9.200   0.013  1.00  0.00    -0.200 F 
ATOM     51  C   UNL     1       7.893  10.699  -0.680  1.00  0.00     0.200 A 
ATOM     52  F   UNL     1       6.171  12.149  -1.392  1.00  0.00    -0.200 F 
ATOM     53  F   UNL     1       8.102  11.458   0.405  1.00  0.00    -0.200 F 
ENDBRANCH  29  43
BRANCH  30  54
ATOM     54  C   UNL     1       4.574   2.525 -10.053  1.00  0.00     0.064 A 
ATOM     55  C   UNL     1       5.472   1.762 -10.809  1.00  0.00     0.173 A 
ATOM     56  C   UNL     1       3.201   2.312 -10.260  1.00  0.00     0.173 A 
ATOM     57  F   UNL     1       6.793   1.943 -10.662  1.00  0.00    -0.203 F 
ATOM     58  C   UNL     1       5.016   0.818 -11.728  1.00  0.00     0.198 A 
ATOM     59  C   UNL     1       2.747   1.350 -11.159  1.00  0.00     0.198 A 
ATOM     60  F   UNL     1       2.300   3.017  -9.561  1.00  0.00    -0.203 F 
ATOM     61  F   UNL     1       5.896   0.112 -12.452  1.00  0.00    -0.200 F 
ATOM     62  C   UNL     1       3.655   0.604 -11.893  1.00  0.00     0.200 A 
ATOM     63  F   UNL     1       1.432   1.138 -11.303  1.00  0.00    -0.200 F 
ATOM     64  F   UNL     1       3.220  -0.320 -12.761  1.00  0.00    -0.200 F 
ENDBRANCH  30  54
BRANCH  42  65
ATOM     65  C   UNL     1       7.691   8.790 -10.122  1.00  0.00     0.064 A 
ATOM     66  C   UNL     1       6.810   9.564 -10.888  1.00  0.00     0.173 A 
ATOM     67  C   UNL     1       9.068   8.922 -10.351  1.00  0.00     0.173 A 
ATOM     68  F   UNL     1       5.485   9.459 -10.706  1.00  0.00    -0.203 F 
ATOM     69  C   UNL     1       7.294  10.443 -11.852  1.00  0.00     0.198 A 
ATOM     70  C   UNL     1       9.548   9.816 -11.301  1.00  0.00     0.198 A 
ATOM     71  F   UNL     1       9.944   8.205  -9.632  1.00  0.00    -0.203 F 
ATOM     72  F   UNL     1       6.437  11.164 -12.588  1.00  0.00    -0.200 F 
ATOM     73  C   UNL     1       8.661  10.575 -12.050  1.00  0.00     0.200 A 
ATOM     74  F   UNL     1      10.868   9.953 -11.483  1.00  0.00    -0.200 F 
ATOM     75  F   UNL     1       9.125  11.437 -12.966  1.00  0.00    -0.200 F 
ENDBRANCH  42  65
ENDBRANCH  16  17
ENDBRANCH   9  11
ENDBRANCH   8   9
ENDBRANCH   7   8
ENDBRANCH   6   7
ENDBRANCH   5   6
ENDBRANCH   4   5
ENDBRANCH   3   4
ENDBRANCH   2   3
ENDBRANCH   1   2
BRANCH   1  76
ATOM     76  C   UNL     1       5.230  -2.628  -0.446  1.00  0.00     0.188 C 
BRANCH  76  77
ATOM     77  O   UNL     1       4.638  -1.712  -1.336  1.00  0.00    -0.376 OA
BRANCH  77  78
ATOM     78  C   UNL     1       4.141  -2.154  -2.584  1.00  0.00     0.202 C 
BRANCH  78  79
ATOM     79  C   UNL     1       3.800  -3.610  -2.937  1.00  0.00     0.261 C 
BRANCH  79  80
ATOM     80  O   UNL     1       3.874  -4.635  -1.941  1.00  0.00    -0.460 OA
BRANCH  80  81
ATOM     81  C   UNL     1       4.955  -5.441  -2.005  1.00  0.00     0.338 C 
ATOM     82  O   UNL     1       5.936  -5.265  -2.710  1.00  0.00    -0.246 OA
BRANCH  81  83
ATOM     83  C   UNL     1       4.941  -6.450  -0.934  1.00  0.00     0.071 A 
ATOM     84  C   UNL     1       6.078  -6.390  -0.094  1.00  0.00     0.016 A 
ATOM     85  C   UNL     1       3.988  -7.460  -0.746  1.00  0.00     0.037 A 
ATOM     86  C   UNL     1       6.254  -7.287   0.955  1.00  0.00     0.001 A 
ATOM     87  C   UNL     1       4.194  -8.363   0.323  1.00  0.00     0.013 A 
ATOM     88  C   UNL     1       5.306  -8.275   1.166  1.00  0.00     0.001 A 
BRANCH  85  89
ATOM     89  C   UNL     1       2.817  -7.791  -1.610  1.00  0.00     0.193 C 
ATOM     90  O   UNL     1       2.385  -8.944  -1.627  1.00  0.00    -0.289 OA
BRANCH  89  91
ATOM     91  C   UNL     1       2.082  -6.840  -2.445  1.00  0.00     0.024 A 
ATOM     92  C   UNL     1       0.933  -6.232  -1.928  1.00  0.00     0.012 A 
ATOM     93  C   UNL     1       2.445  -6.669  -3.784  1.00  0.00     0.034 A 
ATOM     94  C   UNL     1       0.156  -5.413  -2.748  1.00  0.00     0.002 A 
ATOM     95  C   UNL     1       1.681  -5.821  -4.588  1.00  0.00     0.083 A 
ATOM     96  C   UNL     1       0.533  -5.198  -4.076  1.00  0.00     0.022 A 
BRANCH  95  97
ATOM     97  S   UNL     1       2.196  -5.377  -6.239  1.00  0.00     0.243 S 
ATOM     98  O   UNL     1       1.318  -6.086  -7.145  1.00  0.00    -0.207 OA
ATOM     99  O   UNL     1       2.305  -3.935  -6.237  1.00  0.00    -0.207 OA
BRANCH  97 100
ATOM    100  N   UNL     1       3.735  -6.017  -6.370  1.00  0.00    -0.193 NA
ATOM    101  C   UNL     1       3.956  -7.331  -7.014  1.00  0.00     0.131 C 
ATOM    102  C   UNL     1       4.933  -5.149  -6.382  1.00  0.00     0.131 C 
ATOM    103  C   UNL     1       5.197  -8.001  -6.404  1.00  0.00     0.177 C 
ATOM    104  C   UNL     1       6.083  -5.926  -5.733  1.00  0.00     0.177 C 
ATOM    105  O   UNL     1       6.346  -7.138  -6.457  1.00  0.00    -0.379 OA
ENDBRANCH  97 100
ENDBRANCH  95  97
ENDBRANCH  89  91
ENDBRANCH  85  89
ENDBRANCH  81  83
ENDBRANCH  80  81
ENDBRANCH  79  80
ENDBRANCH  78  79
ENDBRANCH  77  78
ENDBRANCH  76  77
ENDBRANCH   1  76
TORSDOF 24
