REMARK SMILES CCN(CC)C(=O)/C(C#N)=C\c1ccc(O[C@H](C)C(=O)OCCOCCOCCOCCOC(=O)c2ccc(-c3c4nc(c(-c5c(F)c(F)c(F)c(F)c5F)c5ccc([nH]5)c(-c5c(F)c(F)c(F)c(F)c5F)c5nc(c(-c6c(F)c(F)c(F)c(F)c6F)c6ccc3[nH]6)C=C5)C=C4)cc2)cc1
REMARK SMILES IDX 25 1 24 2 23 3 22 4 21 5 19 6 20 7 17 8 18 9 16 10 15 11
REMARK SMILES IDX 12 12 13 13 100 14 14 15 99 16 11 17 8 18 6 19 3 20 7 21
REMARK SMILES IDX 2 22 1 23 4 24 5 25 9 26 10 27 26 28 27 29 28 30 29 31 30 32
REMARK SMILES IDX 31 33 32 34 33 35 34 36 35 37 36 38 37 39 98 40 38 41 97 42
REMARK SMILES IDX 39 43 40 44 41 45 91 46 42 47 96 48 90 49 92 50 43 51 95 52
REMARK SMILES IDX 89 53 88 54 44 56 76 57 56 58 75 59 57 60 60 61 74 62 93 63
REMARK SMILES IDX 58 64 59 65 73 67 94 68 61 69 45 70 46 71 54 72 47 73 48 74
REMARK SMILES IDX 52 75 55 76 49 77 50 78 53 79 51 80 77 81 78 82 86 83 79 84
REMARK SMILES IDX 80 85 84 86 87 87 81 88 82 89 85 90 83 91 62 92 63 93 71 94
REMARK SMILES IDX 64 95 65 96 69 97 72 98 66 99 67 100 70 101 68 102
REMARK H PARENT 92 55 60 66
REMARK Flexibility Score: inf
ROOT
ATOM      1  C   UNL     1       9.610   2.216   0.686  1.00  0.00     0.188 C 
ENDROOT
BRANCH   1   2
ATOM      2  O   UNL     1       9.022   3.320   1.361  1.00  0.00    -0.376 OA
BRANCH   2   3
ATOM      3  C   UNL     1       7.705   3.261   1.881  1.00  0.00     0.202 C 
BRANCH   3   4
ATOM      4  C   UNL     1       6.516   2.786   1.031  1.00  0.00     0.261 C 
BRANCH   4   5
ATOM      5  O   UNL     1       6.727   1.644   0.187  1.00  0.00    -0.461 OA
BRANCH   5   6
ATOM      6  C   UNL     1       7.032   1.933  -1.103  1.00  0.00     0.347 C 
ATOM      7  O   UNL     1       7.221   3.071  -1.524  1.00  0.00    -0.248 OA
BRANCH   6   8
ATOM      8  C   UNL     1       7.014   0.718  -2.028  1.00  0.00     0.279 C 
ATOM      9  C   UNL     1       7.842  -0.544  -1.784  1.00  0.00     0.066 C 
BRANCH   8  10
ATOM     10  O   UNL     1       5.660   0.502  -2.390  1.00  0.00    -0.479 OA
BRANCH  10  11
ATOM     11  C   UNL     1       4.807  -0.237  -1.640  1.00  0.00     0.120 A 
ATOM     12  C   UNL     1       2.967  -2.103  -0.780  1.00  0.00    -0.024 A 
ATOM     13  C   UNL     1       4.166  -1.966  -0.089  1.00  0.00     0.012 A 
ATOM     14  C   UNL     1       2.595  -1.165  -1.744  1.00  0.00     0.012 A 
ATOM     15  C   UNL     1       5.075  -0.994  -0.501  1.00  0.00     0.047 A 
ATOM     16  C   UNL     1       3.535  -0.263  -2.200  1.00  0.00     0.047 A 
BRANCH  12  17
ATOM     17  C   UNL     1       2.146  -3.286  -0.602  1.00  0.00     0.033 C 
ATOM     18  C   UNL     1       1.817  -4.108  -1.618  1.00  0.00     0.117 C 
BRANCH  18  19
ATOM     19  C   UNL     1       2.284  -4.018  -3.067  1.00  0.00     0.264 C 
ATOM     20  N   UNL     1       1.502  -4.475  -4.142  1.00  0.00    -0.339 N 
ATOM     21  O   UNL     1       3.377  -3.493  -3.303  1.00  0.00    -0.268 OA
BRANCH  20  22
ATOM     22  C   UNL     1       1.870  -3.994  -5.480  1.00  0.00     0.116 C 
ATOM     23  C   UNL     1       1.373  -2.573  -5.712  1.00  0.00     0.027 C 
ENDBRANCH  20  22
BRANCH  20  24
ATOM     24  C   UNL     1       0.427  -5.479  -4.128  1.00  0.00     0.116 C 
ATOM     25  C   UNL     1       0.989  -6.886  -3.945  1.00  0.00     0.027 C 
ENDBRANCH  20  24
ENDBRANCH  18  19
BRANCH  18  26
ATOM     26  C   UNL     1       0.762  -5.153  -1.294  1.00  0.00     0.105 C 
ATOM     27  N   UNL     1      -0.113  -6.021  -1.026  1.00  0.00    -0.192 NA
ENDBRANCH  18  26
ENDBRANCH  12  17
ENDBRANCH  10  11
ENDBRANCH   8  10
ENDBRANCH   6   8
ENDBRANCH   5   6
ENDBRANCH   4   5
ENDBRANCH   3   4
ENDBRANCH   2   3
ENDBRANCH   1   2
BRANCH   1  28
ATOM     28  C   UNL     1       9.302   0.766   1.097  1.00  0.00     0.188 C 
BRANCH  28  29
ATOM     29  O   UNL     1       8.322   0.607   2.102  1.00  0.00    -0.377 OA
BRANCH  29  30
ATOM     30  C   UNL     1       8.796   0.453   3.431  1.00  0.00     0.188 C 
BRANCH  30  31
ATOM     31  C   UNL     1      10.050   1.249   3.839  1.00  0.00     0.188 C 
BRANCH  31  32
ATOM     32  O   UNL     1      11.150   1.087   2.954  1.00  0.00    -0.376 OA
BRANCH  32  33
ATOM     33  C   UNL     1      12.141   0.113   3.243  1.00  0.00     0.202 C 
BRANCH  33  34
ATOM     34  C   UNL     1      11.732  -1.371   3.234  1.00  0.00     0.261 C 
BRANCH  34  35
ATOM     35  O   UNL     1      10.688  -1.763   4.139  1.00  0.00    -0.460 OA
BRANCH  35  36
ATOM     36  C   UNL     1      10.848  -1.488   5.451  1.00  0.00     0.338 C 
ATOM     37  O   UNL     1      11.822  -1.008   5.989  1.00  0.00    -0.246 OA
BRANCH  36  38
ATOM     38  C   UNL     1       9.538  -1.684   6.114  1.00  0.00     0.060 A 
ATOM     39  C   UNL     1       8.968  -0.608   6.808  1.00  0.00     0.016 A 
ATOM     40  C   UNL     1       8.885  -2.917   6.062  1.00  0.00     0.016 A 
ATOM     41  C   UNL     1       7.768  -0.779   7.499  1.00  0.00     0.010 A 
ATOM     42  C   UNL     1       7.695  -3.094   6.774  1.00  0.00     0.010 A 
ATOM     43  C   UNL     1       7.157  -2.038   7.532  1.00  0.00    -0.014 A 
BRANCH  43  44
ATOM     44  C   UNL     1       6.099  -2.306   8.536  1.00  0.00     0.031 A 
ATOM     45  C   UNL     1       6.496  -2.982   9.821  1.00  0.00     0.074 A 
ATOM     46  C   UNL     1       4.825  -1.928   8.338  1.00  0.00     0.049 A 
ATOM     47  N   UNL     1       5.756  -3.352  10.835  1.00  0.00    -0.248 NA
ATOM     48  C   UNL     1       7.928  -3.284   9.979  1.00  0.00     0.031 C 
ATOM     49  C   UNL     1       4.326  -1.220   7.163  1.00  0.00     0.029 A 
ATOM     50  N   UNL     1       3.716  -2.094   9.131  1.00  0.00    -0.354 N 
ATOM     51  C   UNL     1       6.630  -3.934  11.745  1.00  0.00     0.074 A 
ATOM     52  C   UNL     1       7.947  -3.906  11.147  1.00  0.00     0.031 C 
ATOM     53  C   UNL     1       3.005  -1.016   7.307  1.00  0.00     0.029 A 
ATOM     54  C   UNL     1       2.561  -1.611   8.568  1.00  0.00     0.049 A 
ATOM     55  H   UNL     1       3.747  -2.519  10.018  1.00  0.00     0.167 HD
ATOM     56  C   UNL     1       6.363  -4.435  12.974  1.00  0.00     0.037 A 
ATOM     57  C   UNL     1       1.291  -1.664   9.015  1.00  0.00     0.037 A 
ATOM     58  C   UNL     1       5.050  -4.469  13.562  1.00  0.00     0.049 A 
ATOM     59  C   UNL     1       1.002  -2.311  10.347  1.00  0.00     0.074 A 
ATOM     60  C   UNL     1       4.671  -4.950  14.802  1.00  0.00     0.029 A 
ATOM     61  N   UNL     1       3.896  -4.012  12.941  1.00  0.00    -0.354 N 
ATOM     62  N   UNL     1       1.833  -2.842  11.212  1.00  0.00    -0.248 NA
ATOM     63  C   UNL     1      -0.406  -2.362  10.766  1.00  0.00     0.031 C 
ATOM     64  C   UNL     1       3.280  -4.844  14.906  1.00  0.00     0.029 A 
ATOM     65  C   UNL     1       2.800  -4.228  13.761  1.00  0.00     0.049 A 
ATOM     66  H   UNL     1       3.861  -3.596  12.049  1.00  0.00     0.167 HD
ATOM     67  C   UNL     1       1.057  -3.253  12.289  1.00  0.00     0.074 A 
ATOM     68  C   UNL     1      -0.311  -2.899  11.973  1.00  0.00     0.031 C 
ATOM     69  C   UNL     1       1.442  -3.863  13.438  1.00  0.00     0.037 A 
BRANCH  56  70
ATOM     70  C   UNL     1       7.512  -5.021  13.745  1.00  0.00     0.064 A 
ATOM     71  C   UNL     1       8.554  -4.225  14.244  1.00  0.00     0.173 A 
ATOM     72  C   UNL     1       7.567  -6.401  13.993  1.00  0.00     0.173 A 
ATOM     73  F   UNL     1       8.559  -2.901  14.021  1.00  0.00    -0.203 F 
ATOM     74  C   UNL     1       9.626  -4.792  14.929  1.00  0.00     0.198 A 
ATOM     75  C   UNL     1       8.622  -6.960  14.711  1.00  0.00     0.198 A 
ATOM     76  F   UNL     1       6.597  -7.210  13.542  1.00  0.00    -0.203 F 
ATOM     77  F   UNL     1      10.642  -4.019  15.339  1.00  0.00    -0.200 F 
ATOM     78  C   UNL     1       9.656  -6.158  15.167  1.00  0.00     0.200 A 
ATOM     79  F   UNL     1       8.641  -8.278  14.952  1.00  0.00    -0.200 F 
ATOM     80  F   UNL     1      10.687  -6.702  15.828  1.00  0.00    -0.200 F 
ENDBRANCH  56  70
BRANCH  57  81
ATOM     81  C   UNL     1       0.189  -1.089   8.197  1.00  0.00     0.064 A 
ATOM     82  C   UNL     1      -0.526   0.035   8.635  1.00  0.00     0.173 A 
ATOM     83  C   UNL     1      -0.185  -1.661   6.972  1.00  0.00     0.173 A 
ATOM     84  F   UNL     1      -0.225   0.603   9.812  1.00  0.00    -0.203 F 
ATOM     85  C   UNL     1      -1.585   0.551   7.890  1.00  0.00     0.198 A 
ATOM     86  C   UNL     1      -1.222  -1.125   6.213  1.00  0.00     0.198 A 
ATOM     87  F   UNL     1       0.464  -2.739   6.508  1.00  0.00    -0.203 F 
ATOM     88  F   UNL     1      -2.284   1.594   8.357  1.00  0.00    -0.200 F 
ATOM     89  C   UNL     1      -1.928  -0.025   6.676  1.00  0.00     0.200 A 
ATOM     90  F   UNL     1      -1.541  -1.677   5.034  1.00  0.00    -0.200 F 
ATOM     91  F   UNL     1      -2.942   0.474   5.957  1.00  0.00    -0.200 F 
ENDBRANCH  57  81
BRANCH  69  92
ATOM     92  C   UNL     1       0.381  -4.142  14.467  1.00  0.00     0.064 A 
ATOM     93  C   UNL     1      -0.617  -5.107  14.263  1.00  0.00     0.173 A 
ATOM     94  C   UNL     1       0.386  -3.456  15.692  1.00  0.00     0.173 A 
ATOM     95  F   UNL     1      -0.677  -5.784  13.107  1.00  0.00    -0.203 F 
ATOM     96  C   UNL     1      -1.589  -5.349  15.232  1.00  0.00     0.198 A 
ATOM     97  C   UNL     1      -0.563  -3.728  16.673  1.00  0.00     0.198 A 
ATOM     98  F   UNL     1       1.323  -2.530  15.945  1.00  0.00    -0.203 F 
ATOM     99  F   UNL     1      -2.566  -6.234  14.991  1.00  0.00    -0.200 F 
ATOM    100  C   UNL     1      -1.556  -4.666  16.439  1.00  0.00     0.200 A 
ATOM    101  F   UNL     1      -0.517  -3.080  17.846  1.00  0.00    -0.200 F 
ATOM    102  F   UNL     1      -2.487  -4.906  17.373  1.00  0.00    -0.200 F 
ENDBRANCH  69  92
ENDBRANCH  43  44
ENDBRANCH  36  38
ENDBRANCH  35  36
ENDBRANCH  34  35
ENDBRANCH  33  34
ENDBRANCH  32  33
ENDBRANCH  31  32
ENDBRANCH  30  31
ENDBRANCH  29  30
ENDBRANCH  28  29
ENDBRANCH   1  28
TORSDOF 27
