REMARK SMILES CC[C@](C)(NC(=O)c1cccc2ncccc12)C(=O)OCCOCCOCCOCCOC(=O)c1ccc(-c2c3nc(c(-c4c(F)c(F)c(F)c(F)c4F)c4ccc([nH]4)c(-c4c(F)c(F)c(F)c(F)c4F)c4nc(c(-c5c(F)c(F)c(F)c(F)c5F)c5ccc2[nH]5)C=C4)C=C3)cc1
REMARK SMILES IDX 26 1 25 2 24 3 23 4 22 5 21 6 20 7 18 8 19 9 3 10 4 11 2 12
REMARK SMILES IDX 1 13 5 14 6 15 7 17 8 18 9 19 17 20 10 21 12 22 16 23 11 24
REMARK SMILES IDX 13 25 15 26 14 27 27 28 28 29 29 30 30 31 31 32 32 33 33 34
REMARK SMILES IDX 34 35 35 36 36 37 97 38 37 39 96 40 38 41 39 42 40 43 90 44
REMARK SMILES IDX 41 45 95 46 89 47 91 48 42 49 94 50 88 51 87 52 43 54 75 55
REMARK SMILES IDX 55 56 74 57 56 58 59 59 73 60 92 61 57 62 58 63 72 65 93 66
REMARK SMILES IDX 60 67 44 68 45 69 53 70 46 71 47 72 51 73 54 74 48 75 49 76
REMARK SMILES IDX 52 77 50 78 76 79 77 80 85 81 78 82 79 83 83 84 86 85 80 86
REMARK SMILES IDX 81 87 84 88 82 89 61 90 62 91 70 92 63 93 64 94 68 95 71 96
REMARK SMILES IDX 65 97 66 98 69 99 67 100
REMARK H PARENT 5 16 91 53 59 64
REMARK Flexibility Score: inf
ROOT
ATOM      1  O   UNL     1       2.454  -1.237   5.540  1.00  0.00    -0.377 OA
ENDROOT
BRANCH   1   2
ATOM      2  C   UNL     1       2.124  -2.001   4.127  1.00  0.00     0.188 C 
BRANCH   2   3
ATOM      3  C   UNL     1       2.696  -1.769   2.482  1.00  0.00     0.188 C 
BRANCH   3   4
ATOM      4  O   UNL     1       4.058  -1.572   2.073  1.00  0.00    -0.376 OA
BRANCH   4   5
ATOM      5  C   UNL     1       4.456  -0.702   0.985  1.00  0.00     0.202 C 
BRANCH   5   6
ATOM      6  C   UNL     1       4.212   0.839   0.957  1.00  0.00     0.261 C 
BRANCH   6   7
ATOM      7  O   UNL     1       3.085   1.255   1.709  1.00  0.00    -0.462 OA
BRANCH   7   8
ATOM      8  C   UNL     1       1.879   1.196   1.115  1.00  0.00     0.331 C 
ATOM      9  O   UNL     1       1.696   1.298  -0.090  1.00  0.00    -0.249 OA
BRANCH   8  10
ATOM     10  C   UNL     1       0.783   0.941   2.185  1.00  0.00     0.135 C 
ATOM     11  C   UNL     1      -0.074  -0.266   1.655  1.00  0.00     0.047 C 
BRANCH  10  12
ATOM     12  C   UNL     1      -0.112   2.217   2.261  1.00  0.00     0.037 C 
ATOM     13  C   UNL     1      -1.403   2.179   1.424  1.00  0.00     0.007 C 
ENDBRANCH  10  12
BRANCH  10  14
ATOM     14  N   UNL     1       1.324   0.571   3.589  1.00  0.00    -0.336 N 
ATOM     15  C   UNL     1       2.501   0.842   4.321  1.00  0.00     0.252 C 
ATOM     16  H   UNL     1       0.693   0.009   4.094  1.00  0.00     0.165 HD
ATOM     17  O   UNL     1       2.361   1.586   5.301  1.00  0.00    -0.269 OA
BRANCH  15  18
ATOM     18  C   UNL     1       3.963   0.201   4.079  1.00  0.00     0.049 A 
ATOM     19  C   UNL     1       4.843   1.313   4.010  1.00  0.00     0.014 A 
ATOM     20  C   UNL     1       4.577  -1.260   4.342  1.00  0.00     0.013 A 
ATOM     21  C   UNL     1       6.222   1.232   3.811  1.00  0.00     0.003 A 
ATOM     22  C   UNL     1       6.300  -1.153   3.979  1.00  0.00     0.071 A 
ATOM     23  C   UNL     1       4.149  -2.862   5.332  1.00  0.00     0.013 A 
ATOM     24  C   UNL     1       6.887   0.029   3.637  1.00  0.00     0.029 A 
ATOM     25  N   UNL     1       7.446  -2.215   4.478  1.00  0.00    -0.256 NA
ATOM     26  C   UNL     1       5.590  -3.922   5.909  1.00  0.00     0.021 A 
ATOM     27  C   UNL     1       7.128  -3.521   5.380  1.00  0.00     0.112 A 
ENDBRANCH  15  18
ENDBRANCH  10  14
ENDBRANCH   8  10
ENDBRANCH   7   8
ENDBRANCH   6   7
ENDBRANCH   5   6
ENDBRANCH   4   5
ENDBRANCH   3   4
ENDBRANCH   2   3
ENDBRANCH   1   2
BRANCH   1  28
ATOM     28  C   UNL     1       3.872  -1.119   6.504  1.00  0.00     0.188 C 
BRANCH  28  29
ATOM     29  C   UNL     1       5.601  -1.826   5.975  1.00  0.00     0.188 C 
BRANCH  29  30
ATOM     30  O   UNL     1       5.568  -2.981   4.263  1.00  0.00    -0.376 OA
BRANCH  30  31
ATOM     31  C   UNL     1       4.569  -4.501   4.031  1.00  0.00     0.202 C 
BRANCH  31  32
ATOM     32  C   UNL     1       3.611  -5.357   5.391  1.00  0.00     0.261 C 
BRANCH  32  33
ATOM     33  O   UNL     1       3.442  -4.730   6.884  1.00  0.00    -0.460 OA
BRANCH  33  34
ATOM     34  C   UNL     1       4.157  -5.044   8.037  1.00  0.00     0.338 C 
ATOM     35  O   UNL     1       4.667  -6.144   8.215  1.00  0.00    -0.246 OA
BRANCH  34  36
ATOM     36  C   UNL     1       4.665  -3.822   8.877  1.00  0.00     0.060 A 
ATOM     37  C   UNL     1       6.050  -3.521   8.857  1.00  0.00     0.016 A 
ATOM     38  C   UNL     1       3.901  -3.002   9.716  1.00  0.00     0.016 A 
ATOM     39  C   UNL     1       6.624  -2.382   9.493  1.00  0.00     0.010 A 
ATOM     40  C   UNL     1       4.501  -1.918  10.464  1.00  0.00     0.010 A 
ATOM     41  C   UNL     1       5.873  -1.583  10.360  1.00  0.00    -0.014 A 
BRANCH  41  42
ATOM     42  C   UNL     1       6.628  -0.762  11.402  1.00  0.00     0.031 A 
ATOM     43  C   UNL     1       7.165  -1.543  12.593  1.00  0.00     0.074 A 
ATOM     44  C   UNL     1       6.964   0.551  11.332  1.00  0.00     0.049 A 
ATOM     45  N   UNL     1       7.869  -1.154  13.630  1.00  0.00    -0.248 NA
ATOM     46  C   UNL     1       6.872  -2.985  12.586  1.00  0.00     0.031 C 
ATOM     47  C   UNL     1       6.659   1.465  10.235  1.00  0.00     0.029 A 
ATOM     48  N   UNL     1       7.670   1.352  12.224  1.00  0.00    -0.354 N 
ATOM     49  C   UNL     1       8.093  -2.300  14.388  1.00  0.00     0.074 A 
ATOM     50  C   UNL     1       7.449  -3.394  13.700  1.00  0.00     0.031 C 
ATOM     51  C   UNL     1       7.158   2.688  10.518  1.00  0.00     0.029 A 
ATOM     52  C   UNL     1       7.803   2.671  11.834  1.00  0.00     0.049 A 
ATOM     53  H   UNL     1       8.044   1.006  13.066  1.00  0.00     0.167 HD
ATOM     54  C   UNL     1       8.764  -2.452  15.556  1.00  0.00     0.037 A 
ATOM     55  C   UNL     1       8.360   3.739  12.460  1.00  0.00     0.037 A 
ATOM     56  C   UNL     1       9.397  -1.388  16.284  1.00  0.00     0.049 A 
ATOM     57  C   UNL     1       9.002   3.575  13.828  1.00  0.00     0.074 A 
ATOM     58  C   UNL     1      10.074  -1.453  17.490  1.00  0.00     0.029 A 
ATOM     59  N   UNL     1       9.418  -0.062  15.885  1.00  0.00    -0.354 N 
ATOM     60  N   UNL     1       9.191   2.487  14.534  1.00  0.00    -0.248 NA
ATOM     61  C   UNL     1       9.509   4.795  14.486  1.00  0.00     0.031 C 
ATOM     62  C   UNL     1      10.447  -0.156  17.854  1.00  0.00     0.029 A 
ATOM     63  C   UNL     1      10.073   0.705  16.836  1.00  0.00     0.049 A 
ATOM     64  H   UNL     1       9.027   0.284  15.050  1.00  0.00     0.167 HD
ATOM     65  C   UNL     1       9.870   2.882  15.685  1.00  0.00     0.074 A 
ATOM     66  C   UNL     1      10.071   4.309  15.583  1.00  0.00     0.031 C 
ATOM     67  C   UNL     1      10.293   2.125  16.729  1.00  0.00     0.037 A 
BRANCH  54  68
ATOM     68  C   UNL     1       8.775  -3.829  16.160  1.00  0.00     0.064 A 
ATOM     69  C   UNL     1       9.495  -4.889  15.587  1.00  0.00     0.173 A 
ATOM     70  C   UNL     1       8.034  -4.092  17.323  1.00  0.00     0.173 A 
ATOM     71  F   UNL     1      10.197  -4.699  14.460  1.00  0.00    -0.203 F 
ATOM     72  C   UNL     1       9.440  -6.169  16.135  1.00  0.00     0.198 A 
ATOM     73  C   UNL     1       8.013  -5.363  17.888  1.00  0.00     0.198 A 
ATOM     74  F   UNL     1       7.327  -3.115  17.910  1.00  0.00    -0.203 F 
ATOM     75  F   UNL     1      10.077  -7.182  15.531  1.00  0.00    -0.200 F 
ATOM     76  C   UNL     1       8.705  -6.403  17.288  1.00  0.00     0.200 A 
ATOM     77  F   UNL     1       7.312  -5.584  19.009  1.00  0.00    -0.200 F 
ATOM     78  F   UNL     1       8.653  -7.635  17.813  1.00  0.00    -0.200 F 
ENDBRANCH  54  68
BRANCH  55  79
ATOM     79  C   UNL     1       8.328   5.106  11.840  1.00  0.00     0.064 A 
ATOM     80  C   UNL     1       9.507   5.789  11.493  1.00  0.00     0.173 A 
ATOM     81  C   UNL     1       7.119   5.800  11.673  1.00  0.00     0.173 A 
ATOM     82  F   UNL     1      10.700   5.206  11.685  1.00  0.00    -0.203 F 
ATOM     83  C   UNL     1       9.478   7.103  11.016  1.00  0.00     0.198 A 
ATOM     84  C   UNL     1       7.088   7.101  11.165  1.00  0.00     0.198 A 
ATOM     85  F   UNL     1       5.961   5.222  12.022  1.00  0.00    -0.203 F 
ATOM     86  F   UNL     1      10.624   7.747  10.755  1.00  0.00    -0.200 F 
ATOM     87  C   UNL     1       8.268   7.755  10.844  1.00  0.00     0.200 A 
ATOM     88  F   UNL     1       5.915   7.729  11.005  1.00  0.00    -0.200 F 
ATOM     89  F   UNL     1       8.238   9.015  10.389  1.00  0.00    -0.200 F 
ENDBRANCH  55  79
BRANCH  67  90
ATOM     90  C   UNL     1      11.079   2.797  17.823  1.00  0.00     0.064 A 
ATOM     91  C   UNL     1      10.495   3.714  18.710  1.00  0.00     0.173 A 
ATOM     92  C   UNL     1      12.435   2.480  18.014  1.00  0.00     0.173 A 
ATOM     93  F   UNL     1       9.206   4.057  18.575  1.00  0.00    -0.203 F 
ATOM     94  C   UNL     1      11.246   4.316  19.719  1.00  0.00     0.198 A 
ATOM     95  C   UNL     1      13.172   3.055  19.046  1.00  0.00     0.198 A 
ATOM     96  F   UNL     1      13.043   1.598  17.207  1.00  0.00    -0.203 F 
ATOM     97  F   UNL     1      10.681   5.232  20.517  1.00  0.00    -0.200 F 
ATOM     98  C   UNL     1      12.581   3.982  19.890  1.00  0.00     0.200 A 
ATOM     99  F   UNL     1      14.457   2.713  19.222  1.00  0.00    -0.200 F 
ATOM    100  F   UNL     1      13.300   4.558  20.864  1.00  0.00    -0.200 F 
ENDBRANCH  67  90
ENDBRANCH  41  42
ENDBRANCH  34  36
ENDBRANCH  33  34
ENDBRANCH  32  33
ENDBRANCH  31  32
ENDBRANCH  30  31
ENDBRANCH  29  30
ENDBRANCH  28  29
ENDBRANCH   1  28
TORSDOF 23
