REMARK SMILES CCCCCCC(=O)N[C@@H](C)C(=O)OCCOCCOCCOCCOC(=O)c1ccc(-c2c3nc(c(-c4c(F)c(F)c(F)c(F)c4F)c4ccc([nH]4)c(-c4c(F)c(F)c(F)c(F)c4F)c4nc(c(-c5c(F)c(F)c(F)c(F)c5F)c5ccc2[nH]5)C=C4)C=C3)cc1
REMARK SMILES IDX 18 1 17 2 16 3 15 4 14 5 12 6 13 7 10 8 11 9 9 10 7 11 8 12
REMARK SMILES IDX 6 14 5 15 4 16 3 17 2 18 1 19 19 20 20 21 21 22 22 23 23 24
REMARK SMILES IDX 24 25 25 26 26 27 27 28 28 29 29 30 30 31 91 32 31 33 90 34
REMARK SMILES IDX 32 35 33 36 34 37 84 38 35 39 89 40 83 41 85 42 36 43 88 44
REMARK SMILES IDX 82 45 81 46 37 48 69 49 49 50 68 51 50 52 53 53 67 54 86 55
REMARK SMILES IDX 51 56 52 57 66 59 87 60 54 61 38 62 39 63 47 64 40 65 41 66
REMARK SMILES IDX 45 67 48 68 42 69 43 70 46 71 44 72 70 73 71 74 79 75 72 76
REMARK SMILES IDX 73 77 77 78 80 79 74 80 75 81 78 82 76 83 55 84 56 85 64 86
REMARK SMILES IDX 57 87 58 88 62 89 65 90 59 91 60 92 63 93 61 94
REMARK H PARENT 9 13 85 47 53 58
REMARK Flexibility Score: inf
ROOT
ATOM      1  C   UNL     1       1.618  -5.104   2.404  1.00  0.00     0.188 C 
ENDROOT
BRANCH   1   2
ATOM      2  O   UNL     1       2.735  -5.951   2.198  1.00  0.00    -0.376 OA
BRANCH   2   3
ATOM      3  C   UNL     1       3.824  -5.957   3.111  1.00  0.00     0.202 C 
BRANCH   3   4
ATOM      4  C   UNL     1       4.334  -4.688   3.820  1.00  0.00     0.261 C 
BRANCH   4   5
ATOM      5  O   UNL     1       3.330  -3.848   4.420  1.00  0.00    -0.462 OA
BRANCH   5   6
ATOM      6  C   UNL     1       3.232  -2.603   3.910  1.00  0.00     0.328 C 
ATOM      7  O   UNL     1       4.016  -2.143   3.083  1.00  0.00    -0.250 OA
BRANCH   6   8
ATOM      8  C   UNL     1       2.007  -1.788   4.377  1.00  0.00     0.189 C 
ATOM      9  C   UNL     1       2.547  -0.462   4.903  1.00  0.00     0.043 C 
BRANCH   8  10
ATOM     10  N   UNL     1       0.936  -2.221   5.275  1.00  0.00    -0.343 N 
ATOM     11  C   UNL     1      -0.421  -2.083   5.107  1.00  0.00     0.220 C 
ATOM     12  O   UNL     1      -1.136  -2.161   6.110  1.00  0.00    -0.275 OA
ATOM     13  H   UNL     1       1.223  -2.667   6.104  1.00  0.00     0.164 HD
BRANCH  11  14
ATOM     14  C   UNL     1      -1.069  -1.989   3.716  1.00  0.00     0.100 C 
BRANCH  14  15
ATOM     15  C   UNL     1      -1.198  -0.640   3.005  1.00  0.00     0.010 C 
BRANCH  15  16
ATOM     16  C   UNL     1       0.016  -0.100   2.237  1.00  0.00     0.001 C 
BRANCH  16  17
ATOM     17  C   UNL     1       0.668  -1.071   1.233  1.00  0.00    -0.000 C 
BRANCH  17  18
ATOM     18  C   UNL     1       0.275  -0.850  -0.222  1.00  0.00    -0.003 C 
ATOM     19  C   UNL     1       0.886   0.420  -0.792  1.00  0.00     0.004 C 
ENDBRANCH  17  18
ENDBRANCH  16  17
ENDBRANCH  15  16
ENDBRANCH  14  15
ENDBRANCH  11  14
ENDBRANCH   8  10
ENDBRANCH   6   8
ENDBRANCH   5   6
ENDBRANCH   4   5
ENDBRANCH   3   4
ENDBRANCH   2   3
ENDBRANCH   1   2
BRANCH   1  20
ATOM     20  C   UNL     1       0.846  -5.159   3.728  1.00  0.00     0.188 C 
BRANCH  20  21
ATOM     21  O   UNL     1       1.577  -5.615   4.843  1.00  0.00    -0.377 OA
BRANCH  21  22
ATOM     22  C   UNL     1       1.475  -6.981   5.199  1.00  0.00     0.188 C 
BRANCH  22  23
ATOM     23  C   UNL     1       1.097  -8.014   4.121  1.00  0.00     0.188 C 
BRANCH  23  24
ATOM     24  O   UNL     1      -0.003  -7.641   3.305  1.00  0.00    -0.376 OA
BRANCH  24  25
ATOM     25  C   UNL     1      -1.297  -8.115   3.650  1.00  0.00     0.202 C 
BRANCH  25  26
ATOM     26  C   UNL     1      -1.915  -7.635   4.975  1.00  0.00     0.261 C 
BRANCH  26  27
ATOM     27  O   UNL     1      -1.182  -7.929   6.176  1.00  0.00    -0.460 OA
BRANCH  27  28
ATOM     28  C   UNL     1      -0.887  -9.215   6.448  1.00  0.00     0.338 C 
ATOM     29  O   UNL     1      -1.236 -10.200   5.818  1.00  0.00    -0.246 OA
BRANCH  28  30
ATOM     30  C   UNL     1       0.120  -9.234   7.532  1.00  0.00     0.060 A 
ATOM     31  C   UNL     1       1.359  -9.842   7.290  1.00  0.00     0.016 A 
ATOM     32  C   UNL     1      -0.147  -8.653   8.774  1.00  0.00     0.016 A 
ATOM     33  C   UNL     1       2.315  -9.915   8.302  1.00  0.00     0.010 A 
ATOM     34  C   UNL     1       0.803  -8.748   9.797  1.00  0.00     0.010 A 
ATOM     35  C   UNL     1       2.022  -9.415   9.578  1.00  0.00    -0.014 A 
BRANCH  35  36
ATOM     36  C   UNL     1       2.897  -9.783  10.719  1.00  0.00     0.031 A 
ATOM     37  C   UNL     1       2.484 -10.938  11.591  1.00  0.00     0.074 A 
ATOM     38  C   UNL     1       4.057  -9.144  10.953  1.00  0.00     0.049 A 
ATOM     39  N   UNL     1       3.073 -11.441  12.646  1.00  0.00    -0.248 NA
ATOM     40  C   UNL     1       1.232 -11.616  11.221  1.00  0.00     0.031 C 
ATOM     41  C   UNL     1       4.589  -8.040  10.159  1.00  0.00     0.029 A 
ATOM     42  N   UNL     1       4.995  -9.335  11.938  1.00  0.00    -0.354 N 
ATOM     43  C   UNL     1       2.261 -12.488  13.066  1.00  0.00     0.074 A 
ATOM     44  C   UNL     1       1.122 -12.525  12.177  1.00  0.00     0.031 C 
ATOM     45  C   UNL     1       5.757  -7.643  10.695  1.00  0.00     0.029 A 
ATOM     46  C   UNL     1       6.038  -8.444  11.886  1.00  0.00     0.049 A 
ATOM     47  H   UNL     1       4.926 -10.045  12.617  1.00  0.00     0.167 HD
ATOM     48  C   UNL     1       2.454 -13.347  14.095  1.00  0.00     0.037 A 
ATOM     49  C   UNL     1       7.085  -8.283  12.718  1.00  0.00     0.037 A 
ATOM     50  C   UNL     1       3.587 -13.306  14.982  1.00  0.00     0.049 A 
ATOM     51  C   UNL     1       7.240  -9.206  13.902  1.00  0.00     0.074 A 
ATOM     52  C   UNL     1       3.884 -14.144  16.042  1.00  0.00     0.029 A 
ATOM     53  N   UNL     1       4.605 -12.365  14.920  1.00  0.00    -0.354 N 
ATOM     54  N   UNL     1       6.487 -10.214  14.274  1.00  0.00    -0.248 NA
ATOM     55  C   UNL     1       8.398  -8.972  14.777  1.00  0.00     0.031 C 
ATOM     56  C   UNL     1       5.044 -13.670  16.662  1.00  0.00     0.029 A 
ATOM     57  C   UNL     1       5.513 -12.582  15.944  1.00  0.00     0.049 A 
ATOM     58  H   UNL     1       4.672 -11.648  14.248  1.00  0.00     0.167 HD
ATOM     59  C   UNL     1       7.095 -10.751  15.403  1.00  0.00     0.074 A 
ATOM     60  C   UNL     1       8.290  -9.970  15.643  1.00  0.00     0.031 C 
ATOM     61  C   UNL     1       6.701 -11.798  16.171  1.00  0.00     0.037 A 
BRANCH  48  62
ATOM     62  C   UNL     1       1.394 -14.384  14.340  1.00  0.00     0.064 A 
ATOM     63  C   UNL     1       1.179 -15.450  13.453  1.00  0.00     0.173 A 
ATOM     64  C   UNL     1       0.599 -14.323  15.495  1.00  0.00     0.173 A 
ATOM     65  F   UNL     1       1.900 -15.547  12.326  1.00  0.00    -0.203 F 
ATOM     66  C   UNL     1       0.188 -16.398  13.699  1.00  0.00     0.198 A 
ATOM     67  C   UNL     1      -0.366 -15.292  15.755  1.00  0.00     0.198 A 
ATOM     68  F   UNL     1       0.764 -13.326  16.378  1.00  0.00    -0.203 F 
ATOM     69  F   UNL     1      -0.036 -17.376  12.810  1.00  0.00    -0.200 F 
ATOM     70  C   UNL     1      -0.577 -16.323  14.853  1.00  0.00     0.200 A 
ATOM     71  F   UNL     1      -1.094 -15.225  16.878  1.00  0.00    -0.200 F 
ATOM     72  F   UNL     1      -1.524 -17.241  15.092  1.00  0.00    -0.200 F 
ENDBRANCH  48  62
BRANCH  49  73
ATOM     73  C   UNL     1       8.070  -7.193  12.476  1.00  0.00     0.064 A 
ATOM     74  C   UNL     1       9.400  -7.476  12.136  1.00  0.00     0.173 A 
ATOM     75  C   UNL     1       7.706  -5.844  12.610  1.00  0.00     0.173 A 
ATOM     76  F   UNL     1       9.806  -8.749  12.022  1.00  0.00    -0.203 F 
ATOM     77  C   UNL     1      10.333  -6.455  11.962  1.00  0.00     0.198 A 
ATOM     78  C   UNL     1       8.631  -4.823  12.403  1.00  0.00     0.198 A 
ATOM     79  F   UNL     1       6.448  -5.517  12.938  1.00  0.00    -0.203 F 
ATOM     80  F   UNL     1      11.610  -6.756  11.692  1.00  0.00    -0.200 F 
ATOM     81  C   UNL     1       9.946  -5.129  12.089  1.00  0.00     0.200 A 
ATOM     82  F   UNL     1       8.249  -3.544  12.513  1.00  0.00    -0.200 F 
ATOM     83  F   UNL     1      10.842  -4.148  11.918  1.00  0.00    -0.200 F 
ENDBRANCH  49  73
BRANCH  61  84
ATOM     84  C   UNL     1       7.592 -12.189  17.319  1.00  0.00     0.064 A 
ATOM     85  C   UNL     1       7.750 -11.372  18.449  1.00  0.00     0.173 A 
ATOM     86  C   UNL     1       8.279 -13.414  17.298  1.00  0.00     0.173 A 
ATOM     87  F   UNL     1       7.125 -10.187  18.518  1.00  0.00    -0.203 F 
ATOM     88  C   UNL     1       8.592 -11.747  19.494  1.00  0.00     0.198 A 
ATOM     89  C   UNL     1       9.089 -13.803  18.361  1.00  0.00     0.198 A 
ATOM     90  F   UNL     1       8.158 -14.240  16.248  1.00  0.00    -0.203 F 
ATOM     91  F   UNL     1       8.777 -10.921  20.532  1.00  0.00    -0.200 F 
ATOM     92  C   UNL     1       9.255 -12.964  19.452  1.00  0.00     0.200 A 
ATOM     93  F   UNL     1       9.714 -14.989  18.327  1.00  0.00    -0.200 F 
ATOM     94  F   UNL     1      10.062 -13.325  20.460  1.00  0.00    -0.200 F 
ENDBRANCH  61  84
ENDBRANCH  35  36
ENDBRANCH  28  30
ENDBRANCH  27  28
ENDBRANCH  26  27
ENDBRANCH  25  26
ENDBRANCH  24  25
ENDBRANCH  23  24
ENDBRANCH  22  23
ENDBRANCH  21  22
ENDBRANCH  20  21
ENDBRANCH   1  20
TORSDOF 26
