REMARK SMILES CC(C)N(CCC#N)C(=O)c1ccncc1/C=C/C(=O)OCCOCCOCCOCCOC(=O)c1ccc(-c2c3nc(c(-c4c(F)c(F)c(F)c(F)c4F)c4ccc([nH]4)c(-c4c(F)c(F)c(F)c(F)c4F)c4nc(c(-c5c(F)c(F)c(F)c(F)c5F)c5ccc2[nH]5)C=C4)C=C3)cc1
REMARK SMILES IDX 25 1 24 2 23 3 22 4 21 5 19 6 20 7 18 8 17 9 16 10 11 11
REMARK SMILES IDX 12 12 13 13 15 14 14 15 9 16 10 17 4 18 2 19 1 20 3 21 5 22
REMARK SMILES IDX 6 23 7 24 8 25 26 26 27 27 28 28 29 29 30 30 31 31 32 32
REMARK SMILES IDX 33 33 34 34 35 35 36 36 37 37 98 38 38 39 97 40 39 41 40 42
REMARK SMILES IDX 41 43 91 44 42 45 96 46 90 47 92 48 43 49 95 50 89 51 88 52
REMARK SMILES IDX 44 54 76 55 56 56 75 57 57 58 60 59 74 60 93 61 58 62 59 63
REMARK SMILES IDX 73 65 94 66 61 67 45 68 46 69 54 70 47 71 48 72 52 73 55 74
REMARK SMILES IDX 49 75 50 76 53 77 51 78 77 79 78 80 86 81 79 82 80 83 84 84
REMARK SMILES IDX 87 85 81 86 82 87 85 88 83 89 62 90 63 91 71 92 64 93 65 94
REMARK SMILES IDX 69 95 72 96 66 97 67 98 70 99 68 100
REMARK H PARENT 92 53 60 64
REMARK Flexibility Score: inf
ROOT
ATOM      1  C   UNL     1      -3.747   2.278   5.405  1.00  0.00     0.188 C 
ENDROOT
BRANCH   1   2
ATOM      2  O   UNL     1      -2.745   2.538   6.374  1.00  0.00    -0.376 OA
BRANCH   2   3
ATOM      3  C   UNL     1      -2.313   1.475   7.203  1.00  0.00     0.202 C 
BRANCH   3   4
ATOM      4  C   UNL     1      -1.486   0.383   6.512  1.00  0.00     0.261 C 
BRANCH   4   5
ATOM      5  O   UNL     1      -2.104  -0.172   5.346  1.00  0.00    -0.460 OA
BRANCH   5   6
ATOM      6  C   UNL     1      -3.138  -1.030   5.518  1.00  0.00     0.330 C 
ATOM      7  O   UNL     1      -3.560  -1.443   6.586  1.00  0.00    -0.247 OA
BRANCH   6   8
ATOM      8  C   UNL     1      -3.876  -1.179   4.231  1.00  0.00     0.094 C 
ATOM      9  C   UNL     1      -3.281  -0.900   3.054  1.00  0.00     0.018 C 
BRANCH   9  10
ATOM     10  C   UNL     1      -3.929  -0.508   1.771  1.00  0.00     0.006 A 
ATOM     11  C   UNL     1      -3.216  -0.045   0.624  1.00  0.00     0.050 A 
ATOM     12  C   UNL     1      -3.908   0.776  -0.276  1.00  0.00     0.034 A 
ATOM     13  C   UNL     1      -5.284   0.903  -0.173  1.00  0.00     0.112 A 
ATOM     14  C   UNL     1      -5.319  -0.327   1.750  1.00  0.00     0.119 A 
ATOM     15  N   UNL     1      -6.012   0.343   0.801  1.00  0.00    -0.264 NA
BRANCH  11  16
ATOM     16  C   UNL     1      -1.779  -0.460   0.345  1.00  0.00     0.254 C 
ATOM     17  O   UNL     1      -1.114  -0.840   1.309  1.00  0.00    -0.269 OA
BRANCH  16  18
ATOM     18  N   UNL     1      -1.161  -0.495  -0.946  1.00  0.00    -0.335 N 
BRANCH  18  19
ATOM     19  C   UNL     1       0.313  -0.754  -0.965  1.00  0.00     0.079 C 
ATOM     20  C   UNL     1       1.124   0.146  -0.016  1.00  0.00     0.031 C 
ATOM     21  C   UNL     1       0.658  -2.231  -0.762  1.00  0.00     0.031 C 
ENDBRANCH  18  19
BRANCH  18  22
ATOM     22  C   UNL     1      -1.807  -0.415  -2.288  1.00  0.00     0.135 C 
BRANCH  22  23
ATOM     23  C   UNL     1      -2.671  -1.598  -2.759  1.00  0.00     0.141 C 
BRANCH  23  24
ATOM     24  C   UNL     1      -3.659  -2.004  -1.678  1.00  0.00     0.064 C 
ATOM     25  N   UNL     1      -4.479  -2.341  -0.780  1.00  0.00    -0.198 NA
ENDBRANCH  23  24
ENDBRANCH  22  23
ENDBRANCH  18  22
ENDBRANCH  16  18
ENDBRANCH  11  16
ENDBRANCH   9  10
ENDBRANCH   6   8
ENDBRANCH   5   6
ENDBRANCH   4   5
ENDBRANCH   3   4
ENDBRANCH   2   3
ENDBRANCH   1   2
BRANCH   1  26
ATOM     26  C   UNL     1      -3.324   2.591   3.953  1.00  0.00     0.188 C 
BRANCH  26  27
ATOM     27  O   UNL     1      -1.970   2.884   3.631  1.00  0.00    -0.377 OA
BRANCH  27  28
ATOM     28  C   UNL     1      -1.194   3.677   4.522  1.00  0.00     0.188 C 
BRANCH  28  29
ATOM     29  C   UNL     1      -1.840   4.869   5.266  1.00  0.00     0.188 C 
BRANCH  29  30
ATOM     30  O   UNL     1      -3.211   5.069   4.967  1.00  0.00    -0.376 OA
BRANCH  30  31
ATOM     31  C   UNL     1      -3.549   6.191   4.172  1.00  0.00     0.202 C 
BRANCH  31  32
ATOM     32  C   UNL     1      -2.977   6.247   2.747  1.00  0.00     0.261 C 
BRANCH  32  33
ATOM     33  O   UNL     1      -1.558   6.068   2.620  1.00  0.00    -0.460 OA
BRANCH  33  34
ATOM     34  C   UNL     1      -0.761   7.040   3.119  1.00  0.00     0.338 C 
ATOM     35  O   UNL     1      -1.102   8.068   3.666  1.00  0.00    -0.246 OA
BRANCH  34  36
ATOM     36  C   UNL     1       0.632   6.545   3.043  1.00  0.00     0.060 A 
ATOM     37  C   UNL     1       1.362   6.366   4.226  1.00  0.00     0.016 A 
ATOM     38  C   UNL     1       1.204   6.249   1.805  1.00  0.00     0.016 A 
ATOM     39  C   UNL     1       2.682   5.914   4.169  1.00  0.00     0.010 A 
ATOM     40  C   UNL     1       2.532   5.819   1.748  1.00  0.00     0.010 A 
ATOM     41  C   UNL     1       3.286   5.680   2.927  1.00  0.00    -0.014 A 
BRANCH  41  42
ATOM     42  C   UNL     1       4.754   5.487   2.842  1.00  0.00     0.031 A 
ATOM     43  C   UNL     1       5.607   6.676   2.494  1.00  0.00     0.074 A 
ATOM     44  C   UNL     1       5.321   4.290   3.074  1.00  0.00     0.049 A 
ATOM     45  N   UNL     1       6.898   6.748   2.294  1.00  0.00    -0.248 NA
ATOM     46  C   UNL     1       4.902   7.960   2.345  1.00  0.00     0.031 C 
ATOM     47  C   UNL     1       4.607   3.077   3.462  1.00  0.00     0.029 A 
ATOM     48  N   UNL     1       6.636   3.902   3.005  1.00  0.00    -0.354 N 
ATOM     49  C   UNL     1       7.156   8.077   1.985  1.00  0.00     0.074 A 
ATOM     50  C   UNL     1       5.888   8.771   1.995  1.00  0.00     0.031 C 
ATOM     51  C   UNL     1       5.494   2.073   3.587  1.00  0.00     0.029 A 
ATOM     52  C   UNL     1       6.829   2.565   3.251  1.00  0.00     0.049 A 
ATOM     53  H   UNL     1       7.372   4.524   2.799  1.00  0.00     0.167 HD
ATOM     54  C   UNL     1       8.346   8.666   1.723  1.00  0.00     0.037 A 
ATOM     55  C   UNL     1       7.953   1.825   3.185  1.00  0.00     0.037 A 
ATOM     56  C   UNL     1       9.606   7.971   1.717  1.00  0.00     0.049 A 
ATOM     57  C   UNL     1       9.256   2.491   2.812  1.00  0.00     0.074 A 
ATOM     58  C   UNL     1      10.872   8.482   1.490  1.00  0.00     0.029 A 
ATOM     59  N   UNL     1       9.758   6.610   1.939  1.00  0.00    -0.354 N 
ATOM     60  N   UNL     1       9.500   3.752   2.551  1.00  0.00    -0.248 NA
ATOM     61  C   UNL     1      10.441   1.625   2.724  1.00  0.00     0.031 C 
ATOM     62  C   UNL     1      11.781   7.420   1.507  1.00  0.00     0.029 A 
ATOM     63  C   UNL     1      11.093   6.258   1.818  1.00  0.00     0.049 A 
ATOM     64  H   UNL     1       9.026   5.987   2.150  1.00  0.00     0.167 HD
ATOM     65  C   UNL     1      10.866   3.838   2.309  1.00  0.00     0.074 A 
ATOM     66  C   UNL     1      11.400   2.502   2.464  1.00  0.00     0.031 C 
ATOM     67  C   UNL     1      11.612   4.925   1.989  1.00  0.00     0.037 A 
BRANCH  54  68
ATOM     68  C   UNL     1       8.339  10.128   1.382  1.00  0.00     0.064 A 
ATOM     69  C   UNL     1       8.046  11.113   2.338  1.00  0.00     0.173 A 
ATOM     70  C   UNL     1       8.665  10.551   0.084  1.00  0.00     0.173 A 
ATOM     71  F   UNL     1       7.713  10.762   3.589  1.00  0.00    -0.203 F 
ATOM     72  C   UNL     1       8.055  12.464   2.000  1.00  0.00     0.198 A 
ATOM     73  C   UNL     1       8.706  11.904  -0.241  1.00  0.00     0.198 A 
ATOM     74  F   UNL     1       8.955   9.652  -0.868  1.00  0.00    -0.203 F 
ATOM     75  F   UNL     1       7.723  13.384   2.916  1.00  0.00    -0.200 F 
ATOM     76  C   UNL     1       8.393  12.859   0.714  1.00  0.00     0.200 A 
ATOM     77  F   UNL     1       9.047  12.283  -1.480  1.00  0.00    -0.200 F 
ATOM     78  F   UNL     1       8.411  14.160   0.394  1.00  0.00    -0.200 F 
ENDBRANCH  54  68
BRANCH  55  79
ATOM     79  C   UNL     1       7.906   0.363   3.462  1.00  0.00     0.064 A 
ATOM     80  C   UNL     1       8.568  -0.185   4.570  1.00  0.00     0.173 A 
ATOM     81  C   UNL     1       7.237  -0.521   2.602  1.00  0.00     0.173 A 
ATOM     82  F   UNL     1       9.248   0.613   5.406  1.00  0.00    -0.203 F 
ATOM     83  C   UNL     1       8.584  -1.561   4.793  1.00  0.00     0.198 A 
ATOM     84  C   UNL     1       7.226  -1.893   2.844  1.00  0.00     0.198 A 
ATOM     85  F   UNL     1       6.595  -0.052   1.522  1.00  0.00    -0.203 F 
ATOM     86  F   UNL     1       9.277  -2.062   5.825  1.00  0.00    -0.200 F 
ATOM     87  C   UNL     1       7.908  -2.413   3.933  1.00  0.00     0.200 A 
ATOM     88  F   UNL     1       6.564  -2.712   2.015  1.00  0.00    -0.200 F 
ATOM     89  F   UNL     1       7.928  -3.736   4.145  1.00  0.00    -0.200 F 
ENDBRANCH  55  79
BRANCH  67  90
ATOM     90  C   UNL     1      13.095   4.730   1.835  1.00  0.00     0.064 A 
ATOM     91  C   UNL     1      13.643   4.023   0.754  1.00  0.00     0.173 A 
ATOM     92  C   UNL     1      13.983   5.302   2.761  1.00  0.00     0.173 A 
ATOM     93  F   UNL     1      12.841   3.447  -0.153  1.00  0.00    -0.203 F 
ATOM     94  C   UNL     1      15.022   3.870   0.624  1.00  0.00     0.198 A 
ATOM     95  C   UNL     1      15.361   5.178   2.607  1.00  0.00     0.198 A 
ATOM     96  F   UNL     1      13.514   5.997   3.807  1.00  0.00    -0.203 F 
ATOM     97  F   UNL     1      15.520   3.145  -0.387  1.00  0.00    -0.200 F 
ATOM     98  C   UNL     1      15.879   4.454   1.544  1.00  0.00     0.200 A 
ATOM     99  F   UNL     1      16.187   5.760   3.487  1.00  0.00    -0.200 F 
ATOM    100  F   UNL     1      17.205   4.314   1.411  1.00  0.00    -0.200 F 
ENDBRANCH  67  90
ENDBRANCH  41  42
ENDBRANCH  34  36
ENDBRANCH  33  34
ENDBRANCH  32  33
ENDBRANCH  31  32
ENDBRANCH  30  31
ENDBRANCH  29  30
ENDBRANCH  28  29
ENDBRANCH  27  28
ENDBRANCH  26  27
ENDBRANCH   1  26
TORSDOF 27
