REMARK SMILES CC(=O)OCC1=C(C(=O)OCCOCCOCCOCCOC(=O)c2ccc(-c3c4nc(c(-c5c(F)c(F)c(F)c(F)c5F)c5ccc([nH]5)c(-c5c(F)c(F)c(F)c(F)c5F)c5nc(c(-c6c(F)c(F)c(F)c(F)c6F)c6ccc3[nH]6)C=C5)C=C4)cc2)N2C(=O)[C@H](NC(=O)c3c(C)nn(C(F)F)c3C)[C@@H]2SC1
REMARK SMILES IDX 15 1 14 2 13 3 12 4 11 5 10 6 8 7 9 8 7 9 6 10 107 11 88 12
REMARK SMILES IDX 106 13 89 14 105 15 90 16 91 17 5 18 4 19 2 20 1 21 3 22
REMARK SMILES IDX 92 23 93 24 94 26 95 27 96 28 103 29 97 30 98 31 99 32
REMARK SMILES IDX 104 33 100 34 101 35 102 36 16 37 17 38 18 39 19 40 20 41
REMARK SMILES IDX 21 42 22 43 23 44 24 45 25 46 26 47 87 48 27 49 86 50 28 51
REMARK SMILES IDX 29 52 30 53 80 54 31 55 85 56 79 57 81 58 32 59 84 60 78 61
REMARK SMILES IDX 77 62 33 64 65 65 45 66 64 67 46 68 49 69 63 70 82 71 47 72
REMARK SMILES IDX 48 73 62 75 83 76 50 77 34 78 35 79 43 80 36 81 37 82 41 83
REMARK SMILES IDX 44 84 38 85 39 86 42 87 40 88 66 89 67 90 75 91 68 92 69 93
REMARK SMILES IDX 73 94 76 95 70 96 71 97 74 98 72 99 51 100 52 101 60 102
REMARK SMILES IDX 53 103 54 104 58 105 61 106 55 107 56 108 59 109 57 110
REMARK H PARENT 92 25 81 63 49 74
REMARK Flexibility Score: inf
ROOT
ATOM      1  C   UNL     1      -2.457   0.515   4.205  1.00  0.00     0.188 C 
ENDROOT
BRANCH   1   2
ATOM      2  C   UNL     1      -2.466   1.820   3.377  1.00  0.00     0.188 C 
BRANCH   2   3
ATOM      3  O   UNL     1      -3.031   1.677   2.079  1.00  0.00    -0.376 OA
BRANCH   3   4
ATOM      4  C   UNL     1      -2.160   1.883   0.980  1.00  0.00     0.202 C 
BRANCH   4   5
ATOM      5  C   UNL     1      -1.071   0.827   0.805  1.00  0.00     0.261 C 
BRANCH   5   6
ATOM      6  O   UNL     1      -0.467   0.439   2.043  1.00  0.00    -0.459 OA
BRANCH   6   7
ATOM      7  C   UNL     1       0.691   1.036   2.399  1.00  0.00     0.355 C 
ATOM      8  O   UNL     1       1.272   1.911   1.780  1.00  0.00    -0.244 OA
BRANCH   7   9
ATOM      9  C   UNL     1       1.139   0.460   3.708  1.00  0.00     0.134 C 
ATOM     10  C   UNL     1       1.382  -0.865   3.882  1.00  0.00     0.008 C 
ATOM     11  C   UNL     1       1.941  -1.444   5.176  1.00  0.00     0.108 C 
ATOM     12  N   UNL     1       1.297   1.337   4.739  1.00  0.00    -0.289 N 
ATOM     13  S   UNL     1       2.796  -0.231   6.231  1.00  0.00    -0.129 SA
ATOM     14  C   UNL     1       1.175   2.656   4.965  1.00  0.00     0.253 C 
ATOM     15  C   UNL     1       1.443   0.950   6.124  1.00  0.00     0.181 C 
ATOM     16  O   UNL     1       0.787   3.582   4.284  1.00  0.00    -0.272 OA
ATOM     17  C   UNL     1       1.715   2.454   6.427  1.00  0.00     0.206 C 
BRANCH  10  18
ATOM     18  C   UNL     1       1.167  -1.971   2.853  1.00  0.00     0.267 C 
BRANCH  18  19
ATOM     19  O   UNL     1       1.113  -1.553   1.487  1.00  0.00    -0.461 OA
BRANCH  19  20
ATOM     20  C   UNL     1       2.301  -1.222   0.914  1.00  0.00     0.302 C 
ATOM     21  C   UNL     1       2.068  -0.739  -0.485  1.00  0.00     0.139 C 
ATOM     22  O   UNL     1       3.385  -1.256   1.476  1.00  0.00    -0.253 OA
ENDBRANCH  19  20
ENDBRANCH  18  19
ENDBRANCH  10  18
BRANCH  17  23
ATOM     23  N   UNL     1       3.125   2.871   6.640  1.00  0.00    -0.337 N 
ATOM     24  C   UNL     1       3.650   3.651   7.642  1.00  0.00     0.255 C 
ATOM     25  H   UNL     1       3.771   2.544   5.973  1.00  0.00     0.164 HD
ATOM     26  O   UNL     1       4.807   4.049   7.552  1.00  0.00    -0.269 OA
BRANCH  24  27
ATOM     27  C   UNL     1       2.796   4.003   8.763  1.00  0.00     0.083 A 
ATOM     28  C   UNL     1       2.576   5.298   9.302  1.00  0.00     0.073 A 
ATOM     29  C   UNL     1       2.095   3.150   9.609  1.00  0.00     0.054 A 
ATOM     30  C   UNL     1       3.163   6.597   8.882  1.00  0.00     0.069 C 
ATOM     31  N   UNL     1       1.695   5.275  10.307  1.00  0.00    -0.172 NA
ATOM     32  N   UNL     1       1.385   3.969  10.465  1.00  0.00    -0.208 N 
ATOM     33  C   UNL     1       2.066   1.667   9.689  1.00  0.00     0.067 C 
BRANCH  32  34
ATOM     34  C   UNL     1       0.368   3.572  11.443  1.00  0.00     0.465 C 
ATOM     35  F   UNL     1       0.724   3.888  12.715  1.00  0.00    -0.184 F 
ATOM     36  F   UNL     1      -0.831   4.168  11.195  1.00  0.00    -0.184 F 
ENDBRANCH  32  34
ENDBRANCH  24  27
ENDBRANCH  17  23
ENDBRANCH   7   9
ENDBRANCH   6   7
ENDBRANCH   5   6
ENDBRANCH   4   5
ENDBRANCH   3   4
ENDBRANCH   2   3
ENDBRANCH   1   2
BRANCH   1  37
ATOM     37  O   UNL     1      -2.763  -0.725   3.579  1.00  0.00    -0.377 OA
BRANCH  37  38
ATOM     38  C   UNL     1      -3.904  -0.816   2.726  1.00  0.00     0.188 C 
BRANCH  38  39
ATOM     39  C   UNL     1      -5.132   0.101   2.933  1.00  0.00     0.188 C 
BRANCH  39  40
ATOM     40  O   UNL     1      -5.120   0.837   4.146  1.00  0.00    -0.376 OA
BRANCH  40  41
ATOM     41  C   UNL     1      -6.032   0.431   5.153  1.00  0.00     0.202 C 
BRANCH  41  42
ATOM     42  C   UNL     1      -5.747  -0.940   5.778  1.00  0.00     0.261 C 
BRANCH  42  43
ATOM     43  O   UNL     1      -5.774  -2.054   4.872  1.00  0.00    -0.460 OA
BRANCH  43  44
ATOM     44  C   UNL     1      -6.929  -2.299   4.217  1.00  0.00     0.338 C 
ATOM     45  O   UNL     1      -7.981  -1.695   4.305  1.00  0.00    -0.246 OA
BRANCH  44  46
ATOM     46  C   UNL     1      -6.649  -3.356   3.229  1.00  0.00     0.060 A 
ATOM     47  C   UNL     1      -6.823  -3.097   1.863  1.00  0.00     0.016 A 
ATOM     48  C   UNL     1      -6.212  -4.606   3.670  1.00  0.00     0.016 A 
ATOM     49  C   UNL     1      -6.587  -4.108   0.930  1.00  0.00     0.010 A 
ATOM     50  C   UNL     1      -5.997  -5.620   2.740  1.00  0.00     0.010 A 
ATOM     51  C   UNL     1      -6.217  -5.385   1.371  1.00  0.00    -0.014 A 
BRANCH  51  52
ATOM     52  C   UNL     1      -6.272  -6.546   0.455  1.00  0.00     0.031 A 
ATOM     53  C   UNL     1      -7.521  -7.381   0.460  1.00  0.00     0.074 A 
ATOM     54  C   UNL     1      -5.230  -6.880  -0.323  1.00  0.00     0.049 A 
ATOM     55  N   UNL     1      -7.763  -8.524  -0.125  1.00  0.00    -0.248 NA
ATOM     56  C   UNL     1      -8.649  -6.855   1.248  1.00  0.00     0.031 C 
ATOM     57  C   UNL     1      -3.987  -6.123  -0.444  1.00  0.00     0.029 A 
ATOM     58  N   UNL     1      -5.048  -7.966  -1.143  1.00  0.00    -0.354 N 
ATOM     59  C   UNL     1      -9.062  -8.860   0.235  1.00  0.00     0.074 A 
ATOM     60  C   UNL     1      -9.549  -7.815   1.107  1.00  0.00     0.031 C 
ATOM     61  C   UNL     1      -3.157  -6.782  -1.272  1.00  0.00     0.029 A 
ATOM     62  C   UNL     1      -3.796  -8.025  -1.704  1.00  0.00     0.049 A 
ATOM     63  H   UNL     1      -5.748  -8.637  -1.312  1.00  0.00     0.167 HD
ATOM     64  C   UNL     1      -9.783  -9.945  -0.132  1.00  0.00     0.037 A 
ATOM     65  C   UNL     1      -3.228  -8.993  -2.449  1.00  0.00     0.037 A 
ATOM     66  C   UNL     1      -9.288 -10.984  -0.993  1.00  0.00     0.049 A 
ATOM     67  C   UNL     1      -4.025 -10.230  -2.784  1.00  0.00     0.074 A 
ATOM     68  C   UNL     1      -9.938 -12.122  -1.435  1.00  0.00     0.029 A 
ATOM     69  N   UNL     1      -8.012 -11.013  -1.537  1.00  0.00    -0.354 N 
ATOM     70  N   UNL     1      -5.257 -10.538  -2.455  1.00  0.00    -0.248 NA
ATOM     71  C   UNL     1      -3.350 -11.256  -3.593  1.00  0.00     0.031 C 
ATOM     72  C   UNL     1      -9.039 -12.866  -2.204  1.00  0.00     0.029 A 
ATOM     73  C   UNL     1      -7.848 -12.162  -2.293  1.00  0.00     0.049 A 
ATOM     74  H   UNL     1      -7.325 -10.321  -1.405  1.00  0.00     0.167 HD
ATOM     75  C   UNL     1      -5.517 -11.768  -3.048  1.00  0.00     0.074 A 
ATOM     76  C   UNL     1      -4.315 -12.150  -3.759  1.00  0.00     0.031 C 
ATOM     77  C   UNL     1      -6.650 -12.512  -3.012  1.00  0.00     0.037 A 
BRANCH  64  78
ATOM     78  C   UNL     1     -11.168 -10.075   0.427  1.00  0.00     0.064 A 
ATOM     79  C   UNL     1     -12.212  -9.230   0.020  1.00  0.00     0.173 A 
ATOM     80  C   UNL     1     -11.461 -11.072   1.370  1.00  0.00     0.173 A 
ATOM     81  F   UNL     1     -11.980  -8.248  -0.864  1.00  0.00    -0.203 F 
ATOM     82  C   UNL     1     -13.491  -9.363   0.555  1.00  0.00     0.198 A 
ATOM     83  C   UNL     1     -12.747 -11.222   1.879  1.00  0.00     0.198 A 
ATOM     84  F   UNL     1     -10.498 -11.905   1.794  1.00  0.00    -0.203 F 
ATOM     85  F   UNL     1     -14.459  -8.512   0.190  1.00  0.00    -0.200 F 
ATOM     86  C   UNL     1     -13.759 -10.363   1.478  1.00  0.00     0.200 A 
ATOM     87  F   UNL     1     -13.007 -12.195   2.763  1.00  0.00    -0.200 F 
ATOM     88  F   UNL     1     -14.991 -10.493   1.988  1.00  0.00    -0.200 F 
ENDBRANCH  64  78
BRANCH  65  89
ATOM     89  C   UNL     1      -1.825  -8.846  -2.919  1.00  0.00     0.064 A 
ATOM     90  C   UNL     1      -1.532  -8.688  -4.281  1.00  0.00     0.173 A 
ATOM     91  C   UNL     1      -0.747  -8.883  -2.022  1.00  0.00     0.173 A 
ATOM     92  F   UNL     1      -2.526  -8.672  -5.181  1.00  0.00    -0.203 F 
ATOM     93  C   UNL     1      -0.216  -8.591  -4.729  1.00  0.00     0.198 A 
ATOM     94  C   UNL     1       0.567  -8.757  -2.468  1.00  0.00     0.198 A 
ATOM     95  F   UNL     1      -0.971  -9.034  -0.708  1.00  0.00    -0.203 F 
ATOM     96  F   UNL     1       0.037  -8.489  -6.041  1.00  0.00    -0.200 F 
ATOM     97  C   UNL     1       0.832  -8.620  -3.822  1.00  0.00     0.200 A 
ATOM     98  F   UNL     1       1.575  -8.771  -1.586  1.00  0.00    -0.200 F 
ATOM     99  F   UNL     1       2.097  -8.524  -4.252  1.00  0.00    -0.200 F 
ENDBRANCH  65  89
BRANCH  77 100
ATOM    100  C   UNL     1      -6.674 -13.784  -3.811  1.00  0.00     0.064 A 
ATOM    101  C   UNL     1      -5.955 -14.921  -3.416  1.00  0.00     0.173 A 
ATOM    102  C   UNL     1      -7.483 -13.881  -4.954  1.00  0.00     0.173 A 
ATOM    103  F   UNL     1      -5.159 -14.876  -2.338  1.00  0.00    -0.203 F 
ATOM    104  C   UNL     1      -6.030 -16.103  -4.149  1.00  0.00     0.198 A 
ATOM    105  C   UNL     1      -7.579 -15.073  -5.666  1.00  0.00     0.198 A 
ATOM    106  F   UNL     1      -8.198 -12.824  -5.368  1.00  0.00    -0.203 F 
ATOM    107  F   UNL     1      -5.303 -17.166  -3.778  1.00  0.00    -0.200 F 
ATOM    108  C   UNL     1      -6.848 -16.181  -5.266  1.00  0.00     0.200 A 
ATOM    109  F   UNL     1      -8.383 -15.150  -6.735  1.00  0.00    -0.200 F 
ATOM    110  F   UNL     1      -6.929 -17.324  -5.962  1.00  0.00    -0.200 F 
ENDBRANCH  77 100
ENDBRANCH  51  52
ENDBRANCH  44  46
ENDBRANCH  43  44
ENDBRANCH  42  43
ENDBRANCH  41  42
ENDBRANCH  40  41
ENDBRANCH  39  40
ENDBRANCH  38  39
ENDBRANCH  37  38
ENDBRANCH   1  37
TORSDOF 26
