REMARK SMILES COc1cc(NC(=O)C2CCN(S(=O)(=O)c3cccs3)CC2)c(Cl)cc1C(=O)OCCOCCOCCOCCOC(=O)c1ccc(-c2c3nc(c(-c4c(F)c(F)c(F)c(F)c4F)c4ccc([nH]4)c(-c4c(F)c(F)c(F)c(F)c4F)c4nc(c(-c5c(F)c(F)c(F)c(F)c5F)c5ccc2[nH]5)C=C4)C=C3)cc1
REMARK SMILES IDX 34 1 33 2 32 3 31 4 30 5 29 6 27 7 28 8 26 9 3 10 4 11 5 12
REMARK SMILES IDX 25 13 23 14 24 15 2 16 1 17 6 18 7 19 8 21 9 22 10 23 22 24
REMARK SMILES IDX 11 25 21 26 12 27 13 28 14 29 15 30 16 31 17 32 20 33 18 34
REMARK SMILES IDX 19 35 35 36 36 37 37 38 38 39 39 40 40 41 41 42 42 43 43 44
REMARK SMILES IDX 44 45 45 46 106 47 46 48 105 49 47 50 48 51 49 52 99 53
REMARK SMILES IDX 50 54 104 55 98 56 100 57 51 58 103 59 97 60 96 61 52 63
REMARK SMILES IDX 84 64 64 65 83 66 65 67 68 68 82 69 101 70 66 71 67 72 81 74
REMARK SMILES IDX 102 75 69 76 53 77 54 78 62 79 55 80 56 81 60 82 63 83 57 84
REMARK SMILES IDX 58 85 61 86 59 87 85 88 86 89 94 90 87 91 88 92 92 93 95 94
REMARK SMILES IDX 89 95 90 96 93 97 91 98 70 99 71 100 79 101 72 102 73 103
REMARK SMILES IDX 77 104 80 105 74 106 75 107 78 108 76 109
REMARK H PARENT 6 20 100 62 68 73
REMARK Flexibility Score: inf
ROOT
ATOM      1  C   UNL     1      -2.009   1.536   2.083  1.00  0.00     0.188 C 
ENDROOT
BRANCH   1   2
ATOM      2  C   UNL     1      -3.041   2.666   1.848  1.00  0.00     0.188 C 
BRANCH   2   3
ATOM      3  O   UNL     1      -4.107   2.314   0.983  1.00  0.00    -0.376 OA
BRANCH   3   4
ATOM      4  C   UNL     1      -4.239   2.971  -0.262  1.00  0.00     0.202 C 
BRANCH   4   5
ATOM      5  C   UNL     1      -3.129   2.739  -1.289  1.00  0.00     0.261 C 
BRANCH   5   6
ATOM      6  O   UNL     1      -1.810   2.804  -0.751  1.00  0.00    -0.460 OA
BRANCH   6   7
ATOM      7  C   UNL     1      -1.308   4.026  -0.483  1.00  0.00     0.342 C 
ATOM      8  O   UNL     1      -1.883   5.093  -0.604  1.00  0.00    -0.246 OA
BRANCH   7   9
ATOM      9  C   UNL     1       0.004   3.863   0.176  1.00  0.00     0.103 A 
ATOM     10  C   UNL     1       0.921   2.898  -0.225  1.00  0.00     0.135 A 
ATOM     11  C   UNL     1       2.191   2.877   0.347  1.00  0.00     0.075 A 
ATOM     12  C   UNL     1       2.521   3.646   1.459  1.00  0.00     0.063 A 
ATOM     13  C   UNL     1       0.309   4.677   1.277  1.00  0.00     0.042 A 
ATOM     14  C   UNL     1       1.540   4.538   1.933  1.00  0.00     0.065 A 
ATOM     15  Cl  UNL     1       1.807   5.474   3.364  1.00  0.00    -0.082 Cl
BRANCH  10  16
ATOM     16  O   UNL     1       0.625   1.963  -1.183  1.00  0.00    -0.496 OA
ATOM     17  C   UNL     1       0.752   0.626  -0.664  1.00  0.00     0.278 C 
ENDBRANCH  10  16
BRANCH  12  18
ATOM     18  N   UNL     1       3.767   3.570   2.129  1.00  0.00    -0.324 N 
ATOM     19  C   UNL     1       4.872   2.768   2.016  1.00  0.00     0.227 C 
ATOM     20  H   UNL     1       3.860   4.248   2.837  1.00  0.00     0.169 HD
ATOM     21  O   UNL     1       5.847   3.038   2.722  1.00  0.00    -0.274 OA
BRANCH  19  22
ATOM     22  C   UNL     1       4.897   1.558   1.088  1.00  0.00     0.081 C 
ATOM     23  C   UNL     1       3.904   0.486   1.561  1.00  0.00     0.030 C 
ATOM     24  C   UNL     1       6.287   0.945   0.898  1.00  0.00     0.030 C 
ATOM     25  C   UNL     1       4.427  -0.275   2.769  1.00  0.00     0.103 C 
ATOM     26  C   UNL     1       6.742   0.084   2.067  1.00  0.00     0.103 C 
ATOM     27  N   UNL     1       5.703  -0.929   2.396  1.00  0.00    -0.197 NA
BRANCH  27  28
ATOM     28  S   UNL     1       6.181  -2.097   3.562  1.00  0.00     0.252 S 
ATOM     29  O   UNL     1       6.739  -1.378   4.689  1.00  0.00    -0.206 OA
ATOM     30  O   UNL     1       5.081  -3.022   3.732  1.00  0.00    -0.206 OA
BRANCH  28  31
ATOM     31  C   UNL     1       7.549  -3.011   2.877  1.00  0.00     0.135 A 
ATOM     32  C   UNL     1       8.856  -2.638   2.613  1.00  0.00     0.033 A 
ATOM     33  S   UNL     1       7.272  -4.643   2.447  1.00  0.00    -0.131 S 
ATOM     34  C   UNL     1       9.614  -3.683   2.016  1.00  0.00     0.013 A 
ATOM     35  C   UNL     1       8.878  -4.839   1.892  1.00  0.00     0.066 A 
ENDBRANCH  28  31
ENDBRANCH  27  28
ENDBRANCH  19  22
ENDBRANCH  12  18
ENDBRANCH   7   9
ENDBRANCH   6   7
ENDBRANCH   5   6
ENDBRANCH   4   5
ENDBRANCH   3   4
ENDBRANCH   2   3
ENDBRANCH   1   2
BRANCH   1  36
ATOM     36  O   UNL     1      -2.080   0.320   1.345  1.00  0.00    -0.377 OA
BRANCH  36  37
ATOM     37  C   UNL     1      -3.349  -0.254   1.044  1.00  0.00     0.188 C 
BRANCH  37  38
ATOM     38  C   UNL     1      -4.523  -0.139   2.046  1.00  0.00     0.188 C 
BRANCH  38  39
ATOM     39  O   UNL     1      -4.189   0.514   3.258  1.00  0.00    -0.376 OA
BRANCH  39  40
ATOM     40  C   UNL     1      -4.099  -0.276   4.428  1.00  0.00     0.202 C 
BRANCH  40  41
ATOM     41  C   UNL     1      -3.026  -1.373   4.448  1.00  0.00     0.261 C 
BRANCH  41  42
ATOM     42  O   UNL     1      -3.035  -2.289   3.342  1.00  0.00    -0.460 OA
BRANCH  42  43
ATOM     43  C   UNL     1      -4.099  -3.111   3.225  1.00  0.00     0.338 C 
ATOM     44  O   UNL     1      -5.074  -3.173   3.958  1.00  0.00    -0.246 OA
BRANCH  43  45
ATOM     45  C   UNL     1      -3.979  -3.806   1.929  1.00  0.00     0.060 A 
ATOM     46  C   UNL     1      -4.964  -3.613   0.950  1.00  0.00     0.016 A 
ATOM     47  C   UNL     1      -2.883  -4.634   1.680  1.00  0.00     0.016 A 
ATOM     48  C   UNL     1      -4.870  -4.276  -0.273  1.00  0.00     0.010 A 
ATOM     49  C   UNL     1      -2.802  -5.316   0.464  1.00  0.00     0.010 A 
ATOM     50  C   UNL     1      -3.812  -5.165  -0.503  1.00  0.00    -0.014 A 
BRANCH  50  51
ATOM     51  C   UNL     1      -3.865  -6.089  -1.659  1.00  0.00     0.031 A 
ATOM     52  C   UNL     1      -4.355  -7.490  -1.429  1.00  0.00     0.074 A 
ATOM     53  C   UNL     1      -3.485  -5.698  -2.887  1.00  0.00     0.049 A 
ATOM     54  N   UNL     1      -4.430  -8.496  -2.260  1.00  0.00    -0.248 NA
ATOM     55  C   UNL     1      -4.815  -7.796  -0.065  1.00  0.00     0.031 C 
ATOM     56  C   UNL     1      -3.020  -4.360  -3.239  1.00  0.00     0.029 A 
ATOM     57  N   UNL     1      -3.413  -6.406  -4.061  1.00  0.00    -0.354 N 
ATOM     58  C   UNL     1      -4.928  -9.559  -1.518  1.00  0.00     0.074 A 
ATOM     59  C   UNL     1      -5.108  -9.083  -0.163  1.00  0.00     0.031 C 
ATOM     60  C   UNL     1      -2.684  -4.348  -4.541  1.00  0.00     0.029 A 
ATOM     61  C   UNL     1      -2.878  -5.686  -5.099  1.00  0.00     0.049 A 
ATOM     62  H   UNL     1      -3.715  -7.338  -4.149  1.00  0.00     0.167 HD
ATOM     63  C   UNL     1      -5.212 -10.817  -1.930  1.00  0.00     0.037 A 
ATOM     64  C   UNL     1      -2.553  -6.076  -6.348  1.00  0.00     0.037 A 
ATOM     65  C   UNL     1      -5.023 -11.283  -3.279  1.00  0.00     0.049 A 
ATOM     66  C   UNL     1      -2.822  -7.495  -6.775  1.00  0.00     0.074 A 
ATOM     67  C   UNL     1      -5.320 -12.524  -3.812  1.00  0.00     0.029 A 
ATOM     68  N   UNL     1      -4.465 -10.531  -4.303  1.00  0.00    -0.354 N 
ATOM     69  N   UNL     1      -3.337  -8.485  -6.085  1.00  0.00    -0.248 NA
ATOM     70  C   UNL     1      -2.473  -7.850  -8.158  1.00  0.00     0.031 C 
ATOM     71  C   UNL     1      -4.874 -12.547  -5.138  1.00  0.00     0.029 A 
ATOM     72  C   UNL     1      -4.369 -11.296  -5.455  1.00  0.00     0.049 A 
ATOM     73  H   UNL     1      -4.180  -9.592  -4.223  1.00  0.00     0.167 HD
ATOM     74  C   UNL     1      -3.392  -9.571  -6.951  1.00  0.00     0.074 A 
ATOM     75  C   UNL     1      -2.873  -9.113  -8.223  1.00  0.00     0.031 C 
ATOM     76  C   UNL     1      -3.838 -10.831  -6.714  1.00  0.00     0.037 A 
BRANCH  63  77
ATOM     77  C   UNL     1      -5.703 -11.786  -0.891  1.00  0.00     0.064 A 
ATOM     78  C   UNL     1      -6.952 -11.643  -0.267  1.00  0.00     0.173 A 
ATOM     79  C   UNL     1      -4.900 -12.870  -0.505  1.00  0.00     0.173 A 
ATOM     80  F   UNL     1      -7.755 -10.617  -0.588  1.00  0.00    -0.203 F 
ATOM     81  C   UNL     1      -7.356 -12.520   0.738  1.00  0.00     0.198 A 
ATOM     82  C   UNL     1      -5.324 -13.766   0.472  1.00  0.00     0.198 A 
ATOM     83  F   UNL     1      -3.699 -13.058  -1.071  1.00  0.00    -0.203 F 
ATOM     84  F   UNL     1      -8.521 -12.319   1.371  1.00  0.00    -0.200 F 
ATOM     85  C   UNL     1      -6.544 -13.582   1.103  1.00  0.00     0.200 A 
ATOM     86  F   UNL     1      -4.544 -14.801   0.813  1.00  0.00    -0.200 F 
ATOM     87  F   UNL     1      -6.933 -14.422   2.072  1.00  0.00    -0.200 F 
ENDBRANCH  63  77
BRANCH  64  88
ATOM     88  C   UNL     1      -1.914  -5.101  -7.270  1.00  0.00     0.064 A 
ATOM     89  C   UNL     1      -2.596  -4.598  -8.385  1.00  0.00     0.173 A 
ATOM     90  C   UNL     1      -0.612  -4.633  -7.035  1.00  0.00     0.173 A 
ATOM     91  F   UNL     1      -3.833  -5.034  -8.666  1.00  0.00    -0.203 F 
ATOM     92  C   UNL     1      -2.000  -3.665  -9.232  1.00  0.00     0.198 A 
ATOM     93  C   UNL     1      -0.028  -3.679  -7.865  1.00  0.00     0.198 A 
ATOM     94  F   UNL     1       0.085  -5.085  -5.982  1.00  0.00    -0.203 F 
ATOM     95  F   UNL     1      -2.663  -3.221 -10.309  1.00  0.00    -0.200 F 
ATOM     96  C   UNL     1      -0.721  -3.198  -8.965  1.00  0.00     0.200 A 
ATOM     97  F   UNL     1       1.201  -3.220  -7.594  1.00  0.00    -0.200 F 
ATOM     98  F   UNL     1      -0.157  -2.287  -9.769  1.00  0.00    -0.200 F 
ENDBRANCH  64  88
BRANCH  76  99
ATOM     99  C   UNL     1      -3.810 -11.804  -7.861  1.00  0.00     0.064 A 
ATOM    100  C   UNL     1      -2.607 -12.312  -8.373  1.00  0.00     0.173 A 
ATOM    101  C   UNL     1      -5.009 -12.272  -8.424  1.00  0.00     0.173 A 
ATOM    102  F   UNL     1      -1.432 -11.890  -7.881  1.00  0.00    -0.203 F 
ATOM    103  C   UNL     1      -2.604 -13.228  -9.422  1.00  0.00     0.198 A 
ATOM    104  C   UNL     1      -5.003 -13.215  -9.448  1.00  0.00     0.198 A 
ATOM    105  F   UNL     1      -6.189 -11.827  -7.967  1.00  0.00    -0.203 F 
ATOM    106  F   UNL     1      -1.441 -13.659  -9.929  1.00  0.00    -0.200 F 
ATOM    107  C   UNL     1      -3.801 -13.685  -9.952  1.00  0.00     0.200 A 
ATOM    108  F   UNL     1      -6.162 -13.668  -9.945  1.00  0.00    -0.200 F 
ATOM    109  F   UNL     1      -3.796 -14.575 -10.955  1.00  0.00    -0.200 F 
ENDBRANCH  76  99
ENDBRANCH  50  51
ENDBRANCH  43  45
ENDBRANCH  42  43
ENDBRANCH  41  42
ENDBRANCH  40  41
ENDBRANCH  39  40
ENDBRANCH  38  39
ENDBRANCH  37  38
ENDBRANCH  36  37
ENDBRANCH   1  36
TORSDOF 25
