REMARK SMILES Cc1cc(Cl)cc2c1O[C@H](C(F)(F)F)C(C(=O)OCCOCCOCCOCCOC(=O)c1ccc(-c3c4nc(c(-c5c(F)c(F)c(F)c(F)c5F)c5ccc([nH]5)c(-c5c(F)c(F)c(F)c(F)c5F)c5nc(c(-c6c(F)c(F)c(F)c(F)c6F)c6ccc3[nH]6)C=C5)C=C4)cc1)=C2
REMARK SMILES IDX 25 1 24 2 23 3 22 4 21 5 20 6 19 7 18 8 16 9 17 10 15 11
REMARK SMILES IDX 1 12 2 13 3 14 8 15 4 16 7 17 9 18 5 19 6 20 96 21 10 22
REMARK SMILES IDX 11 23 12 24 13 25 14 26 26 27 27 28 28 29 29 30 30 31 31 32
REMARK SMILES IDX 32 33 33 34 34 35 95 36 35 37 94 38 36 39 37 40 38 41 88 42
REMARK SMILES IDX 39 43 93 44 87 45 89 46 40 47 92 48 86 49 85 50 41 52 73 53
REMARK SMILES IDX 53 54 72 55 54 56 57 57 71 58 90 59 55 60 56 61 70 63 91 64
REMARK SMILES IDX 58 65 42 66 43 67 51 68 44 69 45 70 49 71 52 72 46 73 47 74
REMARK SMILES IDX 50 75 48 76 74 77 75 78 83 79 76 80 77 81 81 82 84 83 78 84
REMARK SMILES IDX 79 85 82 86 80 87 59 88 60 89 68 90 61 91 62 92 66 93 69 94
REMARK SMILES IDX 63 95 64 96 67 97 65 98
REMARK H PARENT 89 51 57 62
REMARK Flexibility Score: inf
ROOT
ATOM      1  C   UNL     1       0.160  -8.511   2.440  1.00  0.00     0.188 C 
ENDROOT
BRANCH   1   2
ATOM      2  O   UNL     1       0.607  -7.358   1.722  1.00  0.00    -0.377 OA
BRANCH   2   3
ATOM      3  C   UNL     1      -0.041  -7.038   0.500  1.00  0.00     0.188 C 
BRANCH   3   4
ATOM      4  C   UNL     1       0.408  -7.918  -0.682  1.00  0.00     0.188 C 
BRANCH   4   5
ATOM      5  O   UNL     1       1.065  -9.105  -0.264  1.00  0.00    -0.376 OA
BRANCH   5   6
ATOM      6  C   UNL     1       2.481  -9.164  -0.247  1.00  0.00     0.202 C 
BRANCH   6   7
ATOM      7  C   UNL     1       3.330  -8.075   0.432  1.00  0.00     0.261 C 
BRANCH   7   8
ATOM      8  O   UNL     1       2.889  -6.723   0.278  1.00  0.00    -0.460 OA
BRANCH   8   9
ATOM      9  C   UNL     1       3.087  -6.130  -0.913  1.00  0.00     0.338 C 
ATOM     10  O   UNL     1       3.636  -6.614  -1.886  1.00  0.00    -0.246 OA
BRANCH   9  11
ATOM     11  C   UNL     1       2.365  -4.838  -0.895  1.00  0.00     0.087 C 
ATOM     12  C   UNL     1       0.815  -0.070   0.074  1.00  0.00     0.048 C 
ATOM     13  C   UNL     1       0.532  -1.086  -0.997  1.00  0.00    -0.007 A 
ATOM     14  C   UNL     1      -0.237  -0.734  -2.115  1.00  0.00     0.027 A 
ATOM     15  C   UNL     1       1.071  -2.381  -0.917  1.00  0.00     0.131 A 
ATOM     16  C   UNL     1      -0.468  -1.664  -3.127  1.00  0.00     0.042 A 
ATOM     17  C   UNL     1       0.888  -3.289  -1.965  1.00  0.00     0.019 A 
ATOM     18  O   UNL     1       1.784  -2.676   0.210  1.00  0.00    -0.475 OA
ATOM     19  Cl  UNL     1      -1.413  -1.220  -4.495  1.00  0.00    -0.084 Cl
ATOM     20  C   UNL     1       0.089  -2.938  -3.058  1.00  0.00     0.032 A 
ATOM     21  C   UNL     1       1.597  -4.557  -1.956  1.00  0.00     0.027 C 
ATOM     22  C   UNL     1       2.461  -3.957   0.323  1.00  0.00     0.316 C 
BRANCH  22  23
ATOM     23  C   UNL     1       3.912  -3.674   0.734  1.00  0.00     0.430 C 
ATOM     24  F   UNL     1       3.967  -2.827   1.791  1.00  0.00    -0.167 F 
ATOM     25  F   UNL     1       4.568  -4.797   1.106  1.00  0.00    -0.167 F 
ATOM     26  F   UNL     1       4.616  -3.110  -0.274  1.00  0.00    -0.167 F 
ENDBRANCH  22  23
ENDBRANCH   9  11
ENDBRANCH   8   9
ENDBRANCH   7   8
ENDBRANCH   6   7
ENDBRANCH   5   6
ENDBRANCH   4   5
ENDBRANCH   3   4
ENDBRANCH   2   3
ENDBRANCH   1   2
BRANCH   1  27
ATOM     27  C   UNL     1      -0.729  -9.605   1.794  1.00  0.00     0.188 C 
BRANCH  27  28
ATOM     28  O   UNL     1      -1.702  -9.108   0.885  1.00  0.00    -0.376 OA
BRANCH  28  29
ATOM     29  C   UNL     1      -3.060  -9.119   1.293  1.00  0.00     0.202 C 
BRANCH  29  30
ATOM     30  C   UNL     1      -3.427  -8.110   2.388  1.00  0.00     0.261 C 
BRANCH  30  31
ATOM     31  O   UNL     1      -2.685  -8.225   3.612  1.00  0.00    -0.460 OA
BRANCH  31  32
ATOM     32  C   UNL     1      -2.817  -9.369   4.315  1.00  0.00     0.338 C 
ATOM     33  O   UNL     1      -3.530 -10.322   4.053  1.00  0.00    -0.246 OA
BRANCH  32  34
ATOM     34  C   UNL     1      -1.790  -9.354   5.376  1.00  0.00     0.060 A 
ATOM     35  C   UNL     1      -0.816 -10.361   5.398  1.00  0.00     0.016 A 
ATOM     36  C   UNL     1      -1.779  -8.335   6.331  1.00  0.00     0.016 A 
ATOM     37  C   UNL     1       0.157 -10.366   6.397  1.00  0.00     0.010 A 
ATOM     38  C   UNL     1      -0.820  -8.355   7.346  1.00  0.00     0.010 A 
ATOM     39  C   UNL     1       0.131  -9.389   7.401  1.00  0.00    -0.014 A 
BRANCH  39  40
ATOM     40  C   UNL     1       0.950  -9.573   8.623  1.00  0.00     0.031 A 
ATOM     41  C   UNL     1       0.306 -10.235   9.809  1.00  0.00     0.074 A 
ATOM     42  C   UNL     1       2.241  -9.200   8.672  1.00  0.00     0.049 A 
ATOM     43  N   UNL     1       0.799 -10.483  10.995  1.00  0.00    -0.248 NA
ATOM     44  C   UNL     1      -1.086 -10.683   9.630  1.00  0.00     0.031 C 
ATOM     45  C   UNL     1       2.990  -8.602   7.571  1.00  0.00     0.029 A 
ATOM     46  N   UNL     1       3.149  -9.274   9.699  1.00  0.00    -0.354 N 
ATOM     47  C   UNL     1      -0.215 -11.122  11.695  1.00  0.00     0.074 A 
ATOM     48  C   UNL     1      -1.365 -11.187  10.822  1.00  0.00     0.031 C 
ATOM     49  C   UNL     1       4.249  -8.364   7.981  1.00  0.00     0.029 A 
ATOM     50  C   UNL     1       4.383  -8.761   9.383  1.00  0.00     0.049 A 
ATOM     51  H   UNL     1       2.936  -9.659  10.580  1.00  0.00     0.167 HD
ATOM     52  C   UNL     1      -0.183 -11.627  12.950  1.00  0.00     0.037 A 
ATOM     53  C   UNL     1       5.486  -8.619  10.146  1.00  0.00     0.037 A 
ATOM     54  C   UNL     1       0.958 -11.553  13.821  1.00  0.00     0.049 A 
ATOM     55  C   UNL     1       5.458  -9.086  11.581  1.00  0.00     0.074 A 
ATOM     56  C   UNL     1       1.084 -12.025  15.115  1.00  0.00     0.029 A 
ATOM     57  N   UNL     1       2.169 -10.967  13.486  1.00  0.00    -0.354 N 
ATOM     58  N   UNL     1       4.500  -9.698  12.236  1.00  0.00    -0.248 NA
ATOM     59  C   UNL     1       6.665  -8.841  12.385  1.00  0.00     0.031 C 
ATOM     60  C   UNL     1       2.354 -11.677  15.582  1.00  0.00     0.029 A 
ATOM     61  C   UNL     1       3.040 -11.042  14.560  1.00  0.00     0.049 A 
ATOM     62  H   UNL     1       2.378 -10.558  12.615  1.00  0.00     0.167 HD
ATOM     63  C   UNL     1       4.997  -9.937  13.511  1.00  0.00     0.074 A 
ATOM     64  C   UNL     1       6.347  -9.415  13.537  1.00  0.00     0.031 C 
ATOM     65  C   UNL     1       4.388 -10.532  14.566  1.00  0.00     0.037 A 
BRANCH  52  66
ATOM     66  C   UNL     1      -1.422 -12.300  13.463  1.00  0.00     0.064 A 
ATOM     67  C   UNL     1      -1.826 -13.553  12.979  1.00  0.00     0.173 A 
ATOM     68  C   UNL     1      -2.176 -11.717  14.491  1.00  0.00     0.173 A 
ATOM     69  F   UNL     1      -1.148 -14.143  11.982  1.00  0.00    -0.203 F 
ATOM     70  C   UNL     1      -2.947 -14.193  13.499  1.00  0.00     0.198 A 
ATOM     71  C   UNL     1      -3.279 -12.373  15.030  1.00  0.00     0.198 A 
ATOM     72  F   UNL     1      -1.831 -10.520  14.989  1.00  0.00    -0.203 F 
ATOM     73  F   UNL     1      -3.335 -15.374  12.999  1.00  0.00    -0.200 F 
ATOM     74  C   UNL     1      -3.665 -13.608  14.532  1.00  0.00     0.200 A 
ATOM     75  F   UNL     1      -3.964 -11.813  16.036  1.00  0.00    -0.200 F 
ATOM     76  F   UNL     1      -4.733 -14.235  15.046  1.00  0.00    -0.200 F 
ENDBRANCH  52  66
BRANCH  53  77
ATOM     77  C   UNL     1       6.716  -8.011   9.572  1.00  0.00     0.064 A 
ATOM     78  C   UNL     1       7.880  -8.773   9.393  1.00  0.00     0.173 A 
ATOM     79  C   UNL     1       6.762  -6.658   9.205  1.00  0.00     0.173 A 
ATOM     80  F   UNL     1       7.897 -10.063   9.757  1.00  0.00    -0.203 F 
ATOM     81  C   UNL     1       9.043  -8.203   8.879  1.00  0.00     0.198 A 
ATOM     82  C   UNL     1       7.917  -6.096   8.663  1.00  0.00     0.198 A 
ATOM     83  F   UNL     1       5.680  -5.881   9.363  1.00  0.00    -0.203 F 
ATOM     84  F   UNL     1      10.153  -8.944   8.760  1.00  0.00    -0.200 F 
ATOM     85  C   UNL     1       9.059  -6.867   8.507  1.00  0.00     0.200 A 
ATOM     86  F   UNL     1       7.925  -4.807   8.297  1.00  0.00    -0.200 F 
ATOM     87  F   UNL     1      10.175  -6.322   8.006  1.00  0.00    -0.200 F 
ENDBRANCH  53  77
BRANCH  65  88
ATOM     88  C   UNL     1       5.172 -10.685  15.839  1.00  0.00     0.064 A 
ATOM     89  C   UNL     1       5.457  -9.587  16.662  1.00  0.00     0.173 A 
ATOM     90  C   UNL     1       5.554 -11.960  16.288  1.00  0.00     0.173 A 
ATOM     91  F   UNL     1       5.121  -8.347  16.274  1.00  0.00    -0.203 F 
ATOM     92  C   UNL     1       6.107  -9.757  17.882  1.00  0.00     0.198 A 
ATOM     93  C   UNL     1       6.174 -12.129  17.522  1.00  0.00     0.198 A 
ATOM     94  F   UNL     1       5.294 -13.045  15.544  1.00  0.00    -0.203 F 
ATOM     95  F   UNL     1       6.397  -8.689  18.638  1.00  0.00    -0.200 F 
ATOM     96  C   UNL     1       6.453 -11.028  18.317  1.00  0.00     0.200 A 
ATOM     97  F   UNL     1       6.489 -13.360  17.949  1.00  0.00    -0.200 F 
ATOM     98  F   UNL     1       7.056 -11.191  19.502  1.00  0.00    -0.200 F 
ENDBRANCH  65  88
ENDBRANCH  39  40
ENDBRANCH  32  34
ENDBRANCH  31  32
ENDBRANCH  30  31
ENDBRANCH  29  30
ENDBRANCH  28  29
ENDBRANCH  27  28
ENDBRANCH   1  27
TORSDOF 21
