REMARK SMILES COC(=O)[C@@H](C)S(=O)(=O)N(C)c1snc(C)c1C(=O)OCCOCCOCCOCCOC(=O)c1ccc(-c2c3nc(c(-c4c(F)c(F)c(F)c(F)c4F)c4ccc([nH]4)c(-c4c(F)c(F)c(F)c(F)c4F)c4nc(c(-c5c(F)c(F)c(F)c(F)c5F)c5ccc2[nH]5)C=C4)C=C3)cc1
REMARK SMILES IDX 24 1 23 2 22 3 21 4 20 5 18 6 19 7 17 8 12 9 13 10 14 11
REMARK SMILES IDX 15 12 16 13 10 14 11 15 7 16 8 17 9 18 5 19 6 20 3 21 4 22
REMARK SMILES IDX 2 23 1 24 25 25 26 26 27 27 28 28 29 29 30 30 31 31 32 32
REMARK SMILES IDX 33 33 34 34 35 35 36 36 97 37 37 38 96 39 38 40 39 41 40 42
REMARK SMILES IDX 90 43 41 44 95 45 89 46 91 47 42 48 94 49 88 50 87 51 43 53
REMARK SMILES IDX 75 54 55 55 74 56 56 57 59 58 73 59 92 60 57 61 58 62 72 64
REMARK SMILES IDX 93 65 60 66 44 67 45 68 53 69 46 70 47 71 51 72 54 73 48 74
REMARK SMILES IDX 49 75 52 76 50 77 76 78 77 79 85 80 78 81 79 82 83 83 86 84
REMARK SMILES IDX 80 85 81 86 84 87 82 88 61 89 62 90 70 91 63 92 64 93 68 94
REMARK SMILES IDX 71 95 65 96 66 97 69 98 67 99
REMARK H PARENT 91 52 59 63
REMARK Flexibility Score: inf
ROOT
ATOM      1  C   UNL     1      -4.841  -6.846  -0.019  1.00  0.00     0.188 C 
ENDROOT
BRANCH   1   2
ATOM      2  O   UNL     1      -4.271  -7.877  -0.788  1.00  0.00    -0.376 OA
BRANCH   2   3
ATOM      3  C   UNL     1      -3.831  -7.704  -2.114  1.00  0.00     0.202 C 
BRANCH   3   4
ATOM      4  C   UNL     1      -3.164  -6.410  -2.584  1.00  0.00     0.261 C 
BRANCH   4   5
ATOM      5  O   UNL     1      -3.310  -5.306  -1.698  1.00  0.00    -0.460 OA
BRANCH   5   6
ATOM      6  C   UNL     1      -4.293  -4.415  -2.011  1.00  0.00     0.343 C 
ATOM      7  O   UNL     1      -5.079  -4.548  -2.934  1.00  0.00    -0.246 OA
BRANCH   6   8
ATOM      8  C   UNL     1      -4.443  -3.395  -0.988  1.00  0.00     0.118 A 
ATOM      9  C   UNL     1      -3.435  -2.744  -0.283  1.00  0.00     0.140 A 
ATOM     10  S   UNL     1      -4.196  -1.588   0.754  1.00  0.00    -0.017 S 
ATOM     11  N   UNL     1      -5.735  -2.096   0.520  1.00  0.00    -0.195 NA
ATOM     12  C   UNL     1      -5.734  -3.065  -0.392  1.00  0.00     0.068 A 
ATOM     13  C   UNL     1      -7.034  -3.781  -0.581  1.00  0.00     0.069 C 
BRANCH   9  14
ATOM     14  N   UNL     1      -1.980  -3.010  -0.260  1.00  0.00    -0.261 N 
ATOM     15  C   UNL     1      -1.328  -2.508   0.985  1.00  0.00     0.164 C 
BRANCH  14  16
ATOM     16  S   UNL     1      -1.226  -2.596  -1.743  1.00  0.00     0.249 S 
ATOM     17  O   UNL     1      -1.360  -1.159  -1.888  1.00  0.00    -0.206 OA
ATOM     18  O   UNL     1      -1.771  -3.446  -2.785  1.00  0.00    -0.206 OA
BRANCH  16  19
ATOM     19  C   UNL     1       0.515  -3.018  -1.648  1.00  0.00     0.236 C 
ATOM     20  C   UNL     1       0.927  -4.246  -0.857  1.00  0.00     0.039 C 
BRANCH  19  21
ATOM     21  C   UNL     1       1.294  -1.774  -1.347  1.00  0.00     0.325 C 
ATOM     22  O   UNL     1       2.147  -1.316  -2.098  1.00  0.00    -0.251 OA
BRANCH  21  23
ATOM     23  O   UNL     1       0.950  -1.223  -0.155  1.00  0.00    -0.468 OA
ATOM     24  C   UNL     1       1.347   0.142  -0.005  1.00  0.00     0.282 C 
ENDBRANCH  21  23
ENDBRANCH  19  21
ENDBRANCH  16  19
ENDBRANCH  14  16
ENDBRANCH   9  14
ENDBRANCH   6   8
ENDBRANCH   5   6
ENDBRANCH   4   5
ENDBRANCH   3   4
ENDBRANCH   2   3
ENDBRANCH   1   2
BRANCH   1  25
ATOM     25  C   UNL     1      -3.928  -6.212   1.063  1.00  0.00     0.188 C 
BRANCH  25  26
ATOM     26  O   UNL     1      -2.559  -6.535   1.247  1.00  0.00    -0.377 OA
BRANCH  26  27
ATOM     27  C   UNL     1      -2.032  -7.759   0.774  1.00  0.00     0.188 C 
BRANCH  27  28
ATOM     28  C   UNL     1      -2.735  -9.102   1.078  1.00  0.00     0.188 C 
BRANCH  28  29
ATOM     29  O   UNL     1      -4.092  -9.087   1.471  1.00  0.00    -0.376 OA
BRANCH  29  30
ATOM     30  C   UNL     1      -4.592  -8.898   2.777  1.00  0.00     0.202 C 
BRANCH  30  31
ATOM     31  C   UNL     1      -3.816  -8.259   3.918  1.00  0.00     0.261 C 
BRANCH  31  32
ATOM     32  O   UNL     1      -2.429  -8.164   3.719  1.00  0.00    -0.460 OA
BRANCH  32  33
ATOM     33  C   UNL     1      -1.799  -9.338   3.911  1.00  0.00     0.338 C 
ATOM     34  O   UNL     1      -2.282 -10.450   3.950  1.00  0.00    -0.246 OA
BRANCH  33  35
ATOM     35  C   UNL     1      -0.416  -9.034   4.259  1.00  0.00     0.060 A 
ATOM     36  C   UNL     1       0.439 -10.130   4.314  1.00  0.00     0.016 A 
ATOM     37  C   UNL     1      -0.184  -7.838   4.955  1.00  0.00     0.016 A 
ATOM     38  C   UNL     1       1.391 -10.127   5.299  1.00  0.00     0.010 A 
ATOM     39  C   UNL     1       0.738  -7.854   5.962  1.00  0.00     0.010 A 
ATOM     40  C   UNL     1       1.453  -9.029   6.170  1.00  0.00    -0.014 A 
BRANCH  40  41
ATOM     41  C   UNL     1       2.490  -9.032   7.172  1.00  0.00     0.031 A 
ATOM     42  C   UNL     1       3.792  -8.802   6.517  1.00  0.00     0.074 A 
ATOM     43  C   UNL     1       2.243  -9.144   8.492  1.00  0.00     0.049 A 
ATOM     44  N   UNL     1       4.710  -9.681   6.304  1.00  0.00    -0.248 NA
ATOM     45  C   UNL     1       3.988  -7.546   5.765  1.00  0.00     0.031 C 
ATOM     46  C   UNL     1       0.936  -9.091   9.154  1.00  0.00     0.029 A 
ATOM     47  N   UNL     1       3.118  -9.227   9.538  1.00  0.00    -0.354 N 
ATOM     48  C   UNL     1       5.733  -8.978   5.677  1.00  0.00     0.074 A 
ATOM     49  C   UNL     1       5.129  -7.803   5.123  1.00  0.00     0.031 C 
ATOM     50  C   UNL     1       1.113  -8.908  10.483  1.00  0.00     0.029 A 
ATOM     51  C   UNL     1       2.532  -8.977  10.782  1.00  0.00     0.049 A 
ATOM     52  H   UNL     1       4.072  -9.443   9.426  1.00  0.00     0.167 HD
ATOM     53  C   UNL     1       7.010  -9.206   6.084  1.00  0.00     0.037 A 
ATOM     54  C   UNL     1       3.199  -8.794  11.950  1.00  0.00     0.037 A 
ATOM     55  C   UNL     1       7.084 -10.485   6.753  1.00  0.00     0.049 A 
ATOM     56  C   UNL     1       4.548  -9.381  11.783  1.00  0.00     0.074 A 
ATOM     57  C   UNL     1       7.074 -11.812   6.384  1.00  0.00     0.029 A 
ATOM     58  N   UNL     1       6.718 -10.431   8.071  1.00  0.00    -0.354 N 
ATOM     59  N   UNL     1       4.760 -10.663  11.682  1.00  0.00    -0.248 NA
ATOM     60  C   UNL     1       5.648  -8.524  11.350  1.00  0.00     0.031 C 
ATOM     61  C   UNL     1       6.637 -12.549   7.526  1.00  0.00     0.029 A 
ATOM     62  C   UNL     1       6.449 -11.667   8.585  1.00  0.00     0.049 A 
ATOM     63  H   UNL     1       6.655  -9.596   8.589  1.00  0.00     0.167 HD
ATOM     64  C   UNL     1       5.806 -10.758  10.789  1.00  0.00     0.074 A 
ATOM     65  C   UNL     1       6.419  -9.437  10.755  1.00  0.00     0.031 C 
ATOM     66  C   UNL     1       5.854 -11.784   9.893  1.00  0.00     0.037 A 
BRANCH  53  67
ATOM     67  C   UNL     1       8.001  -8.098   6.424  1.00  0.00     0.064 A 
ATOM     68  C   UNL     1       9.266  -8.476   6.924  1.00  0.00     0.173 A 
ATOM     69  C   UNL     1       7.686  -6.728   6.581  1.00  0.00     0.173 A 
ATOM     70  F   UNL     1       9.684  -9.747   6.835  1.00  0.00    -0.203 F 
ATOM     71  C   UNL     1      10.096  -7.579   7.604  1.00  0.00     0.198 A 
ATOM     72  C   UNL     1       8.533  -5.830   7.229  1.00  0.00     0.198 A 
ATOM     73  F   UNL     1       6.521  -6.196   6.207  1.00  0.00    -0.203 F 
ATOM     74  F   UNL     1      11.234  -8.018   8.159  1.00  0.00    -0.200 F 
ATOM     75  C   UNL     1       9.723  -6.260   7.767  1.00  0.00     0.200 A 
ATOM     76  F   UNL     1       8.139  -4.558   7.391  1.00  0.00    -0.200 F 
ATOM     77  F   UNL     1      10.487  -5.413   8.469  1.00  0.00    -0.200 F 
ENDBRANCH  53  67
BRANCH  54  78
ATOM     78  C   UNL     1       2.878  -7.955  13.129  1.00  0.00     0.064 A 
ATOM     79  C   UNL     1       3.524  -8.163  14.361  1.00  0.00     0.173 A 
ATOM     80  C   UNL     1       2.188  -6.739  12.981  1.00  0.00     0.173 A 
ATOM     81  F   UNL     1       4.233  -9.282  14.572  1.00  0.00    -0.203 F 
ATOM     82  C   UNL     1       3.524  -7.190  15.366  1.00  0.00     0.198 A 
ATOM     83  C   UNL     1       2.188  -5.768  13.986  1.00  0.00     0.198 A 
ATOM     84  F   UNL     1       1.595  -6.427  11.820  1.00  0.00    -0.203 F 
ATOM     85  F   UNL     1       4.216  -7.393  16.495  1.00  0.00    -0.200 F 
ATOM     86  C   UNL     1       2.870  -5.986  15.169  1.00  0.00     0.200 A 
ATOM     87  F   UNL     1       1.585  -4.590  13.770  1.00  0.00    -0.200 F 
ATOM     88  F   UNL     1       2.936  -5.020  16.097  1.00  0.00    -0.200 F 
ENDBRANCH  54  78
BRANCH  66  89
ATOM     89  C   UNL     1       5.159 -13.053  10.259  1.00  0.00     0.064 A 
ATOM     90  C   UNL     1       3.770 -13.203  10.394  1.00  0.00     0.173 A 
ATOM     91  C   UNL     1       5.959 -14.190  10.430  1.00  0.00     0.173 A 
ATOM     92  F   UNL     1       2.940 -12.172  10.178  1.00  0.00    -0.203 F 
ATOM     93  C   UNL     1       3.216 -14.442  10.720  1.00  0.00     0.198 A 
ATOM     94  C   UNL     1       5.402 -15.429  10.716  1.00  0.00     0.198 A 
ATOM     95  F   UNL     1       7.291 -14.101  10.283  1.00  0.00    -0.203 F 
ATOM     96  F   UNL     1       1.889 -14.568  10.865  1.00  0.00    -0.200 F 
ATOM     97  C   UNL     1       4.032 -15.553  10.873  1.00  0.00     0.200 A 
ATOM     98  F   UNL     1       6.195 -16.504  10.823  1.00  0.00    -0.200 F 
ATOM     99  F   UNL     1       3.498 -16.750  11.155  1.00  0.00    -0.200 F 
ENDBRANCH  66  89
ENDBRANCH  40  41
ENDBRANCH  33  35
ENDBRANCH  32  33
ENDBRANCH  31  32
ENDBRANCH  30  31
ENDBRANCH  29  30
ENDBRANCH  28  29
ENDBRANCH  27  28
ENDBRANCH  26  27
ENDBRANCH  25  26
ENDBRANCH   1  25
TORSDOF 25
