REMARK SMILES CCC(CC)(NC(=O)NC[C@H](C)[NH+]1CCCCC1)C(=O)OCCOCCOCCOCCOC(=O)c1ccc(-c2c3nc(c(-c4c(F)c(F)c(F)c(F)c4F)c4ccc([nH]4)c(-c4c(F)c(F)c(F)c(F)c4F)c4nc(c(-c5c(F)c(F)c(F)c(F)c5F)c5ccc2[nH]5)C=C4)C=C3)cc1
REMARK SMILES IDX 26 1 25 2 24 3 23 4 22 5 21 6 19 7 20 8 3 9 2 10 1 11 4 12
REMARK SMILES IDX 5 13 6 14 7 15 8 17 9 18 10 20 11 21 12 22 13 23 14 24 18 25
REMARK SMILES IDX 15 27 17 28 16 29 27 30 28 31 29 32 30 33 31 34 32 35 33 36
REMARK SMILES IDX 34 37 35 38 36 39 37 40 98 41 38 42 97 43 39 44 40 45 41 46
REMARK SMILES IDX 91 47 42 48 96 49 90 50 92 51 43 52 95 53 89 54 88 55 44 57
REMARK SMILES IDX 76 58 56 59 75 60 57 61 60 62 74 63 93 64 58 65 59 66 73 68
REMARK SMILES IDX 94 69 61 70 45 71 46 72 54 73 47 74 48 75 52 76 55 77 49 78
REMARK SMILES IDX 50 79 53 80 51 81 77 82 78 83 86 84 79 85 80 86 84 87 87 88
REMARK SMILES IDX 81 89 82 90 85 91 83 92 62 93 63 94 71 95 64 96 65 97 69 98
REMARK SMILES IDX 72 99 66 100 67 101 70 102 68 103
REMARK H PARENT 6 16 9 19 13 26 92 56 60 67
REMARK Flexibility Score: inf
ROOT
ATOM      1  C   UNL     1       6.257  -5.091  -3.857  1.00  0.00     0.188 C 
ENDROOT
BRANCH   1   2
ATOM      2  C   UNL     1       6.050  -6.547  -3.408  1.00  0.00     0.188 C 
BRANCH   2   3
ATOM      3  O   UNL     1       4.788  -6.900  -2.842  1.00  0.00    -0.376 OA
BRANCH   3   4
ATOM      4  C   UNL     1       4.330  -6.273  -1.646  1.00  0.00     0.202 C 
BRANCH   4   5
ATOM      5  C   UNL     1       5.358  -5.948  -0.559  1.00  0.00     0.261 C 
BRANCH   5   6
ATOM      6  O   UNL     1       6.313  -5.015  -1.092  1.00  0.00    -0.461 OA
BRANCH   6   7
ATOM      7  C   UNL     1       7.117  -4.359  -0.230  1.00  0.00     0.331 C 
ATOM      8  O   UNL     1       7.168  -4.646   0.961  1.00  0.00    -0.249 OA
BRANCH   7   9
ATOM      9  C   UNL     1       8.060  -3.320  -0.950  1.00  0.00     0.139 C 
BRANCH   9  10
ATOM     10  C   UNL     1       9.319  -4.180  -1.315  1.00  0.00     0.037 C 
ATOM     11  C   UNL     1       9.954  -4.982  -0.188  1.00  0.00     0.007 C 
ENDBRANCH   9  10
BRANCH   9  12
ATOM     12  C   UNL     1       8.368  -2.190   0.068  1.00  0.00     0.037 C 
ATOM     13  C   UNL     1       9.609  -1.357  -0.207  1.00  0.00     0.007 C 
ENDBRANCH   9  12
BRANCH   9  14
ATOM     14  N   UNL     1       7.682  -2.679  -2.272  1.00  0.00    -0.322 N 
ATOM     15  C   UNL     1       6.900  -1.652  -2.649  1.00  0.00     0.315 C 
ATOM     16  H   UNL     1       8.112  -3.123  -3.039  1.00  0.00     0.166 HD
ATOM     17  O   UNL     1       7.330  -0.902  -3.529  1.00  0.00    -0.249 OA
ATOM     18  N   UNL     1       5.674  -1.417  -2.160  1.00  0.00    -0.332 N 
ATOM     19  H   UNL     1       5.395  -0.474  -2.111  1.00  0.00     0.165 HD
BRANCH  18  20
ATOM     20  C   UNL     1       4.721  -2.393  -1.700  1.00  0.00     0.182 C 
BRANCH  20  21
ATOM     21  C   UNL     1       3.573  -1.948  -0.763  1.00  0.00     0.200 C 
ATOM     22  C   UNL     1       2.524  -1.142  -1.538  1.00  0.00     0.077 C 
BRANCH  21  23
ATOM     23  N   UNL     1       3.946  -1.355   0.547  1.00  0.00    -0.331 N 
ATOM     24  C   UNL     1       4.789  -2.279   1.325  1.00  0.00     0.262 C 
ATOM     25  C   UNL     1       4.529  -0.013   0.452  1.00  0.00     0.262 C 
ATOM     26  H   UNL     1       3.072  -1.221   1.055  1.00  0.00     0.348 HD
ATOM     27  C   UNL     1       5.280  -1.756   2.673  1.00  0.00     0.062 C 
ATOM     28  C   UNL     1       4.869   0.547   1.834  1.00  0.00     0.062 C 
ATOM     29  C   UNL     1       5.863  -0.357   2.550  1.00  0.00     0.012 C 
ENDBRANCH  21  23
ENDBRANCH  20  21
ENDBRANCH  18  20
ENDBRANCH   9  14
ENDBRANCH   7   9
ENDBRANCH   6   7
ENDBRANCH   5   6
ENDBRANCH   4   5
ENDBRANCH   3   4
ENDBRANCH   2   3
ENDBRANCH   1   2
BRANCH   1  30
ATOM     30  O   UNL     1       5.516  -4.611  -4.957  1.00  0.00    -0.377 OA
BRANCH  30  31
ATOM     31  C   UNL     1       4.107  -4.676  -4.852  1.00  0.00     0.188 C 
BRANCH  31  32
ATOM     32  C   UNL     1       3.513  -5.882  -5.588  1.00  0.00     0.188 C 
BRANCH  32  33
ATOM     33  O   UNL     1       3.957  -6.214  -6.904  1.00  0.00    -0.376 OA
BRANCH  33  34
ATOM     34  C   UNL     1       5.289  -5.898  -7.283  1.00  0.00     0.202 C 
BRANCH  34  35
ATOM     35  C   UNL     1       5.419  -4.529  -7.978  1.00  0.00     0.261 C 
BRANCH  35  36
ATOM     36  O   UNL     1       4.514  -3.508  -7.518  1.00  0.00    -0.460 OA
BRANCH  36  37
ATOM     37  C   UNL     1       3.264  -3.569  -8.037  1.00  0.00     0.338 C 
ATOM     38  O   UNL     1       2.835  -4.344  -8.871  1.00  0.00    -0.246 OA
BRANCH  37  39
ATOM     39  C   UNL     1       2.413  -2.539  -7.409  1.00  0.00     0.060 A 
ATOM     40  C   UNL     1       1.283  -2.942  -6.685  1.00  0.00     0.016 A 
ATOM     41  C   UNL     1       2.644  -1.186  -7.665  1.00  0.00     0.016 A 
ATOM     42  C   UNL     1       0.348  -1.995  -6.265  1.00  0.00     0.010 A 
ATOM     43  C   UNL     1       1.696  -0.240  -7.264  1.00  0.00     0.010 A 
ATOM     44  C   UNL     1       0.520  -0.647  -6.606  1.00  0.00    -0.014 A 
BRANCH  44  45
ATOM     45  C   UNL     1      -0.624   0.291  -6.479  1.00  0.00     0.031 A 
ATOM     46  C   UNL     1      -1.461   0.568  -7.699  1.00  0.00     0.074 A 
ATOM     47  C   UNL     1      -0.937   0.858  -5.302  1.00  0.00     0.049 A 
ATOM     48  N   UNL     1      -2.464   1.395  -7.854  1.00  0.00    -0.248 NA
ATOM     49  C   UNL     1      -1.120  -0.194  -8.912  1.00  0.00     0.031 C 
ATOM     50  C   UNL     1      -0.244   0.619  -4.039  1.00  0.00     0.029 A 
ATOM     51  N   UNL     1      -1.921   1.760  -4.983  1.00  0.00    -0.354 N 
ATOM     52  C   UNL     1      -2.863   1.261  -9.178  1.00  0.00     0.074 A 
ATOM     53  C   UNL     1      -1.982   0.292  -9.792  1.00  0.00     0.031 C 
ATOM     54  C   UNL     1      -0.813   1.372  -3.081  1.00  0.00     0.029 A 
ATOM     55  C   UNL     1      -1.884   2.173  -3.674  1.00  0.00     0.049 A 
ATOM     56  H   UNL     1      -2.590   2.081  -5.630  1.00  0.00     0.167 HD
ATOM     57  C   UNL     1      -3.877   1.886  -9.822  1.00  0.00     0.037 A 
ATOM     58  C   UNL     1      -2.613   3.113  -3.040  1.00  0.00     0.037 A 
ATOM     59  C   UNL     1      -4.754   2.847  -9.207  1.00  0.00     0.049 A 
ATOM     60  C   UNL     1      -3.682   3.857  -3.801  1.00  0.00     0.074 A 
ATOM     61  C   UNL     1      -5.817   3.530  -9.769  1.00  0.00     0.029 A 
ATOM     62  N   UNL     1      -4.662   3.265  -7.887  1.00  0.00    -0.354 N 
ATOM     63  N   UNL     1      -4.060   3.720  -5.049  1.00  0.00    -0.248 NA
ATOM     64  C   UNL     1      -4.426   4.888  -3.063  1.00  0.00     0.031 C 
ATOM     65  C   UNL     1      -6.333   4.404  -8.807  1.00  0.00     0.029 A 
ATOM     66  C   UNL     1      -5.633   4.218  -7.625  1.00  0.00     0.049 A 
ATOM     67  H   UNL     1      -4.004   2.934  -7.234  1.00  0.00     0.167 HD
ATOM     68  C   UNL     1      -5.105   4.618  -5.235  1.00  0.00     0.074 A 
ATOM     69  C   UNL     1      -5.308   5.287  -3.968  1.00  0.00     0.031 C 
ATOM     70  C   UNL     1      -5.833   4.864  -6.353  1.00  0.00     0.037 A 
BRANCH  57  71
ATOM     71  C   UNL     1      -4.072   1.577 -11.279  1.00  0.00     0.064 A 
ATOM     72  C   UNL     1      -4.563   0.337 -11.714  1.00  0.00     0.173 A 
ATOM     73  C   UNL     1      -3.799   2.552 -12.251  1.00  0.00     0.173 A 
ATOM     74  F   UNL     1      -4.828  -0.634 -10.827  1.00  0.00    -0.203 F 
ATOM     75  C   UNL     1      -4.750   0.077 -13.070  1.00  0.00     0.198 A 
ATOM     76  C   UNL     1      -4.016   2.299 -13.602  1.00  0.00     0.198 A 
ATOM     77  F   UNL     1      -3.332   3.756 -11.889  1.00  0.00    -0.203 F 
ATOM     78  F   UNL     1      -5.177  -1.130 -13.466  1.00  0.00    -0.200 F 
ATOM     79  C   UNL     1      -4.484   1.060 -14.012  1.00  0.00     0.200 A 
ATOM     80  F   UNL     1      -3.773   3.255 -14.509  1.00  0.00    -0.200 F 
ATOM     81  F   UNL     1      -4.675   0.811 -15.315  1.00  0.00    -0.200 F 
ENDBRANCH  57  71
BRANCH  58  82
ATOM     82  C   UNL     1      -2.343   3.426  -1.611  1.00  0.00     0.064 A 
ATOM     83  C   UNL     1      -3.290   3.148  -0.615  1.00  0.00     0.173 A 
ATOM     84  C   UNL     1      -1.143   4.037  -1.215  1.00  0.00     0.173 A 
ATOM     85  F   UNL     1      -4.464   2.591  -0.945  1.00  0.00    -0.203 F 
ATOM     86  C   UNL     1      -3.057   3.489   0.716  1.00  0.00     0.198 A 
ATOM     87  C   UNL     1      -0.898   4.348   0.120  1.00  0.00     0.198 A 
ATOM     88  F   UNL     1      -0.204   4.328  -2.128  1.00  0.00    -0.203 F 
ATOM     89  F   UNL     1      -4.002   3.262   1.639  1.00  0.00    -0.200 F 
ATOM     90  C   UNL     1      -1.859   4.083   1.084  1.00  0.00     0.200 A 
ATOM     91  F   UNL     1       0.266   4.911   0.472  1.00  0.00    -0.200 F 
ATOM     92  F   UNL     1      -1.635   4.410   2.364  1.00  0.00    -0.200 F 
ENDBRANCH  58  82
BRANCH  70  93
ATOM     93  C   UNL     1      -6.952   5.861  -6.247  1.00  0.00     0.064 A 
ATOM     94  C   UNL     1      -6.710   7.235  -6.112  1.00  0.00     0.173 A 
ATOM     95  C   UNL     1      -8.287   5.435  -6.332  1.00  0.00     0.173 A 
ATOM     96  F   UNL     1      -5.453   7.693  -6.013  1.00  0.00    -0.203 F 
ATOM     97  C   UNL     1      -7.764   8.143  -6.038  1.00  0.00     0.198 A 
ATOM     98  C   UNL     1      -9.337   6.348  -6.292  1.00  0.00     0.198 A 
ATOM     99  F   UNL     1      -8.574   4.131  -6.472  1.00  0.00    -0.203 F 
ATOM    100  F   UNL     1      -7.511   9.447  -5.859  1.00  0.00    -0.200 F 
ATOM    101  C   UNL     1      -9.075   7.701  -6.137  1.00  0.00     0.200 A 
ATOM    102  F   UNL     1     -10.601   5.920  -6.405  1.00  0.00    -0.200 F 
ATOM    103  F   UNL     1     -10.086   8.577  -6.076  1.00  0.00    -0.200 F 
ENDBRANCH  70  93
ENDBRANCH  44  45
ENDBRANCH  37  39
ENDBRANCH  36  37
ENDBRANCH  35  36
ENDBRANCH  34  35
ENDBRANCH  33  34
ENDBRANCH  32  33
ENDBRANCH  31  32
ENDBRANCH  30  31
ENDBRANCH   1  30
TORSDOF 26
