REMARK SMILES O=C(OCCOCCOCCOCCOC(=O)[C@H]1CC=CC[C@@H]1c1nc2cc(Cl)ccc2o1)c1ccc(-c2c3nc(c(-c4c(F)c(F)c(F)c(F)c4F)c4ccc([nH]4)c(-c4c(F)c(F)c(F)c(F)c4F)c4nc(c(-c5c(F)c(F)c(F)c(F)c5F)c5ccc2[nH]5)C=C4)C=C3)cc1
REMARK SMILES IDX 8 1 7 2 6 3 5 4 4 5 3 6 2 7 1 8 34 9 35 10 96 11 36 12 95 13
REMARK SMILES IDX 37 14 38 15 39 16 89 17 40 18 94 19 88 20 90 21 41 22 93 23
REMARK SMILES IDX 87 24 86 25 42 27 74 28 54 29 73 30 55 31 58 32 72 33 91 34
REMARK SMILES IDX 56 35 57 36 71 38 92 39 59 40 43 41 44 42 52 43 45 44 46 45
REMARK SMILES IDX 50 46 53 47 47 48 48 49 51 50 49 51 75 52 76 53 84 54 77 55
REMARK SMILES IDX 78 56 82 57 85 58 79 59 80 60 83 61 81 62 60 63 61 64 69 65
REMARK SMILES IDX 62 66 63 67 67 68 70 69 64 70 65 71 68 72 66 73 9 74 10 75
REMARK SMILES IDX 11 76 12 77 13 78 14 79 15 80 16 81 17 82 18 83 19 84 23 85
REMARK SMILES IDX 20 86 22 87 21 88 24 89 25 90 33 91 26 92 32 93 27 94 31 95
REMARK SMILES IDX 28 96 30 97 29 98
REMARK H PARENT 90 26 58 37
REMARK Flexibility Score: inf
ROOT
ATOM      1  C   UNL     1       0.878   0.715   1.522  1.00  0.00     0.188 C 
ENDROOT
BRANCH   1   2
ATOM      2  C   UNL     1       1.496   0.712   0.120  1.00  0.00     0.188 C 
BRANCH   2   3
ATOM      3  O   UNL     1       2.909   0.600   0.263  1.00  0.00    -0.376 OA
BRANCH   3   4
ATOM      4  C   UNL     1       3.694   1.011  -0.845  1.00  0.00     0.202 C 
BRANCH   4   5
ATOM      5  C   UNL     1       3.688  -0.030  -1.966  1.00  0.00     0.261 C 
BRANCH   5   6
ATOM      6  O   UNL     1       4.326  -1.259  -1.563  1.00  0.00    -0.460 OA
BRANCH   6   7
ATOM      7  C   UNL     1       3.659  -1.956  -0.593  1.00  0.00     0.338 C 
ATOM      8  O   UNL     1       2.586  -2.478  -0.727  1.00  0.00    -0.246 OA
BRANCH   7   9
ATOM      9  C   UNL     1       4.417  -1.830   0.693  1.00  0.00     0.060 A 
ATOM     10  C   UNL     1       3.793  -2.185   1.895  1.00  0.00     0.016 A 
ATOM     11  C   UNL     1       5.669  -1.199   0.714  1.00  0.00     0.016 A 
ATOM     12  C   UNL     1       4.423  -1.900   3.112  1.00  0.00     0.010 A 
ATOM     13  C   UNL     1       6.253  -0.844   1.920  1.00  0.00     0.010 A 
ATOM     14  C   UNL     1       5.646  -1.213   3.126  1.00  0.00    -0.014 A 
BRANCH  14  15
ATOM     15  C   UNL     1       6.557  -1.285   4.269  1.00  0.00     0.031 A 
ATOM     16  C   UNL     1       7.111  -2.629   4.399  1.00  0.00     0.074 A 
ATOM     17  C   UNL     1       6.865  -0.409   5.247  1.00  0.00     0.049 A 
ATOM     18  N   UNL     1       6.668  -3.444   5.297  1.00  0.00    -0.248 NA
ATOM     19  C   UNL     1       8.031  -3.213   3.424  1.00  0.00     0.031 C 
ATOM     20  C   UNL     1       6.070   0.730   5.642  1.00  0.00     0.029 A 
ATOM     21  N   UNL     1       7.949  -0.352   6.113  1.00  0.00    -0.354 N 
ATOM     22  C   UNL     1       7.508  -4.519   5.222  1.00  0.00     0.074 A 
ATOM     23  C   UNL     1       8.169  -4.440   3.938  1.00  0.00     0.031 C 
ATOM     24  C   UNL     1       6.747   1.444   6.567  1.00  0.00     0.029 A 
ATOM     25  C   UNL     1       8.072   0.881   6.748  1.00  0.00     0.049 A 
ATOM     26  H   UNL     1       8.566  -1.105   6.263  1.00  0.00     0.167 HD
ATOM     27  C   UNL     1       7.895  -5.086   6.388  1.00  0.00     0.037 A 
ATOM     28  C   UNL     1       8.825   1.292   7.795  1.00  0.00     0.037 A 
ATOM     29  C   UNL     1       7.034  -4.762   7.500  1.00  0.00     0.049 A 
ATOM     30  C   UNL     1       8.688   0.291   8.860  1.00  0.00     0.074 A 
ATOM     31  C   UNL     1       5.771  -5.128   7.918  1.00  0.00     0.029 A 
ATOM     32  N   UNL     1       7.341  -3.604   8.164  1.00  0.00    -0.354 N 
ATOM     33  N   UNL     1       7.605   0.121   9.565  1.00  0.00    -0.248 NA
ATOM     34  C   UNL     1       9.686  -0.769   8.947  1.00  0.00     0.031 C 
ATOM     35  C   UNL     1       5.345  -4.165   8.882  1.00  0.00     0.029 A 
ATOM     36  C   UNL     1       6.354  -3.226   9.042  1.00  0.00     0.049 A 
ATOM     37  H   UNL     1       8.176  -3.100   8.028  1.00  0.00     0.167 HD
ATOM     38  C   UNL     1       7.588  -1.240   9.773  1.00  0.00     0.074 A 
ATOM     39  C   UNL     1       8.950  -1.701   9.550  1.00  0.00     0.031 C 
ATOM     40  C   UNL     1       6.423  -1.936   9.688  1.00  0.00     0.037 A 
BRANCH  27  41
ATOM     41  C   UNL     1       9.317  -5.488   6.578  1.00  0.00     0.064 A 
ATOM     42  C   UNL     1       9.645  -6.504   7.479  1.00  0.00     0.173 A 
ATOM     43  C   UNL     1      10.390  -4.732   6.053  1.00  0.00     0.173 A 
ATOM     44  F   UNL     1       8.679  -7.198   8.097  1.00  0.00    -0.203 F 
ATOM     45  C   UNL     1      10.975  -6.778   7.798  1.00  0.00     0.198 A 
ATOM     46  C   UNL     1      11.713  -5.052   6.316  1.00  0.00     0.198 A 
ATOM     47  F   UNL     1      10.178  -3.604   5.358  1.00  0.00    -0.203 F 
ATOM     48  F   UNL     1      11.259  -7.707   8.720  1.00  0.00    -0.200 F 
ATOM     49  C   UNL     1      12.007  -6.070   7.198  1.00  0.00     0.200 A 
ATOM     50  F   UNL     1      12.692  -4.326   5.757  1.00  0.00    -0.200 F 
ATOM     51  F   UNL     1      13.282  -6.332   7.510  1.00  0.00    -0.200 F 
ENDBRANCH  27  41
BRANCH  28  52
ATOM     52  C   UNL     1       9.750   2.450   7.836  1.00  0.00     0.064 A 
ATOM     53  C   UNL     1      10.394   2.820   9.031  1.00  0.00     0.173 A 
ATOM     54  C   UNL     1      10.151   3.139   6.676  1.00  0.00     0.173 A 
ATOM     55  F   UNL     1      10.078   2.216  10.186  1.00  0.00    -0.203 F 
ATOM     56  C   UNL     1      11.407   3.784   9.059  1.00  0.00     0.198 A 
ATOM     57  C   UNL     1      11.167   4.101   6.705  1.00  0.00     0.198 A 
ATOM     58  F   UNL     1       9.602   2.853   5.487  1.00  0.00    -0.203 F 
ATOM     59  F   UNL     1      12.027   4.068  10.213  1.00  0.00    -0.200 F 
ATOM     60  C   UNL     1      11.803   4.414   7.893  1.00  0.00     0.200 A 
ATOM     61  F   UNL     1      11.556   4.698   5.569  1.00  0.00    -0.200 F 
ATOM     62  F   UNL     1      12.806   5.303   7.909  1.00  0.00    -0.200 F 
ENDBRANCH  28  52
BRANCH  40  63
ATOM     63  C   UNL     1       5.182  -1.278  10.191  1.00  0.00     0.064 A 
ATOM     64  C   UNL     1       4.519  -0.211   9.570  1.00  0.00     0.173 A 
ATOM     65  C   UNL     1       4.612  -1.796  11.363  1.00  0.00     0.173 A 
ATOM     66  F   UNL     1       4.970   0.307   8.423  1.00  0.00    -0.203 F 
ATOM     67  C   UNL     1       3.347   0.321  10.108  1.00  0.00     0.198 A 
ATOM     68  C   UNL     1       3.429  -1.283  11.884  1.00  0.00     0.198 A 
ATOM     69  F   UNL     1       5.197  -2.827  11.995  1.00  0.00    -0.203 F 
ATOM     70  F   UNL     1       2.731   1.344   9.495  1.00  0.00    -0.200 F 
ATOM     71  C   UNL     1       2.799  -0.220  11.260  1.00  0.00     0.200 A 
ATOM     72  F   UNL     1       2.892  -1.831  12.983  1.00  0.00    -0.200 F 
ATOM     73  F   UNL     1       1.655   0.269  11.758  1.00  0.00    -0.200 F 
ENDBRANCH  40  63
ENDBRANCH  14  15
ENDBRANCH   7   9
ENDBRANCH   6   7
ENDBRANCH   5   6
ENDBRANCH   4   5
ENDBRANCH   3   4
ENDBRANCH   2   3
ENDBRANCH   1   2
BRANCH   1  74
ATOM     74  O   UNL     1       1.044   1.960   2.200  1.00  0.00    -0.377 OA
BRANCH  74  75
ATOM     75  C   UNL     1       2.386   2.410   2.323  1.00  0.00     0.188 C 
BRANCH  75  76
ATOM     76  C   UNL     1       3.388   1.477   3.038  1.00  0.00     0.188 C 
BRANCH  76  77
ATOM     77  O   UNL     1       2.938   0.696   4.138  1.00  0.00    -0.376 OA
BRANCH  77  78
ATOM     78  C   UNL     1       2.039   1.310   5.046  1.00  0.00     0.202 C 
BRANCH  78  79
ATOM     79  C   UNL     1       2.518   2.609   5.714  1.00  0.00     0.261 C 
BRANCH  79  80
ATOM     80  O   UNL     1       3.264   3.470   4.816  1.00  0.00    -0.463 OA
BRANCH  80  81
ATOM     81  C   UNL     1       4.101   4.344   5.406  1.00  0.00     0.310 C 
ATOM     82  O   UNL     1       4.069   4.580   6.612  1.00  0.00    -0.252 OA
BRANCH  81  83
ATOM     83  C   UNL     1       5.258   4.855   4.535  1.00  0.00     0.115 C 
ATOM     84  C   UNL     1       6.421   3.866   4.650  1.00  0.00     0.043 C 
ATOM     85  C   UNL     1       5.150   5.432   3.104  1.00  0.00     0.094 C 
ATOM     86  C   UNL     1       6.931   3.178   3.420  1.00  0.00    -0.030 C 
ATOM     87  C   UNL     1       5.322   4.375   1.972  1.00  0.00     0.041 C 
ATOM     88  C   UNL     1       6.420   3.381   2.204  1.00  0.00    -0.030 C 
BRANCH  85  89
ATOM     89  C   UNL     1       6.307   6.416   2.898  1.00  0.00     0.199 A 
ATOM     90  N   UNL     1       6.807   6.851   1.753  1.00  0.00    -0.213 NA
ATOM     91  O   UNL     1       7.176   6.532   3.957  1.00  0.00    -0.440 OA
ATOM     92  C   UNL     1       8.145   7.014   2.035  1.00  0.00     0.111 A 
ATOM     93  C   UNL     1       8.370   6.797   3.381  1.00  0.00     0.154 A 
ATOM     94  C   UNL     1       9.241   7.266   1.206  1.00  0.00     0.053 A 
ATOM     95  C   UNL     1       9.606   6.768   4.005  1.00  0.00     0.051 A 
ATOM     96  C   UNL     1      10.515   7.222   1.792  1.00  0.00     0.043 A 
ATOM     97  C   UNL     1      10.698   6.968   3.159  1.00  0.00     0.024 A 
ATOM     98  Cl  UNL     1      11.901   7.448   0.793  1.00  0.00    -0.084 Cl
ENDBRANCH  85  89
ENDBRANCH  81  83
ENDBRANCH  80  81
ENDBRANCH  79  80
ENDBRANCH  78  79
ENDBRANCH  77  78
ENDBRANCH  76  77
ENDBRANCH  75  76
ENDBRANCH  74  75
ENDBRANCH   1  74
TORSDOF 21
