REMARK SMILES Cc1ccc(F)cc1S(=O)(=O)Nc1cc(C(=O)OCCOCCOCCOCCOC(=O)c2ccc(-c3c4nc(c(-c5c(F)c(F)c(F)c(F)c5F)c5ccc([nH]5)c(-c5c(F)c(F)c(F)c(F)c5F)c5nc(c(-c6c(F)c(F)c(F)c(F)c6F)c6ccc3[nH]6)C=C5)C=C4)cc2)ccc1N(C)Cc1ccccc1
REMARK SMILES IDX 23 1 22 2 21 3 20 4 19 5 18 6 16 7 17 8 15 9 13 10 14 11
REMARK SMILES IDX 98 12 97 13 96 14 12 15 9 17 10 18 11 19 8 20 1 21 2 22 3 23
REMARK SMILES IDX 4 24 7 25 5 26 6 27 99 28 100 29 101 30 102 31 103 32 107 33
REMARK SMILES IDX 104 34 106 35 105 36 24 37 25 38 26 39 27 40 28 41 29 42
REMARK SMILES IDX 30 43 31 44 32 45 33 46 34 47 95 48 35 49 94 50 36 51 37 52
REMARK SMILES IDX 38 53 88 54 39 55 93 56 87 57 89 58 40 59 92 60 86 61 85 62
REMARK SMILES IDX 41 64 73 65 53 66 72 67 54 68 57 69 71 70 90 71 55 72 56 73
REMARK SMILES IDX 70 75 91 76 58 77 42 78 43 79 51 80 44 81 45 82 49 83 52 84
REMARK SMILES IDX 46 85 47 86 50 87 48 88 74 89 75 90 83 91 76 92 77 93 81 94
REMARK SMILES IDX 84 95 78 96 79 97 82 98 80 99 59 100 60 101 68 102 61 103
REMARK SMILES IDX 62 104 66 105 69 106 63 107 64 108 67 109 65 110
REMARK H PARENT 12 16 89 63 57 74
REMARK Flexibility Score: inf
ROOT
ATOM      1  C   UNL     1       8.210  -0.207   0.460  1.00  0.00     0.188 C 
ENDROOT
BRANCH   1   2
ATOM      2  C   UNL     1       8.358  -0.540  -1.046  1.00  0.00     0.188 C 
BRANCH   2   3
ATOM      3  O   UNL     1       9.437   0.104  -1.692  1.00  0.00    -0.376 OA
BRANCH   3   4
ATOM      4  C   UNL     1       9.160   1.262  -2.463  1.00  0.00     0.202 C 
BRANCH   4   5
ATOM      5  C   UNL     1       8.152   2.350  -2.000  1.00  0.00     0.261 C 
BRANCH   5   6
ATOM      6  O   UNL     1       7.259   2.037  -0.899  1.00  0.00    -0.460 OA
BRANCH   6   7
ATOM      7  C   UNL     1       6.034   1.601  -1.273  1.00  0.00     0.338 C 
ATOM      8  O   UNL     1       5.684   1.573  -2.443  1.00  0.00    -0.246 OA
BRANCH   7   9
ATOM      9  C   UNL     1       5.231   0.893  -0.201  1.00  0.00     0.062 A 
ATOM     10  C   UNL     1       3.789  -1.072   0.165  1.00  0.00     0.073 A 
ATOM     11  C   UNL     1       4.878  -0.427  -0.481  1.00  0.00     0.044 A 
ATOM     12  C   UNL     1       3.119  -0.553   1.280  1.00  0.00     0.061 A 
ATOM     13  C   UNL     1       3.648   0.725   1.666  1.00  0.00     0.029 A 
ATOM     14  C   UNL     1       4.646   1.459   0.923  1.00  0.00     0.018 A 
BRANCH  10  15
ATOM     15  N   UNL     1       3.072  -1.994  -0.656  1.00  0.00    -0.277 N 
ATOM     16  H   UNL     1       3.042  -2.969  -0.522  1.00  0.00     0.180 HD
BRANCH  15  17
ATOM     17  S   UNL     1       2.260  -1.133  -1.928  1.00  0.00     0.262 S 
ATOM     18  O   UNL     1       1.263  -2.018  -2.496  1.00  0.00    -0.201 OA
ATOM     19  O   UNL     1       3.318  -0.730  -2.820  1.00  0.00    -0.201 OA
BRANCH  17  20
ATOM     20  C   UNL     1       1.415   0.344  -1.219  1.00  0.00     0.093 A 
ATOM     21  C   UNL     1       2.785   2.090  -2.457  1.00  0.00     0.046 C 
ATOM     22  C   UNL     1       1.644   1.660  -1.613  1.00  0.00    -0.030 A 
ATOM     23  C   UNL     1       0.789   2.703  -1.159  1.00  0.00     0.008 A 
ATOM     24  C   UNL     1      -0.256   2.479  -0.272  1.00  0.00     0.039 A 
ATOM     25  C   UNL     1       0.442   0.203  -0.233  1.00  0.00     0.061 A 
ATOM     26  C   UNL     1      -0.395   1.214   0.224  1.00  0.00     0.124 A 
ATOM     27  F   UNL     1      -1.312   0.948   1.166  1.00  0.00    -0.207 F 
ENDBRANCH  17  20
ENDBRANCH  15  17
ENDBRANCH  10  15
BRANCH  12  28
ATOM     28  N   UNL     1       1.933  -1.142   1.819  1.00  0.00    -0.369 N 
ATOM     29  C   UNL     1       1.413  -0.478   3.027  1.00  0.00     0.144 C 
BRANCH  28  30
ATOM     30  C   UNL     1       1.355  -2.585   1.623  1.00  0.00     0.151 C 
BRANCH  30  31
ATOM     31  C   UNL     1       0.506  -3.169   0.412  1.00  0.00    -0.029 A 
ATOM     32  C   UNL     1      -0.579  -2.624  -0.319  1.00  0.00     0.005 A 
ATOM     33  C   UNL     1       0.754  -4.518   0.073  1.00  0.00     0.005 A 
ATOM     34  C   UNL     1      -1.053  -3.190  -1.530  1.00  0.00     0.000 A 
ATOM     35  C   UNL     1       0.199  -5.145  -1.064  1.00  0.00     0.000 A 
ATOM     36  C   UNL     1      -0.625  -4.442  -1.928  1.00  0.00     0.000 A 
ENDBRANCH  30  31
ENDBRANCH  28  30
ENDBRANCH  12  28
ENDBRANCH   7   9
ENDBRANCH   6   7
ENDBRANCH   5   6
ENDBRANCH   4   5
ENDBRANCH   3   4
ENDBRANCH   2   3
ENDBRANCH   1   2
BRANCH   1  37
ATOM     37  O   UNL     1       8.888   0.912   1.015  1.00  0.00    -0.377 OA
BRANCH  37  38
ATOM     38  C   UNL     1      10.239   1.101   0.626  1.00  0.00     0.188 C 
BRANCH  38  39
ATOM     39  C   UNL     1      11.192  -0.127   0.605  1.00  0.00     0.188 C 
BRANCH  39  40
ATOM     40  O   UNL     1      10.552  -1.398   0.514  1.00  0.00    -0.376 OA
BRANCH  40  41
ATOM     41  C   UNL     1      10.644  -2.306   1.611  1.00  0.00     0.202 C 
BRANCH  41  42
ATOM     42  C   UNL     1       9.844  -2.005   2.897  1.00  0.00     0.261 C 
BRANCH  42  43
ATOM     43  O   UNL     1       9.786  -0.626   3.217  1.00  0.00    -0.460 OA
BRANCH  43  44
ATOM     44  C   UNL     1      10.969  -0.140   3.611  1.00  0.00     0.338 C 
ATOM     45  O   UNL     1      11.981  -0.767   3.885  1.00  0.00    -0.246 OA
BRANCH  44  46
ATOM     46  C   UNL     1      10.869   1.336   3.642  1.00  0.00     0.060 A 
ATOM     47  C   UNL     1      12.096   1.945   3.287  1.00  0.00     0.016 A 
ATOM     48  C   UNL     1      10.150   1.704   4.766  1.00  0.00     0.016 A 
ATOM     49  C   UNL     1      12.868   2.439   4.291  1.00  0.00     0.010 A 
ATOM     50  C   UNL     1      10.933   2.110   5.796  1.00  0.00     0.010 A 
ATOM     51  C   UNL     1      12.301   2.343   5.543  1.00  0.00    -0.014 A 
BRANCH  51  52
ATOM     52  C   UNL     1      13.098   2.435   6.721  1.00  0.00     0.031 A 
ATOM     53  C   UNL     1      13.096   3.764   7.315  1.00  0.00     0.074 A 
ATOM     54  C   UNL     1      13.465   1.239   7.225  1.00  0.00     0.049 A 
ATOM     55  N   UNL     1      13.893   4.149   8.233  1.00  0.00    -0.248 NA
ATOM     56  C   UNL     1      12.206   4.832   6.841  1.00  0.00     0.031 C 
ATOM     57  C   UNL     1      13.753   0.860   8.595  1.00  0.00     0.029 A 
ATOM     58  N   UNL     1      13.814   0.107   6.471  1.00  0.00    -0.354 N 
ATOM     59  C   UNL     1      13.329   5.286   8.761  1.00  0.00     0.074 A 
ATOM     60  C   UNL     1      12.398   5.764   7.774  1.00  0.00     0.031 C 
ATOM     61  C   UNL     1      14.461  -0.287   8.590  1.00  0.00     0.029 A 
ATOM     62  C   UNL     1      14.800  -0.579   7.203  1.00  0.00     0.049 A 
ATOM     63  H   UNL     1      13.440  -0.157   5.599  1.00  0.00     0.167 HD
ATOM     64  C   UNL     1      13.555   5.532  10.079  1.00  0.00     0.037 A 
ATOM     65  C   UNL     1      16.083  -0.596   6.725  1.00  0.00     0.037 A 
ATOM     66  C   UNL     1      14.453   4.508  10.613  1.00  0.00     0.049 A 
ATOM     67  C   UNL     1      17.007   0.231   7.597  1.00  0.00     0.074 A 
ATOM     68  C   UNL     1      14.206   3.307  11.261  1.00  0.00     0.029 A 
ATOM     69  N   UNL     1      15.735   4.407  10.081  1.00  0.00    -0.354 N 
ATOM     70  N   UNL     1      16.641   1.300   8.255  1.00  0.00    -0.248 NA
ATOM     71  C   UNL     1      18.398  -0.136   7.840  1.00  0.00     0.031 C 
ATOM     72  C   UNL     1      15.339   2.469  11.079  1.00  0.00     0.029 A 
ATOM     73  C   UNL     1      16.267   3.154  10.313  1.00  0.00     0.049 A 
ATOM     74  H   UNL     1      16.200   5.132   9.604  1.00  0.00     0.167 HD
ATOM     75  C   UNL     1      17.693   1.742   9.018  1.00  0.00     0.074 A 
ATOM     76  C   UNL     1      18.768   0.813   8.717  1.00  0.00     0.031 C 
ATOM     77  C   UNL     1      17.605   2.822   9.853  1.00  0.00     0.037 A 
BRANCH  64  78
ATOM     78  C   UNL     1      12.718   6.457  10.916  1.00  0.00     0.064 A 
ATOM     79  C   UNL     1      12.521   6.187  12.286  1.00  0.00     0.173 A 
ATOM     80  C   UNL     1      12.074   7.613  10.436  1.00  0.00     0.173 A 
ATOM     81  F   UNL     1      13.103   5.142  12.887  1.00  0.00    -0.203 F 
ATOM     82  C   UNL     1      11.711   6.982  13.098  1.00  0.00     0.198 A 
ATOM     83  C   UNL     1      11.225   8.382  11.238  1.00  0.00     0.198 A 
ATOM     84  F   UNL     1      12.283   8.067   9.194  1.00  0.00    -0.203 F 
ATOM     85  F   UNL     1      11.577   6.680  14.396  1.00  0.00    -0.200 F 
ATOM     86  C   UNL     1      11.049   8.070  12.570  1.00  0.00     0.200 A 
ATOM     87  F   UNL     1      10.588   9.438  10.711  1.00  0.00    -0.200 F 
ATOM     88  F   UNL     1      10.263   8.826  13.348  1.00  0.00    -0.200 F 
ENDBRANCH  64  78
BRANCH  65  89
ATOM     89  C   UNL     1      16.129  -0.644   5.229  1.00  0.00     0.064 A 
ATOM     90  C   UNL     1      15.560  -1.764   4.583  1.00  0.00     0.173 A 
ATOM     91  C   UNL     1      16.319   0.510   4.459  1.00  0.00     0.173 A 
ATOM     92  F   UNL     1      15.384  -2.909   5.263  1.00  0.00    -0.203 F 
ATOM     93  C   UNL     1      15.065  -1.682   3.282  1.00  0.00     0.198 A 
ATOM     94  C   UNL     1      15.827   0.585   3.152  1.00  0.00     0.198 A 
ATOM     95  F   UNL     1      16.882   1.602   4.995  1.00  0.00    -0.203 F 
ATOM     96  F   UNL     1      14.428  -2.729   2.737  1.00  0.00    -0.200 F 
ATOM     97  C   UNL     1      15.165  -0.492   2.582  1.00  0.00     0.200 A 
ATOM     98  F   UNL     1      15.917   1.737   2.471  1.00  0.00    -0.200 F 
ATOM     99  F   UNL     1      14.595  -0.369   1.373  1.00  0.00    -0.200 F 
ENDBRANCH  65  89
BRANCH  77 100
ATOM    100  C   UNL     1      18.771   3.620  10.401  1.00  0.00     0.064 A 
ATOM    101  C   UNL     1      20.058   3.612   9.839  1.00  0.00     0.173 A 
ATOM    102  C   UNL     1      18.575   4.574  11.435  1.00  0.00     0.173 A 
ATOM    103  F   UNL     1      20.353   2.871   8.764  1.00  0.00    -0.203 F 
ATOM    104  C   UNL     1      21.084   4.425  10.325  1.00  0.00     0.198 A 
ATOM    105  C   UNL     1      19.576   5.446  11.854  1.00  0.00     0.198 A 
ATOM    106  F   UNL     1      17.396   4.722  12.056  1.00  0.00    -0.203 F 
ATOM    107  F   UNL     1      22.311   4.325   9.795  1.00  0.00    -0.200 F 
ATOM    108  C   UNL     1      20.840   5.353  11.319  1.00  0.00     0.200 A 
ATOM    109  F   UNL     1      19.296   6.390  12.764  1.00  0.00    -0.200 F 
ATOM    110  F   UNL     1      21.814   6.168  11.742  1.00  0.00    -0.200 F 
ENDBRANCH  77 100
ENDBRANCH  51  52
ENDBRANCH  44  46
ENDBRANCH  43  44
ENDBRANCH  42  43
ENDBRANCH  41  42
ENDBRANCH  40  41
ENDBRANCH  39  40
ENDBRANCH  38  39
ENDBRANCH  37  38
ENDBRANCH   1  37
TORSDOF 26
