REMARK SMILES Cc1cc([C@H]([NH3+])C(=O)OCCOCCOCCOCCOC(=O)c2ccc(-c3c4nc(c(-c5c(F)c(F)c(F)c(F)c5F)c5ccc([nH]5)c(-c5c(F)c(F)c(F)c(F)c5F)c5nc(c(-c6c(F)c(F)c(F)c(F)c6F)c6ccc3[nH]6)C=C5)C=C4)cc2)ccc1F
REMARK SMILES IDX 16 1 15 2 14 3 13 4 12 5 11 6 10 7 9 8 7 9 8 10 5 11 4 12
REMARK SMILES IDX 1 13 2 14 3 15 89 16 88 17 90 18 87 19 6 20 17 24 18 25
REMARK SMILES IDX 19 26 20 27 21 28 22 29 23 30 24 31 25 32 86 33 26 34 85 35
REMARK SMILES IDX 27 36 28 37 29 38 79 39 30 40 84 41 78 42 80 43 31 44 83 45
REMARK SMILES IDX 77 46 76 47 32 49 64 50 44 51 63 52 45 53 48 54 62 55 81 56
REMARK SMILES IDX 46 57 47 58 61 60 82 61 49 62 33 63 34 64 42 65 35 66 36 67
REMARK SMILES IDX 40 68 43 69 37 70 38 71 41 72 39 73 65 74 66 75 74 76 67 77
REMARK SMILES IDX 68 78 72 79 75 80 69 81 70 82 73 83 71 84 50 85 51 86 59 87
REMARK SMILES IDX 52 88 53 89 57 90 60 91 54 92 55 93 58 94 56 95
REMARK H PARENT 6 21 6 22 6 23 80 48 48 59
REMARK Flexibility Score: inf
ROOT
ATOM      1  C   UNL     1      -3.420  -0.788   4.349  1.00  0.00     0.188 C 
ENDROOT
BRANCH   1   2
ATOM      2  O   UNL     1      -2.983  -0.476   3.027  1.00  0.00    -0.377 OA
BRANCH   2   3
ATOM      3  C   UNL     1      -2.927   0.900   2.661  1.00  0.00     0.188 C 
BRANCH   3   4
ATOM      4  C   UNL     1      -4.156   1.777   2.934  1.00  0.00     0.188 C 
BRANCH   4   5
ATOM      5  O   UNL     1      -5.151   1.152   3.725  1.00  0.00    -0.376 OA
BRANCH   5   6
ATOM      6  C   UNL     1      -6.195   0.441   3.073  1.00  0.00     0.202 C 
BRANCH   6   7
ATOM      7  C   UNL     1      -5.902  -0.611   1.978  1.00  0.00     0.261 C 
BRANCH   7   8
ATOM      8  O   UNL     1      -4.910  -0.292   0.991  1.00  0.00    -0.459 OA
BRANCH   8   9
ATOM      9  C   UNL     1      -5.202   0.732   0.155  1.00  0.00     0.369 C 
ATOM     10  O   UNL     1      -6.267   1.345   0.182  1.00  0.00    -0.245 OA
BRANCH   9  11
ATOM     11  C   UNL     1      -4.090   1.032  -0.878  1.00  0.00     0.323 C 
BRANCH  11  12
ATOM     12  C   UNL     1      -4.505   0.444  -2.196  1.00  0.00     0.021 A 
ATOM     13  C   UNL     1      -4.884  -2.989  -3.783  1.00  0.00     0.047 C 
ATOM     14  C   UNL     1      -4.933  -1.509  -3.577  1.00  0.00    -0.015 A 
ATOM     15  C   UNL     1      -4.458  -0.948  -2.395  1.00  0.00     0.017 A 
ATOM     16  C   UNL     1      -5.478  -0.660  -4.540  1.00  0.00     0.126 A 
ATOM     17  C   UNL     1      -5.538   0.720  -4.351  1.00  0.00     0.040 A 
ATOM     18  F   UNL     1      -5.976  -1.175  -5.673  1.00  0.00    -0.207 F 
ATOM     19  C   UNL     1      -5.044   1.276  -3.179  1.00  0.00     0.013 A 
ENDBRANCH  11  12
BRANCH  11  20
ATOM     20  N   UNL     1      -2.714   0.618  -0.542  1.00  0.00    -0.342 N 
ATOM     21  H   UNL     1      -2.667  -0.399  -0.493  1.00  0.00     0.345 HD
ATOM     22  H   UNL     1      -2.451   1.015   0.360  1.00  0.00     0.345 HD
ATOM     23  H   UNL     1      -2.073   0.954  -1.261  1.00  0.00     0.345 HD
ENDBRANCH  11  20
ENDBRANCH   9  11
ENDBRANCH   8   9
ENDBRANCH   7   8
ENDBRANCH   6   7
ENDBRANCH   5   6
ENDBRANCH   4   5
ENDBRANCH   3   4
ENDBRANCH   2   3
ENDBRANCH   1   2
BRANCH   1  24
ATOM     24  C   UNL     1      -3.032   0.158   5.509  1.00  0.00     0.188 C 
BRANCH  24  25
ATOM     25  O   UNL     1      -2.280   1.306   5.132  1.00  0.00    -0.376 OA
BRANCH  25  26
ATOM     26  C   UNL     1      -0.879   1.318   5.331  1.00  0.00     0.202 C 
BRANCH  26  27
ATOM     27  C   UNL     1       0.120   0.581   4.393  1.00  0.00     0.261 C 
BRANCH  27  28
ATOM     28  O   UNL     1      -0.241  -0.575   3.626  1.00  0.00    -0.460 OA
BRANCH  28  29
ATOM     29  C   UNL     1      -0.675  -1.625   4.321  1.00  0.00     0.338 C 
ATOM     30  O   UNL     1      -1.043  -1.609   5.505  1.00  0.00    -0.246 OA
BRANCH  29  31
ATOM     31  C   UNL     1      -0.517  -2.939   3.663  1.00  0.00     0.060 A 
ATOM     32  C   UNL     1      -1.055  -3.944   4.500  1.00  0.00     0.016 A 
ATOM     33  C   UNL     1       0.790  -3.043   3.193  1.00  0.00     0.016 A 
ATOM     34  C   UNL     1      -0.181  -4.620   5.327  1.00  0.00     0.010 A 
ATOM     35  C   UNL     1       1.669  -3.723   3.997  1.00  0.00     0.010 A 
ATOM     36  C   UNL     1       1.178  -4.413   5.118  1.00  0.00    -0.014 A 
BRANCH  36  37
ATOM     37  C   UNL     1       2.171  -5.112   5.888  1.00  0.00     0.031 A 
ATOM     38  C   UNL     1       2.304  -6.536   5.539  1.00  0.00     0.074 A 
ATOM     39  C   UNL     1       2.959  -4.415   6.730  1.00  0.00     0.049 A 
ATOM     40  N   UNL     1       2.762  -7.449   6.316  1.00  0.00    -0.248 NA
ATOM     41  C   UNL     1       1.759  -7.075   4.285  1.00  0.00     0.031 C 
ATOM     42  C   UNL     1       4.293  -4.773   7.182  1.00  0.00     0.029 A 
ATOM     43  N   UNL     1       2.664  -3.223   7.417  1.00  0.00    -0.354 N 
ATOM     44  C   UNL     1       2.910  -8.581   5.540  1.00  0.00     0.074 A 
ATOM     45  C   UNL     1       2.094  -8.361   4.377  1.00  0.00     0.031 C 
ATOM     46  C   UNL     1       4.642  -3.966   8.199  1.00  0.00     0.029 A 
ATOM     47  C   UNL     1       3.470  -3.190   8.576  1.00  0.00     0.049 A 
ATOM     48  H   UNL     1       2.014  -2.538   7.140  1.00  0.00     0.167 HD
ATOM     49  C   UNL     1       3.902  -9.459   5.859  1.00  0.00     0.037 A 
ATOM     50  C   UNL     1       2.935  -3.233   9.840  1.00  0.00     0.037 A 
ATOM     51  C   UNL     1       4.580  -8.995   7.070  1.00  0.00     0.049 A 
ATOM     52  C   UNL     1       3.191  -4.526  10.541  1.00  0.00     0.074 A 
ATOM     53  C   UNL     1       5.695  -8.187   7.234  1.00  0.00     0.029 A 
ATOM     54  N   UNL     1       3.883  -8.954   8.273  1.00  0.00    -0.354 N 
ATOM     55  N   UNL     1       3.484  -5.635   9.928  1.00  0.00    -0.248 NA
ATOM     56  C   UNL     1       3.122  -4.656  11.987  1.00  0.00     0.031 C 
ATOM     57  C   UNL     1       5.630  -7.612   8.529  1.00  0.00     0.029 A 
ATOM     58  C   UNL     1       4.495  -8.088   9.162  1.00  0.00     0.049 A 
ATOM     59  H   UNL     1       3.067  -9.470   8.465  1.00  0.00     0.167 HD
ATOM     60  C   UNL     1       3.662  -6.615  10.857  1.00  0.00     0.074 A 
ATOM     61  C   UNL     1       3.449  -5.949  12.131  1.00  0.00     0.031 C 
ATOM     62  C   UNL     1       3.964  -7.897  10.504  1.00  0.00     0.037 A 
BRANCH  49  63
ATOM     63  C   UNL     1       4.491 -10.458   4.884  1.00  0.00     0.064 A 
ATOM     64  C   UNL     1       5.846 -10.842   4.995  1.00  0.00     0.173 A 
ATOM     65  C   UNL     1       3.808 -11.038   3.796  1.00  0.00     0.173 A 
ATOM     66  F   UNL     1       6.603 -10.445   6.026  1.00  0.00    -0.203 F 
ATOM     67  C   UNL     1       6.482 -11.652   4.049  1.00  0.00     0.198 A 
ATOM     68  C   UNL     1       4.455 -11.809   2.822  1.00  0.00     0.198 A 
ATOM     69  F   UNL     1       2.481 -10.931   3.663  1.00  0.00    -0.203 F 
ATOM     70  F   UNL     1       7.772 -11.974   4.213  1.00  0.00    -0.200 F 
ATOM     71  C   UNL     1       5.794 -12.112   2.946  1.00  0.00     0.200 A 
ATOM     72  F   UNL     1       3.765 -12.264   1.766  1.00  0.00    -0.200 F 
ATOM     73  F   UNL     1       6.410 -12.867   2.027  1.00  0.00    -0.200 F 
ENDBRANCH  49  63
BRANCH  50  74
ATOM     74  C   UNL     1       1.697  -2.433  10.081  1.00  0.00     0.064 A 
ATOM     75  C   UNL     1       1.916  -1.054   9.965  1.00  0.00     0.173 A 
ATOM     76  C   UNL     1       0.509  -2.978   9.574  1.00  0.00     0.173 A 
ATOM     77  F   UNL     1       2.962  -0.476  10.571  1.00  0.00    -0.203 F 
ATOM     78  C   UNL     1       1.272  -0.372   8.964  1.00  0.00     0.198 A 
ATOM     79  C   UNL     1      -0.144  -2.298   8.566  1.00  0.00     0.198 A 
ATOM     80  F   UNL     1       0.163  -4.241   9.857  1.00  0.00    -0.203 F 
ATOM     81  F   UNL     1       1.698   0.836   8.569  1.00  0.00    -0.200 F 
ATOM     82  C   UNL     1       0.346  -1.050   8.202  1.00  0.00     0.200 A 
ATOM     83  F   UNL     1      -1.098  -2.914   7.857  1.00  0.00    -0.200 F 
ATOM     84  F   UNL     1       0.130  -0.547   7.001  1.00  0.00    -0.200 F 
ENDBRANCH  50  74
BRANCH  62  85
ATOM     85  C   UNL     1       3.896  -9.069  11.441  1.00  0.00     0.064 A 
ATOM     86  C   UNL     1       3.074  -9.115  12.577  1.00  0.00     0.173 A 
ATOM     87  C   UNL     1       4.590 -10.264  11.139  1.00  0.00     0.173 A 
ATOM     88  F   UNL     1       2.232  -8.117  12.878  1.00  0.00    -0.203 F 
ATOM     89  C   UNL     1       3.042 -10.225  13.418  1.00  0.00     0.198 A 
ATOM     90  C   UNL     1       4.481 -11.403  11.928  1.00  0.00     0.198 A 
ATOM     91  F   UNL     1       5.373 -10.376  10.057  1.00  0.00    -0.203 F 
ATOM     92  F   UNL     1       2.312 -10.183  14.540  1.00  0.00    -0.200 F 
ATOM     93  C   UNL     1       3.735 -11.373  13.087  1.00  0.00     0.200 A 
ATOM     94  F   UNL     1       5.092 -12.533  11.548  1.00  0.00    -0.200 F 
ATOM     95  F   UNL     1       3.663 -12.456  13.870  1.00  0.00    -0.200 F 
ENDBRANCH  62  85
ENDBRANCH  36  37
ENDBRANCH  29  31
ENDBRANCH  28  29
ENDBRANCH  27  28
ENDBRANCH  26  27
ENDBRANCH  25  26
ENDBRANCH  24  25
ENDBRANCH   1  24
TORSDOF 22
