REMARK SMILES COc1cc([C@H]2c3c(-c4ccccc4)n[nH]c3C(=O)N2c2ccc(C(=O)OCCOCCOCCOCCOC(=O)c3ccc(-c4c5nc(c(-c6c(F)c(F)c(F)c(F)c6F)c6ccc([nH]6)c(-c6c(F)c(F)c(F)c(F)c6F)c6nc(c(-c7c(F)c(F)c(F)c(F)c7F)c7ccc4[nH]7)C=C6)C=C5)cc3)cc2)ccc1O
REMARK SMILES IDX 32 1 31 2 30 3 29 4 28 5 27 6 25 7 26 8 24 9 21 10 22 11
REMARK SMILES IDX 106 12 23 13 105 14 20 15 6 16 7 17 8 18 17 19 18 20 15 21
REMARK SMILES IDX 16 22 19 23 5 25 3 26 4 27 109 28 108 29 107 30 2 31 1 32
REMARK SMILES IDX 110 33 9 35 10 36 14 37 11 38 13 39 12 40 33 41 34 42 35 43
REMARK SMILES IDX 36 44 37 45 38 46 39 47 40 48 41 49 42 50 43 51 104 52 44 53
REMARK SMILES IDX 103 54 45 55 46 56 47 57 97 58 48 59 102 60 96 61 98 62
REMARK SMILES IDX 49 63 101 64 95 65 94 66 50 68 82 69 62 70 81 71 63 72 66 73
REMARK SMILES IDX 80 74 99 75 64 76 65 77 79 79 100 80 67 81 51 82 52 83 60 84
REMARK SMILES IDX 53 85 54 86 58 87 61 88 55 89 56 90 59 91 57 92 83 93 84 94
REMARK SMILES IDX 92 95 85 96 86 97 90 98 93 99 87 100 88 101 91 102 89 103
REMARK SMILES IDX 68 104 69 105 77 106 70 107 71 108 75 109 78 110 72 111
REMARK SMILES IDX 73 112 76 113 74 114
REMARK H PARENT 16 24 110 34 98 67 66 78
REMARK Flexibility Score: inf
ROOT
ATOM      1  C   UNL     1       4.984   0.250   9.918  1.00  0.00     0.188 C 
ENDROOT
BRANCH   1   2
ATOM      2  C   UNL     1       5.785  -0.925   9.315  1.00  0.00     0.188 C 
BRANCH   2   3
ATOM      3  O   UNL     1       7.184  -0.831   9.245  1.00  0.00    -0.376 OA
BRANCH   3   4
ATOM      4  C   UNL     1       7.879  -0.189   8.200  1.00  0.00     0.202 C 
BRANCH   4   5
ATOM      5  C   UNL     1       7.240   0.690   7.113  1.00  0.00     0.261 C 
BRANCH   5   6
ATOM      6  O   UNL     1       5.818   0.832   7.115  1.00  0.00    -0.460 OA
BRANCH   6   7
ATOM      7  C   UNL     1       5.146  -0.092   6.387  1.00  0.00     0.338 C 
ATOM      8  O   UNL     1       5.636  -0.999   5.735  1.00  0.00    -0.246 OA
BRANCH   7   9
ATOM      9  C   UNL     1       3.692   0.011   6.664  1.00  0.00     0.060 A 
ATOM     10  C   UNL     1       0.918   0.070   6.993  1.00  0.00     0.045 A 
ATOM     11  C   UNL     1       1.603  -1.133   7.160  1.00  0.00     0.027 A 
ATOM     12  C   UNL     1       1.636   1.257   6.782  1.00  0.00     0.027 A 
ATOM     13  C   UNL     1       2.984  -1.167   6.952  1.00  0.00     0.018 A 
ATOM     14  C   UNL     1       3.028   1.237   6.655  1.00  0.00     0.018 A 
BRANCH  10  15
ATOM     15  N   UNL     1      -0.485   0.076   6.890  1.00  0.00    -0.295 N 
ATOM     16  C   UNL     1      -1.139   0.631   5.665  1.00  0.00     0.156 C 
ATOM     17  C   UNL     1      -2.556   0.392   6.005  1.00  0.00     0.038 A 
ATOM     18  C   UNL     1      -3.871   0.601   5.569  1.00  0.00     0.099 A 
ATOM     19  C   UNL     1      -2.653  -0.263   7.199  1.00  0.00     0.129 A 
ATOM     20  C   UNL     1      -1.387  -0.545   7.768  1.00  0.00     0.277 C 
ATOM     21  N   UNL     1      -4.738   0.127   6.494  1.00  0.00    -0.174 NA
ATOM     22  N   UNL     1      -3.961  -0.418   7.466  1.00  0.00    -0.272 N 
ATOM     23  O   UNL     1      -1.164  -1.161   8.808  1.00  0.00    -0.267 OA
ATOM     24  H   UNL     1      -4.312  -0.871   8.266  1.00  0.00     0.190 HD
BRANCH  16  25
ATOM     25  C   UNL     1      -0.837  -0.172   4.410  1.00  0.00    -0.016 A 
ATOM     26  C   UNL     1      -0.024  -0.183   2.083  1.00  0.00     0.160 A 
ATOM     27  C   UNL     1      -0.316   0.489   3.283  1.00  0.00     0.056 A 
ATOM     28  C   UNL     1      -0.256  -1.558   2.022  1.00  0.00     0.157 A 
ATOM     29  C   UNL     1      -0.782  -2.236   3.123  1.00  0.00     0.050 A 
ATOM     30  C   UNL     1      -1.054  -1.557   4.311  1.00  0.00     0.010 A 
BRANCH  26  31
ATOM     31  O   UNL     1       0.424   0.671   1.117  1.00  0.00    -0.493 OA
ATOM     32  C   UNL     1       0.853   0.189  -0.143  1.00  0.00     0.278 C 
ENDBRANCH  26  31
BRANCH  28  33
ATOM     33  O   UNL     1      -0.007  -2.343   0.934  1.00  0.00    -0.504 OA
ATOM     34  H   UNL     1       0.347  -1.963   0.154  1.00  0.00     0.293 HD
ENDBRANCH  28  33
ENDBRANCH  16  25
BRANCH  18  35
ATOM     35  C   UNL     1      -4.324   1.233   4.338  1.00  0.00     0.002 A 
ATOM     36  C   UNL     1      -5.111   2.390   4.384  1.00  0.00     0.010 A 
ATOM     37  C   UNL     1      -3.973   0.697   3.092  1.00  0.00     0.010 A 
ATOM     38  C   UNL     1      -5.515   3.014   3.200  1.00  0.00     0.001 A 
ATOM     39  C   UNL     1      -4.374   1.323   1.911  1.00  0.00     0.001 A 
ATOM     40  C   UNL     1      -5.141   2.484   1.965  1.00  0.00     0.000 A 
ENDBRANCH  18  35
ENDBRANCH  10  15
ENDBRANCH   7   9
ENDBRANCH   6   7
ENDBRANCH   5   6
ENDBRANCH   4   5
ENDBRANCH   3   4
ENDBRANCH   2   3
ENDBRANCH   1   2
BRANCH   1  41
ATOM     41  O   UNL     1       5.546   1.515  10.181  1.00  0.00    -0.377 OA
BRANCH  41  42
ATOM     42  C   UNL     1       6.860   1.659  10.669  1.00  0.00     0.188 C 
BRANCH  42  43
ATOM     43  C   UNL     1       7.582   0.647  11.591  1.00  0.00     0.188 C 
BRANCH  43  44
ATOM     44  O   UNL     1       7.076  -0.638  11.881  1.00  0.00    -0.376 OA
BRANCH  44  45
ATOM     45  C   UNL     1       5.981  -0.986  12.702  1.00  0.00     0.202 C 
BRANCH  45  46
ATOM     46  C   UNL     1       5.129  -0.007  13.490  1.00  0.00     0.261 C 
BRANCH  46  47
ATOM     47  O   UNL     1       5.490   1.338  13.318  1.00  0.00    -0.460 OA
BRANCH  47  48
ATOM     48  C   UNL     1       6.508   1.713  14.115  1.00  0.00     0.338 C 
ATOM     49  O   UNL     1       7.230   1.002  14.792  1.00  0.00    -0.246 OA
BRANCH  48  50
ATOM     50  C   UNL     1       6.524   3.176  14.134  1.00  0.00     0.060 A 
ATOM     51  C   UNL     1       7.584   3.763  14.810  1.00  0.00     0.016 A 
ATOM     52  C   UNL     1       5.281   3.797  14.038  1.00  0.00     0.016 A 
ATOM     53  C   UNL     1       7.260   4.673  15.793  1.00  0.00     0.010 A 
ATOM     54  C   UNL     1       4.993   4.763  14.958  1.00  0.00     0.010 A 
ATOM     55  C   UNL     1       5.913   5.029  15.971  1.00  0.00    -0.014 A 
BRANCH  55  56
ATOM     56  C   UNL     1       5.516   6.014  16.973  1.00  0.00     0.031 A 
ATOM     57  C   UNL     1       5.950   7.329  16.422  1.00  0.00     0.074 A 
ATOM     58  C   UNL     1       4.810   5.754  18.111  1.00  0.00     0.049 A 
ATOM     59  N   UNL     1       7.075   7.911  16.690  1.00  0.00    -0.248 NA
ATOM     60  C   UNL     1       5.333   7.845  15.177  1.00  0.00     0.031 C 
ATOM     61  C   UNL     1       4.277   4.478  18.619  1.00  0.00     0.029 A 
ATOM     62  N   UNL     1       4.368   6.635  19.084  1.00  0.00    -0.354 N 
ATOM     63  C   UNL     1       7.075   9.056  15.900  1.00  0.00     0.074 A 
ATOM     64  C   UNL     1       6.234   8.752  14.787  1.00  0.00     0.031 C 
ATOM     65  C   UNL     1       3.376   4.701  19.614  1.00  0.00     0.029 A 
ATOM     66  C   UNL     1       3.344   6.116  19.925  1.00  0.00     0.049 A 
ATOM     67  H   UNL     1       4.731   7.544  19.186  1.00  0.00     0.167 HD
ATOM     68  C   UNL     1       7.279  10.255  16.514  1.00  0.00     0.037 A 
ATOM     69  C   UNL     1       2.574   6.825  20.817  1.00  0.00     0.037 A 
ATOM     70  C   UNL     1       7.942  10.017  17.782  1.00  0.00     0.049 A 
ATOM     71  C   UNL     1       3.312   8.082  21.101  1.00  0.00     0.074 A 
ATOM     72  C   UNL     1       9.122   9.438  18.202  1.00  0.00     0.029 A 
ATOM     73  N   UNL     1       7.075   9.938  18.834  1.00  0.00    -0.354 N 
ATOM     74  N   UNL     1       4.458   8.099  21.723  1.00  0.00    -0.248 NA
ATOM     75  C   UNL     1       3.061   9.171  20.174  1.00  0.00     0.031 C 
ATOM     76  C   UNL     1       8.807   8.756  19.421  1.00  0.00     0.029 A 
ATOM     77  C   UNL     1       7.495   9.060  19.781  1.00  0.00     0.049 A 
ATOM     78  H   UNL     1       6.242  10.459  18.899  1.00  0.00     0.167 HD
ATOM     79  C   UNL     1       5.266   8.861  20.894  1.00  0.00     0.074 A 
ATOM     80  C   UNL     1       4.333   9.523  19.969  1.00  0.00     0.031 C 
ATOM     81  C   UNL     1       6.610   8.607  20.827  1.00  0.00     0.037 A 
BRANCH  68  82
ATOM     82  C   UNL     1       6.345  11.462  16.329  1.00  0.00     0.064 A 
ATOM     83  C   UNL     1       6.622  12.621  17.084  1.00  0.00     0.173 A 
ATOM     84  C   UNL     1       5.063  11.454  15.723  1.00  0.00     0.173 A 
ATOM     85  F   UNL     1       7.794  12.750  17.724  1.00  0.00    -0.203 F 
ATOM     86  C   UNL     1       5.672  13.630  17.286  1.00  0.00     0.198 A 
ATOM     87  C   UNL     1       4.132  12.479  15.896  1.00  0.00     0.198 A 
ATOM     88  F   UNL     1       4.588  10.433  15.008  1.00  0.00    -0.203 F 
ATOM     89  F   UNL     1       5.950  14.648  18.111  1.00  0.00    -0.200 F 
ATOM     90  C   UNL     1       4.425  13.555  16.697  1.00  0.00     0.200 A 
ATOM     91  F   UNL     1       2.920  12.365  15.334  1.00  0.00    -0.200 F 
ATOM     92  F   UNL     1       3.497  14.492  16.928  1.00  0.00    -0.200 F 
ENDBRANCH  68  82
BRANCH  69  93
ATOM     93  C   UNL     1       1.113   6.735  21.152  1.00  0.00     0.064 A 
ATOM     94  C   UNL     1       0.516   7.489  22.194  1.00  0.00     0.173 A 
ATOM     95  C   UNL     1       0.216   6.162  20.236  1.00  0.00     0.173 A 
ATOM     96  F   UNL     1       1.279   8.133  23.090  1.00  0.00    -0.203 F 
ATOM     97  C   UNL     1      -0.878   7.665  22.289  1.00  0.00     0.198 A 
ATOM     98  C   UNL     1      -1.169   6.346  20.326  1.00  0.00     0.198 A 
ATOM     99  F   UNL     1       0.675   5.496  19.168  1.00  0.00    -0.203 F 
ATOM    100  F   UNL     1      -1.401   8.430  23.260  1.00  0.00    -0.200 F 
ATOM    101  C   UNL     1      -1.717   7.104  21.344  1.00  0.00     0.200 A 
ATOM    102  F   UNL     1      -1.965   5.837  19.375  1.00  0.00    -0.200 F 
ATOM    103  F   UNL     1      -3.039   7.326  21.385  1.00  0.00    -0.200 F 
ENDBRANCH  69  93
BRANCH  81 104
ATOM    104  C   UNL     1       7.214   7.732  21.889  1.00  0.00     0.064 A 
ATOM    105  C   UNL     1       6.949   6.362  22.065  1.00  0.00     0.173 A 
ATOM    106  C   UNL     1       8.208   8.305  22.692  1.00  0.00     0.173 A 
ATOM    107  F   UNL     1       6.088   5.718  21.265  1.00  0.00    -0.203 F 
ATOM    108  C   UNL     1       7.618   5.622  23.044  1.00  0.00     0.198 A 
ATOM    109  C   UNL     1       8.898   7.559  23.638  1.00  0.00     0.198 A 
ATOM    110  F   UNL     1       8.546   9.593  22.519  1.00  0.00    -0.203 F 
ATOM    111  F   UNL     1       7.345   4.319  23.210  1.00  0.00    -0.200 F 
ATOM    112  C   UNL     1       8.590   6.223  23.828  1.00  0.00     0.200 A 
ATOM    113  F   UNL     1       9.878   8.134  24.347  1.00  0.00    -0.200 F 
ATOM    114  F   UNL     1       9.250   5.511  24.753  1.00  0.00    -0.200 F 
ENDBRANCH  81 104
ENDBRANCH  55  56
ENDBRANCH  48  50
ENDBRANCH  47  48
ENDBRANCH  46  47
ENDBRANCH  45  46
ENDBRANCH  44  45
ENDBRANCH  43  44
ENDBRANCH  42  43
ENDBRANCH  41  42
ENDBRANCH   1  41
TORSDOF 25
