REMARK SMILES O=C(OCCOCCOCCOCCOC(=O)c1cc(N/N=C/C2=c3ccccc3=NC2)ccc1Cl)c1ccc(-c2c3nc(c(-c4c(F)c(F)c(F)c(F)c4F)c4ccc([nH]4)c(-c4c(F)c(F)c(F)c(F)c4F)c4nc(c(-c5c(F)c(F)c(F)c(F)c5F)c5ccc2[nH]5)C=C4)C=C3)cc1
REMARK SMILES IDX 10 1 9 2 8 3 7 4 6 5 5 6 4 7 3 8 2 9 1 10 37 11 38 12 99 13
REMARK SMILES IDX 39 14 98 15 40 16 41 17 42 18 92 19 43 20 97 21 91 22 93 23
REMARK SMILES IDX 44 24 96 25 90 26 89 27 45 29 77 30 57 31 76 32 58 33 61 34
REMARK SMILES IDX 75 35 94 36 59 37 60 38 74 40 95 41 62 42 46 43 47 44 55 45
REMARK SMILES IDX 48 46 49 47 53 48 56 49 50 50 51 51 54 52 52 53 78 54 79 55
REMARK SMILES IDX 87 56 80 57 81 58 85 59 88 60 82 61 83 62 86 63 84 64 63 65
REMARK SMILES IDX 64 66 72 67 65 68 66 69 70 70 73 71 67 72 68 73 71 74 69 75
REMARK SMILES IDX 11 76 12 77 13 78 14 79 15 80 16 81 17 82 18 83 19 84 35 85
REMARK SMILES IDX 20 86 34 87 36 88 33 89 21 90 22 92 23 93 24 94 25 95 32 96
REMARK SMILES IDX 26 97 30 98 31 99 27 100 29 101 28 102
REMARK H PARENT 93 28 61 39 21 91
REMARK Flexibility Score: inf
ROOT
ATOM      1  C   UNL     1       3.491  -3.618  -1.577  1.00  0.00     0.188 C 
ENDROOT
BRANCH   1   2
ATOM      2  O   UNL     1       2.100  -3.535  -1.830  1.00  0.00    -0.377 OA
BRANCH   2   3
ATOM      3  C   UNL     1       1.436  -2.303  -1.571  1.00  0.00     0.188 C 
BRANCH   3   4
ATOM      4  C   UNL     1       1.804  -1.562  -0.287  1.00  0.00     0.188 C 
BRANCH   4   5
ATOM      5  O   UNL     1       3.123  -1.035  -0.384  1.00  0.00    -0.376 OA
BRANCH   5   6
ATOM      6  C   UNL     1       3.929  -1.209   0.780  1.00  0.00     0.202 C 
BRANCH   6   7
ATOM      7  C   UNL     1       3.514  -0.338   1.961  1.00  0.00     0.261 C 
BRANCH   7   8
ATOM      8  O   UNL     1       3.641   1.031   1.568  1.00  0.00    -0.460 OA
BRANCH   8   9
ATOM      9  C   UNL     1       2.526   1.537   0.987  1.00  0.00     0.338 C 
ATOM     10  O   UNL     1       1.374   1.342   1.335  1.00  0.00    -0.246 OA
BRANCH   9  11
ATOM     11  C   UNL     1       2.922   2.288  -0.223  1.00  0.00     0.060 A 
ATOM     12  C   UNL     1       2.079   3.281  -0.725  1.00  0.00     0.016 A 
ATOM     13  C   UNL     1       4.097   1.943  -0.906  1.00  0.00     0.016 A 
ATOM     14  C   UNL     1       2.437   3.958  -1.890  1.00  0.00     0.010 A 
ATOM     15  C   UNL     1       4.452   2.606  -2.064  1.00  0.00     0.010 A 
ATOM     16  C   UNL     1       3.630   3.625  -2.550  1.00  0.00    -0.014 A 
BRANCH  16  17
ATOM     17  C   UNL     1       4.147   4.411  -3.678  1.00  0.00     0.031 A 
ATOM     18  C   UNL     1       4.092   3.876  -5.069  1.00  0.00     0.074 A 
ATOM     19  C   UNL     1       4.832   5.525  -3.372  1.00  0.00     0.049 A 
ATOM     20  N   UNL     1       4.526   4.421  -6.175  1.00  0.00    -0.248 NA
ATOM     21  C   UNL     1       3.499   2.541  -5.240  1.00  0.00     0.031 C 
ATOM     22  C   UNL     1       5.031   6.034  -2.013  1.00  0.00     0.029 A 
ATOM     23  N   UNL     1       5.514   6.402  -4.166  1.00  0.00    -0.354 N 
ATOM     24  C   UNL     1       4.231   3.512  -7.179  1.00  0.00     0.074 A 
ATOM     25  C   UNL     1       3.650   2.348  -6.543  1.00  0.00     0.031 C 
ATOM     26  C   UNL     1       5.782   7.143  -2.068  1.00  0.00     0.029 A 
ATOM     27  C   UNL     1       6.110   7.416  -3.462  1.00  0.00     0.049 A 
ATOM     28  H   UNL     1       5.572   6.315  -5.144  1.00  0.00     0.167 HD
ATOM     29  C   UNL     1       4.411   3.662  -8.513  1.00  0.00     0.037 A 
ATOM     30  C   UNL     1       6.823   8.464  -3.906  1.00  0.00     0.037 A 
ATOM     31  C   UNL     1       5.053   4.813  -9.100  1.00  0.00     0.049 A 
ATOM     32  C   UNL     1       7.008   8.617  -5.385  1.00  0.00     0.074 A 
ATOM     33  C   UNL     1       5.257   5.111 -10.434  1.00  0.00     0.029 A 
ATOM     34  N   UNL     1       5.622   5.851  -8.368  1.00  0.00    -0.354 N 
ATOM     35  N   UNL     1       6.615   7.820  -6.351  1.00  0.00    -0.248 NA
ATOM     36  C   UNL     1       7.707   9.822  -5.838  1.00  0.00     0.031 C 
ATOM     37  C   UNL     1       5.988   6.304 -10.508  1.00  0.00     0.029 A 
ATOM     38  C   UNL     1       6.195   6.780  -9.221  1.00  0.00     0.049 A 
ATOM     39  H   UNL     1       5.617   5.916  -7.386  1.00  0.00     0.167 HD
ATOM     40  C   UNL     1       7.009   8.427  -7.532  1.00  0.00     0.074 A 
ATOM     41  C   UNL     1       7.648   9.676  -7.155  1.00  0.00     0.031 C 
ATOM     42  C   UNL     1       6.859   7.995  -8.809  1.00  0.00     0.037 A 
BRANCH  29  43
ATOM     43  C   UNL     1       3.890   2.571  -9.408  1.00  0.00     0.064 A 
ATOM     44  C   UNL     1       2.512   2.315  -9.513  1.00  0.00     0.173 A 
ATOM     45  C   UNL     1       4.756   1.789 -10.185  1.00  0.00     0.173 A 
ATOM     46  F   UNL     1       1.635   3.028  -8.790  1.00  0.00    -0.203 F 
ATOM     47  C   UNL     1       2.026   1.299 -10.332  1.00  0.00     0.198 A 
ATOM     48  C   UNL     1       4.265   0.793 -11.028  1.00  0.00     0.198 A 
ATOM     49  F   UNL     1       6.082   1.989 -10.133  1.00  0.00    -0.203 F 
ATOM     50  F   UNL     1       0.711   1.043 -10.372  1.00  0.00    -0.200 F 
ATOM     51  C   UNL     1       2.902   0.542 -11.094  1.00  0.00     0.200 A 
ATOM     52  F   UNL     1       5.111   0.072 -11.777  1.00  0.00    -0.200 F 
ATOM     53  F   UNL     1       2.433  -0.431 -11.887  1.00  0.00    -0.200 F 
ENDBRANCH  29  43
BRANCH  30  54
ATOM     54  C   UNL     1       7.270   9.483  -2.928  1.00  0.00     0.064 A 
ATOM     55  C   UNL     1       6.569  10.691  -2.808  1.00  0.00     0.173 A 
ATOM     56  C   UNL     1       8.297   9.225  -2.009  1.00  0.00     0.173 A 
ATOM     57  F   UNL     1       5.579  10.977  -3.666  1.00  0.00    -0.203 F 
ATOM     58  C   UNL     1       6.872  11.599  -1.798  1.00  0.00     0.198 A 
ATOM     59  C   UNL     1       8.586  10.127  -0.987  1.00  0.00     0.198 A 
ATOM     60  F   UNL     1       8.977   8.071  -2.068  1.00  0.00    -0.203 F 
ATOM     61  F   UNL     1       6.182  12.744  -1.701  1.00  0.00    -0.200 F 
ATOM     62  C   UNL     1       7.871  11.311  -0.880  1.00  0.00     0.200 A 
ATOM     63  F   UNL     1       9.533   9.834  -0.085  1.00  0.00    -0.200 F 
ATOM     64  F   UNL     1       8.136  12.169   0.114  1.00  0.00    -0.200 F 
ENDBRANCH  30  54
BRANCH  42  65
ATOM     65  C   UNL     1       7.421   8.882  -9.881  1.00  0.00     0.064 A 
ATOM     66  C   UNL     1       8.806   9.025 -10.057  1.00  0.00     0.173 A 
ATOM     67  C   UNL     1       6.570   9.588 -10.743  1.00  0.00     0.173 A 
ATOM     68  F   UNL     1       9.660   8.383  -9.245  1.00  0.00    -0.203 F 
ATOM     69  C   UNL     1       9.318   9.873 -11.034  1.00  0.00     0.198 A 
ATOM     70  C   UNL     1       7.086  10.409 -11.740  1.00  0.00     0.198 A 
ATOM     71  F   UNL     1       5.239   9.481 -10.618  1.00  0.00    -0.203 F 
ATOM     72  F   UNL     1      10.642  10.043 -11.143  1.00  0.00    -0.200 F 
ATOM     73  C   UNL     1       8.458  10.560 -11.878  1.00  0.00     0.200 A 
ATOM     74  F   UNL     1       6.255  11.064 -12.563  1.00  0.00    -0.200 F 
ATOM     75  F   UNL     1       8.952  11.378 -12.817  1.00  0.00    -0.200 F 
ENDBRANCH  42  65
ENDBRANCH  16  17
ENDBRANCH   9  11
ENDBRANCH   8   9
ENDBRANCH   7   8
ENDBRANCH   6   7
ENDBRANCH   5   6
ENDBRANCH   4   5
ENDBRANCH   3   4
ENDBRANCH   2   3
ENDBRANCH   1   2
BRANCH   1  76
ATOM     76  C   UNL     1       4.485  -2.777  -2.409  1.00  0.00     0.188 C 
BRANCH  76  77
ATOM     77  O   UNL     1       4.053  -1.976  -3.489  1.00  0.00    -0.376 OA
BRANCH  77  78
ATOM     78  C   UNL     1       3.247  -2.521  -4.518  1.00  0.00     0.202 C 
BRANCH  78  79
ATOM     79  C   UNL     1       3.402  -3.957  -5.052  1.00  0.00     0.261 C 
BRANCH  79  80
ATOM     80  O   UNL     1       3.845  -4.930  -4.104  1.00  0.00    -0.460 OA
BRANCH  80  81
ATOM     81  C   UNL     1       5.043  -5.523  -4.339  1.00  0.00     0.339 C 
ATOM     82  O   UNL     1       5.783  -5.345  -5.290  1.00  0.00    -0.246 OA
BRANCH  81  83
ATOM     83  C   UNL     1       5.428  -6.253  -3.115  1.00  0.00     0.080 A 
ATOM     84  C   UNL     1       6.505  -5.730  -2.373  1.00  0.00     0.045 A 
ATOM     85  C   UNL     1       4.675  -7.313  -2.610  1.00  0.00     0.055 A 
ATOM     86  C   UNL     1       6.805  -6.216  -1.096  1.00  0.00     0.057 A 
ATOM     87  C   UNL     1       4.996  -7.838  -1.357  1.00  0.00     0.023 A 
ATOM     88  Cl  UNL     1       3.336  -7.995  -3.457  1.00  0.00    -0.083 Cl
ATOM     89  C   UNL     1       6.039  -7.282  -0.604  1.00  0.00     0.029 A 
BRANCH  86  90
ATOM     90  N   UNL     1       7.714  -5.574  -0.231  1.00  0.00    -0.278 N 
ATOM     91  H   UNL     1       7.831  -5.912   0.686  1.00  0.00     0.190 HD
BRANCH  90  92
ATOM     92  N   UNL     1       8.428  -4.497  -0.641  1.00  0.00    -0.183 NA
ATOM     93  C   UNL     1       8.178  -3.418   0.034  1.00  0.00     0.139 C 
BRANCH  93  94
ATOM     94  C   UNL     1       8.841  -2.136  -0.243  1.00  0.00     0.003 C 
ATOM     95  C   UNL     1       8.456  -0.941   0.191  1.00  0.00     0.006 A 
ATOM     96  C   UNL     1      10.036  -2.037  -1.129  1.00  0.00     0.180 C 
ATOM     97  C   UNL     1       7.449  -0.426   1.061  1.00  0.00     0.011 A 
ATOM     98  C   UNL     1       9.348  -0.041  -0.566  1.00  0.00     0.065 A 
ATOM     99  N   UNL     1      10.274  -0.578  -1.299  1.00  0.00    -0.280 NA
ATOM    100  C   UNL     1       7.255   0.902   1.118  1.00  0.00     0.001 A 
ATOM    101  C   UNL     1       9.063   1.408  -0.461  1.00  0.00     0.028 A 
ATOM    102  C   UNL     1       8.048   1.819   0.317  1.00  0.00     0.002 A 
ENDBRANCH  93  94
ENDBRANCH  90  92
ENDBRANCH  86  90
ENDBRANCH  81  83
ENDBRANCH  80  81
ENDBRANCH  79  80
ENDBRANCH  78  79
ENDBRANCH  77  78
ENDBRANCH  76  77
ENDBRANCH   1  76
TORSDOF 23
