REMARK SMILES COc1cc(C)c(S(=O)(=O)Nc2cc(C(=O)OCCOCCOCCOCCOC(=O)c3ccc(-c4c5nc(c(-c6c(F)c(F)c(F)c(F)c6F)c6ccc([nH]6)c(-c6c(F)c(F)c(F)c(F)c6F)c6nc(c(-c7c(F)c(F)c(F)c(F)c7F)c7ccc4[nH]7)C=C6)C=C5)cc3)ccc2F)cc1OC
REMARK SMILES IDX 22 1 21 2 20 3 19 4 18 5 17 6 15 7 16 8 14 9 12 10 13 11
REMARK SMILES IDX 97 12 96 13 98 14 95 15 11 16 8 18 9 19 10 20 7 21 3 22 4 23
REMARK SMILES IDX 100 24 5 25 99 26 6 27 2 28 1 29 101 30 102 31 23 32 24 33
REMARK SMILES IDX 25 34 26 35 27 36 28 37 29 38 30 39 31 40 32 41 33 42 94 43
REMARK SMILES IDX 34 44 93 45 35 46 36 47 37 48 87 49 38 50 92 51 86 52 88 53
REMARK SMILES IDX 39 54 91 55 85 56 84 57 40 59 72 60 52 61 71 62 53 63 56 64
REMARK SMILES IDX 70 65 89 66 54 67 55 68 69 70 90 71 57 72 41 73 42 74 50 75
REMARK SMILES IDX 43 76 44 77 48 78 51 79 45 80 46 81 49 82 47 83 73 84 74 85
REMARK SMILES IDX 82 86 75 87 76 88 80 89 83 90 77 91 78 92 81 93 79 94 58 95
REMARK SMILES IDX 59 96 67 97 60 98 61 99 65 100 68 101 62 102 63 103 66 104
REMARK SMILES IDX 64 105
REMARK H PARENT 11 17 88 58 56 69
REMARK Flexibility Score: inf
ROOT
ATOM      1  C   UNL     1       8.538   3.697  -4.626  1.00  0.00     0.188 C 
ENDROOT
BRANCH   1   2
ATOM      2  C   UNL     1       8.524   2.235  -4.138  1.00  0.00     0.188 C 
BRANCH   2   3
ATOM      3  O   UNL     1       7.361   1.442  -4.290  1.00  0.00    -0.376 OA
BRANCH   3   4
ATOM      4  C   UNL     1       6.520   1.663  -5.387  1.00  0.00     0.202 C 
BRANCH   4   5
ATOM      5  C   UNL     1       5.460   2.744  -5.250  1.00  0.00     0.261 C 
BRANCH   5   6
ATOM      6  O   UNL     1       5.338   3.481  -4.022  1.00  0.00    -0.460 OA
BRANCH   6   7
ATOM      7  C   UNL     1       5.686   3.090  -2.791  1.00  0.00     0.338 C 
ATOM      8  O   UNL     1       6.097   2.019  -2.354  1.00  0.00    -0.246 OA
BRANCH   7   9
ATOM      9  C   UNL     1       5.598   4.243  -1.916  1.00  0.00     0.062 A 
ATOM     10  C   UNL     1       4.462   6.213  -1.214  1.00  0.00     0.085 A 
ATOM     11  C   UNL     1       4.558   5.155  -2.092  1.00  0.00     0.045 A 
ATOM     12  C   UNL     1       5.493   6.435  -0.284  1.00  0.00     0.147 A 
ATOM     13  C   UNL     1       6.515   5.511  -0.094  1.00  0.00     0.042 A 
ATOM     14  F   UNL     1       5.423   7.496   0.533  1.00  0.00    -0.205 F 
ATOM     15  C   UNL     1       6.543   4.377  -0.890  1.00  0.00     0.019 A 
BRANCH  10  16
ATOM     16  N   UNL     1       3.301   7.012  -1.101  1.00  0.00    -0.277 N 
ATOM     17  H   UNL     1       3.419   7.911  -0.717  1.00  0.00     0.180 HD
BRANCH  16  18
ATOM     18  S   UNL     1       1.757   6.589  -1.549  1.00  0.00     0.262 S 
ATOM     19  O   UNL     1       1.760   6.357  -2.977  1.00  0.00    -0.201 OA
ATOM     20  O   UNL     1       0.924   7.634  -0.987  1.00  0.00    -0.201 OA
BRANCH  18  21
ATOM     21  C   UNL     1       1.195   5.068  -0.763  1.00  0.00     0.094 A 
ATOM     22  C   UNL     1      -0.287   2.975   0.452  1.00  0.00     0.161 A 
ATOM     23  C   UNL     1       0.935   3.418   0.980  1.00  0.00     0.055 A 
ATOM     24  C   UNL     1      -0.746   3.529  -0.741  1.00  0.00     0.162 A 
ATOM     25  C   UNL     1       1.696   4.457   0.394  1.00  0.00    -0.027 A 
ATOM     26  C   UNL     1       0.007   4.558  -1.334  1.00  0.00     0.073 A 
ATOM     27  C   UNL     1       2.970   4.790   1.100  1.00  0.00     0.046 C 
BRANCH  22  28
ATOM     28  O   UNL     1      -1.088   2.162   1.208  1.00  0.00    -0.493 OA
ATOM     29  C   UNL     1      -0.488   0.943   1.631  1.00  0.00     0.278 C 
ENDBRANCH  22  28
BRANCH  24  30
ATOM     30  O   UNL     1      -1.873   3.235  -1.455  1.00  0.00    -0.493 OA
ATOM     31  C   UNL     1      -2.799   2.263  -0.997  1.00  0.00     0.278 C 
ENDBRANCH  24  30
ENDBRANCH  18  21
ENDBRANCH  16  18
ENDBRANCH  10  16
ENDBRANCH   7   9
ENDBRANCH   6   7
ENDBRANCH   5   6
ENDBRANCH   4   5
ENDBRANCH   3   4
ENDBRANCH   2   3
ENDBRANCH   1   2
BRANCH   1  32
ATOM     32  O   UNL     1       7.728   4.023  -5.749  1.00  0.00    -0.377 OA
BRANCH  32  33
ATOM     33  C   UNL     1       8.309   4.064  -7.049  1.00  0.00     0.188 C 
BRANCH  33  34
ATOM     34  C   UNL     1       8.591   2.721  -7.734  1.00  0.00     0.188 C 
BRANCH  34  35
ATOM     35  O   UNL     1       9.214   1.828  -6.825  1.00  0.00    -0.376 OA
BRANCH  35  36
ATOM     36  C   UNL     1      10.573   1.523  -7.064  1.00  0.00     0.202 C 
BRANCH  36  37
ATOM     37  C   UNL     1      10.695   0.476  -8.171  1.00  0.00     0.261 C 
BRANCH  37  38
ATOM     38  O   UNL     1       9.983  -0.708  -7.758  1.00  0.00    -0.460 OA
BRANCH  38  39
ATOM     39  C   UNL     1       8.693  -0.808  -8.184  1.00  0.00     0.338 C 
ATOM     40  O   UNL     1       8.254  -0.396  -9.245  1.00  0.00    -0.246 OA
BRANCH  39  41
ATOM     41  C   UNL     1       7.835  -1.326  -7.080  1.00  0.00     0.060 A 
ATOM     42  C   UNL     1       6.463  -1.572  -7.290  1.00  0.00     0.016 A 
ATOM     43  C   UNL     1       8.343  -1.343  -5.782  1.00  0.00     0.016 A 
ATOM     44  C   UNL     1       5.594  -1.777  -6.202  1.00  0.00     0.010 A 
ATOM     45  C   UNL     1       7.477  -1.492  -4.713  1.00  0.00     0.010 A 
ATOM     46  C   UNL     1       6.099  -1.704  -4.903  1.00  0.00    -0.014 A 
BRANCH  46  47
ATOM     47  C   UNL     1       5.303  -1.725  -3.669  1.00  0.00     0.031 A 
ATOM     48  C   UNL     1       5.581  -2.766  -2.658  1.00  0.00     0.074 A 
ATOM     49  C   UNL     1       4.573  -0.651  -3.277  1.00  0.00     0.049 A 
ATOM     50  N   UNL     1       4.814  -2.997  -1.646  1.00  0.00    -0.248 NA
ATOM     51  C   UNL     1       6.720  -3.685  -2.708  1.00  0.00     0.031 C 
ATOM     52  C   UNL     1       4.330  -0.205  -1.903  1.00  0.00     0.029 A 
ATOM     53  N   UNL     1       4.071   0.418  -4.028  1.00  0.00    -0.354 N 
ATOM     54  C   UNL     1       5.588  -3.667  -0.734  1.00  0.00     0.074 A 
ATOM     55  C   UNL     1       6.595  -4.308  -1.532  1.00  0.00     0.031 C 
ATOM     56  C   UNL     1       3.520   0.867  -1.900  1.00  0.00     0.029 A 
ATOM     57  C   UNL     1       3.109   1.117  -3.271  1.00  0.00     0.049 A 
ATOM     58  H   UNL     1       4.347   0.648  -4.945  1.00  0.00     0.167 HD
ATOM     59  C   UNL     1       5.421  -3.395   0.593  1.00  0.00     0.037 A 
ATOM     60  C   UNL     1       1.834   1.325  -3.689  1.00  0.00     0.037 A 
ATOM     61  C   UNL     1       4.251  -2.517   0.821  1.00  0.00     0.049 A 
ATOM     62  C   UNL     1       0.936   0.426  -2.900  1.00  0.00     0.074 A 
ATOM     63  C   UNL     1       4.079  -1.283   1.424  1.00  0.00     0.029 A 
ATOM     64  N   UNL     1       3.048  -2.772   0.142  1.00  0.00    -0.354 N 
ATOM     65  N   UNL     1       1.427  -0.470  -2.090  1.00  0.00    -0.248 NA
ATOM     66  C   UNL     1      -0.513   0.437  -2.884  1.00  0.00     0.031 C 
ATOM     67  C   UNL     1       2.805  -0.774   1.029  1.00  0.00     0.029 A 
ATOM     68  C   UNL     1       2.157  -1.721   0.247  1.00  0.00     0.049 A 
ATOM     69  H   UNL     1       2.862  -3.603  -0.351  1.00  0.00     0.167 HD
ATOM     70  C   UNL     1       0.459  -1.034  -1.345  1.00  0.00     0.074 A 
ATOM     71  C   UNL     1      -0.758  -0.484  -1.929  1.00  0.00     0.031 C 
ATOM     72  C   UNL     1       0.789  -1.841  -0.291  1.00  0.00     0.037 A 
BRANCH  59  73
ATOM     73  C   UNL     1       6.423  -3.772   1.684  1.00  0.00     0.064 A 
ATOM     74  C   UNL     1       6.114  -3.565   3.047  1.00  0.00     0.173 A 
ATOM     75  C   UNL     1       7.715  -4.309   1.471  1.00  0.00     0.173 A 
ATOM     76  F   UNL     1       4.960  -2.996   3.420  1.00  0.00    -0.203 F 
ATOM     77  C   UNL     1       6.986  -3.925   4.087  1.00  0.00     0.198 A 
ATOM     78  C   UNL     1       8.551  -4.738   2.508  1.00  0.00     0.198 A 
ATOM     79  F   UNL     1       8.278  -4.378   0.263  1.00  0.00    -0.203 F 
ATOM     80  F   UNL     1       6.650  -3.661   5.357  1.00  0.00    -0.200 F 
ATOM     81  C   UNL     1       8.187  -4.546   3.819  1.00  0.00     0.200 A 
ATOM     82  F   UNL     1       9.726  -5.315   2.215  1.00  0.00    -0.200 F 
ATOM     83  F   UNL     1       9.000  -4.931   4.811  1.00  0.00    -0.200 F 
ENDBRANCH  59  73
BRANCH  60  84
ATOM     84  C   UNL     1       1.697   1.863  -5.064  1.00  0.00     0.064 A 
ATOM     85  C   UNL     1       2.058   3.215  -5.266  1.00  0.00     0.173 A 
ATOM     86  C   UNL     1       1.658   1.043  -6.192  1.00  0.00     0.173 A 
ATOM     87  F   UNL     1       2.155   4.031  -4.210  1.00  0.00    -0.203 F 
ATOM     88  C   UNL     1       2.499   3.685  -6.507  1.00  0.00     0.198 A 
ATOM     89  C   UNL     1       2.112   1.510  -7.432  1.00  0.00     0.198 A 
ATOM     90  F   UNL     1       1.292  -0.240  -6.076  1.00  0.00    -0.203 F 
ATOM     91  F   UNL     1       3.014   4.919  -6.618  1.00  0.00    -0.200 F 
ATOM     92  C   UNL     1       2.570   2.814  -7.579  1.00  0.00     0.200 A 
ATOM     93  F   UNL     1       2.201   0.664  -8.469  1.00  0.00    -0.200 F 
ATOM     94  F   UNL     1       3.158   3.201  -8.722  1.00  0.00    -0.200 F 
ENDBRANCH  60  84
BRANCH  72  95
ATOM     95  C   UNL     1      -0.197  -2.662   0.493  1.00  0.00     0.064 A 
ATOM     96  C   UNL     1      -1.488  -2.972   0.049  1.00  0.00     0.173 A 
ATOM     97  C   UNL     1       0.161  -3.208   1.748  1.00  0.00     0.173 A 
ATOM     98  F   UNL     1      -1.874  -2.740  -1.212  1.00  0.00    -0.203 F 
ATOM     99  C   UNL     1      -2.418  -3.588   0.882  1.00  0.00     0.198 A 
ATOM    100  C   UNL     1      -0.744  -3.894   2.545  1.00  0.00     0.198 A 
ATOM    101  F   UNL     1       1.400  -3.112   2.248  1.00  0.00    -0.203 F 
ATOM    102  F   UNL     1      -3.678  -3.747   0.456  1.00  0.00    -0.200 F 
ATOM    103  C   UNL     1      -2.050  -4.036   2.135  1.00  0.00     0.200 A 
ATOM    104  F   UNL     1      -0.338  -4.405   3.715  1.00  0.00    -0.200 F 
ATOM    105  F   UNL     1      -2.944  -4.629   2.934  1.00  0.00    -0.200 F 
ENDBRANCH  72  95
ENDBRANCH  46  47
ENDBRANCH  39  41
ENDBRANCH  38  39
ENDBRANCH  37  38
ENDBRANCH  36  37
ENDBRANCH  35  36
ENDBRANCH  34  35
ENDBRANCH  33  34
ENDBRANCH  32  33
ENDBRANCH   1  32
TORSDOF 25
