REMARK SMILES CC[C@@](C)([NH2+]CC(=O)N[C@@H](C)c1ccc(F)cc1)C(=O)OCCOCCOCCOCCOC(=O)c1ccc(-c2c3nc(c(-c4c(F)c(F)c(F)c(F)c4F)c4ccc([nH]4)c(-c4c(F)c(F)c(F)c(F)c4F)c4nc(c(-c5c(F)c(F)c(F)c(F)c5F)c5ccc2[nH]5)C=C4)C=C3)cc1
REMARK SMILES IDX 25 1 24 2 23 3 22 4 21 5 19 6 20 7 3 8 4 9 2 10 1 11 5 12
REMARK SMILES IDX 6 15 7 16 8 17 9 18 10 20 11 21 12 22 13 23 18 24 14 25
REMARK SMILES IDX 17 26 15 27 16 28 26 29 27 30 28 31 29 32 30 33 31 34 32 35
REMARK SMILES IDX 33 36 34 37 35 38 36 39 37 40 98 41 38 42 97 43 39 44 40 45
REMARK SMILES IDX 41 46 91 47 42 48 96 49 90 50 92 51 43 52 95 53 89 54 88 55
REMARK SMILES IDX 44 57 76 58 56 59 75 60 57 61 60 62 74 63 93 64 58 65 59 66
REMARK SMILES IDX 73 68 94 69 61 70 45 71 46 72 54 73 47 74 48 75 52 76 55 77
REMARK SMILES IDX 49 78 50 79 53 80 51 81 77 82 78 83 86 84 79 85 80 86 84 87
REMARK SMILES IDX 87 88 81 89 82 90 85 91 83 92 62 93 63 94 71 95 64 96 65 97
REMARK SMILES IDX 69 98 72 99 66 100 67 101 70 102 68 103
REMARK H PARENT 5 13 5 14 9 19 92 56 60 67
REMARK Flexibility Score: inf
ROOT
ATOM      1  C   UNL     1       3.566   1.718   2.537  1.00  0.00     0.188 C 
ENDROOT
BRANCH   1   2
ATOM      2  O   UNL     1       4.880   1.586   2.007  1.00  0.00    -0.376 OA
BRANCH   2   3
ATOM      3  C   UNL     1       5.195   2.162   0.746  1.00  0.00     0.202 C 
BRANCH   3   4
ATOM      4  C   UNL     1       4.161   2.228  -0.390  1.00  0.00     0.261 C 
BRANCH   4   5
ATOM      5  O   UNL     1       2.811   2.458   0.033  1.00  0.00    -0.459 OA
BRANCH   5   6
ATOM      6  C   UNL     1       1.796   1.653  -0.381  1.00  0.00     0.367 C 
ATOM      7  O   UNL     1       1.962   0.657  -1.077  1.00  0.00    -0.245 OA
BRANCH   6   8
ATOM      8  C   UNL     1       0.392   2.177   0.108  1.00  0.00     0.191 C 
ATOM      9  C   UNL     1      -0.799   2.029  -0.852  1.00  0.00     0.092 C 
BRANCH   8  10
ATOM     10  C   UNL     1       0.038   1.273   1.337  1.00  0.00     0.077 C 
ATOM     11  C   UNL     1       0.140  -0.236   1.043  1.00  0.00     0.011 C 
ENDBRANCH   8  10
BRANCH   8  12
ATOM     12  N   UNL     1       0.414   3.637   0.448  1.00  0.00    -0.325 N 
ATOM     13  H   UNL     1       0.923   3.728   1.327  1.00  0.00     0.347 HD
ATOM     14  H   UNL     1      -0.573   3.894   0.453  1.00  0.00     0.347 HD
BRANCH  12  15
ATOM     15  C   UNL     1       1.021   4.611  -0.507  1.00  0.00     0.362 C 
BRANCH  15  16
ATOM     16  C   UNL     1       0.303   4.855  -1.852  1.00  0.00     0.275 C 
ATOM     17  O   UNL     1      -0.687   5.590  -1.913  1.00  0.00    -0.268 OA
ATOM     18  N   UNL     1       0.779   4.314  -3.030  1.00  0.00    -0.345 N 
ATOM     19  H   UNL     1       0.559   4.804  -3.856  1.00  0.00     0.164 HD
BRANCH  18  20
ATOM     20  C   UNL     1       1.570   3.102  -3.192  1.00  0.00     0.109 C 
ATOM     21  C   UNL     1       0.782   1.996  -3.914  1.00  0.00     0.036 C 
BRANCH  20  22
ATOM     22  C   UNL     1       3.000   3.235  -3.675  1.00  0.00    -0.026 A 
ATOM     23  C   UNL     1       3.649   4.469  -3.785  1.00  0.00     0.009 A 
ATOM     24  C   UNL     1       3.761   2.058  -3.876  1.00  0.00     0.009 A 
ATOM     25  C   UNL     1       5.010   4.524  -4.106  1.00  0.00     0.039 A 
ATOM     26  C   UNL     1       5.116   2.114  -4.197  1.00  0.00     0.039 A 
ATOM     27  C   UNL     1       5.728   3.350  -4.310  1.00  0.00     0.123 A 
ATOM     28  F   UNL     1       7.034   3.413  -4.597  1.00  0.00    -0.207 F 
ENDBRANCH  20  22
ENDBRANCH  18  20
ENDBRANCH  15  16
ENDBRANCH  12  15
ENDBRANCH   8  12
ENDBRANCH   6   8
ENDBRANCH   5   6
ENDBRANCH   4   5
ENDBRANCH   3   4
ENDBRANCH   2   3
ENDBRANCH   1   2
BRANCH   1  29
ATOM     29  C   UNL     1       2.944   3.124   2.702  1.00  0.00     0.188 C 
BRANCH  29  30
ATOM     30  O   UNL     1       3.609   4.144   1.980  1.00  0.00    -0.377 OA
BRANCH  30  31
ATOM     31  C   UNL     1       4.590   4.887   2.684  1.00  0.00     0.188 C 
BRANCH  31  32
ATOM     32  C   UNL     1       5.435   4.180   3.766  1.00  0.00     0.188 C 
BRANCH  32  33
ATOM     33  O   UNL     1       4.700   3.355   4.661  1.00  0.00    -0.376 OA
BRANCH  33  34
ATOM     34  C   UNL     1       4.325   3.862   5.933  1.00  0.00     0.202 C 
BRANCH  34  35
ATOM     35  C   UNL     1       3.292   4.999   5.971  1.00  0.00     0.261 C 
BRANCH  35  36
ATOM     36  O   UNL     1       3.637   6.189   5.254  1.00  0.00    -0.460 OA
BRANCH  36  37
ATOM     37  C   UNL     1       4.783   6.817   5.610  1.00  0.00     0.338 C 
ATOM     38  O   UNL     1       5.544   6.524   6.496  1.00  0.00    -0.246 OA
BRANCH  37  39
ATOM     39  C   UNL     1       5.038   7.855   4.589  1.00  0.00     0.060 A 
ATOM     40  C   UNL     1       6.224   7.803   3.845  1.00  0.00     0.016 A 
ATOM     41  C   UNL     1       4.107   8.874   4.384  1.00  0.00     0.016 A 
ATOM     42  C   UNL     1       6.511   8.809   2.924  1.00  0.00     0.010 A 
ATOM     43  C   UNL     1       4.406   9.894   3.484  1.00  0.00     0.010 A 
ATOM     44  C   UNL     1       5.628   9.887   2.788  1.00  0.00    -0.014 A 
BRANCH  44  45
ATOM     45  C   UNL     1       6.079  11.141   2.146  1.00  0.00     0.031 A 
ATOM     46  C   UNL     1       6.613  12.222   3.042  1.00  0.00     0.074 A 
ATOM     47  C   UNL     1       5.984  11.334   0.821  1.00  0.00     0.049 A 
ATOM     48  N   UNL     1       6.909  13.463   2.764  1.00  0.00    -0.248 NA
ATOM     49  C   UNL     1       6.829  11.849   4.450  1.00  0.00     0.031 C 
ATOM     50  C   UNL     1       5.543  10.336  -0.148  1.00  0.00     0.029 A 
ATOM     51  N   UNL     1       6.236  12.454   0.070  1.00  0.00    -0.354 N 
ATOM     52  C   UNL     1       7.323  14.024   3.965  1.00  0.00     0.074 A 
ATOM     53  C   UNL     1       7.221  12.998   4.978  1.00  0.00     0.031 C 
ATOM     54  C   UNL     1       5.530  10.898  -1.369  1.00  0.00     0.029 A 
ATOM     55  C   UNL     1       5.916  12.306  -1.255  1.00  0.00     0.049 A 
ATOM     56  H   UNL     1       6.609  13.284   0.447  1.00  0.00     0.167 HD
ATOM     57  C   UNL     1       7.750  15.285   4.198  1.00  0.00     0.037 A 
ATOM     58  C   UNL     1       5.901  13.215  -2.250  1.00  0.00     0.037 A 
ATOM     59  C   UNL     1       7.848  16.295   3.181  1.00  0.00     0.049 A 
ATOM     60  C   UNL     1       6.298  14.640  -1.956  1.00  0.00     0.074 A 
ATOM     61  C   UNL     1       8.288  17.599   3.305  1.00  0.00     0.029 A 
ATOM     62  N   UNL     1       7.489  16.113   1.853  1.00  0.00    -0.354 N 
ATOM     63  N   UNL     1       6.691  15.171  -0.823  1.00  0.00    -0.248 NA
ATOM     64  C   UNL     1       6.244  15.594  -3.074  1.00  0.00     0.031 C 
ATOM     65  C   UNL     1       8.134  18.227   2.067  1.00  0.00     0.029 A 
ATOM     66  C   UNL     1       7.668  17.294   1.153  1.00  0.00     0.049 A 
ATOM     67  H   UNL     1       7.157  15.271   1.466  1.00  0.00     0.167 HD
ATOM     68  C   UNL     1       6.959  16.507  -1.094  1.00  0.00     0.074 A 
ATOM     69  C   UNL     1       6.681  16.709  -2.501  1.00  0.00     0.031 C 
ATOM     70  C   UNL     1       7.401  17.474  -0.253  1.00  0.00     0.037 A 
BRANCH  57  71
ATOM     71  C   UNL     1       8.106  15.652   5.608  1.00  0.00     0.064 A 
ATOM     72  C   UNL     1       7.317  16.569   6.319  1.00  0.00     0.173 A 
ATOM     73  C   UNL     1       9.243  15.132   6.244  1.00  0.00     0.173 A 
ATOM     74  F   UNL     1       6.219  17.096   5.758  1.00  0.00    -0.203 F 
ATOM     75  C   UNL     1       7.660  16.960   7.610  1.00  0.00     0.198 A 
ATOM     76  C   UNL     1       9.564  15.499   7.549  1.00  0.00     0.198 A 
ATOM     77  F   UNL     1      10.021  14.239   5.615  1.00  0.00    -0.203 F 
ATOM     78  F   UNL     1       6.907  17.860   8.258  1.00  0.00    -0.200 F 
ATOM     79  C   UNL     1       8.778  16.420   8.226  1.00  0.00     0.200 A 
ATOM     80  F   UNL     1      10.627  14.953   8.154  1.00  0.00    -0.200 F 
ATOM     81  F   UNL     1       9.096  16.783   9.476  1.00  0.00    -0.200 F 
ENDBRANCH  57  71
BRANCH  58  82
ATOM     82  C   UNL     1       5.489  12.792  -3.613  1.00  0.00     0.064 A 
ATOM     83  C   UNL     1       4.164  12.422  -3.893  1.00  0.00     0.173 A 
ATOM     84  C   UNL     1       6.426  12.694  -4.649  1.00  0.00     0.173 A 
ATOM     85  F   UNL     1       3.228  12.499  -2.936  1.00  0.00    -0.203 F 
ATOM     86  C   UNL     1       3.803  11.936  -5.148  1.00  0.00     0.198 A 
ATOM     87  C   UNL     1       6.058  12.233  -5.911  1.00  0.00     0.198 A 
ATOM     88  F   UNL     1       7.699  13.060  -4.436  1.00  0.00    -0.203 F 
ATOM     89  F   UNL     1       2.542  11.545  -5.376  1.00  0.00    -0.200 F 
ATOM     90  C   UNL     1       4.750  11.842  -6.156  1.00  0.00     0.200 A 
ATOM     91  F   UNL     1       6.971  12.163  -6.889  1.00  0.00    -0.200 F 
ATOM     92  F   UNL     1       4.403  11.372  -7.362  1.00  0.00    -0.200 F 
ENDBRANCH  58  82
BRANCH  70  93
ATOM     93  C   UNL     1       7.658  18.843  -0.813  1.00  0.00     0.064 A 
ATOM     94  C   UNL     1       8.972  19.334  -0.893  1.00  0.00     0.173 A 
ATOM     95  C   UNL     1       6.609  19.717  -1.129  1.00  0.00     0.173 A 
ATOM     96  F   UNL     1      10.009  18.540  -0.589  1.00  0.00    -0.203 F 
ATOM     97  C   UNL     1       9.222  20.660  -1.234  1.00  0.00     0.198 A 
ATOM     98  C   UNL     1       6.866  21.035  -1.498  1.00  0.00     0.198 A 
ATOM     99  F   UNL     1       5.338  19.293  -1.076  1.00  0.00    -0.203 F 
ATOM    100  F   UNL     1      10.481  21.121  -1.244  1.00  0.00    -0.200 F 
ATOM    101  C   UNL     1       8.169  21.509  -1.534  1.00  0.00     0.200 A 
ATOM    102  F   UNL     1       5.849  21.853  -1.806  1.00  0.00    -0.200 F 
ATOM    103  F   UNL     1       8.411  22.789  -1.852  1.00  0.00    -0.200 F 
ENDBRANCH  70  93
ENDBRANCH  44  45
ENDBRANCH  37  39
ENDBRANCH  36  37
ENDBRANCH  35  36
ENDBRANCH  34  35
ENDBRANCH  33  34
ENDBRANCH  32  33
ENDBRANCH  31  32
ENDBRANCH  30  31
ENDBRANCH  29  30
ENDBRANCH   1  29
TORSDOF 26
