REMARK SMILES O=C(C[NH2+]CC[NH+]1CCCCCC1)OCCOCCOCCOCCOC(=O)c1ccc(-c2c3nc(c(-c4c(F)c(F)c(F)c(F)c4F)c4ccc([nH]4)c(-c4c(F)c(F)c(F)c(F)c4F)c4nc(c(-c5c(F)c(F)c(F)c(F)c5F)c5ccc2[nH]5)C=C4)C=C3)cc1
REMARK SMILES IDX 17 1 16 2 15 3 14 4 2 5 1 6 3 7 4 8 5 11 6 12 7 13 8 15 9 16
REMARK SMILES IDX 10 17 11 18 13 20 12 21 18 23 19 24 20 25 21 26 22 27 23 28
REMARK SMILES IDX 24 29 25 30 26 31 27 32 28 33 29 34 30 35 91 36 31 37 90 38
REMARK SMILES IDX 32 39 33 40 34 41 84 42 35 43 89 44 83 45 85 46 36 47 88 48
REMARK SMILES IDX 82 49 81 50 37 52 69 53 49 54 68 55 50 56 53 57 67 58 86 59
REMARK SMILES IDX 51 60 52 61 66 63 87 64 54 65 38 66 39 67 47 68 40 69 41 70
REMARK SMILES IDX 45 71 48 72 42 73 43 74 46 75 44 76 70 77 71 78 79 79 72 80
REMARK SMILES IDX 73 81 77 82 80 83 74 84 75 85 78 86 76 87 55 88 56 89 64 90
REMARK SMILES IDX 57 91 58 92 62 93 65 94 59 95 60 96 63 97 61 98
REMARK H PARENT 4 9 4 10 7 14 85 51 53 62
REMARK Flexibility Score: 80.00
ROOT
ATOM      1  O   UNL     1       4.137  -0.479   1.585  1.00  0.00    -0.376 OA
ENDROOT
BRANCH   1   2
ATOM      2  C   UNL     1       4.983  -0.021   0.544  1.00  0.00     0.202 C 
BRANCH   2   3
ATOM      3  C   UNL     1       4.605   1.175  -0.330  1.00  0.00     0.261 C 
BRANCH   3   4
ATOM      4  O   UNL     1       3.304   1.241  -0.936  1.00  0.00    -0.459 OA
BRANCH   4   5
ATOM      5  C   UNL     1       2.640   0.240  -1.544  1.00  0.00     0.361 C 
ATOM      6  O   UNL     1       1.549   0.463  -2.068  1.00  0.00    -0.245 OA
BRANCH   5   7
ATOM      7  C   UNL     1       3.211  -1.166  -1.507  1.00  0.00     0.385 C 
BRANCH   7   8
ATOM      8  N   UNL     1       4.477  -1.265  -2.253  1.00  0.00    -0.332 N 
ATOM      9  H   UNL     1       5.222  -0.851  -1.692  1.00  0.00     0.346 HD
ATOM     10  H   UNL     1       4.361  -0.769  -3.137  1.00  0.00     0.346 HD
BRANCH   8  11
ATOM     11  C   UNL     1       4.832  -2.659  -2.559  1.00  0.00     0.323 C 
BRANCH  11  12
ATOM     12  C   UNL     1       3.694  -3.681  -2.823  1.00  0.00     0.324 C 
BRANCH  12  13
ATOM     13  N   UNL     1       2.689  -3.494  -3.890  1.00  0.00    -0.330 N 
ATOM     14  H   UNL     1       3.134  -3.899  -4.714  1.00  0.00     0.348 HD
BRANCH  13  15
ATOM     15  C   UNL     1       1.482  -4.271  -3.611  1.00  0.00     0.262 C 
BRANCH  15  16
ATOM     16  C   UNL     1       0.796  -4.773  -4.880  1.00  0.00     0.061 C 
BRANCH  16  17
ATOM     17  C   UNL     1      -0.142  -3.778  -5.551  1.00  0.00     0.006 C 
BRANCH  17  18
ATOM     18  C   UNL     1       0.519  -2.499  -6.034  1.00  0.00     0.006 CG0
ATOM     19  G   UNL     1       1.124  -1.701  -4.900  1.00  0.00     0.000 G0
ENDBRANCH  17  18
ENDBRANCH  16  17
ENDBRANCH  15  16
ENDBRANCH  13  15
BRANCH  13  20
ATOM     20  C   UNL     1       2.521  -2.188  -4.515  1.00  0.00     0.262 C 
BRANCH  20  21
ATOM     21  C   UNL     1       1.124  -1.701  -4.900  1.00  0.00     0.061 CG0
ATOM     22  G   UNL     1       0.519  -2.499  -6.034  1.00  0.00     0.000 G0
ENDBRANCH  20  21
ENDBRANCH  13  20
ENDBRANCH  12  13
ENDBRANCH  11  12
ENDBRANCH   8  11
ENDBRANCH   7   8
ENDBRANCH   5   7
ENDBRANCH   4   5
ENDBRANCH   3   4
ENDBRANCH   2   3
ENDBRANCH   1   2
BRANCH   1  23
ATOM     23  C   UNL     1       2.734  -0.367   1.623  1.00  0.00     0.188 C 
BRANCH  23  24
ATOM     24  C   UNL     1       2.140   0.357   2.844  1.00  0.00     0.188 C 
BRANCH  24  25
ATOM     25  O   UNL     1       2.954   0.869   3.884  1.00  0.00    -0.377 OA
BRANCH  25  26
ATOM     26  C   UNL     1       4.331   1.045   3.629  1.00  0.00     0.188 C 
BRANCH  26  27
ATOM     27  C   UNL     1       5.246  -0.151   4.013  1.00  0.00     0.188 C 
BRANCH  27  28
ATOM     28  O   UNL     1       4.774  -1.486   4.093  1.00  0.00    -0.376 OA
BRANCH  28  29
ATOM     29  C   UNL     1       3.627  -1.833   4.848  1.00  0.00     0.202 C 
BRANCH  29  30
ATOM     30  C   UNL     1       3.282  -1.215   6.218  1.00  0.00     0.261 C 
BRANCH  30  31
ATOM     31  O   UNL     1       3.582   0.172   6.394  1.00  0.00    -0.460 OA
BRANCH  31  32
ATOM     32  C   UNL     1       4.716   0.454   7.072  1.00  0.00     0.338 C 
ATOM     33  O   UNL     1       5.464  -0.334   7.627  1.00  0.00    -0.246 OA
BRANCH  32  34
ATOM     34  C   UNL     1       5.065   1.870   6.822  1.00  0.00     0.060 A 
ATOM     35  C   UNL     1       6.347   2.152   6.322  1.00  0.00     0.016 A 
ATOM     36  C   UNL     1       4.135   2.896   7.005  1.00  0.00     0.016 A 
ATOM     37  C   UNL     1       6.712   3.460   6.022  1.00  0.00     0.010 A 
ATOM     38  C   UNL     1       4.520   4.217   6.763  1.00  0.00     0.010 A 
ATOM     39  C   UNL     1       5.822   4.501   6.311  1.00  0.00    -0.014 A 
BRANCH  39  40
ATOM     40  C   UNL     1       6.377   5.862   6.474  1.00  0.00     0.031 A 
ATOM     41  C   UNL     1       6.902   6.219   7.837  1.00  0.00     0.074 A 
ATOM     42  C   UNL     1       6.461   6.733   5.455  1.00  0.00     0.049 A 
ATOM     43  N   UNL     1       7.432   7.334   8.265  1.00  0.00    -0.248 NA
ATOM     44  C   UNL     1       6.817   5.161   8.860  1.00  0.00     0.031 C 
ATOM     45  C   UNL     1       6.042   6.476   4.081  1.00  0.00     0.029 A 
ATOM     46  N   UNL     1       6.936   8.020   5.433  1.00  0.00    -0.354 N 
ATOM     47  C   UNL     1       7.737   7.111   9.602  1.00  0.00     0.074 A 
ATOM     48  C   UNL     1       7.307   5.770   9.925  1.00  0.00     0.031 C 
ATOM     49  C   UNL     1       6.268   7.580   3.346  1.00  0.00     0.029 A 
ATOM     50  C   UNL     1       6.820   8.626   4.208  1.00  0.00     0.049 A 
ATOM     51  H   UNL     1       7.322   8.466   6.221  1.00  0.00     0.167 HD
ATOM     52  C   UNL     1       8.328   7.949  10.483  1.00  0.00     0.037 A 
ATOM     53  C   UNL     1       7.114   9.889   3.841  1.00  0.00     0.037 A 
ATOM     54  C   UNL     1       8.733   9.288  10.162  1.00  0.00     0.049 A 
ATOM     55  C   UNL     1       7.687  10.838   4.865  1.00  0.00     0.074 A 
ATOM     56  C   UNL     1       9.339  10.226  10.977  1.00  0.00     0.029 A 
ATOM     57  N   UNL     1       8.555   9.886   8.922  1.00  0.00    -0.354 N 
ATOM     58  N   UNL     1       7.993  10.620   6.122  1.00  0.00    -0.248 NA
ATOM     59  C   UNL     1       7.959  12.211   4.414  1.00  0.00     0.031 C 
ATOM     60  C   UNL     1       9.474  11.411  10.247  1.00  0.00     0.029 A 
ATOM     61  C   UNL     1       9.014  11.191   8.957  1.00  0.00     0.049 A 
ATOM     62  H   UNL     1       8.160   9.446   8.135  1.00  0.00     0.167 HD
ATOM     63  C   UNL     1       8.526  11.811   6.601  1.00  0.00     0.074 A 
ATOM     64  C   UNL     1       8.507  12.747   5.496  1.00  0.00     0.031 C 
ATOM     65  C   UNL     1       8.995  12.103   7.840  1.00  0.00     0.037 A 
BRANCH  52  66
ATOM     66  C   UNL     1       8.514   7.443  11.884  1.00  0.00     0.064 A 
ATOM     67  C   UNL     1       9.421   6.416  12.188  1.00  0.00     0.173 A 
ATOM     68  C   UNL     1       7.752   7.978  12.933  1.00  0.00     0.173 A 
ATOM     69  F   UNL     1      10.155   5.853  11.216  1.00  0.00    -0.203 F 
ATOM     70  C   UNL     1       9.530   5.918  13.484  1.00  0.00     0.198 A 
ATOM     71  C   UNL     1       7.889   7.501  14.234  1.00  0.00     0.198 A 
ATOM     72  F   UNL     1       6.867   8.957  12.697  1.00  0.00    -0.203 F 
ATOM     73  F   UNL     1      10.352   4.890  13.738  1.00  0.00    -0.200 F 
ATOM     74  C   UNL     1       8.769   6.464  14.506  1.00  0.00     0.200 A 
ATOM     75  F   UNL     1       7.159   8.036  15.222  1.00  0.00    -0.200 F 
ATOM     76  F   UNL     1       8.873   5.982  15.752  1.00  0.00    -0.200 F 
ENDBRANCH  52  66
BRANCH  53  77
ATOM     77  C   UNL     1       6.873  10.332   2.443  1.00  0.00     0.064 A 
ATOM     78  C   UNL     1       7.940  10.636   1.587  1.00  0.00     0.173 A 
ATOM     79  C   UNL     1       5.572  10.472   1.937  1.00  0.00     0.173 A 
ATOM     80  F   UNL     1       9.202  10.544   2.032  1.00  0.00    -0.203 F 
ATOM     81  C   UNL     1       7.716  11.075   0.283  1.00  0.00     0.198 A 
ATOM     82  C   UNL     1       5.349  10.885   0.624  1.00  0.00     0.198 A 
ATOM     83  F   UNL     1       4.515  10.200   2.716  1.00  0.00    -0.203 F 
ATOM     84  F   UNL     1       8.754  11.398  -0.500  1.00  0.00    -0.200 F 
ATOM     85  C   UNL     1       6.421  11.192  -0.200  1.00  0.00     0.200 A 
ATOM     86  F   UNL     1       4.097  10.988   0.160  1.00  0.00    -0.200 F 
ATOM     87  F   UNL     1       6.207  11.608  -1.455  1.00  0.00    -0.200 F 
ENDBRANCH  53  77
BRANCH  65  88
ATOM     88  C   UNL     1       9.576  13.472   8.058  1.00  0.00     0.064 A 
ATOM     89  C   UNL     1       8.773  14.621   8.098  1.00  0.00     0.173 A 
ATOM     90  C   UNL     1      10.953  13.625   8.282  1.00  0.00     0.173 A 
ATOM     91  F   UNL     1       7.452  14.530   7.879  1.00  0.00    -0.203 F 
ATOM     92  C   UNL     1       9.332  15.876   8.325  1.00  0.00     0.198 A 
ATOM     93  C   UNL     1      11.503  14.876   8.543  1.00  0.00     0.198 A 
ATOM     94  F   UNL     1      11.764  12.556   8.266  1.00  0.00    -0.203 F 
ATOM     95  F   UNL     1       8.554  16.967   8.308  1.00  0.00    -0.200 F 
ATOM     96  C   UNL     1      10.694  16.002   8.555  1.00  0.00     0.200 A 
ATOM     97  F   UNL     1      12.817  14.992   8.784  1.00  0.00    -0.200 F 
ATOM     98  F   UNL     1      11.229  17.209   8.783  1.00  0.00    -0.200 F 
ENDBRANCH  65  88
ENDBRANCH  39  40
ENDBRANCH  32  34
ENDBRANCH  31  32
ENDBRANCH  30  31
ENDBRANCH  29  30
ENDBRANCH  28  29
ENDBRANCH  27  28
ENDBRANCH  26  27
ENDBRANCH  25  26
ENDBRANCH  24  25
ENDBRANCH  23  24
ENDBRANCH   1  23
TORSDOF 24
