REMARK SMILES CC(=O)Nc1cc(NC(C)=O)cc(C(=O)Nc2ccc(Br)cc2C(=O)OCCOCCOCCOCCOC(=O)c2ccc(-c3c4nc(c(-c5c(F)c(F)c(F)c(F)c5F)c5ccc([nH]5)c(-c5c(F)c(F)c(F)c(F)c5F)c5nc(c(-c6c(F)c(F)c(F)c(F)c6F)c6ccc3[nH]6)C=C5)C=C4)cc2)c1
REMARK SMILES IDX 31 1 30 2 29 3 28 4 27 5 26 6 24 7 25 8 23 9 17 10 18 11
REMARK SMILES IDX 19 12 22 13 20 14 21 15 16 16 14 17 15 18 13 20 5 21 6 22
REMARK SMILES IDX 104 23 7 24 12 25 4 26 1 27 2 28 3 29 8 31 9 32 10 34 11 35
REMARK SMILES IDX 32 36 33 37 34 38 35 39 36 40 37 41 38 42 39 43 40 44 41 45
REMARK SMILES IDX 42 46 103 47 43 48 102 49 44 50 45 51 46 52 96 53 47 54
REMARK SMILES IDX 101 55 95 56 97 57 48 58 100 59 94 60 93 61 49 63 81 64
REMARK SMILES IDX 61 65 80 66 62 67 65 68 79 69 98 70 63 71 64 72 78 74 99 75
REMARK SMILES IDX 66 76 50 77 51 78 59 79 52 80 53 81 57 82 60 83 54 84 55 85
REMARK SMILES IDX 58 86 56 87 82 88 83 89 91 90 84 91 85 92 89 93 92 94 86 95
REMARK SMILES IDX 87 96 90 97 88 98 67 99 68 100 76 101 69 102 70 103 74 104
REMARK SMILES IDX 77 105 71 106 72 107 75 108 73 109
REMARK H PARENT 16 19 4 30 8 33 97 62 65 73
REMARK Flexibility Score: inf
ROOT
ATOM      1  C   UNL     1       5.933  -1.166   3.446  1.00  0.00     0.188 C 
ENDROOT
BRANCH   1   2
ATOM      2  C   UNL     1       4.782  -1.403   4.443  1.00  0.00     0.188 C 
BRANCH   2   3
ATOM      3  O   UNL     1       4.464  -2.707   4.911  1.00  0.00    -0.376 OA
BRANCH   3   4
ATOM      4  C   UNL     1       4.374  -3.825   4.044  1.00  0.00     0.202 C 
BRANCH   4   5
ATOM      5  C   UNL     1       3.654  -3.780   2.697  1.00  0.00     0.261 C 
BRANCH   5   6
ATOM      6  O   UNL     1       3.973  -2.691   1.822  1.00  0.00    -0.460 OA
BRANCH   6   7
ATOM      7  C   UNL     1       3.060  -1.699   1.822  1.00  0.00     0.340 C 
ATOM      8  O   UNL     1       2.066  -1.651   2.532  1.00  0.00    -0.246 OA
BRANCH   7   9
ATOM      9  C   UNL     1       3.462  -0.555   0.966  1.00  0.00     0.084 A 
ATOM     10  C   UNL     1       4.180  -0.589  -0.247  1.00  0.00     0.056 A 
ATOM     11  C   UNL     1       4.597   0.646  -0.791  1.00  0.00     0.028 A 
ATOM     12  C   UNL     1       4.240   1.871  -0.216  1.00  0.00     0.018 A 
ATOM     13  C   UNL     1       3.102   0.691   1.534  1.00  0.00     0.033 A 
ATOM     14  C   UNL     1       3.478   1.887   0.940  1.00  0.00     0.018 A 
ATOM     15  Br  UNL     1       2.957   3.528   1.714  1.00  0.00    -0.051 Br
BRANCH  10  16
ATOM     16  N   UNL     1       4.534  -1.697  -1.057  1.00  0.00    -0.321 N 
ATOM     17  C   UNL     1       4.008  -2.950  -1.289  1.00  0.00     0.255 C 
ATOM     18  O   UNL     1       4.667  -3.762  -1.941  1.00  0.00    -0.269 OA
ATOM     19  H   UNL     1       5.352  -1.533  -1.579  1.00  0.00     0.170 HD
BRANCH  17  20
ATOM     20  C   UNL     1       2.660  -3.352  -0.831  1.00  0.00     0.044 A 
ATOM     21  C   UNL     1       0.547  -2.706   0.111  1.00  0.00     0.044 A 
ATOM     22  C   UNL     1       0.433  -3.998   0.661  1.00  0.00     0.052 A 
ATOM     23  C   UNL     1       1.620  -2.425  -0.727  1.00  0.00     0.040 A 
ATOM     24  C   UNL     1       1.398  -4.984   0.425  1.00  0.00     0.044 A 
ATOM     25  C   UNL     1       2.510  -4.657  -0.349  1.00  0.00     0.040 A 
BRANCH  21  26
ATOM     26  N   UNL     1      -0.293  -1.717   0.668  1.00  0.00    -0.326 N 
ATOM     27  C   UNL     1       0.074   0.302  -0.759  1.00  0.00     0.114 C 
ATOM     28  C   UNL     1      -0.404  -0.369   0.494  1.00  0.00     0.221 C 
ATOM     29  O   UNL     1      -0.941   0.302   1.380  1.00  0.00    -0.275 OA
ATOM     30  H   UNL     1      -0.935  -2.077   1.321  1.00  0.00     0.169 HD
ENDBRANCH  21  26
BRANCH  24  31
ATOM     31  N   UNL     1       1.397  -6.260   1.032  1.00  0.00    -0.326 N 
ATOM     32  C   UNL     1       0.585  -6.688   2.067  1.00  0.00     0.221 C 
ATOM     33  H   UNL     1       2.044  -6.914   0.681  1.00  0.00     0.169 HD
ATOM     34  C   UNL     1       0.858  -8.110   2.490  1.00  0.00     0.114 C 
ATOM     35  O   UNL     1      -0.275  -6.027   2.639  1.00  0.00    -0.275 OA
ENDBRANCH  24  31
ENDBRANCH  17  20
ENDBRANCH  10  16
ENDBRANCH   7   9
ENDBRANCH   6   7
ENDBRANCH   5   6
ENDBRANCH   4   5
ENDBRANCH   3   4
ENDBRANCH   2   3
ENDBRANCH   1   2
BRANCH   1  36
ATOM     36  O   UNL     1       6.406  -2.340   2.812  1.00  0.00    -0.377 OA
BRANCH  36  37
ATOM     37  C   UNL     1       7.551  -2.958   3.387  1.00  0.00     0.188 C 
BRANCH  37  38
ATOM     38  C   UNL     1       7.658  -3.008   4.925  1.00  0.00     0.188 C 
BRANCH  38  39
ATOM     39  O   UNL     1       7.575  -1.728   5.542  1.00  0.00    -0.376 OA
BRANCH  39  40
ATOM     40  C   UNL     1       8.792  -1.136   5.975  1.00  0.00     0.202 C 
BRANCH  40  41
ATOM     41  C   UNL     1       9.683  -0.598   4.848  1.00  0.00     0.261 C 
BRANCH  41  42
ATOM     42  O   UNL     1      10.221  -1.587   3.953  1.00  0.00    -0.460 OA
BRANCH  42  43
ATOM     43  C   UNL     1      10.932  -2.607   4.481  1.00  0.00     0.338 C 
ATOM     44  O   UNL     1      11.258  -2.767   5.640  1.00  0.00    -0.246 OA
BRANCH  43  45
ATOM     45  C   UNL     1      11.086  -3.623   3.420  1.00  0.00     0.060 A 
ATOM     46  C   UNL     1      10.597  -4.918   3.638  1.00  0.00     0.016 A 
ATOM     47  C   UNL     1      11.695  -3.285   2.210  1.00  0.00     0.016 A 
ATOM     48  C   UNL     1      10.733  -5.889   2.645  1.00  0.00     0.010 A 
ATOM     49  C   UNL     1      11.854  -4.263   1.230  1.00  0.00     0.010 A 
ATOM     50  C   UNL     1      11.396  -5.573   1.452  1.00  0.00    -0.014 A 
BRANCH  50  51
ATOM     51  C   UNL     1      11.781  -6.638   0.499  1.00  0.00     0.031 A 
ATOM     52  C   UNL     1      13.146  -7.248   0.632  1.00  0.00     0.074 A 
ATOM     53  C   UNL     1      10.956  -7.019  -0.491  1.00  0.00     0.049 A 
ATOM     54  N   UNL     1      13.763  -8.088  -0.157  1.00  0.00    -0.248 NA
ATOM     55  C   UNL     1      13.923  -6.849   1.817  1.00  0.00     0.031 C 
ATOM     56  C   UNL     1       9.596  -6.527  -0.694  1.00  0.00     0.029 A 
ATOM     57  N   UNL     1      11.160  -7.894  -1.528  1.00  0.00    -0.354 N 
ATOM     58  C   UNL     1      15.000  -8.312   0.430  1.00  0.00     0.074 A 
ATOM     59  C   UNL     1      15.057  -7.507   1.631  1.00  0.00     0.031 C 
ATOM     60  C   UNL     1       9.095  -7.087  -1.810  1.00  0.00     0.029 A 
ATOM     61  C   UNL     1      10.114  -7.942  -2.416  1.00  0.00     0.049 A 
ATOM     62  H   UNL     1      11.977  -8.434  -1.626  1.00  0.00     0.167 HD
ATOM     63  C   UNL     1      15.999  -9.119   0.004  1.00  0.00     0.037 A 
ATOM     64  C   UNL     1      10.014  -8.574  -3.603  1.00  0.00     0.037 A 
ATOM     65  C   UNL     1      15.943  -9.905  -1.198  1.00  0.00     0.049 A 
ATOM     66  C   UNL     1      11.182  -9.385  -4.109  1.00  0.00     0.074 A 
ATOM     67  C   UNL     1      16.889 -10.779  -1.704  1.00  0.00     0.029 A 
ATOM     68  N   UNL     1      14.883  -9.898  -2.093  1.00  0.00    -0.354 N 
ATOM     69  N   UNL     1      12.337  -9.621  -3.536  1.00  0.00    -0.248 NA
ATOM     70  C   UNL     1      11.035 -10.004  -5.435  1.00  0.00     0.031 C 
ATOM     71  C   UNL     1      16.425 -11.258  -2.933  1.00  0.00     0.029 A 
ATOM     72  C   UNL     1      15.169 -10.721  -3.169  1.00  0.00     0.049 A 
ATOM     73  H   UNL     1      14.051  -9.384  -1.980  1.00  0.00     0.167 HD
ATOM     74  C   UNL     1      13.047 -10.426  -4.420  1.00  0.00     0.074 A 
ATOM     75  C   UNL     1      12.185 -10.652  -5.561  1.00  0.00     0.031 C 
ATOM     76  C   UNL     1      14.300 -10.930  -4.299  1.00  0.00     0.037 A 
BRANCH  63  77
ATOM     77  C   UNL     1      17.251  -9.163   0.827  1.00  0.00     0.064 A 
ATOM     78  C   UNL     1      17.289  -9.803   2.074  1.00  0.00     0.173 A 
ATOM     79  C   UNL     1      18.433  -8.579   0.350  1.00  0.00     0.173 A 
ATOM     80  F   UNL     1      16.180 -10.360   2.582  1.00  0.00    -0.203 F 
ATOM     81  C   UNL     1      18.462  -9.838   2.824  1.00  0.00     0.198 A 
ATOM     82  C   UNL     1      19.611  -8.639   1.090  1.00  0.00     0.198 A 
ATOM     83  F   UNL     1      18.448  -7.953  -0.837  1.00  0.00    -0.203 F 
ATOM     84  F   UNL     1      18.466 -10.417   4.032  1.00  0.00    -0.200 F 
ATOM     85  C   UNL     1      19.623  -9.263   2.328  1.00  0.00     0.200 A 
ATOM     86  F   UNL     1      20.733  -8.089   0.606  1.00  0.00    -0.200 F 
ATOM     87  F   UNL     1      20.752  -9.302   3.048  1.00  0.00    -0.200 F 
ENDBRANCH  63  77
BRANCH  64  88
ATOM     88  C   UNL     1       8.779  -8.436  -4.418  1.00  0.00     0.064 A 
ATOM     89  C   UNL     1       7.926  -9.527  -4.625  1.00  0.00     0.173 A 
ATOM     90  C   UNL     1       8.440  -7.217  -5.025  1.00  0.00     0.173 A 
ATOM     91  F   UNL     1       8.224 -10.721  -4.091  1.00  0.00    -0.203 F 
ATOM     92  C   UNL     1       6.786  -9.409  -5.419  1.00  0.00     0.198 A 
ATOM     93  C   UNL     1       7.287  -7.093  -5.798  1.00  0.00     0.198 A 
ATOM     94  F   UNL     1       9.231  -6.146  -4.868  1.00  0.00    -0.203 F 
ATOM     95  F   UNL     1       6.011 -10.480  -5.638  1.00  0.00    -0.200 F 
ATOM     96  C   UNL     1       6.464  -8.191  -5.999  1.00  0.00     0.200 A 
ATOM     97  F   UNL     1       6.979  -5.914  -6.355  1.00  0.00    -0.200 F 
ATOM     98  F   UNL     1       5.369  -8.079  -6.763  1.00  0.00    -0.200 F 
ENDBRANCH  64  88
BRANCH  76  99
ATOM     99  C   UNL     1      14.816 -11.783  -5.420  1.00  0.00     0.064 A 
ATOM    100  C   UNL     1      15.209 -11.221  -6.644  1.00  0.00     0.173 A 
ATOM    101  C   UNL     1      14.985 -13.165  -5.246  1.00  0.00     0.173 A 
ATOM    102  F   UNL     1      15.053  -9.907  -6.864  1.00  0.00    -0.203 F 
ATOM    103  C   UNL     1      15.741 -12.015  -7.657  1.00  0.00     0.198 A 
ATOM    104  C   UNL     1      15.543 -13.950  -6.250  1.00  0.00     0.198 A 
ATOM    105  F   UNL     1      14.632 -13.748  -4.091  1.00  0.00    -0.203 F 
ATOM    106  F   UNL     1      16.079 -11.463  -8.830  1.00  0.00    -0.200 F 
ATOM    107  C   UNL     1      15.917 -13.376  -7.456  1.00  0.00     0.200 A 
ATOM    108  F   UNL     1      15.726 -15.263  -6.049  1.00  0.00    -0.200 F 
ATOM    109  F   UNL     1      16.443 -14.135  -8.426  1.00  0.00    -0.200 F 
ENDBRANCH  76  99
ENDBRANCH  50  51
ENDBRANCH  43  45
ENDBRANCH  42  43
ENDBRANCH  41  42
ENDBRANCH  40  41
ENDBRANCH  39  40
ENDBRANCH  38  39
ENDBRANCH  37  38
ENDBRANCH  36  37
ENDBRANCH   1  36
TORSDOF 24
