REMARK SMILES Cc1ccccc1C(=O)Nc1ccc(OCC(=O)OCCOCCOCCOCCOC(=O)c2ccc(-c3c4nc(c(-c5c(F)c(F)c(F)c(F)c5F)c5ccc([nH]5)c(-c5c(F)c(F)c(F)c(F)c5F)c5nc(c(-c6c(F)c(F)c(F)c(F)c6F)c6ccc3[nH]6)C=C5)C=C4)cc2)c(-c2nc3ccccc3s2)c1
REMARK SMILES IDX 24 1 23 2 22 3 21 4 20 5 19 6 17 7 18 8 16 9 15 10 14 11
REMARK SMILES IDX 11 12 12 13 107 14 13 15 97 16 10 17 8 18 9 19 7 21 1 22
REMARK SMILES IDX 2 23 3 24 4 25 6 26 5 27 98 28 99 29 106 30 100 31 105 32
REMARK SMILES IDX 101 33 104 34 102 35 103 36 25 37 26 38 27 39 28 40 29 41
REMARK SMILES IDX 30 42 31 43 32 44 33 45 34 46 35 47 96 48 36 49 95 50 37 51
REMARK SMILES IDX 38 52 39 53 89 54 40 55 94 56 88 57 90 58 41 59 93 60 87 61
REMARK SMILES IDX 86 62 42 64 74 65 54 66 73 67 55 68 58 69 72 70 91 71 56 72
REMARK SMILES IDX 57 73 71 75 92 76 59 77 43 78 44 79 52 80 45 81 46 82 50 83
REMARK SMILES IDX 53 84 47 85 48 86 51 87 49 88 75 89 76 90 84 91 77 92 78 93
REMARK SMILES IDX 82 94 85 95 79 96 80 97 83 98 81 99 60 100 61 101 69 102
REMARK SMILES IDX 62 103 63 104 67 105 70 106 64 107 65 108 68 109 66 110
REMARK H PARENT 10 20 90 63 58 74
REMARK Flexibility Score: inf
ROOT
ATOM      1  C   UNL     1       2.691  -2.154  -0.174  1.00  0.00     0.188 C 
ENDROOT
BRANCH   1   2
ATOM      2  C   UNL     1       2.217  -1.631  -1.510  1.00  0.00     0.188 C 
BRANCH   2   3
ATOM      3  O   UNL     1       2.275  -2.497  -2.639  1.00  0.00    -0.376 OA
BRANCH   3   4
ATOM      4  C   UNL     1       2.030  -3.873  -2.394  1.00  0.00     0.202 C 
BRANCH   4   5
ATOM      5  C   UNL     1       3.341  -4.666  -2.403  1.00  0.00     0.261 C 
BRANCH   5   6
ATOM      6  O   UNL     1       4.403  -3.888  -1.860  1.00  0.00    -0.461 OA
BRANCH   6   7
ATOM      7  C   UNL     1       5.627  -3.994  -2.426  1.00  0.00     0.344 C 
ATOM      8  O   UNL     1       5.985  -4.907  -3.158  1.00  0.00    -0.248 OA
BRANCH   7   9
ATOM      9  C   UNL     1       6.483  -2.776  -2.059  1.00  0.00     0.352 C 
BRANCH   9  10
ATOM     10  O   UNL     1       5.754  -1.766  -1.389  1.00  0.00    -0.481 OA
BRANCH  10  11
ATOM     11  C   UNL     1       5.481  -0.493  -1.803  1.00  0.00     0.130 A 
ATOM     12  C   UNL     1       3.963   1.911  -1.589  1.00  0.00     0.042 A 
ATOM     13  C   UNL     1       4.776   1.511  -0.542  1.00  0.00     0.030 A 
ATOM     14  C   UNL     1       4.202   1.294  -2.820  1.00  0.00     0.041 A 
ATOM     15  C   UNL     1       5.528   0.335  -0.654  1.00  0.00     0.049 A 
ATOM     16  C   UNL     1       4.855   0.013  -2.965  1.00  0.00     0.055 A 
BRANCH  12  17
ATOM     17  N   UNL     1       3.117   3.028  -1.412  1.00  0.00    -0.322 N 
ATOM     18  C   UNL     1       1.740   3.288  -1.352  1.00  0.00     0.255 C 
ATOM     19  O   UNL     1       1.474   4.449  -0.994  1.00  0.00    -0.269 OA
ATOM     20  H   UNL     1       3.639   3.855  -1.300  1.00  0.00     0.170 HD
BRANCH  18  21
ATOM     21  C   UNL     1       0.530   2.381  -1.494  1.00  0.00     0.043 A 
ATOM     22  C   UNL     1       1.241   1.074  -3.524  1.00  0.00     0.045 C 
ATOM     23  C   UNL     1       0.314   1.355  -2.414  1.00  0.00    -0.038 A 
ATOM     24  C   UNL     1      -0.834   0.521  -2.339  1.00  0.00     0.004 A 
ATOM     25  C   UNL     1      -1.853   0.771  -1.435  1.00  0.00     0.000 A 
ATOM     26  C   UNL     1      -0.568   2.660  -0.636  1.00  0.00     0.014 A 
ATOM     27  C   UNL     1      -1.739   1.874  -0.606  1.00  0.00     0.001 A 
ENDBRANCH  18  21
ENDBRANCH  12  17
BRANCH  16  28
ATOM     28  C   UNL     1       4.432  -0.700  -4.216  1.00  0.00     0.128 A 
ATOM     29  N   UNL     1       3.428  -0.276  -4.976  1.00  0.00    -0.236 NA
ATOM     30  S   UNL     1       5.057  -2.165  -4.843  1.00  0.00    -0.114 S 
ATOM     31  C   UNL     1       2.780  -1.366  -5.535  1.00  0.00     0.082 A 
ATOM     32  C   UNL     1       3.492  -2.557  -5.455  1.00  0.00     0.055 A 
ATOM     33  C   UNL     1       1.478  -1.389  -6.080  1.00  0.00     0.030 A 
ATOM     34  C   UNL     1       2.920  -3.789  -5.818  1.00  0.00     0.021 A 
ATOM     35  C   UNL     1       0.871  -2.612  -6.377  1.00  0.00     0.002 A 
ATOM     36  C   UNL     1       1.581  -3.798  -6.228  1.00  0.00     0.002 A 
ENDBRANCH  16  28
ENDBRANCH  10  11
ENDBRANCH   9  10
ENDBRANCH   7   9
ENDBRANCH   6   7
ENDBRANCH   5   6
ENDBRANCH   4   5
ENDBRANCH   3   4
ENDBRANCH   2   3
ENDBRANCH   1   2
BRANCH   1  37
ATOM     37  O   UNL     1       2.918  -1.187   0.835  1.00  0.00    -0.377 OA
BRANCH  37  38
ATOM     38  C   UNL     1       1.762  -0.959   1.616  1.00  0.00     0.188 C 
BRANCH  38  39
ATOM     39  C   UNL     1       0.952   0.176   1.013  1.00  0.00     0.188 C 
BRANCH  39  40
ATOM     40  O   UNL     1       1.623   1.425   1.018  1.00  0.00    -0.376 OA
BRANCH  40  41
ATOM     41  C   UNL     1       2.275   1.750   2.239  1.00  0.00     0.202 C 
BRANCH  41  42
ATOM     42  C   UNL     1       1.378   1.750   3.521  1.00  0.00     0.261 C 
BRANCH  42  43
ATOM     43  O   UNL     1       0.555   0.535   3.581  1.00  0.00    -0.460 OA
BRANCH  43  44
ATOM     44  C   UNL     1      -0.618   0.293   4.238  1.00  0.00     0.338 C 
ATOM     45  O   UNL     1      -1.164   0.958   5.058  1.00  0.00    -0.246 OA
BRANCH  44  46
ATOM     46  C   UNL     1      -1.058  -1.075   3.734  1.00  0.00     0.060 A 
ATOM     47  C   UNL     1      -0.695  -2.221   4.439  1.00  0.00     0.016 A 
ATOM     48  C   UNL     1      -1.544  -1.231   2.432  1.00  0.00     0.016 A 
ATOM     49  C   UNL     1      -0.596  -3.466   3.776  1.00  0.00     0.010 A 
ATOM     50  C   UNL     1      -1.333  -2.443   1.743  1.00  0.00     0.010 A 
ATOM     51  C   UNL     1      -0.751  -3.555   2.379  1.00  0.00    -0.014 A 
BRANCH  51  52
ATOM     52  C   UNL     1       0.024  -4.568   1.570  1.00  0.00     0.031 A 
ATOM     53  C   UNL     1      -0.444  -5.227   0.284  1.00  0.00     0.074 A 
ATOM     54  C   UNL     1       1.364  -4.643   1.818  1.00  0.00     0.049 A 
ATOM     55  N   UNL     1       0.167  -6.196  -0.343  1.00  0.00    -0.248 NA
ATOM     56  C   UNL     1      -1.651  -4.835  -0.420  1.00  0.00     0.031 C 
ATOM     57  C   UNL     1       2.369  -5.094   0.865  1.00  0.00     0.029 A 
ATOM     58  N   UNL     1       2.152  -4.147   2.855  1.00  0.00    -0.354 N 
ATOM     59  C   UNL     1      -0.375  -6.367  -1.612  1.00  0.00     0.074 A 
ATOM     60  C   UNL     1      -1.570  -5.557  -1.546  1.00  0.00     0.031 C 
ATOM     61  C   UNL     1       3.597  -4.763   1.274  1.00  0.00     0.029 A 
ATOM     62  C   UNL     1       3.507  -4.467   2.670  1.00  0.00     0.049 A 
ATOM     63  H   UNL     1       1.802  -3.636   3.621  1.00  0.00     0.167 HD
ATOM     64  C   UNL     1       0.282  -7.096  -2.589  1.00  0.00     0.037 A 
ATOM     65  C   UNL     1       4.170  -5.263   3.560  1.00  0.00     0.037 A 
ATOM     66  C   UNL     1       1.585  -7.665  -2.111  1.00  0.00     0.049 A 
ATOM     67  C   UNL     1       4.257  -6.726   3.107  1.00  0.00     0.074 A 
ATOM     68  C   UNL     1       2.868  -7.787  -2.634  1.00  0.00     0.029 A 
ATOM     69  N   UNL     1       1.703  -8.163  -0.807  1.00  0.00    -0.354 N 
ATOM     70  N   UNL     1       4.045  -7.134   1.871  1.00  0.00    -0.248 NA
ATOM     71  C   UNL     1       4.523  -7.857   3.988  1.00  0.00     0.031 C 
ATOM     72  C   UNL     1       3.762  -8.199  -1.595  1.00  0.00     0.029 A 
ATOM     73  C   UNL     1       3.013  -8.454  -0.461  1.00  0.00     0.049 A 
ATOM     74  H   UNL     1       0.938  -8.293  -0.202  1.00  0.00     0.167 HD
ATOM     75  C   UNL     1       3.877  -8.490   1.837  1.00  0.00     0.074 A 
ATOM     76  C   UNL     1       4.321  -8.901   3.159  1.00  0.00     0.031 C 
ATOM     77  C   UNL     1       3.295  -9.162   0.789  1.00  0.00     0.037 A 
BRANCH  64  78
ATOM     78  C   UNL     1      -0.138  -7.211  -4.101  1.00  0.00     0.064 A 
ATOM     79  C   UNL     1       0.599  -8.003  -5.026  1.00  0.00     0.173 A 
ATOM     80  C   UNL     1      -1.218  -6.544  -4.728  1.00  0.00     0.173 A 
ATOM     81  F   UNL     1       1.572  -8.827  -4.622  1.00  0.00    -0.203 F 
ATOM     82  C   UNL     1       0.352  -8.026  -6.415  1.00  0.00     0.198 A 
ATOM     83  C   UNL     1      -1.496  -6.602  -6.106  1.00  0.00     0.198 A 
ATOM     84  F   UNL     1      -2.083  -5.790  -4.060  1.00  0.00    -0.203 F 
ATOM     85  F   UNL     1       1.143  -8.746  -7.223  1.00  0.00    -0.200 F 
ATOM     86  C   UNL     1      -0.695  -7.319  -6.957  1.00  0.00     0.200 A 
ATOM     87  F   UNL     1      -2.552  -5.932  -6.592  1.00  0.00    -0.200 F 
ATOM     88  F   UNL     1      -0.936  -7.331  -8.275  1.00  0.00    -0.200 F 
ENDBRANCH  64  78
BRANCH  65  89
ATOM     89  C   UNL     1       4.248  -4.566   4.881  1.00  0.00     0.064 A 
ATOM     90  C   UNL     1       5.128  -3.456   4.857  1.00  0.00     0.173 A 
ATOM     91  C   UNL     1       3.088  -4.430   5.661  1.00  0.00     0.173 A 
ATOM     92  F   UNL     1       6.288  -3.546   4.187  1.00  0.00    -0.203 F 
ATOM     93  C   UNL     1       4.717  -2.197   5.299  1.00  0.00     0.198 A 
ATOM     94  C   UNL     1       2.691  -3.168   6.125  1.00  0.00     0.198 A 
ATOM     95  F   UNL     1       2.223  -5.449   5.763  1.00  0.00    -0.203 F 
ATOM     96  F   UNL     1       5.470  -1.117   5.044  1.00  0.00    -0.200 F 
ATOM     97  C   UNL     1       3.469  -2.045   5.875  1.00  0.00     0.200 A 
ATOM     98  F   UNL     1       1.482  -3.015   6.684  1.00  0.00    -0.200 F 
ATOM     99  F   UNL     1       2.984  -0.818   6.118  1.00  0.00    -0.200 F 
ENDBRANCH  65  89
BRANCH  77 100
ATOM    100  C   UNL     1       2.860 -10.616   0.823  1.00  0.00     0.064 A 
ATOM    101  C   UNL     1       2.381 -11.252   1.976  1.00  0.00     0.173 A 
ATOM    102  C   UNL     1       2.723 -11.356  -0.381  1.00  0.00     0.173 A 
ATOM    103  F   UNL     1       2.321 -10.613   3.152  1.00  0.00    -0.203 F 
ATOM    104  C   UNL     1       1.872 -12.553   1.943  1.00  0.00     0.198 A 
ATOM    105  C   UNL     1       2.143 -12.622  -0.421  1.00  0.00     0.198 A 
ATOM    106  F   UNL     1       3.119 -10.863  -1.563  1.00  0.00    -0.203 F 
ATOM    107  F   UNL     1       1.474 -13.134   3.083  1.00  0.00    -0.200 F 
ATOM    108  C   UNL     1       1.737 -13.230   0.746  1.00  0.00     0.200 A 
ATOM    109  F   UNL     1       1.958 -13.234  -1.600  1.00  0.00    -0.200 F 
ATOM    110  F   UNL     1       1.194 -14.454   0.715  1.00  0.00    -0.200 F 
ENDBRANCH  77 100
ENDBRANCH  51  52
ENDBRANCH  44  46
ENDBRANCH  43  44
ENDBRANCH  42  43
ENDBRANCH  41  42
ENDBRANCH  40  41
ENDBRANCH  39  40
ENDBRANCH  38  39
ENDBRANCH  37  38
ENDBRANCH   1  37
TORSDOF 25
