REMARK SMILES CCc1c(C)nc(Nc2cc(Cl)ccc2C)nc1OCC(=O)OCCOCCOCCOCCOC(=O)c1ccc(-c2c3nc(c(-c4c(F)c(F)c(F)c(F)c4F)c4ccc([nH]4)c(-c4c(F)c(F)c(F)c(F)c4F)c4nc(c(-c5c(F)c(F)c(F)c(F)c5F)c5ccc2[nH]5)C=C4)C=C3)cc1
REMARK SMILES IDX 28 1 27 2 26 3 25 4 24 5 23 6 21 7 22 8 20 9 19 10 18 11
REMARK SMILES IDX 3 12 4 13 5 14 6 15 17 16 7 17 2 18 1 19 8 20 9 22 10 23
REMARK SMILES IDX 15 24 11 25 14 26 16 27 12 28 13 29 29 30 30 31 31 32 32 33
REMARK SMILES IDX 33 34 34 35 35 36 36 37 37 38 38 39 39 40 100 41 40 42 99 43
REMARK SMILES IDX 41 44 42 45 43 46 93 47 44 48 98 49 92 50 94 51 45 52 97 53
REMARK SMILES IDX 91 54 90 55 46 57 78 58 58 59 77 60 59 61 62 62 76 63 95 64
REMARK SMILES IDX 60 65 61 66 75 68 96 69 63 70 47 71 48 72 56 73 49 74 50 75
REMARK SMILES IDX 54 76 57 77 51 78 52 79 55 80 53 81 79 82 80 83 88 84 81 85
REMARK SMILES IDX 82 86 86 87 89 88 83 89 84 90 87 91 85 92 64 93 65 94 73 95
REMARK SMILES IDX 66 96 67 97 71 98 74 99 68 100 69 101 72 102 70 103
REMARK H PARENT 8 21 94 56 62 67
REMARK Flexibility Score: inf
ROOT
ATOM      1  C   UNL     1      -1.379  -1.163   3.068  1.00  0.00     0.188 C 
ENDROOT
BRANCH   1   2
ATOM      2  C   UNL     1      -1.557  -1.399   1.554  1.00  0.00     0.188 C 
BRANCH   2   3
ATOM      3  O   UNL     1      -2.566  -2.282   1.090  1.00  0.00    -0.376 OA
BRANCH   3   4
ATOM      4  C   UNL     1      -2.816  -3.451   1.850  1.00  0.00     0.202 C 
BRANCH   4   5
ATOM      5  C   UNL     1      -1.632  -4.380   2.207  1.00  0.00     0.261 C 
BRANCH   5   6
ATOM      6  O   UNL     1      -0.429  -3.773   2.752  1.00  0.00    -0.461 OA
BRANCH   6   7
ATOM      7  C   UNL     1       0.666  -3.652   1.943  1.00  0.00     0.344 C 
ATOM      8  O   UNL     1       0.718  -4.095   0.800  1.00  0.00    -0.248 OA
BRANCH   7   9
ATOM      9  C   UNL     1       1.872  -2.899   2.600  1.00  0.00     0.353 C 
BRANCH   9  10
ATOM     10  O   UNL     1       1.687  -1.800   3.476  1.00  0.00    -0.465 OA
BRANCH  10  11
ATOM     11  C   UNL     1       1.990  -0.482   3.259  1.00  0.00     0.222 A 
ATOM     12  C   UNL     1       1.851   0.250   2.076  1.00  0.00     0.035 A 
ATOM     13  C   UNL     1       1.897   1.639   2.261  1.00  0.00     0.050 A 
ATOM     14  C   UNL     1       1.537   2.649   1.207  1.00  0.00     0.067 C 
ATOM     15  N   UNL     1       2.170   2.228   3.442  1.00  0.00    -0.218 NA
ATOM     16  N   UNL     1       2.220   0.129   4.462  1.00  0.00    -0.177 NA
ATOM     17  C   UNL     1       2.318   1.466   4.520  1.00  0.00     0.230 A 
BRANCH  12  18
ATOM     18  C   UNL     1       1.476  -0.299   0.725  1.00  0.00     0.040 C 
ATOM     19  C   UNL     1       2.370   0.046  -0.460  1.00  0.00     0.009 C 
ENDBRANCH  12  18
BRANCH  17  20
ATOM     20  N   UNL     1       2.454   2.099   5.768  1.00  0.00    -0.324 N 
ATOM     21  H   UNL     1       2.655   1.521   6.539  1.00  0.00     0.170 HD
BRANCH  20  22
ATOM     22  C   UNL     1       2.330   3.481   6.023  1.00  0.00     0.045 A 
ATOM     23  C   UNL     1       3.440   4.322   5.869  1.00  0.00     0.047 A 
ATOM     24  C   UNL     1       1.118   4.064   6.445  1.00  0.00    -0.027 A 
ATOM     25  C   UNL     1       3.323   5.705   6.050  1.00  0.00     0.043 A 
ATOM     26  C   UNL     1       0.994   5.463   6.551  1.00  0.00     0.007 A 
ATOM     27  C   UNL     1      -0.037   3.234   6.901  1.00  0.00     0.046 C 
ATOM     28  Cl  UNL     1       4.717   6.708   5.932  1.00  0.00    -0.084 Cl
ATOM     29  C   UNL     1       2.095   6.284   6.345  1.00  0.00     0.021 A 
ENDBRANCH  20  22
ENDBRANCH  17  20
ENDBRANCH  10  11
ENDBRANCH   9  10
ENDBRANCH   7   9
ENDBRANCH   6   7
ENDBRANCH   5   6
ENDBRANCH   4   5
ENDBRANCH   3   4
ENDBRANCH   2   3
ENDBRANCH   1   2
BRANCH   1  30
ATOM     30  O   UNL     1      -2.477  -1.612   3.837  1.00  0.00    -0.377 OA
BRANCH  30  31
ATOM     31  C   UNL     1      -3.279  -0.573   4.354  1.00  0.00     0.188 C 
BRANCH  31  32
ATOM     32  C   UNL     1      -3.836   0.404   3.298  1.00  0.00     0.188 C 
BRANCH  32  33
ATOM     33  O   UNL     1      -2.859   0.927   2.412  1.00  0.00    -0.376 OA
BRANCH  33  34
ATOM     34  C   UNL     1      -2.228   2.177   2.610  1.00  0.00     0.202 C 
BRANCH  34  35
ATOM     35  C   UNL     1      -1.580   2.551   3.945  1.00  0.00     0.261 C 
BRANCH  35  36
ATOM     36  O   UNL     1      -2.192   1.993   5.105  1.00  0.00    -0.460 OA
BRANCH  36  37
ATOM     37  C   UNL     1      -3.221   2.660   5.665  1.00  0.00     0.338 C 
ATOM     38  O   UNL     1      -3.714   3.701   5.305  1.00  0.00    -0.246 OA
BRANCH  37  39
ATOM     39  C   UNL     1      -3.756   1.775   6.723  1.00  0.00     0.060 A 
ATOM     40  C   UNL     1      -5.038   1.254   6.539  1.00  0.00     0.016 A 
ATOM     41  C   UNL     1      -2.995   1.421   7.844  1.00  0.00     0.016 A 
ATOM     42  C   UNL     1      -5.585   0.418   7.503  1.00  0.00     0.010 A 
ATOM     43  C   UNL     1      -3.554   0.607   8.828  1.00  0.00     0.010 A 
ATOM     44  C   UNL     1      -4.869   0.149   8.676  1.00  0.00    -0.014 A 
BRANCH  44  45
ATOM     45  C   UNL     1      -5.619  -0.389   9.827  1.00  0.00     0.031 A 
ATOM     46  C   UNL     1      -6.184   0.598  10.808  1.00  0.00     0.074 A 
ATOM     47  C   UNL     1      -5.878  -1.702   9.919  1.00  0.00     0.049 A 
ATOM     48  N   UNL     1      -6.975   0.398  11.829  1.00  0.00    -0.248 NA
ATOM     49  C   UNL     1      -5.814   2.009  10.603  1.00  0.00     0.031 C 
ATOM     50  C   UNL     1      -5.406  -2.721   8.985  1.00  0.00     0.029 A 
ATOM     51  N   UNL     1      -6.624  -2.395  10.834  1.00  0.00    -0.354 N 
ATOM     52  C   UNL     1      -7.196   1.653  12.381  1.00  0.00     0.074 A 
ATOM     53  C   UNL     1      -6.427   2.603  11.613  1.00  0.00     0.031 C 
ATOM     54  C   UNL     1      -5.891  -3.916   9.366  1.00  0.00     0.029 A 
ATOM     55  C   UNL     1      -6.683  -3.742  10.582  1.00  0.00     0.049 A 
ATOM     56  H   UNL     1      -7.075  -1.968  11.598  1.00  0.00     0.167 HD
ATOM     57  C   UNL     1      -7.984   1.978  13.432  1.00  0.00     0.037 A 
ATOM     58  C   UNL     1      -7.310  -4.716  11.268  1.00  0.00     0.037 A 
ATOM     59  C   UNL     1      -8.733   1.012  14.188  1.00  0.00     0.049 A 
ATOM     60  C   UNL     1      -8.119  -4.334  12.482  1.00  0.00     0.074 A 
ATOM     61  C   UNL     1      -9.574   1.219  15.265  1.00  0.00     0.029 A 
ATOM     62  N   UNL     1      -8.716  -0.357  13.948  1.00  0.00    -0.354 N 
ATOM     63  N   UNL     1      -8.357  -3.144  12.981  1.00  0.00    -0.248 NA
ATOM     64  C   UNL     1      -8.754  -5.432  13.221  1.00  0.00     0.031 C 
ATOM     65  C   UNL     1     -10.007  -0.030  15.722  1.00  0.00     0.029 A 
ATOM     66  C   UNL     1      -9.502  -1.011  14.881  1.00  0.00     0.049 A 
ATOM     67  H   UNL     1      -8.218  -0.796  13.221  1.00  0.00     0.167 HD
ATOM     68  C   UNL     1      -9.196  -3.344  14.069  1.00  0.00     0.074 A 
ATOM     69  C   UNL     1      -9.436  -4.772  14.146  1.00  0.00     0.031 C 
ATOM     70  C   UNL     1      -9.725  -2.435  14.927  1.00  0.00     0.037 A 
BRANCH  57  71
ATOM     71  C   UNL     1      -8.024   3.422  13.847  1.00  0.00     0.064 A 
ATOM     72  C   UNL     1      -8.606   4.415  13.044  1.00  0.00     0.173 A 
ATOM     73  C   UNL     1      -7.462   3.818  15.071  1.00  0.00     0.173 A 
ATOM     74  F   UNL     1      -9.139   4.097  11.854  1.00  0.00    -0.203 F 
ATOM     75  C   UNL     1      -8.592   5.753  13.434  1.00  0.00     0.198 A 
ATOM     76  C   UNL     1      -7.482   5.151  15.473  1.00  0.00     0.198 A 
ATOM     77  F   UNL     1      -6.889   2.912  15.877  1.00  0.00    -0.203 F 
ATOM     78  F   UNL     1      -9.095   6.692  12.620  1.00  0.00    -0.200 F 
ATOM     79  C   UNL     1      -8.036   6.119  14.650  1.00  0.00     0.200 A 
ATOM     80  F   UNL     1      -6.955   5.500  16.655  1.00  0.00    -0.200 F 
ATOM     81  F   UNL     1      -8.024   7.405  15.024  1.00  0.00    -0.200 F 
ENDBRANCH  57  71
BRANCH  58  82
ATOM     82  C   UNL     1      -7.208  -6.130  10.821  1.00  0.00     0.064 A 
ATOM     83  C   UNL     1      -8.332  -6.827  10.355  1.00  0.00     0.173 A 
ATOM     84  C   UNL     1      -5.986  -6.819  10.860  1.00  0.00     0.173 A 
ATOM     85  F   UNL     1      -9.527  -6.221  10.315  1.00  0.00    -0.203 F 
ATOM     86  C   UNL     1      -8.242  -8.163   9.967  1.00  0.00     0.198 A 
ATOM     87  C   UNL     1      -5.891  -8.144  10.442  1.00  0.00     0.198 A 
ATOM     88  F   UNL     1      -4.880  -6.199  11.297  1.00  0.00    -0.203 F 
ATOM     89  F   UNL     1      -9.341  -8.819   9.573  1.00  0.00    -0.200 F 
ATOM     90  C   UNL     1      -7.020  -8.819  10.005  1.00  0.00     0.200 A 
ATOM     91  F   UNL     1      -4.705  -8.768  10.466  1.00  0.00    -0.200 F 
ATOM     92  F   UNL     1      -6.933 -10.102   9.629  1.00  0.00    -0.200 F 
ENDBRANCH  58  82
BRANCH  70  93
ATOM     93  C   UNL     1     -10.651  -2.955  15.990  1.00  0.00     0.064 A 
ATOM     94  C   UNL     1     -10.191  -3.742  17.056  1.00  0.00     0.173 A 
ATOM     95  C   UNL     1     -12.017  -2.632  15.954  1.00  0.00     0.173 A 
ATOM     96  F   UNL     1      -8.897  -4.088  17.131  1.00  0.00    -0.203 F 
ATOM     97  C   UNL     1     -11.070  -4.219  18.024  1.00  0.00     0.198 A 
ATOM     98  C   UNL     1     -12.885  -3.077  16.946  1.00  0.00     0.198 A 
ATOM     99  F   UNL     1     -12.508  -1.873  14.963  1.00  0.00    -0.203 F 
ATOM    100  F   UNL     1     -10.619  -5.024  18.997  1.00  0.00    -0.200 F 
ATOM    101  C   UNL     1     -12.414  -3.880  17.973  1.00  0.00     0.200 A 
ATOM    102  F   UNL     1     -14.179  -2.731  16.906  1.00  0.00    -0.200 F 
ATOM    103  F   UNL     1     -13.257  -4.335  18.909  1.00  0.00    -0.200 F 
ENDBRANCH  70  93
ENDBRANCH  44  45
ENDBRANCH  37  39
ENDBRANCH  36  37
ENDBRANCH  35  36
ENDBRANCH  34  35
ENDBRANCH  33  34
ENDBRANCH  32  33
ENDBRANCH  31  32
ENDBRANCH  30  31
ENDBRANCH   1  30
TORSDOF 25
