REMARK SMILES CC[C@H](C)CN(CC)C(=O)NC[C@@](C)(O)C(=O)OCCOCCOCCOCCOC(=O)c1ccc(-c2c3nc(c(-c4c(F)c(F)c(F)c(F)c4F)c4ccc([nH]4)c(-c4c(F)c(F)c(F)c(F)c4F)c4nc(c(-c5c(F)c(F)c(F)c(F)c5F)c5ccc2[nH]5)C=C4)C=C3)cc1
REMARK SMILES IDX 22 1 21 2 20 3 19 4 18 5 16 6 17 7 13 8 14 9 12 10 11 11
REMARK SMILES IDX 9 12 10 13 6 15 5 16 3 17 4 18 2 19 1 20 7 21 8 22 15 23
REMARK SMILES IDX 23 25 24 26 25 27 26 28 27 29 28 30 29 31 30 32 31 33 32 34
REMARK SMILES IDX 33 35 34 36 95 37 35 38 94 39 36 40 37 41 38 42 88 43 39 44
REMARK SMILES IDX 93 45 87 46 89 47 40 48 92 49 86 50 85 51 41 53 73 54 53 55
REMARK SMILES IDX 72 56 54 57 57 58 71 59 90 60 55 61 56 62 70 64 91 65 58 66
REMARK SMILES IDX 42 67 43 68 51 69 44 70 45 71 49 72 52 73 46 74 47 75 50 76
REMARK SMILES IDX 48 77 74 78 75 79 83 80 76 81 77 82 81 83 84 84 78 85 79 86
REMARK SMILES IDX 82 87 80 88 59 89 60 90 68 91 61 92 62 93 66 94 69 95 63 96
REMARK SMILES IDX 64 97 67 98 65 99
REMARK H PARENT 11 14 15 24 89 52 57 63
REMARK Flexibility Score: inf
ROOT
ATOM      1  C   UNL     1      -0.754  -0.110   7.458  1.00  0.00     0.188 C 
ENDROOT
BRANCH   1   2
ATOM      2  O   UNL     1      -2.077  -0.071   7.968  1.00  0.00    -0.376 OA
BRANCH   2   3
ATOM      3  C   UNL     1      -2.928  -1.161   7.666  1.00  0.00     0.202 C 
BRANCH   3   4
ATOM      4  C   UNL     1      -2.469  -2.602   7.945  1.00  0.00     0.261 C 
BRANCH   4   5
ATOM      5  O   UNL     1      -1.063  -2.856   7.823  1.00  0.00    -0.461 OA
BRANCH   5   6
ATOM      6  C   UNL     1      -0.603  -3.397   6.668  1.00  0.00     0.339 C 
ATOM      7  O   UNL     1      -1.313  -3.668   5.705  1.00  0.00    -0.249 OA
BRANCH   6   8
ATOM      8  C   UNL     1       0.933  -3.659   6.712  1.00  0.00     0.176 C 
ATOM      9  C   UNL     1       1.124  -5.128   6.332  1.00  0.00     0.057 C 
BRANCH   8  10
ATOM     10  C   UNL     1       1.702  -2.693   5.748  1.00  0.00     0.164 C 
BRANCH  10  11
ATOM     11  N   UNL     1       0.997  -2.344   4.530  1.00  0.00    -0.334 N 
ATOM     12  C   UNL     1       0.507  -1.189   4.042  1.00  0.00     0.317 C 
ATOM     13  O   UNL     1      -0.567  -1.306   3.446  1.00  0.00    -0.249 OA
ATOM     14  H   UNL     1       0.843  -3.113   3.936  1.00  0.00     0.165 HD
BRANCH  12  15
ATOM     15  N   UNL     1       1.162   0.013   4.127  1.00  0.00    -0.325 N 
BRANCH  15  16
ATOM     16  C   UNL     1       0.519   1.148   3.433  1.00  0.00     0.124 C 
BRANCH  16  17
ATOM     17  C   UNL     1       0.919   1.294   1.933  1.00  0.00     0.005 C 
ATOM     18  C   UNL     1       0.536   0.066   1.098  1.00  0.00     0.009 C 
BRANCH  17  19
ATOM     19  C   UNL     1       0.310   2.603   1.372  1.00  0.00     0.002 C 
ATOM     20  C   UNL     1       0.189   2.678  -0.146  1.00  0.00     0.004 C 
ENDBRANCH  17  19
ENDBRANCH  16  17
ENDBRANCH  15  16
BRANCH  15  21
ATOM     21  C   UNL     1       2.501   0.281   4.656  1.00  0.00     0.118 C 
ATOM     22  C   UNL     1       2.471   0.913   6.041  1.00  0.00     0.027 C 
ENDBRANCH  15  21
ENDBRANCH  12  15
ENDBRANCH  10  11
ENDBRANCH   8  10
BRANCH   8  23
ATOM     23  O   UNL     1       1.504  -3.550   8.025  1.00  0.00    -0.377 OA
ATOM     24  H   UNL     1       2.457  -3.725   7.978  1.00  0.00     0.212 HD
ENDBRANCH   8  23
ENDBRANCH   6   8
ENDBRANCH   5   6
ENDBRANCH   4   5
ENDBRANCH   3   4
ENDBRANCH   2   3
ENDBRANCH   1   2
BRANCH   1  25
ATOM     25  C   UNL     1       0.283  -0.440   8.550  1.00  0.00     0.188 C 
BRANCH  25  26
ATOM     26  O   UNL     1      -0.193  -0.744   9.848  1.00  0.00    -0.377 OA
BRANCH  26  27
ATOM     27  C   UNL     1      -1.058   0.185  10.486  1.00  0.00     0.188 C 
BRANCH  27  28
ATOM     28  C   UNL     1      -1.129   1.668  10.042  1.00  0.00     0.188 C 
BRANCH  28  29
ATOM     29  O   UNL     1      -0.066   2.117   9.213  1.00  0.00    -0.376 OA
BRANCH  29  30
ATOM     30  C   UNL     1       0.909   2.968   9.794  1.00  0.00     0.202 C 
BRANCH  30  31
ATOM     31  C   UNL     1       1.856   2.300  10.799  1.00  0.00     0.261 C 
BRANCH  31  32
ATOM     32  O   UNL     1       1.216   1.687  11.927  1.00  0.00    -0.460 OA
BRANCH  32  33
ATOM     33  C   UNL     1       0.520   2.500  12.748  1.00  0.00     0.338 C 
ATOM     34  O   UNL     1       0.410   3.712  12.674  1.00  0.00    -0.246 OA
BRANCH  33  35
ATOM     35  C   UNL     1      -0.269   1.647  13.654  1.00  0.00     0.060 A 
ATOM     36  C   UNL     1      -1.665   1.774  13.648  1.00  0.00     0.016 A 
ATOM     37  C   UNL     1       0.360   0.712  14.478  1.00  0.00     0.016 A 
ATOM     38  C   UNL     1      -2.435   0.993  14.502  1.00  0.00     0.010 A 
ATOM     39  C   UNL     1      -0.410  -0.050  15.357  1.00  0.00     0.010 A 
ATOM     40  C   UNL     1      -1.805   0.125  15.402  1.00  0.00    -0.014 A 
BRANCH  40  41
ATOM     41  C   UNL     1      -2.581  -0.377  16.557  1.00  0.00     0.031 A 
ATOM     42  C   UNL     1      -2.502   0.402  17.840  1.00  0.00     0.074 A 
ATOM     43  C   UNL     1      -3.372  -1.457  16.460  1.00  0.00     0.049 A 
ATOM     44  N   UNL     1      -3.090   0.186  18.987  1.00  0.00    -0.248 NA
ATOM     45  C   UNL     1      -1.631   1.589  17.823  1.00  0.00     0.031 C 
ATOM     46  C   UNL     1      -3.549  -2.268  15.260  1.00  0.00     0.029 A 
ATOM     47  N   UNL     1      -4.170  -2.056  17.400  1.00  0.00    -0.354 N 
ATOM     48  C   UNL     1      -2.654   1.202  19.827  1.00  0.00     0.074 A 
ATOM     49  C   UNL     1      -1.723   2.012  19.073  1.00  0.00     0.031 C 
ATOM     50  C   UNL     1      -4.393  -3.277  15.542  1.00  0.00     0.029 A 
ATOM     51  C   UNL     1      -4.791  -3.191  16.947  1.00  0.00     0.049 A 
ATOM     52  H   UNL     1      -4.287  -1.705  18.313  1.00  0.00     0.167 HD
ATOM     53  C   UNL     1      -3.005   1.444  21.112  1.00  0.00     0.037 A 
ATOM     54  C   UNL     1      -5.573  -4.070  17.604  1.00  0.00     0.037 A 
ATOM     55  C   UNL     1      -3.926   0.627  21.855  1.00  0.00     0.049 A 
ATOM     56  C   UNL     1      -5.915  -3.813  19.049  1.00  0.00     0.074 A 
ATOM     57  C   UNL     1      -4.379   0.797  23.151  1.00  0.00     0.029 A 
ATOM     58  N   UNL     1      -4.523  -0.529  21.370  1.00  0.00    -0.354 N 
ATOM     59  N   UNL     1      -5.538  -2.827  19.829  1.00  0.00    -0.248 NA
ATOM     60  C   UNL     1      -6.804  -4.783  19.702  1.00  0.00     0.031 C 
ATOM     61  C   UNL     1      -5.191  -0.295  23.474  1.00  0.00     0.029 A 
ATOM     62  C   UNL     1      -5.310  -1.104  22.354  1.00  0.00     0.049 A 
ATOM     63  H   UNL     1      -4.404  -0.887  20.461  1.00  0.00     0.167 HD
ATOM     64  C   UNL     1      -6.159  -3.043  21.053  1.00  0.00     0.074 A 
ATOM     65  C   UNL     1      -6.952  -4.247  20.906  1.00  0.00     0.031 C 
ATOM     66  C   UNL     1      -6.087  -2.310  22.193  1.00  0.00     0.037 A 
BRANCH  53  67
ATOM     67  C   UNL     1      -2.342   2.605  21.797  1.00  0.00     0.064 A 
ATOM     68  C   UNL     1      -2.583   3.935  21.417  1.00  0.00     0.173 A 
ATOM     69  C   UNL     1      -1.432   2.378  22.841  1.00  0.00     0.173 A 
ATOM     70  F   UNL     1      -3.430   4.208  20.413  1.00  0.00    -0.203 F 
ATOM     71  C   UNL     1      -1.903   4.989  22.024  1.00  0.00     0.198 A 
ATOM     72  C   UNL     1      -0.784   3.437  23.471  1.00  0.00     0.198 A 
ATOM     73  F   UNL     1      -1.163   1.128  23.246  1.00  0.00    -0.203 F 
ATOM     74  F   UNL     1      -2.094   6.243  21.593  1.00  0.00    -0.200 F 
ATOM     75  C   UNL     1      -1.009   4.739  23.053  1.00  0.00     0.200 A 
ATOM     76  F   UNL     1       0.071   3.194  24.474  1.00  0.00    -0.200 F 
ATOM     77  F   UNL     1      -0.353   5.753  23.634  1.00  0.00    -0.200 F 
ENDBRANCH  53  67
BRANCH  54  78
ATOM     78  C   UNL     1      -6.069  -5.278  16.895  1.00  0.00     0.064 A 
ATOM     79  C   UNL     1      -7.425  -5.437  16.580  1.00  0.00     0.173 A 
ATOM     80  C   UNL     1      -5.185  -6.295  16.504  1.00  0.00     0.173 A 
ATOM     81  F   UNL     1      -8.313  -4.505  16.955  1.00  0.00    -0.203 F 
ATOM     82  C   UNL     1      -7.879  -6.570  15.907  1.00  0.00     0.198 A 
ATOM     83  C   UNL     1      -5.635  -7.413  15.805  1.00  0.00     0.198 A 
ATOM     84  F   UNL     1      -3.877  -6.193  16.784  1.00  0.00    -0.203 F 
ATOM     85  F   UNL     1      -9.186  -6.715  15.650  1.00  0.00    -0.200 F 
ATOM     86  C   UNL     1      -6.982  -7.552  15.512  1.00  0.00     0.200 A 
ATOM     87  F   UNL     1      -4.763  -8.352  15.414  1.00  0.00    -0.200 F 
ATOM     88  F   UNL     1      -7.418  -8.635  14.853  1.00  0.00    -0.200 F 
ENDBRANCH  54  78
BRANCH  66  89
ATOM     89  C   UNL     1      -6.911  -2.769  23.364  1.00  0.00     0.064 A 
ATOM     90  C   UNL     1      -6.608  -3.942  24.070  1.00  0.00     0.173 A 
ATOM     91  C   UNL     1      -7.997  -1.999  23.809  1.00  0.00     0.173 A 
ATOM     92  F   UNL     1      -5.587  -4.721  23.682  1.00  0.00    -0.203 F 
ATOM     93  C   UNL     1      -7.384  -4.346  25.155  1.00  0.00     0.198 A 
ATOM     94  C   UNL     1      -8.747  -2.386  24.917  1.00  0.00     0.198 A 
ATOM     95  F   UNL     1      -8.325  -0.861  23.179  1.00  0.00    -0.203 F 
ATOM     96  F   UNL     1      -7.111  -5.501  25.777  1.00  0.00    -0.200 F 
ATOM     97  C   UNL     1      -8.447  -3.564  25.582  1.00  0.00     0.200 A 
ATOM     98  F   UNL     1      -9.761  -1.618  25.339  1.00  0.00    -0.200 F 
ATOM     99  F   UNL     1      -9.187  -3.951  26.630  1.00  0.00    -0.200 F 
ENDBRANCH  66  89
ENDBRANCH  40  41
ENDBRANCH  33  35
ENDBRANCH  32  33
ENDBRANCH  31  32
ENDBRANCH  30  31
ENDBRANCH  29  30
ENDBRANCH  28  29
ENDBRANCH  27  28
ENDBRANCH  26  27
ENDBRANCH  25  26
ENDBRANCH   1  25
TORSDOF 28
