REMARK SMILES Cc1c(-c2nn(-c3ccccc3)cc2/C=N/O)nnn1-c1ccc(C(=O)OCCOCCOCCOCCOC(=O)c2ccc(-c3c4nc(c(-c5c(F)c(F)c(F)c(F)c5F)c5ccc([nH]5)c(-c5c(F)c(F)c(F)c(F)c5F)c5nc(c(-c6c(F)c(F)c(F)c(F)c6F)c6ccc3[nH]6)C=C5)C=C4)cc2)cc1
REMARK SMILES IDX 32 1 31 2 30 3 29 4 28 5 27 6 25 7 26 8 24 9 21 10 22 11
REMARK SMILES IDX 106 12 23 13 105 14 20 15 1 16 2 17 3 18 18 19 19 20 4 21
REMARK SMILES IDX 5 22 14 23 6 24 13 25 15 26 16 27 17 28 7 30 8 31 12 32 9 33
REMARK SMILES IDX 11 34 10 35 33 36 34 37 35 38 36 39 37 40 38 41 39 42 40 43
REMARK SMILES IDX 41 44 42 45 43 46 104 47 44 48 103 49 45 50 46 51 47 52
REMARK SMILES IDX 97 53 48 54 102 55 96 56 98 57 49 58 101 59 95 60 94 61
REMARK SMILES IDX 50 63 82 64 62 65 81 66 63 67 66 68 80 69 99 70 64 71 65 72
REMARK SMILES IDX 79 74 100 75 67 76 51 77 52 78 60 79 53 80 54 81 58 82 61 83
REMARK SMILES IDX 55 84 56 85 59 86 57 87 83 88 84 89 92 90 85 91 86 92 90 93
REMARK SMILES IDX 93 94 87 95 88 96 91 97 89 98 68 99 69 100 77 101 70 102
REMARK SMILES IDX 71 103 75 104 78 105 72 106 73 107 76 108 74 109
REMARK H PARENT 17 29 98 62 66 73
REMARK Flexibility Score: inf
ROOT
ATOM      1  C   UNL     1      -3.040   5.261   4.173  1.00  0.00     0.188 C 
ENDROOT
BRANCH   1   2
ATOM      2  C   UNL     1      -1.924   6.298   4.435  1.00  0.00     0.188 C 
BRANCH   2   3
ATOM      3  O   UNL     1      -2.244   7.602   3.995  1.00  0.00    -0.376 OA
BRANCH   3   4
ATOM      4  C   UNL     1      -1.591   8.153   2.877  1.00  0.00     0.202 C 
BRANCH   4   5
ATOM      5  C   UNL     1      -1.635   7.397   1.543  1.00  0.00     0.261 C 
BRANCH   5   6
ATOM      6  O   UNL     1      -1.485   5.974   1.613  1.00  0.00    -0.460 OA
BRANCH   6   7
ATOM      7  C   UNL     1      -0.238   5.516   1.858  1.00  0.00     0.338 C 
ATOM      8  O   UNL     1       0.766   6.184   2.017  1.00  0.00    -0.246 OA
BRANCH   7   9
ATOM      9  C   UNL     1      -0.308   4.053   2.085  1.00  0.00     0.060 A 
ATOM     10  C   UNL     1      -0.174   1.300   2.409  1.00  0.00     0.067 A 
ATOM     11  C   UNL     1       0.438   2.126   3.355  1.00  0.00     0.029 A 
ATOM     12  C   UNL     1      -0.970   1.843   1.389  1.00  0.00     0.029 A 
ATOM     13  C   UNL     1       0.401   3.507   3.166  1.00  0.00     0.018 A 
ATOM     14  C   UNL     1      -1.052   3.227   1.237  1.00  0.00     0.018 A 
BRANCH  10  15
ATOM     15  N   UNL     1       0.137  -0.077   2.406  1.00  0.00    -0.217 N 
ATOM     16  C   UNL     1       0.945  -0.335  -0.007  1.00  0.00     0.069 C 
ATOM     17  C   UNL     1       0.570  -0.838   1.336  1.00  0.00     0.071 A 
ATOM     18  C   UNL     1       0.692  -2.102   1.878  1.00  0.00     0.137 A 
ATOM     19  N   UNL     1       0.455  -2.065   3.220  1.00  0.00    -0.128 NA
ATOM     20  N   UNL     1       0.195  -0.802   3.549  1.00  0.00    -0.061 NA
BRANCH  18  21
ATOM     21  C   UNL     1       1.056  -3.328   1.173  1.00  0.00     0.124 A 
ATOM     22  N   UNL     1       2.301  -3.575   0.744  1.00  0.00    -0.165 NA
ATOM     23  C   UNL     1       0.129  -4.306   0.742  1.00  0.00     0.044 A 
ATOM     24  N   UNL     1       2.166  -4.647  -0.067  1.00  0.00    -0.240 N 
ATOM     25  C   UNL     1       0.871  -5.107  -0.104  1.00  0.00     0.125 A 
BRANCH  23  26
ATOM     26  C   UNL     1      -1.270  -4.491   1.034  1.00  0.00     0.166 C 
ATOM     27  N   UNL     1      -1.897  -3.628   1.762  1.00  0.00    -0.097 NA
BRANCH  27  28
ATOM     28  O   UNL     1      -3.218  -4.046   1.948  1.00  0.00    -0.411 OA
ATOM     29  H   UNL     1      -3.807  -3.525   2.457  1.00  0.00     0.330 HD
ENDBRANCH  27  28
ENDBRANCH  23  26
BRANCH  24  30
ATOM     30  C   UNL     1       3.261  -5.165  -0.794  1.00  0.00     0.065 A 
ATOM     31  C   UNL     1       4.513  -5.263  -0.176  1.00  0.00     0.028 A 
ATOM     32  C   UNL     1       3.088  -5.585  -2.119  1.00  0.00     0.028 A 
ATOM     33  C   UNL     1       5.582  -5.825  -0.876  1.00  0.00     0.002 A 
ATOM     34  C   UNL     1       4.179  -6.090  -2.829  1.00  0.00     0.002 A 
ATOM     35  C   UNL     1       5.418  -6.226  -2.203  1.00  0.00     0.000 A 
ENDBRANCH  24  30
ENDBRANCH  18  21
ENDBRANCH  10  15
ENDBRANCH   7   9
ENDBRANCH   6   7
ENDBRANCH   5   6
ENDBRANCH   4   5
ENDBRANCH   3   4
ENDBRANCH   2   3
ENDBRANCH   1   2
BRANCH   1  36
ATOM     36  O   UNL     1      -4.217   5.605   3.451  1.00  0.00    -0.377 OA
BRANCH  36  37
ATOM     37  C   UNL     1      -4.821   6.885   3.596  1.00  0.00     0.188 C 
BRANCH  37  38
ATOM     38  C   UNL     1      -4.802   7.667   4.936  1.00  0.00     0.188 C 
BRANCH  38  39
ATOM     39  O   UNL     1      -3.965   7.138   5.947  1.00  0.00    -0.376 OA
BRANCH  39  40
ATOM     40  C   UNL     1      -4.451   6.438   7.070  1.00  0.00     0.202 C 
BRANCH  40  41
ATOM     41  C   UNL     1      -5.410   5.271   6.887  1.00  0.00     0.261 C 
BRANCH  41  42
ATOM     42  O   UNL     1      -6.293   5.406   5.795  1.00  0.00    -0.460 OA
BRANCH  42  43
ATOM     43  C   UNL     1      -7.293   6.280   6.004  1.00  0.00     0.338 C 
ATOM     44  O   UNL     1      -7.376   7.126   6.874  1.00  0.00    -0.246 OA
BRANCH  43  45
ATOM     45  C   UNL     1      -8.375   5.928   5.089  1.00  0.00     0.060 A 
ATOM     46  C   UNL     1      -9.449   6.813   5.043  1.00  0.00     0.016 A 
ATOM     47  C   UNL     1      -8.461   4.597   4.650  1.00  0.00     0.016 A 
ATOM     48  C   UNL     1     -10.690   6.283   4.801  1.00  0.00     0.010 A 
ATOM     49  C   UNL     1      -9.702   4.065   4.435  1.00  0.00     0.010 A 
ATOM     50  C   UNL     1     -10.800   4.899   4.607  1.00  0.00    -0.014 A 
BRANCH  50  51
ATOM     51  C   UNL     1     -12.126   4.356   4.452  1.00  0.00     0.031 A 
ATOM     52  C   UNL     1     -12.695   4.713   3.141  1.00  0.00     0.074 A 
ATOM     53  C   UNL     1     -12.695   3.570   5.384  1.00  0.00     0.049 A 
ATOM     54  N   UNL     1     -13.676   5.517   2.911  1.00  0.00    -0.248 NA
ATOM     55  C   UNL     1     -11.954   4.300   1.936  1.00  0.00     0.031 C 
ATOM     56  C   UNL     1     -12.063   2.973   6.564  1.00  0.00     0.029 A 
ATOM     57  N   UNL     1     -13.954   3.056   5.416  1.00  0.00    -0.354 N 
ATOM     58  C   UNL     1     -13.820   5.523   1.530  1.00  0.00     0.074 A 
ATOM     59  C   UNL     1     -12.625   4.944   0.982  1.00  0.00     0.031 C 
ATOM     60  C   UNL     1     -12.870   2.006   7.059  1.00  0.00     0.029 A 
ATOM     61  C   UNL     1     -14.118   2.010   6.315  1.00  0.00     0.049 A 
ATOM     62  H   UNL     1     -14.685   3.396   4.852  1.00  0.00     0.167 HD
ATOM     63  C   UNL     1     -15.056   5.673   0.988  1.00  0.00     0.037 A 
ATOM     64  C   UNL     1     -15.184   1.175   6.372  1.00  0.00     0.037 A 
ATOM     65  C   UNL     1     -15.959   6.281   1.933  1.00  0.00     0.049 A 
ATOM     66  C   UNL     1     -16.304   1.843   5.668  1.00  0.00     0.074 A 
ATOM     67  C   UNL     1     -16.056   7.504   2.562  1.00  0.00     0.029 A 
ATOM     68  N   UNL     1     -16.712   5.399   2.661  1.00  0.00    -0.354 N 
ATOM     69  N   UNL     1     -16.924   2.896   6.120  1.00  0.00    -0.248 NA
ATOM     70  C   UNL     1     -16.512   1.559   4.254  1.00  0.00     0.031 C 
ATOM     71  C   UNL     1     -16.641   7.240   3.838  1.00  0.00     0.029 A 
ATOM     72  C   UNL     1     -16.926   5.877   3.925  1.00  0.00     0.049 A 
ATOM     73  H   UNL     1     -17.053   4.540   2.322  1.00  0.00     0.167 HD
ATOM     74  C   UNL     1     -17.214   3.639   4.989  1.00  0.00     0.074 A 
ATOM     75  C   UNL     1     -17.104   2.696   3.882  1.00  0.00     0.031 C 
ATOM     76  C   UNL     1     -17.206   5.003   5.044  1.00  0.00     0.037 A 
BRANCH  63  77
ATOM     77  C   UNL     1     -15.550   4.801  -0.147  1.00  0.00     0.064 A 
ATOM     78  C   UNL     1     -16.806   5.079  -0.717  1.00  0.00     0.173 A 
ATOM     79  C   UNL     1     -15.003   3.537  -0.475  1.00  0.00     0.173 A 
ATOM     80  F   UNL     1     -17.441   6.226  -0.435  1.00  0.00    -0.203 F 
ATOM     81  C   UNL     1     -17.480   4.144  -1.509  1.00  0.00     0.198 A 
ATOM     82  C   UNL     1     -15.651   2.632  -1.311  1.00  0.00     0.198 A 
ATOM     83  F   UNL     1     -13.885   3.066   0.087  1.00  0.00    -0.203 F 
ATOM     84  F   UNL     1     -18.726   4.404  -1.928  1.00  0.00    -0.200 F 
ATOM     85  C   UNL     1     -16.902   2.923  -1.806  1.00  0.00     0.200 A 
ATOM     86  F   UNL     1     -15.085   1.442  -1.556  1.00  0.00    -0.200 F 
ATOM     87  F   UNL     1     -17.569   2.006  -2.518  1.00  0.00    -0.200 F 
ENDBRANCH  63  77
BRANCH  64  88
ATOM     88  C   UNL     1     -15.240  -0.264   6.724  1.00  0.00     0.064 A 
ATOM     89  C   UNL     1     -16.472  -0.890   6.987  1.00  0.00     0.173 A 
ATOM     90  C   UNL     1     -14.140  -1.114   6.506  1.00  0.00     0.173 A 
ATOM     91  F   UNL     1     -17.578  -0.153   7.169  1.00  0.00    -0.203 F 
ATOM     92  C   UNL     1     -16.604  -2.281   6.982  1.00  0.00     0.198 A 
ATOM     93  C   UNL     1     -14.273  -2.504   6.510  1.00  0.00     0.198 A 
ATOM     94  F   UNL     1     -12.939  -0.616   6.182  1.00  0.00    -0.203 F 
ATOM     95  F   UNL     1     -17.811  -2.838   7.156  1.00  0.00    -0.200 F 
ATOM     96  C   UNL     1     -15.507  -3.087   6.728  1.00  0.00     0.200 A 
ATOM     97  F   UNL     1     -13.211  -3.272   6.227  1.00  0.00    -0.200 F 
ATOM     98  F   UNL     1     -15.647  -4.417   6.649  1.00  0.00    -0.200 F 
ENDBRANCH  64  88
BRANCH  76  99
ATOM     99  C   UNL     1     -17.344   5.625   6.406  1.00  0.00     0.064 A 
ATOM    100  C   UNL     1     -16.434   5.457   7.465  1.00  0.00     0.173 A 
ATOM    101  C   UNL     1     -18.441   6.470   6.630  1.00  0.00     0.173 A 
ATOM    102  F   UNL     1     -15.309   4.747   7.303  1.00  0.00    -0.203 F 
ATOM    103  C   UNL     1     -16.655   6.050   8.707  1.00  0.00     0.198 A 
ATOM    104  C   UNL     1     -18.634   7.097   7.856  1.00  0.00     0.198 A 
ATOM    105  F   UNL     1     -19.318   6.709   5.642  1.00  0.00    -0.203 F 
ATOM    106  F   UNL     1     -15.797   5.839   9.716  1.00  0.00    -0.200 F 
ATOM    107  C   UNL     1     -17.754   6.872   8.900  1.00  0.00     0.200 A 
ATOM    108  F   UNL     1     -19.672   7.929   8.021  1.00  0.00    -0.200 F 
ATOM    109  F   UNL     1     -17.955   7.461  10.087  1.00  0.00    -0.200 F 
ENDBRANCH  76  99
ENDBRANCH  50  51
ENDBRANCH  43  45
ENDBRANCH  42  43
ENDBRANCH  41  42
ENDBRANCH  40  41
ENDBRANCH  39  40
ENDBRANCH  38  39
ENDBRANCH  37  38
ENDBRANCH  36  37
ENDBRANCH   1  36
TORSDOF 25
