REMARK SMILES CC(C)(C)CN1C(=O)CC[C@@H](C(=O)OCCOCCOCCOCCOC(=O)c2ccc(-c3c4nc(c(-c5c(F)c(F)c(F)c(F)c5F)c5ccc([nH]5)c(-c5c(F)c(F)c(F)c(F)c5F)c5nc(c(-c6c(F)c(F)c(F)c(F)c6F)c6ccc3[nH]6)C=C5)C=C4)cc2)[C@H]1c1cccc2c1OCO2
REMARK SMILES IDX 20 1 19 2 18 3 17 4 16 5 15 6 14 7 12 8 13 9 11 10 6 11 7 12
REMARK SMILES IDX 92 13 8 14 9 15 10 16 5 17 2 18 1 19 3 20 4 21 93 22 94 23
REMARK SMILES IDX 98 24 95 25 97 26 99 27 96 28 101 29 100 30 21 31 22 32
REMARK SMILES IDX 23 33 24 34 25 35 26 36 27 37 28 38 29 39 30 40 91 41 31 42
REMARK SMILES IDX 90 43 32 44 33 45 34 46 84 47 35 48 89 49 83 50 85 51 36 52
REMARK SMILES IDX 88 53 82 54 81 55 37 57 69 58 49 59 68 60 50 61 53 62 67 63
REMARK SMILES IDX 86 64 51 65 52 66 66 68 87 69 54 70 38 71 39 72 47 73 40 74
REMARK SMILES IDX 41 75 45 76 48 77 42 78 43 79 46 80 44 81 70 82 71 83 79 84
REMARK SMILES IDX 72 85 73 86 77 87 80 88 74 89 75 90 78 91 76 92 55 93 56 94
REMARK SMILES IDX 64 95 57 96 58 97 62 98 65 99 59 100 60 101 63 102 61 103
REMARK H PARENT 85 56 53 67
REMARK Flexibility Score: inf
ROOT
ATOM      1  O   UNL     1       1.327  -7.421  -1.537  1.00  0.00    -0.377 OA
ENDROOT
BRANCH   1   2
ATOM      2  C   UNL     1       1.011  -6.158  -0.971  1.00  0.00     0.188 C 
BRANCH   2   3
ATOM      3  C   UNL     1       0.997  -4.927  -1.901  1.00  0.00     0.188 C 
BRANCH   3   4
ATOM      4  O   UNL     1       2.211  -4.748  -2.620  1.00  0.00    -0.376 OA
BRANCH   4   5
ATOM      5  C   UNL     1       3.194  -3.845  -2.152  1.00  0.00     0.202 C 
BRANCH   5   6
ATOM      6  C   UNL     1       3.967  -4.224  -0.875  1.00  0.00     0.261 C 
BRANCH   6   7
ATOM      7  O   UNL     1       3.231  -4.532   0.323  1.00  0.00    -0.463 OA
BRANCH   7   8
ATOM      8  C   UNL     1       2.241  -3.676   0.660  1.00  0.00     0.311 C 
ATOM      9  O   UNL     1       1.879  -2.750  -0.051  1.00  0.00    -0.252 OA
BRANCH   8  10
ATOM     10  C   UNL     1       1.680  -3.953   2.043  1.00  0.00     0.127 C 
ATOM     11  N   UNL     1       0.602  -1.689   2.145  1.00  0.00    -0.334 N 
ATOM     12  C   UNL     1      -0.547  -2.207   1.536  1.00  0.00     0.223 C 
ATOM     13  C   UNL     1       1.601  -2.598   2.773  1.00  0.00     0.133 C 
ATOM     14  O   UNL     1      -1.449  -1.521   1.059  1.00  0.00    -0.275 OA
ATOM     15  C   UNL     1      -0.725  -3.706   1.393  1.00  0.00     0.101 C 
ATOM     16  C   UNL     1       0.301  -4.583   2.062  1.00  0.00     0.028 C 
BRANCH  11  17
ATOM     17  C   UNL     1       0.627  -0.267   2.527  1.00  0.00     0.126 C 
BRANCH  17  18
ATOM     18  C   UNL     1       0.359   0.850   1.464  1.00  0.00    -0.021 C 
ATOM     19  C   UNL     1       0.816   0.486   0.040  1.00  0.00     0.012 C 
ATOM     20  C   UNL     1       1.175   2.097   1.888  1.00  0.00     0.012 C 
ATOM     21  C   UNL     1      -1.117   1.310   1.481  1.00  0.00     0.012 C 
ENDBRANCH  17  18
ENDBRANCH  11  17
BRANCH  13  22
ATOM     22  C   UNL     1       3.049  -2.120   2.925  1.00  0.00     0.022 A 
ATOM     23  C   UNL     1       3.771  -1.507   1.880  1.00  0.00     0.010 A 
ATOM     24  C   UNL     1       3.803  -2.527   4.016  1.00  0.00     0.171 A 
ATOM     25  C   UNL     1       5.176  -1.440   1.890  1.00  0.00     0.004 A 
ATOM     26  C   UNL     1       5.178  -2.424   4.041  1.00  0.00     0.166 A 
ATOM     27  O   UNL     1       3.323  -3.131   5.141  1.00  0.00    -0.453 OA
ATOM     28  C   UNL     1       5.896  -1.923   2.979  1.00  0.00     0.050 A 
ATOM     29  O   UNL     1       5.716  -2.916   5.190  1.00  0.00    -0.454 OA
ATOM     30  C   UNL     1       4.521  -3.192   5.943  1.00  0.00     0.468 C 
ENDBRANCH  13  22
ENDBRANCH   8  10
ENDBRANCH   7   8
ENDBRANCH   6   7
ENDBRANCH   5   6
ENDBRANCH   4   5
ENDBRANCH   3   4
ENDBRANCH   2   3
ENDBRANCH   1   2
BRANCH   1  31
ATOM     31  C   UNL     1       2.343  -7.403  -2.519  1.00  0.00     0.188 C 
BRANCH  31  32
ATOM     32  C   UNL     1       1.812  -7.193  -3.953  1.00  0.00     0.188 C 
BRANCH  32  33
ATOM     33  O   UNL     1       0.439  -6.957  -4.226  1.00  0.00    -0.376 OA
BRANCH  33  34
ATOM     34  C   UNL     1      -0.615  -7.576  -3.510  1.00  0.00     0.202 C 
BRANCH  34  35
ATOM     35  C   UNL     1      -0.625  -9.058  -3.095  1.00  0.00     0.261 C 
BRANCH  35  36
ATOM     36  O   UNL     1       0.632  -9.708  -2.914  1.00  0.00    -0.460 OA
BRANCH  36  37
ATOM     37  C   UNL     1       1.161 -10.281  -4.013  1.00  0.00     0.338 C 
ATOM     38  O   UNL     1       0.677 -10.337  -5.132  1.00  0.00    -0.246 OA
BRANCH  37  39
ATOM     39  C   UNL     1       2.547 -10.673  -3.690  1.00  0.00     0.060 A 
ATOM     40  C   UNL     1       3.587 -10.152  -4.474  1.00  0.00     0.016 A 
ATOM     41  C   UNL     1       2.825 -11.504  -2.602  1.00  0.00     0.016 A 
ATOM     42  C   UNL     1       4.908 -10.466  -4.182  1.00  0.00     0.010 A 
ATOM     43  C   UNL     1       4.147 -11.871  -2.347  1.00  0.00     0.010 A 
ATOM     44  C   UNL     1       5.184 -11.380  -3.160  1.00  0.00    -0.014 A 
BRANCH  44  45
ATOM     45  C   UNL     1       6.509 -12.031  -3.150  1.00  0.00     0.031 A 
ATOM     46  C   UNL     1       6.651 -13.311  -3.925  1.00  0.00     0.074 A 
ATOM     47  C   UNL     1       7.559 -11.483  -2.519  1.00  0.00     0.049 A 
ATOM     48  N   UNL     1       7.687 -14.097  -4.051  1.00  0.00    -0.248 NA
ATOM     49  C   UNL     1       5.456 -13.767  -4.658  1.00  0.00     0.031 C 
ATOM     50  C   UNL     1       7.544 -10.219  -1.788  1.00  0.00     0.029 A 
ATOM     51  N   UNL     1       8.847 -11.937  -2.389  1.00  0.00    -0.354 N 
ATOM     52  C   UNL     1       7.265 -15.142  -4.862  1.00  0.00     0.074 A 
ATOM     53  C   UNL     1       5.877 -14.905  -5.186  1.00  0.00     0.031 C 
ATOM     54  C   UNL     1       8.763 -10.010  -1.259  1.00  0.00     0.029 A 
ATOM     55  C   UNL     1       9.629 -11.141  -1.590  1.00  0.00     0.049 A 
ATOM     56  H   UNL     1       9.178 -12.754  -2.827  1.00  0.00     0.167 HD
ATOM     57  C   UNL     1       7.977 -16.206  -5.296  1.00  0.00     0.037 A 
ATOM     58  C   UNL     1      10.890 -11.332  -1.155  1.00  0.00     0.037 A 
ATOM     59  C   UNL     1       9.359 -16.430  -4.972  1.00  0.00     0.049 A 
ATOM     60  C   UNL     1      11.642 -12.562  -1.605  1.00  0.00     0.074 A 
ATOM     61  C   UNL     1      10.183 -17.459  -5.386  1.00  0.00     0.029 A 
ATOM     62  N   UNL     1      10.115 -15.615  -4.142  1.00  0.00    -0.354 N 
ATOM     63  N   UNL     1      11.252 -13.530  -2.400  1.00  0.00    -0.248 NA
ATOM     64  C   UNL     1      13.013 -12.722  -1.101  1.00  0.00     0.031 C 
ATOM     65  C   UNL     1      11.419 -17.306  -4.751  1.00  0.00     0.029 A 
ATOM     66  C   UNL     1      11.388 -16.139  -4.003  1.00  0.00     0.049 A 
ATOM     67  H   UNL     1       9.794 -14.787  -3.717  1.00  0.00     0.167 HD
ATOM     68  C   UNL     1      12.337 -14.392  -2.518  1.00  0.00     0.074 A 
ATOM     69  C   UNL     1      13.406 -13.822  -1.726  1.00  0.00     0.031 C 
ATOM     70  C   UNL     1      12.442 -15.549  -3.218  1.00  0.00     0.037 A 
BRANCH  57  71
ATOM     71  C   UNL     1       7.265 -17.230  -6.127  1.00  0.00     0.064 A 
ATOM     72  C   UNL     1       6.867 -16.973  -7.447  1.00  0.00     0.173 A 
ATOM     73  C   UNL     1       7.019 -18.508  -5.604  1.00  0.00     0.173 A 
ATOM     74  F   UNL     1       7.060 -15.760  -7.988  1.00  0.00    -0.203 F 
ATOM     75  C   UNL     1       6.237 -17.955  -8.208  1.00  0.00     0.198 A 
ATOM     76  C   UNL     1       6.417 -19.496  -6.377  1.00  0.00     0.198 A 
ATOM     77  F   UNL     1       7.375 -18.803  -4.344  1.00  0.00    -0.203 F 
ATOM     78  F   UNL     1       5.829 -17.676  -9.454  1.00  0.00    -0.200 F 
ATOM     79  C   UNL     1       6.023 -19.218  -7.676  1.00  0.00     0.200 A 
ATOM     80  F   UNL     1       6.223 -20.719  -5.864  1.00  0.00    -0.200 F 
ATOM     81  F   UNL     1       5.432 -20.167  -8.415  1.00  0.00    -0.200 F 
ENDBRANCH  57  71
BRANCH  58  82
ATOM     82  C   UNL     1      11.514 -10.363  -0.214  1.00  0.00     0.064 A 
ATOM     83  C   UNL     1      12.630  -9.601  -0.584  1.00  0.00     0.173 A 
ATOM     84  C   UNL     1      11.032 -10.216   1.096  1.00  0.00     0.173 A 
ATOM     85  F   UNL     1      13.145  -9.723  -1.817  1.00  0.00    -0.203 F 
ATOM     86  C   UNL     1      13.261  -8.756   0.328  1.00  0.00     0.198 A 
ATOM     87  C   UNL     1      11.641  -9.344   1.996  1.00  0.00     0.198 A 
ATOM     88  F   UNL     1       9.966 -10.921   1.504  1.00  0.00    -0.203 F 
ATOM     89  F   UNL     1      14.366  -8.090  -0.034  1.00  0.00    -0.200 F 
ATOM     90  C   UNL     1      12.763  -8.625   1.615  1.00  0.00     0.200 A 
ATOM     91  F   UNL     1      11.147  -9.210   3.234  1.00  0.00    -0.200 F 
ATOM     92  F   UNL     1      13.371  -7.815   2.492  1.00  0.00    -0.200 F 
ENDBRANCH  58  82
BRANCH  70  93
ATOM     93  C   UNL     1      13.770 -16.251  -3.202  1.00  0.00     0.064 A 
ATOM     94  C   UNL     1      14.260 -16.886  -2.052  1.00  0.00     0.173 A 
ATOM     95  C   UNL     1      14.543 -16.327  -4.372  1.00  0.00     0.173 A 
ATOM     96  F   UNL     1      13.567 -16.834  -0.904  1.00  0.00    -0.203 F 
ATOM     97  C   UNL     1      15.489 -17.542  -2.064  1.00  0.00     0.198 A 
ATOM     98  C   UNL     1      15.751 -17.016  -4.391  1.00  0.00     0.198 A 
ATOM     99  F   UNL     1      14.115 -15.748  -5.504  1.00  0.00    -0.203 F 
ATOM    100  F   UNL     1      15.963 -18.092  -0.939  1.00  0.00    -0.200 F 
ATOM    101  C   UNL     1      16.229 -17.613  -3.235  1.00  0.00     0.200 A 
ATOM    102  F   UNL     1      16.454 -17.101  -5.529  1.00  0.00    -0.200 F 
ATOM    103  F   UNL     1      17.406 -18.253  -3.248  1.00  0.00    -0.200 F 
ENDBRANCH  70  93
ENDBRANCH  44  45
ENDBRANCH  37  39
ENDBRANCH  36  37
ENDBRANCH  35  36
ENDBRANCH  34  35
ENDBRANCH  33  34
ENDBRANCH  32  33
ENDBRANCH  31  32
ENDBRANCH   1  31
TORSDOF 23
