REMARK SMILES CCc1ncc(C[N@H+]2CCC[C@@H](c3cccc(C(=O)OCCOCCOCCOCCOC(=O)c4ccc(-c5c6nc(c(-c7c(F)c(F)c(F)c(F)c7F)c7ccc([nH]7)c(-c7c(F)c(F)c(F)c(F)c7F)c7nc(c(-c8c(F)c(F)c(F)c(F)c8F)c8ccc5[nH]8)C=C7)C=C6)cc4)c3)C2)cn1
REMARK SMILES IDX 25 1 24 2 23 3 22 4 21 5 20 6 18 7 19 8 17 9 13 10 14 11
REMARK SMILES IDX 98 12 15 13 16 14 12 15 8 16 9 17 99 18 10 20 11 21 7 22
REMARK SMILES IDX 6 23 3 24 4 25 101 26 5 27 100 28 2 29 1 30 26 31 27 32
REMARK SMILES IDX 28 33 29 34 30 35 31 36 32 37 33 38 34 39 35 40 36 41 97 42
REMARK SMILES IDX 37 43 96 44 38 45 39 46 40 47 90 48 41 49 95 50 89 51 91 52
REMARK SMILES IDX 42 53 94 54 88 55 87 56 43 58 75 59 55 60 74 61 56 62 59 63
REMARK SMILES IDX 73 64 92 65 57 66 58 67 72 69 93 70 60 71 44 72 45 73 53 74
REMARK SMILES IDX 46 75 47 76 51 77 54 78 48 79 49 80 52 81 50 82 76 83 77 84
REMARK SMILES IDX 85 85 78 86 79 87 83 88 86 89 80 90 81 91 84 92 82 93 61 94
REMARK SMILES IDX 62 95 70 96 63 97 64 98 68 99 71 100 65 101 66 102 69 103
REMARK SMILES IDX 67 104
REMARK H PARENT 8 19 91 57 59 68
REMARK Flexibility Score: inf
ROOT
ATOM      1  C   UNL     1      -3.045  -9.940   4.008  1.00  0.00     0.188 C 
ENDROOT
BRANCH   1   2
ATOM      2  C   UNL     1      -4.549 -10.042   3.677  1.00  0.00     0.188 C 
BRANCH   2   3
ATOM      3  O   UNL     1      -4.994 -11.375   3.492  1.00  0.00    -0.376 OA
BRANCH   3   4
ATOM      4  C   UNL     1      -5.342 -11.815   2.194  1.00  0.00     0.202 C 
BRANCH   4   5
ATOM      5  C   UNL     1      -4.303 -11.746   1.064  1.00  0.00     0.261 C 
BRANCH   5   6
ATOM      6  O   UNL     1      -3.488 -10.572   1.027  1.00  0.00    -0.460 OA
BRANCH   6   7
ATOM      7  C   UNL     1      -4.042  -9.442   0.535  1.00  0.00     0.338 C 
ATOM      8  O   UNL     1      -5.160  -9.322   0.064  1.00  0.00    -0.246 OA
BRANCH   7   9
ATOM      9  C   UNL     1      -3.146  -8.318   0.905  1.00  0.00     0.060 A 
ATOM     10  C   UNL     1      -0.918  -7.411   1.298  1.00  0.00    -0.038 A 
ATOM     11  C   UNL     1      -1.516  -6.269   1.859  1.00  0.00     0.004 A 
ATOM     12  C   UNL     1      -1.751  -8.443   0.834  1.00  0.00     0.020 A 
ATOM     13  C   UNL     1      -2.905  -6.147   1.935  1.00  0.00     0.001 A 
ATOM     14  C   UNL     1      -3.722  -7.162   1.443  1.00  0.00     0.016 A 
BRANCH  10  15
ATOM     15  C   UNL     1       0.576  -7.475   1.000  1.00  0.00     0.074 C 
ATOM     16  N   UNL     1       2.172  -6.553  -0.742  1.00  0.00    -0.331 N 
ATOM     17  C   UNL     1       3.024  -5.998   0.316  1.00  0.00     0.262 C 
ATOM     18  C   UNL     1       0.780  -6.675  -0.300  1.00  0.00     0.270 C 
ATOM     19  H   UNL     1       2.528  -7.492  -0.925  1.00  0.00     0.348 HD
ATOM     20  C   UNL     1       2.938  -6.838   1.597  1.00  0.00     0.062 C 
ATOM     21  C   UNL     1       1.499  -6.942   2.106  1.00  0.00     0.020 C 
BRANCH  16  22
ATOM     22  C   UNL     1       2.277  -5.827  -2.027  1.00  0.00     0.302 C 
BRANCH  22  23
ATOM     23  C   UNL     1       1.818  -4.395  -2.030  1.00  0.00     0.043 A 
ATOM     24  C   UNL     1       0.990  -1.815  -1.788  1.00  0.00     0.127 A 
ATOM     25  N   UNL     1       2.316  -2.049  -1.834  1.00  0.00    -0.241 NA
ATOM     26  N   UNL     1       0.045  -2.762  -1.922  1.00  0.00    -0.241 NA
ATOM     27  C   UNL     1       2.696  -3.336  -1.953  1.00  0.00     0.124 A 
ATOM     28  C   UNL     1       0.486  -4.027  -2.061  1.00  0.00     0.124 A 
BRANCH  24  29
ATOM     29  C   UNL     1       0.531  -0.411  -1.507  1.00  0.00     0.074 C 
ATOM     30  C   UNL     1       0.959   0.043  -0.118  1.00  0.00     0.012 C 
ENDBRANCH  24  29
ENDBRANCH  22  23
ENDBRANCH  16  22
ENDBRANCH  10  15
ENDBRANCH   7   9
ENDBRANCH   6   7
ENDBRANCH   5   6
ENDBRANCH   4   5
ENDBRANCH   3   4
ENDBRANCH   2   3
ENDBRANCH   1   2
BRANCH   1  31
ATOM     31  O   UNL     1      -2.236 -11.091   3.813  1.00  0.00    -0.377 OA
BRANCH  31  32
ATOM     32  C   UNL     1      -2.611 -12.329   4.415  1.00  0.00     0.188 C 
BRANCH  32  33
ATOM     33  C   UNL     1      -3.599 -12.407   5.606  1.00  0.00     0.188 C 
BRANCH  33  34
ATOM     34  O   UNL     1      -3.921 -11.165   6.206  1.00  0.00    -0.376 OA
BRANCH  34  35
ATOM     35  C   UNL     1      -3.378 -10.880   7.482  1.00  0.00     0.202 C 
BRANCH  35  36
ATOM     36  C   UNL     1      -1.850 -10.755   7.568  1.00  0.00     0.261 C 
BRANCH  36  37
ATOM     37  O   UNL     1      -1.103 -11.873   7.064  1.00  0.00    -0.460 OA
BRANCH  37  38
ATOM     38  C   UNL     1      -1.222 -13.035   7.737  1.00  0.00     0.338 C 
ATOM     39  O   UNL     1      -1.881 -13.240   8.746  1.00  0.00    -0.246 OA
BRANCH  38  40
ATOM     40  C   UNL     1      -0.567 -14.095   6.948  1.00  0.00     0.060 A 
ATOM     41  C   UNL     1      -1.331 -15.188   6.523  1.00  0.00     0.016 A 
ATOM     42  C   UNL     1       0.794 -14.019   6.642  1.00  0.00     0.016 A 
ATOM     43  C   UNL     1      -0.724 -16.237   5.837  1.00  0.00     0.010 A 
ATOM     44  C   UNL     1       1.407 -15.080   5.968  1.00  0.00     0.010 A 
ATOM     45  C   UNL     1       0.658 -16.213   5.603  1.00  0.00    -0.014 A 
BRANCH  45  46
ATOM     46  C   UNL     1       1.331 -17.459   5.162  1.00  0.00     0.031 A 
ATOM     47  C   UNL     1       2.013 -18.311   6.199  1.00  0.00     0.074 A 
ATOM     48  C   UNL     1       1.277 -17.864   3.882  1.00  0.00     0.049 A 
ATOM     49  N   UNL     1       2.631 -19.457   6.061  1.00  0.00    -0.248 NA
ATOM     50  C   UNL     1       1.993 -17.801   7.579  1.00  0.00     0.031 C 
ATOM     51  C   UNL     1       0.616 -17.145   2.796  1.00  0.00     0.029 A 
ATOM     52  N   UNL     1       1.786 -18.989   3.282  1.00  0.00    -0.354 N 
ATOM     53  C   UNL     1       3.071 -19.802   7.333  1.00  0.00     0.074 A 
ATOM     54  C   UNL     1       2.687 -18.727   8.222  1.00  0.00     0.031 C 
ATOM     55  C   UNL     1       0.758 -17.848   1.659  1.00  0.00     0.029 A 
ATOM     56  C   UNL     1       1.544 -19.050   1.933  1.00  0.00     0.049 A 
ATOM     57  H   UNL     1       2.278 -19.686   3.774  1.00  0.00     0.167 HD
ATOM     58  C   UNL     1       3.723 -20.922   7.727  1.00  0.00     0.037 A 
ATOM     59  C   UNL     1       1.927 -19.967   1.023  1.00  0.00     0.037 A 
ATOM     60  C   UNL     1       4.106 -21.988   6.839  1.00  0.00     0.049 A 
ATOM     61  C   UNL     1       2.714 -21.172   1.477  1.00  0.00     0.074 A 
ATOM     62  C   UNL     1       4.757 -23.171   7.142  1.00  0.00     0.029 A 
ATOM     63  N   UNL     1       3.882 -21.994   5.470  1.00  0.00    -0.354 N 
ATOM     64  N   UNL     1       3.098 -21.508   2.685  1.00  0.00    -0.248 NA
ATOM     65  C   UNL     1       3.112 -22.131   0.436  1.00  0.00     0.031 C 
ATOM     66  C   UNL     1       4.985 -23.863   5.947  1.00  0.00     0.029 A 
ATOM     67  C   UNL     1       4.410 -23.147   4.909  1.00  0.00     0.049 A 
ATOM     68  H   UNL     1       3.417 -21.285   4.970  1.00  0.00     0.167 HD
ATOM     69  C   UNL     1       3.750 -22.729   2.555  1.00  0.00     0.074 A 
ATOM     70  C   UNL     1       3.691 -23.083   1.153  1.00  0.00     0.031 C 
ATOM     71  C   UNL     1       4.344 -23.488   3.510  1.00  0.00     0.037 A 
BRANCH  58  72
ATOM     72  C   UNL     1       4.093 -21.035   9.179  1.00  0.00     0.064 A 
ATOM     73  C   UNL     1       3.125 -21.213  10.180  1.00  0.00     0.173 A 
ATOM     74  C   UNL     1       5.439 -20.994   9.572  1.00  0.00     0.173 A 
ATOM     75  F   UNL     1       1.822 -21.244   9.862  1.00  0.00    -0.203 F 
ATOM     76  C   UNL     1       3.490 -21.318  11.520  1.00  0.00     0.198 A 
ATOM     77  C   UNL     1       5.803 -21.134  10.909  1.00  0.00     0.198 A 
ATOM     78  F   UNL     1       6.406 -20.828   8.657  1.00  0.00    -0.203 F 
ATOM     79  F   UNL     1       2.544 -21.435  12.463  1.00  0.00    -0.200 F 
ATOM     80  C   UNL     1       4.828 -21.287  11.882  1.00  0.00     0.200 A 
ATOM     81  F   UNL     1       7.097 -21.118  11.254  1.00  0.00    -0.200 F 
ATOM     82  F   UNL     1       5.178 -21.397  13.171  1.00  0.00    -0.200 F 
ENDBRANCH  58  72
BRANCH  59  83
ATOM     83  C   UNL     1       1.579 -19.786  -0.412  1.00  0.00     0.064 A 
ATOM     84  C   UNL     1       0.706 -20.666  -1.067  1.00  0.00     0.173 A 
ATOM     85  C   UNL     1       2.139 -18.744  -1.167  1.00  0.00     0.173 A 
ATOM     86  F   UNL     1       0.164 -21.694  -0.397  1.00  0.00    -0.203 F 
ATOM     87  C   UNL     1       0.426 -20.526  -2.425  1.00  0.00     0.198 A 
ATOM     88  C   UNL     1       1.831 -18.585  -2.517  1.00  0.00     0.198 A 
ATOM     89  F   UNL     1       2.983 -17.875  -0.592  1.00  0.00    -0.203 F 
ATOM     90  F   UNL     1      -0.366 -21.416  -3.039  1.00  0.00    -0.200 F 
ATOM     91  C   UNL     1       0.984 -19.482  -3.147  1.00  0.00     0.200 A 
ATOM     92  F   UNL     1       2.363 -17.566  -3.207  1.00  0.00    -0.200 F 
ATOM     93  F   UNL     1       0.713 -19.347  -4.453  1.00  0.00    -0.200 F 
ENDBRANCH  59  83
BRANCH  71  94
ATOM     94  C   UNL     1       4.939 -24.800   3.076  1.00  0.00     0.064 A 
ATOM     95  C   UNL     1       6.073 -24.866   2.253  1.00  0.00     0.173 A 
ATOM     96  C   UNL     1       4.373 -26.012   3.504  1.00  0.00     0.173 A 
ATOM     97  F   UNL     1       6.649 -23.739   1.806  1.00  0.00    -0.203 F 
ATOM     98  C   UNL     1       6.590 -26.091   1.838  1.00  0.00     0.198 A 
ATOM     99  C   UNL     1       4.915 -27.235   3.121  1.00  0.00     0.198 A 
ATOM    100  F   UNL     1       3.295 -26.011   4.303  1.00  0.00    -0.203 F 
ATOM    101  F   UNL     1       7.631 -26.126   0.995  1.00  0.00    -0.200 F 
ATOM    102  C   UNL     1       6.014 -27.274   2.277  1.00  0.00     0.200 A 
ATOM    103  F   UNL     1       4.370 -28.377   3.562  1.00  0.00    -0.200 F 
ATOM    104  F   UNL     1       6.513 -28.452   1.877  1.00  0.00    -0.200 F 
ENDBRANCH  71  94
ENDBRANCH  45  46
ENDBRANCH  38  40
ENDBRANCH  37  38
ENDBRANCH  36  37
ENDBRANCH  35  36
ENDBRANCH  34  35
ENDBRANCH  33  34
ENDBRANCH  32  33
ENDBRANCH  31  32
ENDBRANCH   1  31
TORSDOF 24
