REMARK SMILES O=C(OCCOCCOCCOCCOC(=O)c1cccc(N[C@H]2CCCC[C@@H]2O)c1)c1ccc(-c2c3nc(c(-c4c(F)c(F)c(F)c(F)c4F)c4ccc([nH]4)c(-c4c(F)c(F)c(F)c(F)c4F)c4nc(c(-c5c(F)c(F)c(F)c(F)c5F)c5ccc2[nH]5)C=C4)C=C3)cc1
REMARK SMILES IDX 10 1 9 2 8 3 7 4 6 5 5 6 4 7 3 8 2 9 1 10 32 11 33 12 94 13
REMARK SMILES IDX 34 14 93 15 35 16 36 17 37 18 87 19 38 20 92 21 86 22 88 23
REMARK SMILES IDX 39 24 91 25 85 26 84 27 40 29 72 30 52 31 71 32 53 33 56 34
REMARK SMILES IDX 70 35 89 36 54 37 55 38 69 40 90 41 57 42 41 43 42 44 50 45
REMARK SMILES IDX 43 46 44 47 48 48 51 49 45 50 46 51 49 52 47 53 73 54 74 55
REMARK SMILES IDX 82 56 75 57 76 58 80 59 83 60 77 61 78 62 81 63 79 64 58 65
REMARK SMILES IDX 59 66 67 67 60 68 61 69 65 70 68 71 62 72 63 73 66 74 64 75
REMARK SMILES IDX 11 76 12 77 13 78 14 79 15 80 16 81 17 82 18 83 19 84 31 85
REMARK SMILES IDX 20 86 22 87 21 88 23 89 24 91 25 92 29 93 26 94 28 95 27 96
REMARK SMILES IDX 30 97
REMARK H PARENT 88 28 56 39 23 90 30 98
REMARK Flexibility Score: inf
ROOT
ATOM      1  C   UNL     1       3.908   3.592   1.332  1.00  0.00     0.188 C 
ENDROOT
BRANCH   1   2
ATOM      2  O   UNL     1       2.489   3.684   1.389  1.00  0.00    -0.377 OA
BRANCH   2   3
ATOM      3  C   UNL     1       1.764   2.474   1.183  1.00  0.00     0.188 C 
BRANCH   3   4
ATOM      4  C   UNL     1       2.206   1.652  -0.027  1.00  0.00     0.188 C 
BRANCH   4   5
ATOM      5  O   UNL     1       3.507   1.113   0.201  1.00  0.00    -0.376 OA
BRANCH   5   6
ATOM      6  C   UNL     1       4.316   0.894  -0.950  1.00  0.00     0.202 C 
BRANCH   6   7
ATOM      7  C   UNL     1       3.924  -0.318  -1.803  1.00  0.00     0.261 C 
BRANCH   7   8
ATOM      8  O   UNL     1       2.542  -0.695  -1.670  1.00  0.00    -0.460 OA
BRANCH   8   9
ATOM      9  C   UNL     1       2.015  -1.649  -0.858  1.00  0.00     0.338 C 
ATOM     10  O   UNL     1       0.833  -1.958  -0.981  1.00  0.00    -0.246 OA
BRANCH   9  11
ATOM     11  C   UNL     1       2.825  -2.372   0.162  1.00  0.00     0.060 A 
ATOM     12  C   UNL     1       3.879  -1.797   0.863  1.00  0.00     0.016 A 
ATOM     13  C   UNL     1       2.464  -3.687   0.490  1.00  0.00     0.016 A 
ATOM     14  C   UNL     1       4.665  -2.527   1.731  1.00  0.00     0.010 A 
ATOM     15  C   UNL     1       3.195  -4.412   1.442  1.00  0.00     0.010 A 
ATOM     16  C   UNL     1       4.332  -3.842   2.030  1.00  0.00    -0.014 A 
BRANCH  16  17
ATOM     17  C   UNL     1       5.298  -4.607   2.842  1.00  0.00     0.031 A 
ATOM     18  C   UNL     1       6.093  -5.681   2.163  1.00  0.00     0.074 A 
ATOM     19  C   UNL     1       5.591  -4.197   4.091  1.00  0.00     0.049 A 
ATOM     20  N   UNL     1       6.976  -6.501   2.664  1.00  0.00    -0.248 NA
ATOM     21  C   UNL     1       5.877  -5.844   0.714  1.00  0.00     0.031 C 
ATOM     22  C   UNL     1       4.968  -3.057   4.774  1.00  0.00     0.029 A 
ATOM     23  N   UNL     1       6.521  -4.650   4.988  1.00  0.00    -0.354 N 
ATOM     24  C   UNL     1       7.390  -7.296   1.604  1.00  0.00     0.074 A 
ATOM     25  C   UNL     1       6.661  -6.872   0.433  1.00  0.00     0.031 C 
ATOM     26  C   UNL     1       5.566  -2.874   5.961  1.00  0.00     0.029 A 
ATOM     27  C   UNL     1       6.541  -3.938   6.164  1.00  0.00     0.049 A 
ATOM     28  H   UNL     1       7.118  -5.412   4.809  1.00  0.00     0.167 HD
ATOM     29  C   UNL     1       8.303  -8.294   1.620  1.00  0.00     0.037 A 
ATOM     30  C   UNL     1       7.240  -4.159   7.292  1.00  0.00     0.037 A 
ATOM     31  C   UNL     1       9.020  -8.681   2.802  1.00  0.00     0.049 A 
ATOM     32  C   UNL     1       8.171  -5.342   7.311  1.00  0.00     0.074 A 
ATOM     33  C   UNL     1       9.890  -9.738   2.985  1.00  0.00     0.029 A 
ATOM     34  N   UNL     1       8.951  -7.999   4.011  1.00  0.00    -0.354 N 
ATOM     35  N   UNL     1       8.473  -6.173   6.340  1.00  0.00    -0.248 NA
ATOM     36  C   UNL     1       8.841  -5.635   8.583  1.00  0.00     0.031 C 
ATOM     37  C   UNL     1      10.320  -9.715   4.317  1.00  0.00     0.029 A 
ATOM     38  C   UNL     1       9.758  -8.616   4.949  1.00  0.00     0.049 A 
ATOM     39  H   UNL     1       8.407  -7.194   4.175  1.00  0.00     0.167 HD
ATOM     40  C   UNL     1       9.370  -7.082   6.880  1.00  0.00     0.074 A 
ATOM     41  C   UNL     1       9.591  -6.676   8.254  1.00  0.00     0.031 C 
ATOM     42  C   UNL     1       9.948  -8.166   6.305  1.00  0.00     0.037 A 
BRANCH  29  43
ATOM     43  C   UNL     1       8.503  -9.056   0.345  1.00  0.00     0.064 A 
ATOM     44  C   UNL     1       9.167  -8.499  -0.758  1.00  0.00     0.173 A 
ATOM     45  C   UNL     1       7.985 -10.353   0.211  1.00  0.00     0.173 A 
ATOM     46  F   UNL     1       9.649  -7.249  -0.696  1.00  0.00    -0.203 F 
ATOM     47  C   UNL     1       9.283  -9.203  -1.955  1.00  0.00     0.198 A 
ATOM     48  C   UNL     1       8.125 -11.064  -0.978  1.00  0.00     0.198 A 
ATOM     49  F   UNL     1       7.329 -10.927   1.231  1.00  0.00    -0.203 F 
ATOM     50  F   UNL     1       9.869  -8.629  -3.015  1.00  0.00    -0.200 F 
ATOM     51  C   UNL     1       8.766 -10.486  -2.062  1.00  0.00     0.200 A 
ATOM     52  F   UNL     1       7.623 -12.303  -1.079  1.00  0.00    -0.200 F 
ATOM     53  F   UNL     1       8.871 -11.159  -3.217  1.00  0.00    -0.200 F 
ENDBRANCH  29  43
BRANCH  30  54
ATOM     54  C   UNL     1       7.024  -3.316   8.501  1.00  0.00     0.064 A 
ATOM     55  C   UNL     1       8.062  -2.565   9.071  1.00  0.00     0.173 A 
ATOM     56  C   UNL     1       5.774  -3.277   9.142  1.00  0.00     0.173 A 
ATOM     57  F   UNL     1       9.283  -2.581   8.516  1.00  0.00    -0.203 F 
ATOM     58  C   UNL     1       7.866  -1.835  10.244  1.00  0.00     0.198 A 
ATOM     59  C   UNL     1       5.569  -2.518  10.292  1.00  0.00     0.198 A 
ATOM     60  F   UNL     1       4.743  -3.979   8.650  1.00  0.00    -0.203 F 
ATOM     61  F   UNL     1       8.894  -1.180  10.802  1.00  0.00    -0.200 F 
ATOM     62  C   UNL     1       6.620  -1.808  10.851  1.00  0.00     0.200 A 
ATOM     63  F   UNL     1       4.358  -2.484  10.863  1.00  0.00    -0.200 F 
ATOM     64  F   UNL     1       6.434  -1.112  11.980  1.00  0.00    -0.200 F 
ENDBRANCH  30  54
BRANCH  42  65
ATOM     65  C   UNL     1      10.886  -8.957   7.165  1.00  0.00     0.064 A 
ATOM     66  C   UNL     1      10.417  -9.762   8.212  1.00  0.00     0.173 A 
ATOM     67  C   UNL     1      12.266  -8.927   6.918  1.00  0.00     0.173 A 
ATOM     68  F   UNL     1       9.106  -9.807   8.494  1.00  0.00    -0.203 F 
ATOM     69  C   UNL     1      11.302 -10.485   9.005  1.00  0.00     0.198 A 
ATOM     70  C   UNL     1      13.144  -9.678   7.691  1.00  0.00     0.198 A 
ATOM     71  F   UNL     1      12.759  -8.177   5.921  1.00  0.00    -0.203 F 
ATOM     72  F   UNL     1      10.839 -11.204  10.037  1.00  0.00    -0.200 F 
ATOM     73  C   UNL     1      12.663 -10.448   8.739  1.00  0.00     0.200 A 
ATOM     74  F   UNL     1      14.457  -9.652   7.425  1.00  0.00    -0.200 F 
ATOM     75  F   UNL     1      13.513 -11.149   9.501  1.00  0.00    -0.200 F 
ENDBRANCH  42  65
ENDBRANCH  16  17
ENDBRANCH   9  11
ENDBRANCH   8   9
ENDBRANCH   7   8
ENDBRANCH   6   7
ENDBRANCH   5   6
ENDBRANCH   4   5
ENDBRANCH   3   4
ENDBRANCH   2   3
ENDBRANCH   1   2
BRANCH   1  76
ATOM     76  C   UNL     1       4.634   2.693   2.358  1.00  0.00     0.188 C 
BRANCH  76  77
ATOM     77  O   UNL     1       3.781   1.935   3.206  1.00  0.00    -0.376 OA
BRANCH  77  78
ATOM     78  C   UNL     1       3.736   2.369   4.563  1.00  0.00     0.202 C 
BRANCH  78  79
ATOM     79  C   UNL     1       2.975   3.680   4.809  1.00  0.00     0.261 C 
BRANCH  79  80
ATOM     80  O   UNL     1       3.486   4.832   4.117  1.00  0.00    -0.460 OA
BRANCH  80  81
ATOM     81  C   UNL     1       4.718   5.287   4.436  1.00  0.00     0.338 C 
ATOM     82  O   UNL     1       5.457   4.863   5.309  1.00  0.00    -0.246 OA
BRANCH  81  83
ATOM     83  C   UNL     1       5.116   6.208   3.348  1.00  0.00     0.062 A 
ATOM     84  C   UNL     1       6.255   5.893   2.599  1.00  0.00     0.016 A 
ATOM     85  C   UNL     1       4.280   7.266   2.961  1.00  0.00     0.041 A 
ATOM     86  C   UNL     1       6.474   6.550   1.395  1.00  0.00     0.003 A 
ATOM     87  C   UNL     1       4.555   8.012   1.808  1.00  0.00     0.035 A 
ATOM     88  C   UNL     1       5.613   7.577   0.998  1.00  0.00     0.026 A 
BRANCH  87  89
ATOM     89  N   UNL     1       3.821   9.159   1.561  1.00  0.00    -0.380 N 
ATOM     90  H   UNL     1       2.901   9.183   1.911  1.00  0.00     0.160 HD
BRANCH  89  91
ATOM     91  C   UNL     1       4.285  10.350   0.821  1.00  0.00     0.107 C 
ATOM     92  C   UNL     1       5.733  10.743   1.167  1.00  0.00     0.027 C 
ATOM     93  C   UNL     1       3.986  10.205  -0.689  1.00  0.00     0.136 C 
ATOM     94  C   UNL     1       6.291  11.833   0.261  1.00  0.00     0.002 C 
ATOM     95  C   UNL     1       4.604  11.328  -1.517  1.00  0.00     0.034 C 
ATOM     96  C   UNL     1       6.086  11.492  -1.210  1.00  0.00     0.003 C 
BRANCH  93  97
ATOM     97  O   UNL     1       2.567  10.226  -0.897  1.00  0.00    -0.391 OA
ATOM     98  H   UNL     1       2.209  11.077  -0.600  1.00  0.00     0.211 HD
ENDBRANCH  93  97
ENDBRANCH  89  91
ENDBRANCH  87  89
ENDBRANCH  81  83
ENDBRANCH  80  81
ENDBRANCH  79  80
ENDBRANCH  78  79
ENDBRANCH  77  78
ENDBRANCH  76  77
ENDBRANCH   1  76
TORSDOF 23
