REMARK SMILES CCN1C(OCCOCCOCCOCCOC(=O)c2ccc(-c3c4nc(c(-c5c(F)c(F)c(F)c(F)c5F)c5ccc([nH]5)c(-c5c(F)c(F)c(F)c(F)c5F)c5nc(c(-c6c(F)c(F)c(F)c(F)c6F)c6ccc3[nH]6)C=C5)C=C4)cc2)=[NH+]C(O)=C2C1=[NH+]C1=C(C(=O)c3ccccc31)[C@H]2c1ccc(C(=O)[O-])cc1
REMARK SMILES IDX 12 1 11 2 10 3 9 4 8 5 7 6 6 7 5 8 4 9 3 10 87 11 83 12
REMARK SMILES IDX 86 13 88 14 84 15 99 17 89 18 90 20 98 21 91 22 93 23 97 24
REMARK SMILES IDX 92 25 94 26 96 27 95 28 2 29 1 30 85 31 100 33 101 34 108 35
REMARK SMILES IDX 102 36 107 37 103 38 104 39 105 40 106 41 13 42 14 43 15 44
REMARK SMILES IDX 16 45 17 46 18 47 19 48 20 49 21 50 82 51 22 52 81 53 23 54
REMARK SMILES IDX 24 55 25 56 75 57 26 58 80 59 74 60 76 61 27 62 79 63 73 64
REMARK SMILES IDX 72 65 28 67 60 68 40 69 59 70 41 71 44 72 58 73 77 74 42 75
REMARK SMILES IDX 43 76 57 78 78 79 45 80 29 81 30 82 38 83 31 84 32 85 36 86
REMARK SMILES IDX 39 87 33 88 34 89 37 90 35 91 61 92 62 93 70 94 63 95 64 96
REMARK SMILES IDX 68 97 71 98 65 99 66 100 69 101 67 102 46 103 47 104 55 105
REMARK SMILES IDX 48 106 49 107 53 108 56 109 50 110 51 111 54 112 52 113
REMARK H PARENT 83 16 88 19 85 32 76 66 44 77
REMARK Flexibility Score: inf
ROOT
ATOM      1  C   UNL     1       3.048   2.700   3.621  1.00  0.00     0.188 C 
ENDROOT
BRANCH   1   2
ATOM      2  O   UNL     1       3.284   3.740   2.678  1.00  0.00    -0.377 OA
BRANCH   2   3
ATOM      3  C   UNL     1       2.221   4.117   1.811  1.00  0.00     0.188 C 
BRANCH   3   4
ATOM      4  C   UNL     1       1.544   3.016   0.978  1.00  0.00     0.188 C 
BRANCH   4   5
ATOM      5  O   UNL     1       1.401   1.794   1.677  1.00  0.00    -0.376 OA
BRANCH   5   6
ATOM      6  C   UNL     1       1.960   0.604   1.126  1.00  0.00     0.202 C 
BRANCH   6   7
ATOM      7  C   UNL     1       3.463   0.566   0.738  1.00  0.00     0.266 C 
BRANCH   7   8
ATOM      8  O   UNL     1       3.725   0.881  -0.652  1.00  0.00    -0.428 OA
BRANCH   8   9
ATOM      9  C   UNL     1       4.129   2.132  -0.998  1.00  0.00     0.460 C 
ATOM     10  N   UNL     1       3.889   2.498  -2.330  1.00  0.00    -0.159 N 
ATOM     11  C   UNL     1       4.317   3.826  -2.574  1.00  0.00     0.297 C 
ATOM     12  N   UNL     1       4.600   2.973  -0.112  1.00  0.00    -0.176 N 
ATOM     13  C   UNL     1       3.737   4.707  -1.522  1.00  0.00     0.139 C 
ATOM     14  N   UNL     1       5.170   4.380  -3.428  1.00  0.00    -0.239 N 
ATOM     15  C   UNL     1       4.484   4.313  -0.472  1.00  0.00     0.295 C 
ATOM     16  H   UNL     1       5.002   2.682   0.738  1.00  0.00     0.319 HD
ATOM     17  C   UNL     1       3.125   5.921  -2.139  1.00  0.00     0.104 C 
ATOM     18  C   UNL     1       5.230   5.801  -3.394  1.00  0.00     0.141 C 
ATOM     19  H   UNL     1       5.722   3.844  -4.042  1.00  0.00     0.312 HD
ATOM     20  C   UNL     1       4.215   6.532  -2.891  1.00  0.00     0.060 C 
ATOM     21  C   UNL     1       6.020   6.756  -4.189  1.00  0.00     0.033 A 
ATOM     22  C   UNL     1       4.113   7.851  -3.504  1.00  0.00     0.195 C 
ATOM     23  C   UNL     1       5.273   7.930  -4.366  1.00  0.00     0.034 A 
ATOM     24  C   UNL     1       7.327   6.781  -4.632  1.00  0.00     0.013 A 
ATOM     25  O   UNL     1       3.242   8.663  -3.352  1.00  0.00    -0.289 OA
ATOM     26  C   UNL     1       5.648   9.038  -5.097  1.00  0.00     0.013 A 
ATOM     27  C   UNL     1       7.790   7.938  -5.302  1.00  0.00     0.001 A 
ATOM     28  C   UNL     1       6.944   9.033  -5.578  1.00  0.00     0.001 A 
BRANCH  10  29
ATOM     29  C   UNL     1       2.523   2.220  -2.884  1.00  0.00     0.247 C 
ATOM     30  C   UNL     1       1.853   0.886  -2.615  1.00  0.00     0.055 C 
ENDBRANCH  10  29
BRANCH  15  31
ATOM     31  O   UNL     1       5.051   5.213   0.384  1.00  0.00    -0.477 OA
ATOM     32  H   UNL     1       5.567   4.912   1.106  1.00  0.00     0.297 HD
ENDBRANCH  15  31
BRANCH  17  33
ATOM     33  C   UNL     1       1.973   5.565  -3.134  1.00  0.00    -0.035 A 
ATOM     34  C   UNL     1       2.261   5.140  -4.461  1.00  0.00     0.005 A 
ATOM     35  C   UNL     1       0.628   5.595  -2.755  1.00  0.00     0.005 A 
ATOM     36  C   UNL     1       1.283   4.700  -5.341  1.00  0.00     0.010 A 
ATOM     37  C   UNL     1      -0.372   5.175  -3.656  1.00  0.00     0.010 A 
ATOM     38  C   UNL     1      -0.042   4.706  -4.939  1.00  0.00    -0.003 A 
BRANCH  38  39
ATOM     39  C   UNL     1      -1.025   4.184  -5.912  1.00  0.00     0.071 C 
ATOM     40  O   UNL     1      -0.756   3.638  -6.967  1.00  0.00    -0.545 OA
ATOM     41  O   UNL     1      -2.295   4.363  -5.524  1.00  0.00    -0.545 OA
ENDBRANCH  38  39
ENDBRANCH  17  33
ENDBRANCH   8   9
ENDBRANCH   7   8
ENDBRANCH   6   7
ENDBRANCH   5   6
ENDBRANCH   4   5
ENDBRANCH   3   4
ENDBRANCH   2   3
ENDBRANCH   1   2
BRANCH   1  42
ATOM     42  C   UNL     1       1.713   2.638   4.393  1.00  0.00     0.188 C 
BRANCH  42  43
ATOM     43  O   UNL     1       0.823   3.702   4.120  1.00  0.00    -0.376 OA
BRANCH  43  44
ATOM     44  C   UNL     1       0.815   4.791   5.030  1.00  0.00     0.202 C 
BRANCH  44  45
ATOM     45  C   UNL     1       2.127   5.536   5.340  1.00  0.00     0.261 C 
BRANCH  45  46
ATOM     46  O   UNL     1       3.284   4.748   5.669  1.00  0.00    -0.460 OA
BRANCH  46  47
ATOM     47  C   UNL     1       3.293   4.036   6.817  1.00  0.00     0.338 C 
ATOM     48  O   UNL     1       2.414   3.986   7.656  1.00  0.00    -0.246 OA
BRANCH  47  49
ATOM     49  C   UNL     1       4.479   3.137   6.765  1.00  0.00     0.060 A 
ATOM     50  C   UNL     1       5.757   3.651   6.526  1.00  0.00     0.016 A 
ATOM     51  C   UNL     1       4.293   1.749   6.862  1.00  0.00     0.016 A 
ATOM     52  C   UNL     1       6.850   2.780   6.430  1.00  0.00     0.010 A 
ATOM     53  C   UNL     1       5.384   0.879   6.747  1.00  0.00     0.010 A 
ATOM     54  C   UNL     1       6.678   1.389   6.566  1.00  0.00    -0.014 A 
BRANCH  54  55
ATOM     55  C   UNL     1       7.865   0.513   6.762  1.00  0.00     0.031 A 
ATOM     56  C   UNL     1       8.410  -0.389   5.696  1.00  0.00     0.074 A 
ATOM     57  C   UNL     1       8.451   0.540   7.975  1.00  0.00     0.049 A 
ATOM     58  N   UNL     1       9.488  -1.135   5.726  1.00  0.00    -0.248 NA
ATOM     59  C   UNL     1       7.651  -0.479   4.443  1.00  0.00     0.031 C 
ATOM     60  C   UNL     1       7.983   1.343   9.105  1.00  0.00     0.029 A 
ATOM     61  N   UNL     1       9.559  -0.107   8.461  1.00  0.00    -0.354 N 
ATOM     62  C   UNL     1       9.556  -1.764   4.491  1.00  0.00     0.074 A 
ATOM     63  C   UNL     1       8.377  -1.353   3.753  1.00  0.00     0.031 C 
ATOM     64  C   UNL     1       8.818   1.174  10.139  1.00  0.00     0.029 A 
ATOM     65  C   UNL     1       9.862   0.227   9.758  1.00  0.00     0.049 A 
ATOM     66  H   UNL     1      10.086  -0.748   7.931  1.00  0.00     0.167 HD
ATOM     67  C   UNL     1      10.524  -2.589   4.016  1.00  0.00     0.037 A 
ATOM     68  C   UNL     1      10.870  -0.173  10.555  1.00  0.00     0.037 A 
ATOM     69  C   UNL     1      11.684  -3.011   4.768  1.00  0.00     0.049 A 
ATOM     70  C   UNL     1      11.903  -1.121  10.018  1.00  0.00     0.074 A 
ATOM     71  C   UNL     1      12.737  -3.811   4.353  1.00  0.00     0.029 A 
ATOM     72  N   UNL     1      11.938  -2.684   6.093  1.00  0.00    -0.354 N 
ATOM     73  N   UNL     1      12.005  -1.637   8.818  1.00  0.00    -0.248 NA
ATOM     74  C   UNL     1      12.966  -1.537  10.944  1.00  0.00     0.031 C 
ATOM     75  C   UNL     1      13.591  -4.019   5.440  1.00  0.00     0.029 A 
ATOM     76  C   UNL     1      13.110  -3.295   6.518  1.00  0.00     0.049 A 
ATOM     77  H   UNL     1      11.371  -2.103   6.650  1.00  0.00     0.167 HD
ATOM     78  C   UNL     1      13.151  -2.420   8.836  1.00  0.00     0.074 A 
ATOM     79  C   UNL     1      13.723  -2.295  10.161  1.00  0.00     0.031 C 
ATOM     80  C   UNL     1      13.677  -3.174   7.840  1.00  0.00     0.037 A 
BRANCH  67  81
ATOM     81  C   UNL     1      10.395  -3.092   2.604  1.00  0.00     0.064 A 
ATOM     82  C   UNL     1      10.559  -2.232   1.507  1.00  0.00     0.173 A 
ATOM     83  C   UNL     1      10.209  -4.458   2.339  1.00  0.00     0.173 A 
ATOM     84  F   UNL     1      10.745  -0.918   1.701  1.00  0.00    -0.203 F 
ATOM     85  C   UNL     1      10.521  -2.717   0.201  1.00  0.00     0.198 A 
ATOM     86  C   UNL     1      10.203  -4.944   1.033  1.00  0.00     0.198 A 
ATOM     87  F   UNL     1      10.065  -5.330   3.349  1.00  0.00    -0.203 F 
ATOM     88  F   UNL     1      10.649  -1.871  -0.830  1.00  0.00    -0.200 F 
ATOM     89  C   UNL     1      10.353  -4.073  -0.035  1.00  0.00     0.200 A 
ATOM     90  F   UNL     1      10.062  -6.258   0.809  1.00  0.00    -0.200 F 
ATOM     91  F   UNL     1      10.336  -4.540  -1.291  1.00  0.00    -0.200 F 
ENDBRANCH  67  81
BRANCH  68  92
ATOM     92  C   UNL     1      10.965   0.374  11.933  1.00  0.00     0.064 A 
ATOM     93  C   UNL     1      11.985   1.270  12.280  1.00  0.00     0.173 A 
ATOM     94  C   UNL     1      10.015   0.052  12.914  1.00  0.00     0.173 A 
ATOM     95  F   UNL     1      12.925   1.595  11.380  1.00  0.00    -0.203 F 
ATOM     96  C   UNL     1      12.055   1.819  13.558  1.00  0.00     0.198 A 
ATOM     97  C   UNL     1      10.068   0.626  14.181  1.00  0.00     0.198 A 
ATOM     98  F   UNL     1       9.015  -0.794  12.628  1.00  0.00    -0.203 F 
ATOM     99  F   UNL     1      13.058   2.650  13.873  1.00  0.00    -0.200 F 
ATOM    100  C   UNL     1      11.091   1.506  14.504  1.00  0.00     0.200 A 
ATOM    101  F   UNL     1       9.123   0.337  15.085  1.00  0.00    -0.200 F 
ATOM    102  F   UNL     1      11.148   2.050  15.727  1.00  0.00    -0.200 F 
ENDBRANCH  68  92
BRANCH  80 103
ATOM    103  C   UNL     1      14.945  -3.927   8.130  1.00  0.00     0.064 A 
ATOM    104  C   UNL     1      14.962  -5.035   8.991  1.00  0.00     0.173 A 
ATOM    105  C   UNL     1      16.145  -3.581   7.487  1.00  0.00     0.173 A 
ATOM    106  F   UNL     1      13.848  -5.400   9.644  1.00  0.00    -0.203 F 
ATOM    107  C   UNL     1      16.133  -5.758   9.209  1.00  0.00     0.198 A 
ATOM    108  C   UNL     1      17.305  -4.326   7.681  1.00  0.00     0.198 A 
ATOM    109  F   UNL     1      16.186  -2.534   6.650  1.00  0.00    -0.203 F 
ATOM    110  F   UNL     1      16.132  -6.789  10.065  1.00  0.00    -0.200 F 
ATOM    111  C   UNL     1      17.300  -5.411   8.544  1.00  0.00     0.200 A 
ATOM    112  F   UNL     1      18.427  -3.999   7.025  1.00  0.00    -0.200 F 
ATOM    113  F   UNL     1      18.420  -6.120   8.739  1.00  0.00    -0.200 F 
ENDBRANCH  80 103
ENDBRANCH  54  55
ENDBRANCH  47  49
ENDBRANCH  46  47
ENDBRANCH  45  46
ENDBRANCH  44  45
ENDBRANCH  43  44
ENDBRANCH  42  43
ENDBRANCH   1  42
TORSDOF 23
