REMARK SMILES Cc1ccc2[nH]cc([C@@H](C(=O)OCCOCCOCCOCCOC(=O)c3ccc(-c4c5nc(c(-c6c(F)c(F)c(F)c(F)c6F)c6ccc([nH]6)c(-c6c(F)c(F)c(F)c(F)c6F)c6nc(c(-c7c(F)c(F)c(F)c(F)c7F)c7ccc4[nH]7)C=C6)C=C5)cc3)[NH+]3CCN(c4ccc(F)cc4)CC3)c2c1
REMARK SMILES IDX 18 1 17 2 16 3 15 4 14 5 13 6 12 7 10 8 11 9 9 10 8 11 1 12
REMARK SMILES IDX 2 13 3 14 104 15 4 16 103 17 5 18 6 19 7 20 90 22 91 23
REMARK SMILES IDX 102 24 92 26 101 27 93 28 94 29 95 30 100 31 96 32 99 33
REMARK SMILES IDX 97 34 98 35 19 36 20 37 21 38 22 39 23 40 24 41 25 42 26 43
REMARK SMILES IDX 27 44 28 45 89 46 29 47 88 48 30 49 31 50 32 51 82 52 33 53
REMARK SMILES IDX 87 54 81 55 83 56 34 57 86 58 80 59 79 60 35 62 67 63 47 64
REMARK SMILES IDX 66 65 48 66 51 67 65 68 84 69 49 70 50 71 64 73 85 74 52 75
REMARK SMILES IDX 36 76 37 77 45 78 38 79 39 80 43 81 46 82 40 83 41 84 44 85
REMARK SMILES IDX 42 86 68 87 69 88 77 89 70 90 71 91 75 92 78 93 72 94 73 95
REMARK SMILES IDX 76 96 74 97 53 98 54 99 62 100 55 101 56 102 60 103 63 104
REMARK SMILES IDX 57 105 58 106 61 107 59 108
REMARK H PARENT 6 21 90 25 83 61 51 72
REMARK Flexibility Score: inf
ROOT
ATOM      1  O   UNL     1      -3.740  -1.555   3.082  1.00  0.00    -0.377 OA
ENDROOT
BRANCH   1   2
ATOM      2  C   UNL     1      -4.394  -2.030   1.928  1.00  0.00     0.188 C 
BRANCH   2   3
ATOM      3  C   UNL     1      -5.100  -3.374   2.068  1.00  0.00     0.188 C 
BRANCH   3   4
ATOM      4  O   UNL     1      -4.988  -4.080   3.292  1.00  0.00    -0.376 OA
BRANCH   4   5
ATOM      5  C   UNL     1      -3.747  -4.091   3.990  1.00  0.00     0.202 C 
BRANCH   5   6
ATOM      6  C   UNL     1      -2.427  -4.409   3.250  1.00  0.00     0.261 C 
BRANCH   6   7
ATOM      7  O   UNL     1      -1.958  -3.447   2.265  1.00  0.00    -0.459 OA
BRANCH   7   8
ATOM      8  C   UNL     1      -1.938  -3.873   0.969  1.00  0.00     0.370 C 
ATOM      9  O   UNL     1      -2.261  -5.022   0.660  1.00  0.00    -0.245 OA
BRANCH   8  10
ATOM     10  C   UNL     1      -1.454  -2.846  -0.106  1.00  0.00     0.328 C 
BRANCH  10  11
ATOM     11  C   UNL     1      -1.228  -1.359   0.194  1.00  0.00     0.046 A 
ATOM     12  C   UNL     1       3.873  -0.771  -0.015  1.00  0.00     0.044 C 
ATOM     13  C   UNL     1       2.467  -0.254   0.054  1.00  0.00    -0.050 A 
ATOM     14  C   UNL     1       2.213   1.119   0.063  1.00  0.00     0.005 A 
ATOM     15  C   UNL     1       1.399  -1.169   0.108  1.00  0.00     0.014 A 
ATOM     16  C   UNL     1       0.911   1.609   0.162  1.00  0.00     0.027 A 
ATOM     17  C   UNL     1       0.070  -0.707   0.201  1.00  0.00     0.009 A 
ATOM     18  C   UNL     1      -0.125   0.675   0.248  1.00  0.00     0.046 A 
ATOM     19  N   UNL     1      -1.469   0.883   0.371  1.00  0.00    -0.361 N 
ATOM     20  C   UNL     1      -2.129  -0.316   0.358  1.00  0.00     0.094 A 
ATOM     21  H   UNL     1      -1.900   1.764   0.456  1.00  0.00     0.166 HD
ENDBRANCH  10  11
BRANCH  10  22
ATOM     22  N   UNL     1      -2.172  -3.088  -1.389  1.00  0.00    -0.316 N 
ATOM     23  C   UNL     1      -3.611  -2.848  -1.523  1.00  0.00     0.284 C 
ATOM     24  C   UNL     1      -1.468  -2.707  -2.611  1.00  0.00     0.284 C 
ATOM     25  H   UNL     1      -2.141  -4.101  -1.272  1.00  0.00     0.349 HD
ATOM     26  C   UNL     1      -4.067  -1.485  -2.098  1.00  0.00     0.178 C 
ATOM     27  C   UNL     1      -1.757  -1.279  -3.108  1.00  0.00     0.178 C 
ATOM     28  N   UNL     1      -3.201  -1.017  -3.179  1.00  0.00    -0.360 N 
BRANCH  28  29
ATOM     29  C   UNL     1      -3.576   0.119  -3.879  1.00  0.00     0.037 A 
ATOM     30  C   UNL     1      -3.774   1.366  -3.269  1.00  0.00     0.029 A 
ATOM     31  C   UNL     1      -3.748   0.013  -5.264  1.00  0.00     0.029 A 
ATOM     32  C   UNL     1      -4.149   2.476  -4.032  1.00  0.00     0.041 A 
ATOM     33  C   UNL     1      -4.132   1.113  -6.027  1.00  0.00     0.041 A 
ATOM     34  C   UNL     1      -4.329   2.336  -5.403  1.00  0.00     0.123 A 
ATOM     35  F   UNL     1      -4.697   3.396  -6.134  1.00  0.00    -0.207 F 
ENDBRANCH  28  29
ENDBRANCH  10  22
ENDBRANCH   8  10
ENDBRANCH   7   8
ENDBRANCH   6   7
ENDBRANCH   5   6
ENDBRANCH   4   5
ENDBRANCH   3   4
ENDBRANCH   2   3
ENDBRANCH   1   2
BRANCH   1  36
ATOM     36  C   UNL     1      -4.404  -0.602   3.885  1.00  0.00     0.188 C 
BRANCH  36  37
ATOM     37  C   UNL     1      -5.936  -0.623   3.881  1.00  0.00     0.188 C 
BRANCH  37  38
ATOM     38  O   UNL     1      -6.489  -0.532   2.577  1.00  0.00    -0.376 OA
BRANCH  38  39
ATOM     39  C   UNL     1      -6.831   0.729   2.025  1.00  0.00     0.202 C 
BRANCH  39  40
ATOM     40  C   UNL     1      -5.771   1.834   1.847  1.00  0.00     0.261 C 
BRANCH  40  41
ATOM     41  O   UNL     1      -4.952   2.186   2.970  1.00  0.00    -0.460 OA
BRANCH  41  42
ATOM     42  C   UNL     1      -5.563   2.615   4.096  1.00  0.00     0.338 C 
ATOM     43  O   UNL     1      -6.748   2.802   4.258  1.00  0.00    -0.246 OA
BRANCH  42  44
ATOM     44  C   UNL     1      -4.549   2.627   5.180  1.00  0.00     0.060 A 
ATOM     45  C   UNL     1      -4.772   1.837   6.315  1.00  0.00     0.016 A 
ATOM     46  C   UNL     1      -3.397   3.412   5.085  1.00  0.00     0.016 A 
ATOM     47  C   UNL     1      -3.870   1.865   7.378  1.00  0.00     0.010 A 
ATOM     48  C   UNL     1      -2.507   3.462   6.164  1.00  0.00     0.010 A 
ATOM     49  C   UNL     1      -2.764   2.722   7.332  1.00  0.00    -0.014 A 
BRANCH  49  50
ATOM     50  C   UNL     1      -2.030   3.015   8.588  1.00  0.00     0.031 A 
ATOM     51  C   UNL     1      -2.411   4.252   9.357  1.00  0.00     0.074 A 
ATOM     52  C   UNL     1      -1.092   2.181   9.070  1.00  0.00     0.049 A 
ATOM     53  N   UNL     1      -1.917   4.730  10.470  1.00  0.00    -0.248 NA
ATOM     54  C   UNL     1      -3.502   5.061   8.789  1.00  0.00     0.031 C 
ATOM     55  C   UNL     1      -0.673   0.929   8.445  1.00  0.00     0.029 A 
ATOM     56  N   UNL     1      -0.321   2.270  10.202  1.00  0.00    -0.354 N 
ATOM     57  C   UNL     1      -2.631   5.893  10.729  1.00  0.00     0.074 A 
ATOM     58  C   UNL     1      -3.566   6.070   9.642  1.00  0.00     0.031 C 
ATOM     59  C   UNL     1       0.289   0.369   9.199  1.00  0.00     0.029 A 
ATOM     60  C   UNL     1       0.575   1.239  10.339  1.00  0.00     0.049 A 
ATOM     61  H   UNL     1      -0.402   3.004  10.854  1.00  0.00     0.167 HD
ATOM     62  C   UNL     1      -2.523   6.733  11.786  1.00  0.00     0.037 A 
ATOM     63  C   UNL     1       1.529   1.037  11.270  1.00  0.00     0.037 A 
ATOM     64  C   UNL     1      -1.588   6.556  12.865  1.00  0.00     0.049 A 
ATOM     65  C   UNL     1       1.683   2.030  12.396  1.00  0.00     0.074 A 
ATOM     66  C   UNL     1      -1.404   7.344  13.986  1.00  0.00     0.029 A 
ATOM     67  N   UNL     1      -0.670   5.519  12.950  1.00  0.00    -0.354 N 
ATOM     68  N   UNL     1       0.991   3.116  12.648  1.00  0.00    -0.248 NA
ATOM     69  C   UNL     1       2.747   1.762  13.374  1.00  0.00     0.031 C 
ATOM     70  C   UNL     1      -0.332   6.822  14.716  1.00  0.00     0.029 A 
ATOM     71  C   UNL     1       0.103   5.664  14.091  1.00  0.00     0.049 A 
ATOM     72  H   UNL     1      -0.581   4.788  12.296  1.00  0.00     0.167 HD
ATOM     73  C   UNL     1       1.510   3.638  13.827  1.00  0.00     0.074 A 
ATOM     74  C   UNL     1       2.564   2.740  14.249  1.00  0.00     0.031 C 
ATOM     75  C   UNL     1       1.144   4.756  14.503  1.00  0.00     0.037 A 
BRANCH  62  76
ATOM     76  C   UNL     1      -3.416   7.941  11.805  1.00  0.00     0.064 A 
ATOM     77  C   UNL     1      -4.803   7.838  11.991  1.00  0.00     0.173 A 
ATOM     78  C   UNL     1      -2.871   9.226  11.655  1.00  0.00     0.173 A 
ATOM     79  F   UNL     1      -5.379   6.633  12.121  1.00  0.00    -0.203 F 
ATOM     80  C   UNL     1      -5.613   8.971  11.997  1.00  0.00     0.198 A 
ATOM     81  C   UNL     1      -3.679  10.359  11.697  1.00  0.00     0.198 A 
ATOM     82  F   UNL     1      -1.551   9.384  11.474  1.00  0.00    -0.203 F 
ATOM     83  F   UNL     1      -6.941   8.843  12.119  1.00  0.00    -0.200 F 
ATOM     84  C   UNL     1      -5.049  10.230  11.858  1.00  0.00     0.200 A 
ATOM     85  F   UNL     1      -3.130  11.575  11.576  1.00  0.00    -0.200 F 
ATOM     86  F   UNL     1      -5.829  11.320  11.871  1.00  0.00    -0.200 F 
ENDBRANCH  62  76
BRANCH  63  87
ATOM     87  C   UNL     1       2.425  -0.147  11.177  1.00  0.00     0.064 A 
ATOM     88  C   UNL     1       2.390  -1.164  12.141  1.00  0.00     0.173 A 
ATOM     89  C   UNL     1       3.361  -0.269  10.138  1.00  0.00     0.173 A 
ATOM     90  F   UNL     1       1.534  -1.082  13.170  1.00  0.00    -0.203 F 
ATOM     91  C   UNL     1       3.272  -2.243  12.084  1.00  0.00     0.198 A 
ATOM     92  C   UNL     1       4.218  -1.365  10.063  1.00  0.00     0.198 A 
ATOM     93  F   UNL     1       3.441   0.678   9.192  1.00  0.00    -0.203 F 
ATOM     94  F   UNL     1       3.255  -3.170  13.052  1.00  0.00    -0.200 F 
ATOM     95  C   UNL     1       4.180  -2.345  11.042  1.00  0.00     0.200 A 
ATOM     96  F   UNL     1       5.087  -1.465   9.048  1.00  0.00    -0.200 F 
ATOM     97  F   UNL     1       5.027  -3.383  10.987  1.00  0.00    -0.200 F 
ENDBRANCH  63  87
BRANCH  75  98
ATOM     98  C   UNL     1       1.850   5.045  15.800  1.00  0.00     0.064 A 
ATOM     99  C   UNL     1       3.200   5.425  15.844  1.00  0.00     0.173 A 
ATOM    100  C   UNL     1       1.152   4.970  17.016  1.00  0.00     0.173 A 
ATOM    101  F   UNL     1       3.917   5.503  14.713  1.00  0.00    -0.203 F 
ATOM    102  C   UNL     1       3.833   5.679  17.058  1.00  0.00     0.198 A 
ATOM    103  C   UNL     1       1.778   5.263  18.224  1.00  0.00     0.198 A 
ATOM    104  F   UNL     1      -0.144   4.624  17.032  1.00  0.00    -0.203 F 
ATOM    105  F   UNL     1       5.140   5.978  17.080  1.00  0.00    -0.200 F 
ATOM    106  C   UNL     1       3.121   5.605  18.246  1.00  0.00     0.200 A 
ATOM    107  F   UNL     1       1.081   5.212  19.368  1.00  0.00    -0.200 F 
ATOM    108  F   UNL     1       3.731   5.856  19.412  1.00  0.00    -0.200 F 
ENDBRANCH  75  98
ENDBRANCH  49  50
ENDBRANCH  42  44
ENDBRANCH  41  42
ENDBRANCH  40  41
ENDBRANCH  39  40
ENDBRANCH  38  39
ENDBRANCH  37  38
ENDBRANCH  36  37
ENDBRANCH   1  36
TORSDOF 23
