REMARK SMILES C[C@H]1[C@H](C(=O)OCCOCCOCCOCCOC(=O)c2ccc(-c3c4nc(c(-c5c(F)c(F)c(F)c(F)c5F)c5ccc([nH]5)c(-c5c(F)c(F)c(F)c(F)c5F)c5nc(c(-c6c(F)c(F)c(F)c(F)c6F)c6ccc3[nH]6)C=C5)C=C4)cc2)CCN1C(=O)Nc1ccc(F)c(Cl)c1
REMARK SMILES IDX 12 1 11 2 10 3 9 4 8 5 7 6 6 7 4 8 5 9 3 10 1 11 2 12 86 13
REMARK SMILES IDX 84 14 85 15 87 16 88 17 89 18 90 20 91 21 97 22 92 23 95 24
REMARK SMILES IDX 93 25 96 26 94 27 13 28 14 29 15 30 16 31 17 32 18 33 19 34
REMARK SMILES IDX 20 35 21 36 22 37 83 38 23 39 82 40 24 41 25 42 26 43 76 44
REMARK SMILES IDX 27 45 81 46 75 47 77 48 28 49 80 50 74 51 73 52 29 54 61 55
REMARK SMILES IDX 41 56 60 57 42 58 45 59 59 60 78 61 43 62 44 63 58 65 79 66
REMARK SMILES IDX 46 67 30 68 31 69 39 70 32 71 33 72 37 73 40 74 34 75 35 76
REMARK SMILES IDX 38 77 36 78 62 79 63 80 71 81 64 82 65 83 69 84 72 85 66 86
REMARK SMILES IDX 67 87 70 88 68 89 47 90 48 91 56 92 49 93 50 94 54 95 57 96
REMARK SMILES IDX 51 97 52 98 55 99 53 100
REMARK H PARENT 89 19 77 53 45 64
REMARK Flexibility Score: inf
ROOT
ATOM      1  O   UNL     1       1.385   2.512   3.617  1.00  0.00    -0.377 OA
ENDROOT
BRANCH   1   2
ATOM      2  C   UNL     1       1.876   2.412   2.295  1.00  0.00     0.188 C 
BRANCH   2   3
ATOM      3  C   UNL     1       1.659   3.668   1.424  1.00  0.00     0.188 C 
BRANCH   3   4
ATOM      4  O   UNL     1       0.489   4.477   1.539  1.00  0.00    -0.376 OA
BRANCH   4   5
ATOM      5  C   UNL     1      -0.326   4.362   2.690  1.00  0.00     0.202 C 
BRANCH   5   6
ATOM      6  C   UNL     1      -1.372   3.237   2.598  1.00  0.00     0.261 C 
BRANCH   6   7
ATOM      7  O   UNL     1      -0.998   2.095   1.795  1.00  0.00    -0.463 OA
BRANCH   7   8
ATOM      8  C   UNL     1      -1.204   2.233   0.460  1.00  0.00     0.311 C 
ATOM      9  O   UNL     1      -1.656   3.241  -0.074  1.00  0.00    -0.252 OA
BRANCH   8  10
ATOM     10  C   UNL     1      -0.995   0.955  -0.327  1.00  0.00     0.123 C 
ATOM     11  C   UNL     1       1.340   0.185  -0.795  1.00  0.00     0.032 C 
ATOM     12  C   UNL     1       0.105  -0.062   0.078  1.00  0.00     0.098 C 
ATOM     13  N   UNL     1      -0.508  -1.393  -0.135  1.00  0.00    -0.321 N 
ATOM     14  C   UNL     1      -2.290   0.161  -0.277  1.00  0.00     0.039 C 
ATOM     15  C   UNL     1      -1.859  -1.236  -0.648  1.00  0.00     0.122 C 
BRANCH  13  16
ATOM     16  C   UNL     1      -0.032  -2.676  -0.082  1.00  0.00     0.322 C 
ATOM     17  O   UNL     1      -0.747  -3.631  -0.407  1.00  0.00    -0.248 OA
ATOM     18  N   UNL     1       1.268  -2.974   0.131  1.00  0.00    -0.308 N 
ATOM     19  H   UNL     1       1.583  -3.713  -0.439  1.00  0.00     0.171 HD
BRANCH  18  20
ATOM     20  C   UNL     1       2.268  -2.481   0.966  1.00  0.00     0.044 A 
ATOM     21  C   UNL     1       3.599  -2.744   0.604  1.00  0.00     0.029 A 
ATOM     22  C   UNL     1       1.992  -1.849   2.168  1.00  0.00     0.049 A 
ATOM     23  C   UNL     1       4.654  -2.291   1.397  1.00  0.00     0.043 A 
ATOM     24  C   UNL     1       3.046  -1.469   2.996  1.00  0.00     0.078 A 
ATOM     25  C   UNL     1       4.371  -1.649   2.596  1.00  0.00     0.141 A 
ATOM     26  Cl  UNL     1       2.649  -0.877   4.550  1.00  0.00    -0.081 Cl
ATOM     27  F   UNL     1       5.391  -1.241   3.366  1.00  0.00    -0.205 F 
ENDBRANCH  18  20
ENDBRANCH  13  16
ENDBRANCH   8  10
ENDBRANCH   7   8
ENDBRANCH   6   7
ENDBRANCH   5   6
ENDBRANCH   4   5
ENDBRANCH   3   4
ENDBRANCH   2   3
ENDBRANCH   1   2
BRANCH   1  28
ATOM     28  C   UNL     1       2.330   2.694   4.654  1.00  0.00     0.188 C 
BRANCH  28  29
ATOM     29  C   UNL     1       3.303   3.878   4.565  1.00  0.00     0.188 C 
BRANCH  29  30
ATOM     30  O   UNL     1       3.920   4.135   3.325  1.00  0.00    -0.376 OA
BRANCH  30  31
ATOM     31  C   UNL     1       5.040   3.446   2.804  1.00  0.00     0.202 C 
BRANCH  31  32
ATOM     32  C   UNL     1       5.858   2.366   3.521  1.00  0.00     0.261 C 
BRANCH  32  33
ATOM     33  O   UNL     1       5.189   1.639   4.544  1.00  0.00    -0.460 OA
BRANCH  33  34
ATOM     34  C   UNL     1       5.700   1.820   5.784  1.00  0.00     0.338 C 
ATOM     35  O   UNL     1       6.620   2.552   6.115  1.00  0.00    -0.246 OA
BRANCH  34  36
ATOM     36  C   UNL     1       4.862   1.113   6.757  1.00  0.00     0.060 A 
ATOM     37  C   UNL     1       4.110   1.881   7.650  1.00  0.00     0.016 A 
ATOM     38  C   UNL     1       4.859  -0.280   6.827  1.00  0.00     0.016 A 
ATOM     39  C   UNL     1       3.380   1.253   8.652  1.00  0.00     0.010 A 
ATOM     40  C   UNL     1       4.102  -0.911   7.817  1.00  0.00     0.010 A 
ATOM     41  C   UNL     1       3.411  -0.143   8.773  1.00  0.00    -0.014 A 
BRANCH  41  42
ATOM     42  C   UNL     1       2.965  -0.744  10.055  1.00  0.00     0.031 A 
ATOM     43  C   UNL     1       4.024  -1.154  11.045  1.00  0.00     0.074 A 
ATOM     44  C   UNL     1       1.664  -0.817  10.389  1.00  0.00     0.049 A 
ATOM     45  N   UNL     1       3.895  -1.598  12.270  1.00  0.00    -0.248 NA
ATOM     46  C   UNL     1       5.422  -1.050  10.592  1.00  0.00     0.031 C 
ATOM     47  C   UNL     1       0.544  -0.431   9.534  1.00  0.00     0.029 A 
ATOM     48  N   UNL     1       1.071  -1.226  11.558  1.00  0.00    -0.354 N 
ATOM     49  C   UNL     1       5.189  -1.822  12.723  1.00  0.00     0.074 A 
ATOM     50  C   UNL     1       6.084  -1.532  11.629  1.00  0.00     0.031 C 
ATOM     51  C   UNL     1      -0.604  -0.607  10.214  1.00  0.00     0.029 A 
ATOM     52  C   UNL     1      -0.299  -1.130  11.546  1.00  0.00     0.049 A 
ATOM     53  H   UNL     1       1.580  -1.558  12.332  1.00  0.00     0.167 HD
ATOM     54  C   UNL     1       5.603  -2.202  13.954  1.00  0.00     0.037 A 
ATOM     55  C   UNL     1      -1.197  -1.428  12.505  1.00  0.00     0.037 A 
ATOM     56  C   UNL     1       4.721  -2.478  15.053  1.00  0.00     0.049 A 
ATOM     57  C   UNL     1      -0.712  -1.907  13.853  1.00  0.00     0.074 A 
ATOM     58  C   UNL     1       5.044  -2.857  16.343  1.00  0.00     0.029 A 
ATOM     59  N   UNL     1       3.338  -2.409  14.987  1.00  0.00    -0.354 N 
ATOM     60  N   UNL     1       0.514  -2.070  14.287  1.00  0.00    -0.248 NA
ATOM     61  C   UNL     1      -1.744  -2.228  14.850  1.00  0.00     0.031 C 
ATOM     62  C   UNL     1       3.853  -3.069  17.044  1.00  0.00     0.029 A 
ATOM     63  C   UNL     1       2.791  -2.761  16.209  1.00  0.00     0.049 A 
ATOM     64  H   UNL     1       2.822  -2.147  14.190  1.00  0.00     0.167 HD
ATOM     65  C   UNL     1       0.402  -2.474  15.613  1.00  0.00     0.074 A 
ATOM     66  C   UNL     1      -1.013  -2.515  15.917  1.00  0.00     0.031 C 
ATOM     67  C   UNL     1       1.380  -2.783  16.501  1.00  0.00     0.037 A 
BRANCH  54  68
ATOM     68  C   UNL     1       7.082  -2.355  14.160  1.00  0.00     0.064 A 
ATOM     69  C   UNL     1       7.944  -1.247  14.175  1.00  0.00     0.173 A 
ATOM     70  C   UNL     1       7.643  -3.627  14.344  1.00  0.00     0.173 A 
ATOM     71  F   UNL     1       7.459  -0.011  13.980  1.00  0.00    -0.203 F 
ATOM     72  C   UNL     1       9.317  -1.411  14.332  1.00  0.00     0.198 A 
ATOM     73  C   UNL     1       9.012  -3.784  14.536  1.00  0.00     0.198 A 
ATOM     74  F   UNL     1       6.863  -4.718  14.335  1.00  0.00    -0.203 F 
ATOM     75  F   UNL     1      10.128  -0.345  14.280  1.00  0.00    -0.200 F 
ATOM     76  C   UNL     1       9.849  -2.678  14.520  1.00  0.00     0.200 A 
ATOM     77  F   UNL     1       9.524  -5.007  14.727  1.00  0.00    -0.200 F 
ATOM     78  F   UNL     1      11.171  -2.834  14.674  1.00  0.00    -0.200 F 
ENDBRANCH  54  68
BRANCH  55  79
ATOM     79  C   UNL     1      -2.654  -1.273  12.244  1.00  0.00     0.064 A 
ATOM     80  C   UNL     1      -3.418  -0.314  12.926  1.00  0.00     0.173 A 
ATOM     81  C   UNL     1      -3.323  -2.116  11.345  1.00  0.00     0.173 A 
ATOM     82  F   UNL     1      -2.831   0.498  13.818  1.00  0.00    -0.203 F 
ATOM     83  C   UNL     1      -4.796  -0.226  12.741  1.00  0.00     0.198 A 
ATOM     84  C   UNL     1      -4.696  -2.006  11.138  1.00  0.00     0.198 A 
ATOM     85  F   UNL     1      -2.641  -3.054  10.670  1.00  0.00    -0.203 F 
ATOM     86  F   UNL     1      -5.510   0.657  13.453  1.00  0.00    -0.200 F 
ATOM     87  C   UNL     1      -5.434  -1.069  11.844  1.00  0.00     0.200 A 
ATOM     88  F   UNL     1      -5.307  -2.818  10.264  1.00  0.00    -0.200 F 
ATOM     89  F   UNL     1      -6.760  -0.988  11.672  1.00  0.00    -0.200 F 
ENDBRANCH  55  79
BRANCH  67  90
ATOM     90  C   UNL     1       0.963  -3.144  17.899  1.00  0.00     0.064 A 
ATOM     91  C   UNL     1       0.295  -4.343  18.187  1.00  0.00     0.173 A 
ATOM     92  C   UNL     1       1.271  -2.292  18.971  1.00  0.00     0.173 A 
ATOM     93  F   UNL     1      -0.031  -5.190  17.198  1.00  0.00    -0.203 F 
ATOM     94  C   UNL     1      -0.082  -4.658  19.491  1.00  0.00     0.198 A 
ATOM     95  C   UNL     1       0.925  -2.627  20.278  1.00  0.00     0.198 A 
ATOM     96  F   UNL     1       1.921  -1.139  18.755  1.00  0.00    -0.203 F 
ATOM     97  F   UNL     1      -0.771  -5.782  19.733  1.00  0.00    -0.200 F 
ATOM     98  C   UNL     1       0.239  -3.804  20.535  1.00  0.00     0.200 A 
ATOM     99  F   UNL     1       1.254  -1.810  21.287  1.00  0.00    -0.200 F 
ATOM    100  F   UNL     1      -0.119  -4.112  21.789  1.00  0.00    -0.200 F 
ENDBRANCH  67  90
ENDBRANCH  41  42
ENDBRANCH  34  36
ENDBRANCH  33  34
ENDBRANCH  32  33
ENDBRANCH  31  32
ENDBRANCH  30  31
ENDBRANCH  29  30
ENDBRANCH  28  29
ENDBRANCH   1  28
TORSDOF 22
