REMARK SMILES O=C(CNC(=O)N1CC(OCCOCCOCCOCCOC(=O)c2ccc(-c3c4nc(c(-c5c(F)c(F)c(F)c(F)c5F)c5ccc([nH]5)c(-c5c(F)c(F)c(F)c(F)c5F)c5nc(c(-c6c(F)c(F)c(F)c(F)c6F)c6ccc3[nH]6)C=C5)C=C4)cc2)=Nc2ccccc21)N[C@H](C(=O)[O-])c1ccccc1
REMARK SMILES IDX 15 1 14 2 13 3 12 4 11 5 10 6 9 7 7 8 8 9 94 10 89 11 93 12
REMARK SMILES IDX 88 13 90 14 92 15 91 16 5 17 4 18 6 20 3 21 2 22 1 23 95 24
REMARK SMILES IDX 96 26 100 27 101 28 105 29 102 30 104 31 103 32 97 33 98 34
REMARK SMILES IDX 99 35 16 36 17 37 18 38 19 39 20 40 21 41 22 42 23 43 24 44
REMARK SMILES IDX 25 45 26 46 87 47 27 48 86 49 28 50 29 51 30 52 80 53 31 54
REMARK SMILES IDX 85 55 79 56 81 57 32 58 84 59 78 60 77 61 33 63 65 64 45 65
REMARK SMILES IDX 64 66 46 67 49 68 63 69 82 70 47 71 48 72 62 74 83 75 50 76
REMARK SMILES IDX 34 77 35 78 43 79 36 80 37 81 41 82 44 83 38 84 39 85 42 86
REMARK SMILES IDX 40 87 66 88 67 89 75 90 68 91 69 92 73 93 76 94 70 95 71 96
REMARK SMILES IDX 74 97 72 98 51 99 52 100 60 101 53 102 54 103 58 104 61 105
REMARK SMILES IDX 55 106 56 107 59 108 57 109
REMARK H PARENT 4 19 95 25 81 62 49 73
REMARK Flexibility Score: inf
ROOT
ATOM      1  C   UNL     1       0.741  -4.065  -4.040  1.00  0.00     0.188 C 
ENDROOT
BRANCH   1   2
ATOM      2  C   UNL     1      -0.031  -3.202  -5.039  1.00  0.00     0.188 C 
BRANCH   2   3
ATOM      3  O   UNL     1      -1.155  -3.710  -5.749  1.00  0.00    -0.376 OA
BRANCH   3   4
ATOM      4  C   UNL     1      -1.546  -5.065  -5.622  1.00  0.00     0.201 C 
BRANCH   4   5
ATOM      5  C   UNL     1      -0.918  -6.059  -6.614  1.00  0.00     0.259 C 
BRANCH   5   6
ATOM      6  O   UNL     1       0.522  -6.141  -6.603  1.00  0.00    -0.477 OA
BRANCH   6   7
ATOM      7  C   UNL     1       1.188  -5.167  -7.271  1.00  0.00     0.209 C 
ATOM      8  N   UNL     1       3.213  -3.834  -6.916  1.00  0.00    -0.283 N 
ATOM      9  C   UNL     1       2.682  -5.194  -7.061  1.00  0.00     0.224 C 
ATOM     10  C   UNL     1       2.595  -2.849  -7.764  1.00  0.00     0.072 A 
ATOM     11  C   UNL     1       1.309  -3.124  -8.300  1.00  0.00     0.091 A 
ATOM     12  C   UNL     1       3.184  -1.616  -8.062  1.00  0.00     0.029 A 
ATOM     13  N   UNL     1       0.577  -4.276  -7.975  1.00  0.00    -0.214 NA
ATOM     14  C   UNL     1       0.609  -2.135  -8.997  1.00  0.00     0.030 A 
ATOM     15  C   UNL     1       2.467  -0.631  -8.753  1.00  0.00     0.002 A 
ATOM     16  C   UNL     1       1.174  -0.882  -9.203  1.00  0.00     0.002 A 
BRANCH   8  17
ATOM     17  C   UNL     1       4.357  -3.713  -6.165  1.00  0.00     0.322 C 
ATOM     18  N   UNL     1       4.619  -2.601  -5.437  1.00  0.00    -0.329 N 
ATOM     19  H   UNL     1       5.560  -2.496  -5.168  1.00  0.00     0.165 HD
ATOM     20  O   UNL     1       5.149  -4.648  -6.025  1.00  0.00    -0.248 OA
BRANCH  18  21
ATOM     21  C   UNL     1       3.734  -1.538  -4.988  1.00  0.00     0.218 C 
BRANCH  21  22
ATOM     22  C   UNL     1       3.626  -1.337  -3.470  1.00  0.00     0.240 C 
ATOM     23  O   UNL     1       3.048  -0.351  -3.011  1.00  0.00    -0.273 OA
ATOM     24  N   UNL     1       4.076  -2.349  -2.652  1.00  0.00    -0.342 N 
ATOM     25  H   UNL     1       4.564  -3.116  -3.031  1.00  0.00     0.164 HD
BRANCH  24  26
ATOM     26  C   UNL     1       3.821  -2.271  -1.204  1.00  0.00     0.158 C 
BRANCH  26  27
ATOM     27  C   UNL     1       3.877  -3.637  -0.514  1.00  0.00    -0.020 A 
ATOM     28  C   UNL     1       3.446  -4.798  -1.183  1.00  0.00     0.006 A 
ATOM     29  C   UNL     1       4.228  -3.772   0.843  1.00  0.00     0.006 A 
ATOM     30  C   UNL     1       3.398  -6.037  -0.535  1.00  0.00     0.000 A 
ATOM     31  C   UNL     1       4.184  -5.011   1.490  1.00  0.00     0.000 A 
ATOM     32  C   UNL     1       3.771  -6.144   0.800  1.00  0.00     0.000 A 
ENDBRANCH  26  27
BRANCH  26  33
ATOM     33  C   UNL     1       4.691  -1.181  -0.535  1.00  0.00     0.068 C 
ATOM     34  O   UNL     1       4.514  -0.700   0.576  1.00  0.00    -0.548 OA
ATOM     35  O   UNL     1       5.780  -0.806  -1.243  1.00  0.00    -0.548 OA
ENDBRANCH  26  33
ENDBRANCH  24  26
ENDBRANCH  21  22
ENDBRANCH  18  21
ENDBRANCH   8  17
ENDBRANCH   6   7
ENDBRANCH   5   6
ENDBRANCH   4   5
ENDBRANCH   3   4
ENDBRANCH   2   3
ENDBRANCH   1   2
BRANCH   1  36
ATOM     36  O   UNL     1      -0.063  -4.764  -3.107  1.00  0.00    -0.377 OA
BRANCH  36  37
ATOM     37  C   UNL     1      -0.413  -4.051  -1.932  1.00  0.00     0.188 C 
BRANCH  37  38
ATOM     38  C   UNL     1      -1.491  -2.968  -2.102  1.00  0.00     0.188 C 
BRANCH  38  39
ATOM     39  O   UNL     1      -1.098  -1.680  -2.572  1.00  0.00    -0.376 OA
BRANCH  39  40
ATOM     40  C   UNL     1       0.077  -1.072  -2.041  1.00  0.00     0.202 C 
BRANCH  40  41
ATOM     41  C   UNL     1       0.044  -0.789  -0.541  1.00  0.00     0.261 C 
BRANCH  41  42
ATOM     42  O   UNL     1       0.260  -2.022   0.170  1.00  0.00    -0.460 OA
BRANCH  42  43
ATOM     43  C   UNL     1      -0.526  -2.216   1.252  1.00  0.00     0.338 C 
ATOM     44  O   UNL     1      -1.240  -1.405   1.809  1.00  0.00    -0.246 OA
BRANCH  43  45
ATOM     45  C   UNL     1      -0.571  -3.664   1.522  1.00  0.00     0.060 A 
ATOM     46  C   UNL     1      -1.789  -4.324   1.325  1.00  0.00     0.016 A 
ATOM     47  C   UNL     1       0.549  -4.360   1.973  1.00  0.00     0.016 A 
ATOM     48  C   UNL     1      -1.900  -5.683   1.615  1.00  0.00     0.010 A 
ATOM     49  C   UNL     1       0.433  -5.721   2.280  1.00  0.00     0.010 A 
ATOM     50  C   UNL     1      -0.803  -6.378   2.140  1.00  0.00    -0.014 A 
BRANCH  50  51
ATOM     51  C   UNL     1      -1.026  -7.711   2.754  1.00  0.00     0.031 A 
ATOM     52  C   UNL     1      -1.192  -7.786   4.248  1.00  0.00     0.074 A 
ATOM     53  C   UNL     1      -1.143  -8.824   2.008  1.00  0.00     0.049 A 
ATOM     54  N   UNL     1      -1.441  -8.821   5.010  1.00  0.00    -0.248 NA
ATOM     55  C   UNL     1      -1.051  -6.519   4.985  1.00  0.00     0.031 C 
ATOM     56  C   UNL     1      -1.017  -8.887   0.554  1.00  0.00     0.029 A 
ATOM     57  N   UNL     1      -1.404 -10.120   2.381  1.00  0.00    -0.354 N 
ATOM     58  C   UNL     1      -1.480  -8.330   6.309  1.00  0.00     0.074 A 
ATOM     59  C   UNL     1      -1.185  -6.917   6.240  1.00  0.00     0.031 C 
ATOM     60  C   UNL     1      -1.206 -10.158   0.156  1.00  0.00     0.029 A 
ATOM     61  C   UNL     1      -1.453 -10.999   1.327  1.00  0.00     0.049 A 
ATOM     62  H   UNL     1      -1.543 -10.393   3.317  1.00  0.00     0.167 HD
ATOM     63  C   UNL     1      -1.758  -8.991   7.456  1.00  0.00     0.037 A 
ATOM     64  C   UNL     1      -1.671 -12.329   1.316  1.00  0.00     0.037 A 
ATOM     65  C   UNL     1      -2.077 -10.390   7.529  1.00  0.00     0.049 A 
ATOM     66  C   UNL     1      -1.944 -13.051   2.612  1.00  0.00     0.074 A 
ATOM     67  C   UNL     1      -2.422 -11.140   8.639  1.00  0.00     0.029 A 
ATOM     68  N   UNL     1      -2.088 -11.252   6.443  1.00  0.00    -0.354 N 
ATOM     69  N   UNL     1      -2.031 -12.569   3.828  1.00  0.00    -0.248 NA
ATOM     70  C   UNL     1      -2.154 -14.505   2.531  1.00  0.00     0.031 C 
ATOM     71  C   UNL     1      -2.600 -12.466   8.231  1.00  0.00     0.029 A 
ATOM     72  C   UNL     1      -2.407 -12.533   6.861  1.00  0.00     0.049 A 
ATOM     73  H   UNL     1      -1.897 -10.991   5.513  1.00  0.00     0.167 HD
ATOM     74  C   UNL     1      -2.325 -13.650   4.650  1.00  0.00     0.074 A 
ATOM     75  C   UNL     1      -2.420 -14.813   3.793  1.00  0.00     0.031 C 
ATOM     76  C   UNL     1      -2.498 -13.679   5.994  1.00  0.00     0.037 A 
BRANCH  63  77
ATOM     77  C   UNL     1      -1.720  -8.202   8.731  1.00  0.00     0.064 A 
ATOM     78  C   UNL     1      -2.710  -7.258   9.042  1.00  0.00     0.173 A 
ATOM     79  C   UNL     1      -0.688  -8.405   9.659  1.00  0.00     0.173 A 
ATOM     80  F   UNL     1      -3.707  -7.017   8.178  1.00  0.00    -0.203 F 
ATOM     81  C   UNL     1      -2.653  -6.526  10.224  1.00  0.00     0.198 A 
ATOM     82  C   UNL     1      -0.650  -7.691  10.853  1.00  0.00     0.198 A 
ATOM     83  F   UNL     1       0.282  -9.297   9.409  1.00  0.00    -0.203 F 
ATOM     84  F   UNL     1      -3.582  -5.594  10.478  1.00  0.00    -0.200 F 
ATOM     85  C   UNL     1      -1.627  -6.747  11.131  1.00  0.00     0.200 A 
ATOM     86  F   UNL     1       0.337  -7.911  11.733  1.00  0.00    -0.200 F 
ATOM     87  F   UNL     1      -1.576  -6.043  12.270  1.00  0.00    -0.200 F 
ENDBRANCH  63  77
BRANCH  64  88
ATOM     88  C   UNL     1      -1.647 -13.077   0.031  1.00  0.00     0.064 A 
ATOM     89  C   UNL     1      -2.818 -13.625  -0.510  1.00  0.00     0.173 A 
ATOM     90  C   UNL     1      -0.447 -13.284  -0.665  1.00  0.00     0.173 A 
ATOM     91  F   UNL     1      -3.985 -13.478   0.135  1.00  0.00    -0.203 F 
ATOM     92  C   UNL     1      -2.788 -14.367  -1.689  1.00  0.00     0.198 A 
ATOM     93  C   UNL     1      -0.422 -14.006  -1.857  1.00  0.00     0.198 A 
ATOM     94  F   UNL     1       0.702 -12.787  -0.186  1.00  0.00    -0.203 F 
ATOM     95  F   UNL     1      -3.914 -14.920  -2.160  1.00  0.00    -0.200 F 
ATOM     96  C   UNL     1      -1.591 -14.553  -2.365  1.00  0.00     0.200 A 
ATOM     97  F   UNL     1       0.736 -14.178  -2.510  1.00  0.00    -0.200 F 
ATOM     98  F   UNL     1      -1.562 -15.268  -3.497  1.00  0.00    -0.200 F 
ENDBRANCH  64  88
BRANCH  76  99
ATOM     99  C   UNL     1      -2.821 -15.002   6.623  1.00  0.00     0.064 A 
ATOM    100  C   UNL     1      -1.848 -16.002   6.766  1.00  0.00     0.173 A 
ATOM    101  C   UNL     1      -4.101 -15.252   7.141  1.00  0.00     0.173 A 
ATOM    102  F   UNL     1      -0.613 -15.815   6.276  1.00  0.00    -0.203 F 
ATOM    103  C   UNL     1      -2.150 -17.211   7.386  1.00  0.00     0.198 A 
ATOM    104  C   UNL     1      -4.392 -16.452   7.785  1.00  0.00     0.198 A 
ATOM    105  F   UNL     1      -5.066 -14.325   7.038  1.00  0.00    -0.203 F 
ATOM    106  F   UNL     1      -1.214 -18.166   7.478  1.00  0.00    -0.200 F 
ATOM    107  C   UNL     1      -3.418 -17.432   7.902  1.00  0.00     0.200 A 
ATOM    108  F   UNL     1      -5.614 -16.659   8.294  1.00  0.00    -0.200 F 
ATOM    109  F   UNL     1      -3.703 -18.593   8.508  1.00  0.00    -0.200 F 
ENDBRANCH  76  99
ENDBRANCH  50  51
ENDBRANCH  43  45
ENDBRANCH  42  43
ENDBRANCH  41  42
ENDBRANCH  40  41
ENDBRANCH  39  40
ENDBRANCH  38  39
ENDBRANCH  37  38
ENDBRANCH  36  37
ENDBRANCH   1  36
TORSDOF 25
