REMARK SMILES Cc1nc(N2CCN(c3ccccc3)CC2)nc(OCC(=O)OCCOCCOCCOCCOC(=O)c2ccc(-c3c4nc(c(-c5c(F)c(F)c(F)c(F)c5F)c5ccc([nH]5)c(-c5c(F)c(F)c(F)c(F)c5F)c5nc(c(-c6c(F)c(F)c(F)c(F)c6F)c6ccc3[nH]6)C=C5)C=C4)cc2)c1C
REMARK SMILES IDX 28 1 27 2 26 3 25 4 24 5 23 6 21 7 22 8 20 9 19 10 18 11
REMARK SMILES IDX 1 12 2 13 3 14 101 15 4 16 102 17 17 18 5 19 6 20 16 21 7 22
REMARK SMILES IDX 15 23 8 24 9 25 10 26 14 27 11 28 13 29 12 30 29 31 30 32
REMARK SMILES IDX 31 33 32 34 33 35 34 36 35 37 36 38 37 39 38 40 39 41 100 42
REMARK SMILES IDX 40 43 99 44 41 45 42 46 43 47 93 48 44 49 98 50 92 51 94 52
REMARK SMILES IDX 45 53 97 54 91 55 90 56 46 58 78 59 58 60 77 61 59 62 62 63
REMARK SMILES IDX 76 64 95 65 60 66 61 67 75 69 96 70 63 71 47 72 48 73 56 74
REMARK SMILES IDX 49 75 50 76 54 77 57 78 51 79 52 80 55 81 53 82 79 83 80 84
REMARK SMILES IDX 88 85 81 86 82 87 86 88 89 89 83 90 84 91 87 92 85 93 64 94
REMARK SMILES IDX 65 95 73 96 66 97 67 98 71 99 74 100 68 101 69 102 72 103
REMARK SMILES IDX 70 104
REMARK H PARENT 94 57 62 68
REMARK Flexibility Score: inf
ROOT
ATOM      1  C   UNL     1      -0.306  -1.668   2.808  1.00  0.00     0.188 C 
ENDROOT
BRANCH   1   2
ATOM      2  C   UNL     1      -0.873  -0.237   2.960  1.00  0.00     0.188 C 
BRANCH   2   3
ATOM      3  O   UNL     1      -0.931   0.251   4.277  1.00  0.00    -0.376 OA
BRANCH   3   4
ATOM      4  C   UNL     1      -2.071   0.039   5.079  1.00  0.00     0.202 C 
BRANCH   4   5
ATOM      5  C   UNL     1      -3.081  -1.114   4.894  1.00  0.00     0.261 C 
BRANCH   5   6
ATOM      6  O   UNL     1      -3.049  -1.910   3.695  1.00  0.00    -0.461 OA
BRANCH   6   7
ATOM      7  C   UNL     1      -3.843  -1.536   2.658  1.00  0.00     0.344 C 
ATOM      8  O   UNL     1      -4.541  -0.527   2.668  1.00  0.00    -0.248 OA
BRANCH   7   9
ATOM      9  C   UNL     1      -3.831  -2.535   1.472  1.00  0.00     0.353 C 
BRANCH   9  10
ATOM     10  O   UNL     1      -2.733  -3.323   1.083  1.00  0.00    -0.465 OA
BRANCH  10  11
ATOM     11  C   UNL     1      -1.723  -3.005   0.232  1.00  0.00     0.221 A 
ATOM     12  C   UNL     1       0.463  -0.432  -1.425  1.00  0.00     0.067 C 
ATOM     13  C   UNL     1      -0.124  -1.718  -0.903  1.00  0.00     0.050 A 
ATOM     14  N   UNL     1       0.740  -2.762  -0.914  1.00  0.00    -0.218 NA
ATOM     15  C   UNL     1      -1.416  -1.788  -0.359  1.00  0.00     0.033 A 
ATOM     16  C   UNL     1       0.317  -3.924  -0.416  1.00  0.00     0.229 A 
ATOM     17  C   UNL     1      -2.341  -0.616  -0.444  1.00  0.00     0.052 C 
ATOM     18  N   UNL     1      -0.890  -4.066   0.140  1.00  0.00    -0.177 NA
BRANCH  16  19
ATOM     19  N   UNL     1       1.168  -4.999  -0.351  1.00  0.00    -0.337 N 
ATOM     20  C   UNL     1       2.539  -4.792   0.110  1.00  0.00     0.141 C 
ATOM     21  C   UNL     1       1.014  -6.043  -1.365  1.00  0.00     0.141 C 
ATOM     22  C   UNL     1       3.100  -6.114   0.684  1.00  0.00     0.138 C 
ATOM     23  C   UNL     1       1.617  -7.380  -0.858  1.00  0.00     0.138 C 
ATOM     24  N   UNL     1       2.976  -7.174  -0.320  1.00  0.00    -0.368 N 
BRANCH  24  25
ATOM     25  C   UNL     1       3.901  -8.194  -0.382  1.00  0.00     0.037 A 
ATOM     26  C   UNL     1       4.346  -8.892   0.746  1.00  0.00     0.026 A 
ATOM     27  C   UNL     1       4.467  -8.521  -1.621  1.00  0.00     0.026 A 
ATOM     28  C   UNL     1       5.331  -9.882   0.639  1.00  0.00     0.002 A 
ATOM     29  C   UNL     1       5.464  -9.492  -1.733  1.00  0.00     0.002 A 
ATOM     30  C   UNL     1       5.896 -10.175  -0.600  1.00  0.00     0.000 A 
ENDBRANCH  24  25
ENDBRANCH  16  19
ENDBRANCH  10  11
ENDBRANCH   9  10
ENDBRANCH   7   9
ENDBRANCH   6   7
ENDBRANCH   5   6
ENDBRANCH   4   5
ENDBRANCH   3   4
ENDBRANCH   2   3
ENDBRANCH   1   2
BRANCH   1  31
ATOM     31  O   UNL     1       0.661  -2.258   3.662  1.00  0.00    -0.377 OA
BRANCH  31  32
ATOM     32  C   UNL     1       1.120  -1.521   4.767  1.00  0.00     0.188 C 
BRANCH  32  33
ATOM     33  C   UNL     1       2.054  -0.354   4.416  1.00  0.00     0.188 C 
BRANCH  33  34
ATOM     34  O   UNL     1       1.853   0.163   3.108  1.00  0.00    -0.376 OA
BRANCH  34  35
ATOM     35  C   UNL     1       2.844  -0.106   2.126  1.00  0.00     0.202 C 
BRANCH  35  36
ATOM     36  C   UNL     1       3.097  -1.558   1.703  1.00  0.00     0.261 C 
BRANCH  36  37
ATOM     37  O   UNL     1       3.288  -2.515   2.749  1.00  0.00    -0.460 OA
BRANCH  37  38
ATOM     38  C   UNL     1       4.429  -2.471   3.470  1.00  0.00     0.338 C 
ATOM     39  O   UNL     1       5.362  -1.725   3.339  1.00  0.00    -0.246 OA
BRANCH  38  40
ATOM     40  C   UNL     1       4.191  -3.389   4.610  1.00  0.00     0.060 A 
ATOM     41  C   UNL     1       4.124  -2.842   5.895  1.00  0.00     0.016 A 
ATOM     42  C   UNL     1       3.922  -4.745   4.395  1.00  0.00     0.016 A 
ATOM     43  C   UNL     1       3.743  -3.644   6.966  1.00  0.00     0.010 A 
ATOM     44  C   UNL     1       3.588  -5.562   5.477  1.00  0.00     0.010 A 
ATOM     45  C   UNL     1       3.510  -5.012   6.766  1.00  0.00    -0.014 A 
BRANCH  45  46
ATOM     46  C   UNL     1       3.472  -5.884   7.958  1.00  0.00     0.031 A 
ATOM     47  C   UNL     1       4.792  -6.380   8.472  1.00  0.00     0.074 A 
ATOM     48  C   UNL     1       2.327  -6.142   8.613  1.00  0.00     0.049 A 
ATOM     49  N   UNL     1       5.061  -7.056   9.556  1.00  0.00    -0.248 NA
ATOM     50  C   UNL     1       5.975  -6.049   7.657  1.00  0.00     0.031 C 
ATOM     51  C   UNL     1       1.002  -5.670   8.218  1.00  0.00     0.029 A 
ATOM     52  N   UNL     1       2.104  -6.852   9.765  1.00  0.00    -0.354 N 
ATOM     53  C   UNL     1       6.441  -7.203   9.564  1.00  0.00     0.074 A 
ATOM     54  C   UNL     1       6.953  -6.595   8.360  1.00  0.00     0.031 C 
ATOM     55  C   UNL     1       0.102  -6.099   9.121  1.00  0.00     0.029 A 
ATOM     56  C   UNL     1       0.786  -6.886  10.147  1.00  0.00     0.049 A 
ATOM     57  H   UNL     1       2.823  -7.296  10.271  1.00  0.00     0.167 HD
ATOM     58  C   UNL     1       7.215  -7.776  10.512  1.00  0.00     0.037 A 
ATOM     59  C   UNL     1       0.210  -7.488  11.207  1.00  0.00     0.037 A 
ATOM     60  C   UNL     1       6.693  -8.400  11.693  1.00  0.00     0.049 A 
ATOM     61  C   UNL     1       1.086  -8.223  12.193  1.00  0.00     0.074 A 
ATOM     62  C   UNL     1       7.384  -9.027  12.711  1.00  0.00     0.029 A 
ATOM     63  N   UNL     1       5.343  -8.486  12.004  1.00  0.00    -0.354 N 
ATOM     64  N   UNL     1       2.394  -8.328  12.219  1.00  0.00    -0.248 NA
ATOM     65  C   UNL     1       0.411  -8.921  13.297  1.00  0.00     0.031 C 
ATOM     66  C   UNL     1       6.449  -9.544  13.611  1.00  0.00     0.029 A 
ATOM     67  C   UNL     1       5.178  -9.186  13.185  1.00  0.00     0.049 A 
ATOM     68  H   UNL     1       4.612  -8.105  11.465  1.00  0.00     0.167 HD
ATOM     69  C   UNL     1       2.699  -9.078  13.347  1.00  0.00     0.074 A 
ATOM     70  C   UNL     1       1.440  -9.393  13.990  1.00  0.00     0.031 C 
ATOM     71  C   UNL     1       3.911  -9.474  13.809  1.00  0.00     0.037 A 
BRANCH  58  72
ATOM     72  C   UNL     1       8.697  -7.767  10.295  1.00  0.00     0.064 A 
ATOM     73  C   UNL     1       9.444  -6.583  10.397  1.00  0.00     0.173 A 
ATOM     74  C   UNL     1       9.383  -8.957  10.018  1.00  0.00     0.173 A 
ATOM     75  F   UNL     1       8.830  -5.415  10.636  1.00  0.00    -0.203 F 
ATOM     76  C   UNL     1      10.824  -6.591  10.217  1.00  0.00     0.198 A 
ATOM     77  C   UNL     1      10.767  -8.966   9.868  1.00  0.00     0.198 A 
ATOM     78  F   UNL     1       8.713 -10.114   9.903  1.00  0.00    -0.203 F 
ATOM     79  F   UNL     1      11.513  -5.444  10.281  1.00  0.00    -0.200 F 
ATOM     80  C   UNL     1      11.486  -7.784   9.964  1.00  0.00     0.200 A 
ATOM     81  F   UNL     1      11.406 -10.120   9.633  1.00  0.00    -0.200 F 
ATOM     82  F   UNL     1      12.816  -7.793   9.808  1.00  0.00    -0.200 F 
ENDBRANCH  58  72
BRANCH  59  83
ATOM     83  C   UNL     1      -1.264  -7.409  11.400  1.00  0.00     0.064 A 
ATOM     84  C   UNL     1      -1.818  -6.701  12.476  1.00  0.00     0.173 A 
ATOM     85  C   UNL     1      -2.150  -8.036  10.511  1.00  0.00     0.173 A 
ATOM     86  F   UNL     1      -1.016  -6.106  13.370  1.00  0.00    -0.203 F 
ATOM     87  C   UNL     1      -3.199  -6.629  12.657  1.00  0.00     0.198 A 
ATOM     88  C   UNL     1      -3.531  -7.940  10.678  1.00  0.00     0.198 A 
ATOM     89  F   UNL     1      -1.675  -8.734   9.469  1.00  0.00    -0.203 F 
ATOM     90  F   UNL     1      -3.701  -5.974  13.714  1.00  0.00    -0.200 F 
ATOM     91  C   UNL     1      -4.054  -7.240  11.753  1.00  0.00     0.200 A 
ATOM     92  F   UNL     1      -4.353  -8.524   9.795  1.00  0.00    -0.200 F 
ATOM     93  F   UNL     1      -5.381  -7.160  11.922  1.00  0.00    -0.200 F 
ENDBRANCH  59  83
BRANCH  71  94
ATOM     94  C   UNL     1       3.955 -10.279  15.075  1.00  0.00     0.064 A 
ATOM     95  C   UNL     1       3.566 -11.626  15.096  1.00  0.00     0.173 A 
ATOM     96  C   UNL     1       4.518  -9.737  16.241  1.00  0.00     0.173 A 
ATOM     97  F   UNL     1       3.016 -12.186  14.008  1.00  0.00    -0.203 F 
ATOM     98  C   UNL     1       3.738 -12.400  16.239  1.00  0.00     0.198 A 
ATOM     99  C   UNL     1       4.717 -10.523  17.371  1.00  0.00     0.198 A 
ATOM    100  F   UNL     1       4.920  -8.457  16.266  1.00  0.00    -0.203 F 
ATOM    101  F   UNL     1       3.342 -13.680  16.244  1.00  0.00    -0.200 F 
ATOM    102  C   UNL     1       4.327 -11.853  17.370  1.00  0.00     0.200 A 
ATOM    103  F   UNL     1       5.308  -9.999  18.454  1.00  0.00    -0.200 F 
ATOM    104  F   UNL     1       4.522 -12.610  18.458  1.00  0.00    -0.200 F 
ENDBRANCH  71  94
ENDBRANCH  45  46
ENDBRANCH  38  40
ENDBRANCH  37  38
ENDBRANCH  36  37
ENDBRANCH  35  36
ENDBRANCH  34  35
ENDBRANCH  33  34
ENDBRANCH  32  33
ENDBRANCH  31  32
ENDBRANCH   1  31
TORSDOF 24
