REMARK SMILES Cc1ccccc1S(=O)(=O)Nc1ccc(N2CCOCC2)cc1C(=O)OCCOCCOCCOCCOC(=O)c1ccc(-c2c3nc(c(-c4c(F)c(F)c(F)c(F)c4F)c4ccc([nH]4)c(-c4c(F)c(F)c(F)c(F)c4F)c4nc(c(-c5c(F)c(F)c(F)c(F)c5F)c5ccc2[nH]5)C=C4)C=C3)cc1
REMARK SMILES IDX 31 1 30 2 29 3 28 4 27 5 26 6 24 7 25 8 23 9 12 10 13 11
REMARK SMILES IDX 14 12 22 13 15 14 11 15 8 17 9 18 10 19 7 20 1 21 2 22 3 23
REMARK SMILES IDX 4 24 6 25 5 26 16 27 17 28 21 29 18 30 20 31 19 32 32 33
REMARK SMILES IDX 33 34 34 35 35 36 36 37 37 38 38 39 39 40 40 41 41 42 42 43
REMARK SMILES IDX 103 44 43 45 102 46 44 47 45 48 46 49 96 50 47 51 101 52
REMARK SMILES IDX 95 53 97 54 48 55 100 56 94 57 93 58 49 60 81 61 61 62 80 63
REMARK SMILES IDX 62 64 65 65 79 66 98 67 63 68 64 69 78 71 99 72 66 73 50 74
REMARK SMILES IDX 51 75 59 76 52 77 53 78 57 79 60 80 54 81 55 82 58 83 56 84
REMARK SMILES IDX 82 85 83 86 91 87 84 88 85 89 89 90 92 91 86 92 87 93 90 94
REMARK SMILES IDX 88 95 67 96 68 97 76 98 69 99 70 100 74 101 77 102 71 103
REMARK SMILES IDX 72 104 75 105 73 106
REMARK H PARENT 11 16 97 59 65 70
REMARK Flexibility Score: inf
ROOT
ATOM      1  C   UNL     1       0.283  -0.752   0.094  1.00  0.00     0.188 C 
ENDROOT
BRANCH   1   2
ATOM      2  C   UNL     1       1.044   0.366  -0.618  1.00  0.00     0.188 C 
BRANCH   2   3
ATOM      3  O   UNL     1       0.237   1.321  -1.296  1.00  0.00    -0.376 OA
BRANCH   3   4
ATOM      4  C   UNL     1       0.899   2.571  -1.542  1.00  0.00     0.202 C 
BRANCH   4   5
ATOM      5  C   UNL     1       2.183   2.569  -2.372  1.00  0.00     0.261 C 
BRANCH   5   6
ATOM      6  O   UNL     1       3.130   1.587  -1.968  1.00  0.00    -0.460 OA
BRANCH   6   7
ATOM      7  C   UNL     1       4.249   2.102  -1.450  1.00  0.00     0.340 C 
ATOM      8  O   UNL     1       4.574   3.279  -1.419  1.00  0.00    -0.246 OA
BRANCH   7   9
ATOM      9  C   UNL     1       4.817   1.104  -0.545  1.00  0.00     0.086 A 
ATOM     10  C   UNL     1       4.856   1.486   0.803  1.00  0.00     0.064 A 
ATOM     11  C   UNL     1       5.702   0.789   1.634  1.00  0.00     0.030 A 
ATOM     12  C   UNL     1       6.162  -0.475   1.208  1.00  0.00     0.028 A 
ATOM     13  C   UNL     1       5.174  -0.194  -0.945  1.00  0.00     0.043 A 
ATOM     14  C   UNL     1       5.720  -1.071   0.001  1.00  0.00     0.038 A 
BRANCH  10  15
ATOM     15  N   UNL     1       3.905   2.453   1.242  1.00  0.00    -0.279 N 
ATOM     16  H   UNL     1       3.927   3.294   0.730  1.00  0.00     0.180 HD
BRANCH  15  17
ATOM     17  S   UNL     1       2.760   2.433   2.461  1.00  0.00     0.262 S 
ATOM     18  O   UNL     1       1.827   3.428   1.948  1.00  0.00    -0.201 OA
ATOM     19  O   UNL     1       3.438   2.675   3.714  1.00  0.00    -0.201 OA
BRANCH  17  20
ATOM     20  C   UNL     1       1.710   0.973   2.738  1.00  0.00     0.090 A 
ATOM     21  C   UNL     1       3.275  -0.928   2.060  1.00  0.00     0.046 C 
ATOM     22  C   UNL     1       2.071  -0.384   2.711  1.00  0.00    -0.031 A 
ATOM     23  C   UNL     1       1.196  -1.389   3.187  1.00  0.00     0.005 A 
ATOM     24  C   UNL     1      -0.082  -1.083   3.604  1.00  0.00     0.000 A 
ATOM     25  C   UNL     1       0.392   1.256   3.153  1.00  0.00     0.022 A 
ATOM     26  C   UNL     1      -0.483   0.243   3.579  1.00  0.00     0.001 A 
ENDBRANCH  17  20
ENDBRANCH  15  17
ENDBRANCH  10  15
BRANCH  14  27
ATOM     27  N   UNL     1       5.645  -2.455  -0.138  1.00  0.00    -0.367 N 
ATOM     28  C   UNL     1       5.871  -3.138  -1.428  1.00  0.00     0.145 C 
ATOM     29  C   UNL     1       5.740  -3.330   1.054  1.00  0.00     0.145 C 
ATOM     30  C   UNL     1       5.185  -4.521  -1.479  1.00  0.00     0.181 C 
ATOM     31  C   UNL     1       5.030  -4.676   0.845  1.00  0.00     0.181 C 
ATOM     32  O   UNL     1       5.500  -5.329  -0.337  1.00  0.00    -0.378 OA
ENDBRANCH  14  27
ENDBRANCH   7   9
ENDBRANCH   6   7
ENDBRANCH   5   6
ENDBRANCH   4   5
ENDBRANCH   3   4
ENDBRANCH   2   3
ENDBRANCH   1   2
BRANCH   1  33
ATOM     33  O   UNL     1      -0.530  -1.643  -0.655  1.00  0.00    -0.377 OA
BRANCH  33  34
ATOM     34  C   UNL     1      -1.887  -1.227  -0.730  1.00  0.00     0.188 C 
BRANCH  34  35
ATOM     35  C   UNL     1      -2.641  -1.003   0.581  1.00  0.00     0.188 C 
BRANCH  35  36
ATOM     36  O   UNL     1      -2.725   0.409   0.785  1.00  0.00    -0.376 OA
BRANCH  36  37
ATOM     37  C   UNL     1      -3.632   0.886   1.774  1.00  0.00     0.202 C 
BRANCH  37  38
ATOM     38  C   UNL     1      -5.067   0.345   1.699  1.00  0.00     0.261 C 
BRANCH  38  39
ATOM     39  O   UNL     1      -5.690   0.847   0.502  1.00  0.00    -0.460 OA
BRANCH  39  40
ATOM     40  C   UNL     1      -5.846  -0.068  -0.498  1.00  0.00     0.338 C 
ATOM     41  O   UNL     1      -6.382  -1.141  -0.386  1.00  0.00    -0.246 OA
BRANCH  40  42
ATOM     42  C   UNL     1      -5.030   0.350  -1.684  1.00  0.00     0.060 A 
ATOM     43  C   UNL     1      -4.872  -0.532  -2.766  1.00  0.00     0.016 A 
ATOM     44  C   UNL     1      -4.204   1.466  -1.590  1.00  0.00     0.016 A 
ATOM     45  C   UNL     1      -3.818  -0.360  -3.686  1.00  0.00     0.010 A 
ATOM     46  C   UNL     1      -3.115   1.575  -2.439  1.00  0.00     0.010 A 
ATOM     47  C   UNL     1      -2.890   0.667  -3.495  1.00  0.00    -0.014 A 
BRANCH  47  48
ATOM     48  C   UNL     1      -1.562   0.778  -4.156  1.00  0.00     0.031 A 
ATOM     49  C   UNL     1      -1.054   2.158  -4.575  1.00  0.00     0.074 A 
ATOM     50  C   UNL     1      -0.686  -0.253  -4.015  1.00  0.00     0.049 A 
ATOM     51  N   UNL     1       0.130   2.461  -5.019  1.00  0.00    -0.248 NA
ATOM     52  C   UNL     1      -1.914   3.345  -4.549  1.00  0.00     0.031 C 
ATOM     53  C   UNL     1       0.730  -0.054  -3.808  1.00  0.00     0.029 A 
ATOM     54  N   UNL     1      -0.807  -1.632  -3.787  1.00  0.00    -0.354 N 
ATOM     55  C   UNL     1       0.282   3.847  -5.030  1.00  0.00     0.074 A 
ATOM     56  C   UNL     1      -1.061   4.333  -4.840  1.00  0.00     0.031 C 
ATOM     57  C   UNL     1       1.373  -1.177  -3.496  1.00  0.00     0.029 A 
ATOM     58  C   UNL     1       0.489  -2.220  -3.873  1.00  0.00     0.049 A 
ATOM     59  H   UNL     1      -1.646  -2.113  -3.598  1.00  0.00     0.167 HD
ATOM     60  C   UNL     1       1.532   4.431  -5.082  1.00  0.00     0.037 A 
ATOM     61  C   UNL     1       0.825  -3.055  -4.898  1.00  0.00     0.037 A 
ATOM     62  C   UNL     1       2.622   3.447  -5.371  1.00  0.00     0.049 A 
ATOM     63  C   UNL     1       1.687  -2.378  -5.982  1.00  0.00     0.074 A 
ATOM     64  C   UNL     1       3.934   3.245  -4.954  1.00  0.00     0.029 A 
ATOM     65  N   UNL     1       2.340   2.318  -6.143  1.00  0.00    -0.354 N 
ATOM     66  N   UNL     1       2.302  -1.217  -5.853  1.00  0.00    -0.248 NA
ATOM     67  C   UNL     1       1.879  -2.924  -7.320  1.00  0.00     0.031 C 
ATOM     68  C   UNL     1       4.408   2.001  -5.479  1.00  0.00     0.029 A 
ATOM     69  C   UNL     1       3.408   1.456  -6.261  1.00  0.00     0.049 A 
ATOM     70  H   UNL     1       1.464   2.155  -6.561  1.00  0.00     0.167 HD
ATOM     71  C   UNL     1       2.809  -0.798  -7.056  1.00  0.00     0.074 A 
ATOM     72  C   UNL     1       2.548  -1.930  -7.934  1.00  0.00     0.031 C 
ATOM     73  C   UNL     1       3.356   0.439  -7.300  1.00  0.00     0.037 A 
BRANCH  60  74
ATOM     74  C   UNL     1       1.851   5.910  -4.689  1.00  0.00     0.064 A 
ATOM     75  C   UNL     1       3.155   6.447  -4.852  1.00  0.00     0.173 A 
ATOM     76  C   UNL     1       0.972   6.811  -4.038  1.00  0.00     0.173 A 
ATOM     77  F   UNL     1       4.096   5.793  -5.545  1.00  0.00    -0.203 F 
ATOM     78  C   UNL     1       3.558   7.693  -4.333  1.00  0.00     0.198 A 
ATOM     79  C   UNL     1       1.351   8.095  -3.600  1.00  0.00     0.198 A 
ATOM     80  F   UNL     1      -0.289   6.491  -3.740  1.00  0.00    -0.203 F 
ATOM     81  F   UNL     1       4.838   8.079  -4.441  1.00  0.00    -0.200 F 
ATOM     82  C   UNL     1       2.653   8.523  -3.714  1.00  0.00     0.200 A 
ATOM     83  F   UNL     1       0.436   8.903  -3.041  1.00  0.00    -0.200 F 
ATOM     84  F   UNL     1       3.026   9.719  -3.237  1.00  0.00    -0.200 F 
ENDBRANCH  60  74
BRANCH  61  85
ATOM     85  C   UNL     1      -0.144  -4.203  -4.880  1.00  0.00     0.064 A 
ATOM     86  C   UNL     1      -0.019  -4.989  -3.702  1.00  0.00     0.173 A 
ATOM     87  C   UNL     1      -1.449  -3.973  -5.347  1.00  0.00     0.173 A 
ATOM     88  F   UNL     1       1.204  -5.281  -3.228  1.00  0.00    -0.203 F 
ATOM     89  C   UNL     1      -1.117  -5.219  -2.870  1.00  0.00     0.198 A 
ATOM     90  C   UNL     1      -2.549  -4.218  -4.512  1.00  0.00     0.198 A 
ATOM     91  F   UNL     1      -1.639  -3.279  -6.479  1.00  0.00    -0.203 F 
ATOM     92  F   UNL     1      -0.934  -5.731  -1.643  1.00  0.00    -0.200 F 
ATOM     93  C   UNL     1      -2.372  -4.776  -3.251  1.00  0.00     0.200 A 
ATOM     94  F   UNL     1      -3.764  -3.768  -4.862  1.00  0.00    -0.200 F 
ATOM     95  F   UNL     1      -3.391  -4.815  -2.379  1.00  0.00    -0.200 F 
ENDBRANCH  61  85
BRANCH  73  96
ATOM     96  C   UNL     1       3.864   0.886  -8.653  1.00  0.00     0.064 A 
ATOM     97  C   UNL     1       4.644   0.067  -9.474  1.00  0.00     0.173 A 
ATOM     98  C   UNL     1       3.666   2.214  -9.118  1.00  0.00     0.173 A 
ATOM     99  F   UNL     1       5.016  -1.155  -9.065  1.00  0.00    -0.203 F 
ATOM    100  C   UNL     1       5.080   0.496 -10.730  1.00  0.00     0.198 A 
ATOM    101  C   UNL     1       4.158   2.659 -10.340  1.00  0.00     0.198 A 
ATOM    102  F   UNL     1       2.976   3.122  -8.415  1.00  0.00    -0.203 F 
ATOM    103  F   UNL     1       5.745  -0.354 -11.523  1.00  0.00    -0.200 F 
ATOM    104  C   UNL     1       4.833   1.787 -11.164  1.00  0.00     0.200 A 
ATOM    105  F   UNL     1       3.958   3.931 -10.715  1.00  0.00    -0.200 F 
ATOM    106  F   UNL     1       5.246   2.191 -12.373  1.00  0.00    -0.200 F 
ENDBRANCH  73  96
ENDBRANCH  47  48
ENDBRANCH  40  42
ENDBRANCH  39  40
ENDBRANCH  38  39
ENDBRANCH  37  38
ENDBRANCH  36  37
ENDBRANCH  35  36
ENDBRANCH  34  35
ENDBRANCH  33  34
ENDBRANCH   1  33
TORSDOF 24
