REMARK SMILES CC(C)CN(C)c1cc2c(cc1Cl)C=C(C(=O)OCCOCCOCCOCCOC(=O)c1ccc(-c3c4nc(c(-c5c(F)c(F)c(F)c(F)c5F)c5ccc([nH]5)c(-c5c(F)c(F)c(F)c(F)c5F)c5nc(c(-c6c(F)c(F)c(F)c(F)c6F)c6ccc3[nH]6)C=C5)C=C4)cc1)[C@H](C(F)(F)F)O2
REMARK SMILES IDX 23 1 22 2 21 3 20 4 19 5 18 6 16 7 17 8 15 9 7 10 8 11 12 12
REMARK SMILES IDX 9 13 11 14 13 15 10 16 101 17 14 18 96 19 5 20 6 21 4 22
REMARK SMILES IDX 2 23 1 24 3 25 97 26 98 27 99 28 100 29 24 30 25 31 26 32
REMARK SMILES IDX 27 33 28 34 29 35 30 36 31 37 32 38 33 39 34 40 95 41 35 42
REMARK SMILES IDX 94 43 36 44 37 45 38 46 88 47 39 48 93 49 87 50 89 51 40 52
REMARK SMILES IDX 92 53 86 54 85 55 41 57 73 58 53 59 72 60 54 61 57 62 71 63
REMARK SMILES IDX 90 64 55 65 56 66 70 68 91 69 58 70 42 71 43 72 51 73 44 74
REMARK SMILES IDX 45 75 49 76 52 77 46 78 47 79 50 80 48 81 74 82 75 83 83 84
REMARK SMILES IDX 76 85 77 86 81 87 84 88 78 89 79 90 82 91 80 92 59 93 60 94
REMARK SMILES IDX 68 95 61 96 62 97 66 98 69 99 63 100 64 101 67 102 65 103
REMARK H PARENT 89 56 57 67
REMARK Flexibility Score: inf
ROOT
ATOM      1  C   UNL     1      -0.309  -2.442  -7.184  1.00  0.00     0.188 C 
ENDROOT
BRANCH   1   2
ATOM      2  C   UNL     1       0.865  -3.420  -7.359  1.00  0.00     0.188 C 
BRANCH   2   3
ATOM      3  O   UNL     1       0.730  -4.308  -8.463  1.00  0.00    -0.376 OA
BRANCH   3   4
ATOM      4  C   UNL     1       0.725  -5.693  -8.139  1.00  0.00     0.202 C 
BRANCH   4   5
ATOM      5  C   UNL     1      -0.594  -6.207  -7.545  1.00  0.00     0.261 C 
BRANCH   5   6
ATOM      6  O   UNL     1      -1.098  -5.380  -6.482  1.00  0.00    -0.460 OA
BRANCH   6   7
ATOM      7  C   UNL     1      -0.682  -5.677  -5.242  1.00  0.00     0.338 C 
ATOM      8  O   UNL     1       0.037  -6.614  -4.934  1.00  0.00    -0.246 OA
BRANCH   7   9
ATOM      9  C   UNL     1      -1.069  -4.609  -4.299  1.00  0.00     0.087 C 
ATOM     10  C   UNL     1      -0.824  -1.894  -0.050  1.00  0.00     0.059 A 
ATOM     11  C   UNL     1      -1.858  -2.241  -0.946  1.00  0.00     0.074 A 
ATOM     12  C   UNL     1       0.478  -2.327  -0.385  1.00  0.00     0.065 A 
ATOM     13  C   UNL     1      -1.607  -2.985  -2.107  1.00  0.00     0.130 A 
ATOM     14  C   UNL     1       0.744  -2.959  -1.601  1.00  0.00     0.034 A 
ATOM     15  Cl  UNL     1       1.809  -2.255   0.721  1.00  0.00    -0.082 Cl
ATOM     16  C   UNL     1      -0.300  -3.302  -2.456  1.00  0.00     0.019 A 
ATOM     17  O   UNL     1      -2.693  -3.402  -2.822  1.00  0.00    -0.475 OA
ATOM     18  C   UNL     1      -0.026  -4.103  -3.629  1.00  0.00     0.027 C 
ATOM     19  C   UNL     1      -2.508  -4.322  -3.951  1.00  0.00     0.316 C 
BRANCH  10  20
ATOM     20  N   UNL     1      -1.104  -1.206   1.140  1.00  0.00    -0.373 N 
ATOM     21  C   UNL     1      -2.157  -1.786   1.974  1.00  0.00     0.143 C 
BRANCH  20  22
ATOM     22  C   UNL     1      -1.010   0.272   1.140  1.00  0.00     0.119 C 
BRANCH  22  23
ATOM     23  C   UNL     1       0.438   0.788   1.260  1.00  0.00     0.002 C 
ATOM     24  C   UNL     1       1.026   1.144  -0.108  1.00  0.00     0.009 C 
ATOM     25  C   UNL     1       0.540   2.010   2.178  1.00  0.00     0.009 C 
ENDBRANCH  22  23
ENDBRANCH  20  22
ENDBRANCH  10  20
BRANCH  19  26
ATOM     26  C   UNL     1      -3.408  -3.789  -5.082  1.00  0.00     0.430 C 
ATOM     27  F   UNL     1      -3.052  -2.548  -5.475  1.00  0.00    -0.167 F 
ATOM     28  F   UNL     1      -3.442  -4.598  -6.161  1.00  0.00    -0.167 F 
ATOM     29  F   UNL     1      -4.696  -3.708  -4.647  1.00  0.00    -0.167 F 
ENDBRANCH  19  26
ENDBRANCH   7   9
ENDBRANCH   6   7
ENDBRANCH   5   6
ENDBRANCH   4   5
ENDBRANCH   3   4
ENDBRANCH   2   3
ENDBRANCH   1   2
BRANCH   1  30
ATOM     30  O   UNL     1      -1.546  -2.758  -7.799  1.00  0.00    -0.377 OA
BRANCH  30  31
ATOM     31  C   UNL     1      -1.594  -3.029  -9.195  1.00  0.00     0.188 C 
BRANCH  31  32
ATOM     32  C   UNL     1      -0.558  -2.426 -10.169  1.00  0.00     0.188 C 
BRANCH  32  33
ATOM     33  O   UNL     1       0.190  -1.334  -9.657  1.00  0.00    -0.376 OA
BRANCH  33  34
ATOM     34  C   UNL     1      -0.180  -0.045 -10.128  1.00  0.00     0.202 C 
BRANCH  34  35
ATOM     35  C   UNL     1      -1.529   0.460  -9.604  1.00  0.00     0.261 C 
BRANCH  35  36
ATOM     36  O   UNL     1      -2.677  -0.279 -10.054  1.00  0.00    -0.460 OA
BRANCH  36  37
ATOM     37  C   UNL     1      -2.891  -0.381 -11.384  1.00  0.00     0.338 C 
ATOM     38  O   UNL     1      -2.243   0.118 -12.286  1.00  0.00    -0.246 OA
BRANCH  37  39
ATOM     39  C   UNL     1      -3.966  -1.374 -11.571  1.00  0.00     0.060 A 
ATOM     40  C   UNL     1      -5.188  -1.209 -10.915  1.00  0.00     0.016 A 
ATOM     41  C   UNL     1      -3.736  -2.494 -12.380  1.00  0.00     0.016 A 
ATOM     42  C   UNL     1      -6.195  -2.157 -11.091  1.00  0.00     0.010 A 
ATOM     43  C   UNL     1      -4.744  -3.446 -12.549  1.00  0.00     0.010 A 
ATOM     44  C   UNL     1      -5.988  -3.271 -11.923  1.00  0.00    -0.014 A 
BRANCH  44  45
ATOM     45  C   UNL     1      -7.138  -4.138 -12.271  1.00  0.00     0.031 A 
ATOM     46  C   UNL     1      -7.368  -5.462 -11.611  1.00  0.00     0.074 A 
ATOM     47  C   UNL     1      -7.995  -3.686 -13.207  1.00  0.00     0.049 A 
ATOM     48  N   UNL     1      -8.378  -6.283 -11.758  1.00  0.00    -0.248 NA
ATOM     49  C   UNL     1      -6.340  -5.932 -10.673  1.00  0.00     0.031 C 
ATOM     50  C   UNL     1      -7.847  -2.425 -13.936  1.00  0.00     0.029 A 
ATOM     51  N   UNL     1      -9.154  -4.225 -13.702  1.00  0.00    -0.354 N 
ATOM     52  C   UNL     1      -8.120  -7.358 -10.919  1.00  0.00     0.074 A 
ATOM     53  C   UNL     1      -6.838  -7.105 -10.294  1.00  0.00     0.031 C 
ATOM     54  C   UNL     1      -8.884  -2.280 -14.774  1.00  0.00     0.029 A 
ATOM     55  C   UNL     1      -9.757  -3.444 -14.656  1.00  0.00     0.049 A 
ATOM     56  H   UNL     1      -9.519  -5.089 -13.402  1.00  0.00     0.167 HD
ATOM     57  C   UNL     1      -8.899  -8.442 -10.687  1.00  0.00     0.037 A 
ATOM     58  C   UNL     1     -10.888  -3.641 -15.358  1.00  0.00     0.037 A 
ATOM     59  C   UNL     1     -10.176  -8.683 -11.312  1.00  0.00     0.049 A 
ATOM     60  C   UNL     1     -11.714  -4.868 -15.092  1.00  0.00     0.074 A 
ATOM     61  C   UNL     1     -11.060  -9.726 -11.087  1.00  0.00     0.029 A 
ATOM     62  N   UNL     1     -10.747  -7.882 -12.290  1.00  0.00    -0.354 N 
ATOM     63  N   UNL     1     -11.506  -5.831 -14.228  1.00  0.00    -0.248 NA
ATOM     64  C   UNL     1     -12.938  -5.030 -15.889  1.00  0.00     0.031 C 
ATOM     65  C   UNL     1     -12.139  -9.585 -11.964  1.00  0.00     0.029 A 
ATOM     66  C   UNL     1     -11.955  -8.427 -12.700  1.00  0.00     0.049 A 
ATOM     67  H   UNL     1     -10.354  -7.051 -12.640  1.00  0.00     0.167 HD
ATOM     68  C   UNL     1     -12.577  -6.701 -14.364  1.00  0.00     0.074 A 
ATOM     69  C   UNL     1     -13.447  -6.142 -15.376  1.00  0.00     0.031 C 
ATOM     70  C   UNL     1     -12.814  -7.864 -13.709  1.00  0.00     0.037 A 
BRANCH  57  71
ATOM     71  C   UNL     1      -8.426  -9.463  -9.695  1.00  0.00     0.064 A 
ATOM     72  C   UNL     1      -8.497  -9.220  -8.316  1.00  0.00     0.173 A 
ATOM     73  C   UNL     1      -8.050 -10.747 -10.119  1.00  0.00     0.173 A 
ATOM     74  F   UNL     1      -8.853  -8.009  -7.861  1.00  0.00    -0.203 F 
ATOM     75  C   UNL     1      -8.215 -10.228  -7.396  1.00  0.00     0.198 A 
ATOM     76  C   UNL     1      -7.789 -11.758  -9.197  1.00  0.00     0.198 A 
ATOM     77  F   UNL     1      -7.980 -11.034 -11.427  1.00  0.00    -0.203 F 
ATOM     78  F   UNL     1      -8.288  -9.974  -6.082  1.00  0.00    -0.200 F 
ATOM     79  C   UNL     1      -7.875 -11.498  -7.837  1.00  0.00     0.200 A 
ATOM     80  F   UNL     1      -7.479 -12.990  -9.624  1.00  0.00    -0.200 F 
ATOM     81  F   UNL     1      -7.638 -12.476  -6.951  1.00  0.00    -0.200 F 
ENDBRANCH  57  71
BRANCH  58  82
ATOM     82  C   UNL     1     -11.311  -2.639 -16.368  1.00  0.00     0.064 A 
ATOM     83  C   UNL     1     -12.448  -1.846 -16.167  1.00  0.00     0.173 A 
ATOM     84  C   UNL     1     -10.586  -2.454 -17.555  1.00  0.00     0.173 A 
ATOM     85  F   UNL     1     -13.184  -1.999 -15.056  1.00  0.00    -0.203 F 
ATOM     86  C   UNL     1     -12.857  -0.921 -17.125  1.00  0.00     0.198 A 
ATOM     87  C   UNL     1     -10.978  -1.508 -18.497  1.00  0.00     0.198 A 
ATOM     88  F   UNL     1      -9.486  -3.184 -17.790  1.00  0.00    -0.203 F 
ATOM     89  F   UNL     1     -13.976  -0.209 -16.929  1.00  0.00    -0.200 F 
ATOM     90  C   UNL     1     -12.119  -0.749 -18.286  1.00  0.00     0.200 A 
ATOM     91  F   UNL     1     -10.254  -1.334 -19.611  1.00  0.00    -0.200 F 
ATOM     92  F   UNL     1     -12.512   0.144 -19.205  1.00  0.00    -0.200 F 
ENDBRANCH  58  82
BRANCH  70  93
ATOM     93  C   UNL     1     -14.066  -8.613 -14.059  1.00  0.00     0.064 A 
ATOM     94  C   UNL     1     -14.195  -9.291 -15.280  1.00  0.00     0.173 A 
ATOM     95  C   UNL     1     -15.124  -8.705 -13.142  1.00  0.00     0.173 A 
ATOM     96  F   UNL     1     -13.217  -9.221 -16.197  1.00  0.00    -0.203 F 
ATOM     97  C   UNL     1     -15.343 -10.021 -15.576  1.00  0.00     0.198 A 
ATOM     98  C   UNL     1     -16.258  -9.459 -13.429  1.00  0.00     0.198 A 
ATOM     99  F   UNL     1     -15.049  -8.080 -11.957  1.00  0.00    -0.203 F 
ATOM    100  F   UNL     1     -15.459 -10.629 -16.765  1.00  0.00    -0.200 F 
ATOM    101  C   UNL     1     -16.369 -10.112 -14.648  1.00  0.00     0.200 A 
ATOM    102  F   UNL     1     -17.242  -9.559 -12.525  1.00  0.00    -0.200 F 
ATOM    103  F   UNL     1     -17.466 -10.827 -14.929  1.00  0.00    -0.200 F 
ENDBRANCH  70  93
ENDBRANCH  44  45
ENDBRANCH  37  39
ENDBRANCH  36  37
ENDBRANCH  35  36
ENDBRANCH  34  35
ENDBRANCH  33  34
ENDBRANCH  32  33
ENDBRANCH  31  32
ENDBRANCH  30  31
ENDBRANCH   1  30
TORSDOF 24
