REMARK SMILES CC[C@@](C)([NH2+]CC(=O)N[C@@H](C)C(C)C)C(=O)OCCOCCOCCOCCOC(=O)c1ccc(-c2c3nc(c(-c4c(F)c(F)c(F)c(F)c4F)c4ccc([nH]4)c(-c4c(F)c(F)c(F)c(F)c4F)c4nc(c(-c5c(F)c(F)c(F)c(F)c5F)c5ccc2[nH]5)C=C4)C=C3)cc1
REMARK SMILES IDX 21 1 20 2 19 3 18 4 17 5 15 6 16 7 3 8 4 9 2 10 1 11 5 12
REMARK SMILES IDX 6 15 7 16 8 17 9 18 10 20 11 21 12 22 13 23 14 24 22 25
REMARK SMILES IDX 23 26 24 27 25 28 26 29 27 30 28 31 29 32 30 33 31 34 32 35
REMARK SMILES IDX 33 36 94 37 34 38 93 39 35 40 36 41 37 42 87 43 38 44 92 45
REMARK SMILES IDX 86 46 88 47 39 48 91 49 85 50 84 51 40 53 72 54 52 55 71 56
REMARK SMILES IDX 53 57 56 58 70 59 89 60 54 61 55 62 69 64 90 65 57 66 41 67
REMARK SMILES IDX 42 68 50 69 43 70 44 71 48 72 51 73 45 74 46 75 49 76 47 77
REMARK SMILES IDX 73 78 74 79 82 80 75 81 76 82 80 83 83 84 77 85 78 86 81 87
REMARK SMILES IDX 79 88 58 89 59 90 67 91 60 92 61 93 65 94 68 95 62 96 63 97
REMARK SMILES IDX 66 98 64 99
REMARK H PARENT 5 13 5 14 9 19 88 52 56 63
REMARK Flexibility Score: inf
ROOT
ATOM      1  C   UNL     1       3.627   3.022  -0.816  1.00  0.00     0.188 C 
ENDROOT
BRANCH   1   2
ATOM      2  O   UNL     1       4.962   2.642  -1.126  1.00  0.00    -0.376 OA
BRANCH   2   3
ATOM      3  C   UNL     1       5.192   1.272  -1.409  1.00  0.00     0.202 C 
BRANCH   3   4
ATOM      4  C   UNL     1       4.260   0.539  -2.373  1.00  0.00     0.261 C 
BRANCH   4   5
ATOM      5  O   UNL     1       2.861   0.850  -2.255  1.00  0.00    -0.459 OA
BRANCH   5   6
ATOM      6  C   UNL     1       1.925   0.106  -1.611  1.00  0.00     0.367 C 
ATOM      7  O   UNL     1       2.198  -0.832  -0.874  1.00  0.00    -0.245 OA
BRANCH   6   8
ATOM      8  C   UNL     1       0.469   0.633  -1.955  1.00  0.00     0.191 C 
ATOM      9  C   UNL     1      -0.703  -0.350  -2.111  1.00  0.00     0.092 C 
BRANCH   8  10
ATOM     10  C   UNL     1       0.077   1.523  -0.729  1.00  0.00     0.077 C 
ATOM     11  C   UNL     1       0.139   0.778   0.617  1.00  0.00     0.011 C 
ENDBRANCH   8  10
BRANCH   8  12
ATOM     12  N   UNL     1       0.470   1.391  -3.251  1.00  0.00    -0.325 N 
ATOM     13  H   UNL     1       0.975   2.262  -3.090  1.00  0.00     0.347 HD
ATOM     14  H   UNL     1      -0.518   1.480  -3.489  1.00  0.00     0.347 HD
BRANCH  12  15
ATOM     15  C   UNL     1       1.078   0.745  -4.456  1.00  0.00     0.362 C 
BRANCH  15  16
ATOM     16  C   UNL     1       0.404  -0.528  -5.011  1.00  0.00     0.275 C 
ATOM     17  O   UNL     1      -0.602  -0.440  -5.723  1.00  0.00    -0.268 OA
ATOM     18  N   UNL     1       0.906  -1.792  -4.768  1.00  0.00    -0.349 N 
ATOM     19  H   UNL     1       0.583  -2.493  -5.379  1.00  0.00     0.163 HD
BRANCH  18  20
ATOM     20  C   UNL     1       1.844  -2.247  -3.740  1.00  0.00     0.081 C 
ATOM     21  C   UNL     1       1.163  -3.191  -2.733  1.00  0.00     0.031 C 
BRANCH  20  22
ATOM     22  C   UNL     1       3.158  -2.873  -4.260  1.00  0.00     0.005 C 
ATOM     23  C   UNL     1       3.871  -1.940  -5.238  1.00  0.00     0.009 C 
ATOM     24  C   UNL     1       4.087  -3.226  -3.079  1.00  0.00     0.009 C 
ENDBRANCH  20  22
ENDBRANCH  18  20
ENDBRANCH  15  16
ENDBRANCH  12  15
ENDBRANCH   8  12
ENDBRANCH   6   8
ENDBRANCH   5   6
ENDBRANCH   4   5
ENDBRANCH   3   4
ENDBRANCH   2   3
ENDBRANCH   1   2
BRANCH   1  25
ATOM     25  C   UNL     1       2.871   3.607  -2.027  1.00  0.00     0.188 C 
BRANCH  25  26
ATOM     26  O   UNL     1       3.418   3.301  -3.299  1.00  0.00    -0.377 OA
BRANCH  26  27
ATOM     27  C   UNL     1       4.598   3.964  -3.726  1.00  0.00     0.188 C 
BRANCH  27  28
ATOM     28  C   UNL     1       5.413   4.886  -2.793  1.00  0.00     0.188 C 
BRANCH  28  29
ATOM     29  O   UNL     1       4.674   5.536  -1.772  1.00  0.00    -0.376 OA
BRANCH  29  30
ATOM     30  C   UNL     1       4.259   6.877  -1.974  1.00  0.00     0.202 C 
BRANCH  30  31
ATOM     31  C   UNL     1       3.256   7.144  -3.107  1.00  0.00     0.261 C 
BRANCH  31  32
ATOM     32  O   UNL     1       3.674   6.758  -4.423  1.00  0.00    -0.460 OA
BRANCH  32  33
ATOM     33  C   UNL     1       4.811   7.318  -4.901  1.00  0.00     0.338 C 
ATOM     34  O   UNL     1       5.508   8.146  -4.372  1.00  0.00    -0.246 OA
BRANCH  33  35
ATOM     35  C   UNL     1       5.160   6.596  -6.144  1.00  0.00     0.060 A 
ATOM     36  C   UNL     1       6.378   5.905  -6.208  1.00  0.00     0.016 A 
ATOM     37  C   UNL     1       4.290   6.610  -7.234  1.00  0.00     0.016 A 
ATOM     38  C   UNL     1       6.749   5.258  -7.385  1.00  0.00     0.010 A 
ATOM     39  C   UNL     1       4.674   5.987  -8.421  1.00  0.00     0.010 A 
ATOM     40  C   UNL     1       5.922   5.344  -8.512  1.00  0.00    -0.014 A 
BRANCH  40  41
ATOM     41  C   UNL     1       6.460   4.984  -9.844  1.00  0.00     0.031 A 
ATOM     42  C   UNL     1       7.033   6.088 -10.689  1.00  0.00     0.074 A 
ATOM     43  C   UNL     1       6.448   3.718 -10.292  1.00  0.00     0.049 A 
ATOM     44  N   UNL     1       7.481   6.052 -11.917  1.00  0.00    -0.248 NA
ATOM     45  C   UNL     1       7.105   7.417 -10.059  1.00  0.00     0.031 C 
ATOM     46  C   UNL     1       5.970   2.559  -9.544  1.00  0.00     0.029 A 
ATOM     47  N   UNL     1       6.843   3.203 -11.502  1.00  0.00    -0.354 N 
ATOM     48  C   UNL     1       7.878   7.351 -12.208  1.00  0.00     0.074 A 
ATOM     49  C   UNL     1       7.592   8.157 -11.042  1.00  0.00     0.031 C 
ATOM     50  C   UNL     1       6.080   1.466 -10.321  1.00  0.00     0.029 A 
ATOM     51  C   UNL     1       6.599   1.859 -11.631  1.00  0.00     0.049 A 
ATOM     52  H   UNL     1       7.260   3.746 -12.209  1.00  0.00     0.167 HD
ATOM     53  C   UNL     1       8.435   7.827 -13.345  1.00  0.00     0.037 A 
ATOM     54  C   UNL     1       6.749   1.050 -12.699  1.00  0.00     0.037 A 
ATOM     55  C   UNL     1       8.710   7.021 -14.504  1.00  0.00     0.049 A 
ATOM     56  C   UNL     1       7.287   1.623 -13.988  1.00  0.00     0.074 A 
ATOM     57  C   UNL     1       9.283   7.402 -15.704  1.00  0.00     0.029 A 
ATOM     58  N   UNL     1       8.417   5.669 -14.611  1.00  0.00    -0.354 N 
ATOM     59  N   UNL     1       7.679   2.846 -14.254  1.00  0.00    -0.248 NA
ATOM     60  C   UNL     1       7.400   0.701 -15.127  1.00  0.00     0.031 C 
ATOM     61  C   UNL     1       9.281   6.295 -16.558  1.00  0.00     0.029 A 
ATOM     62  C   UNL     1       8.770   5.207 -15.868  1.00  0.00     0.049 A 
ATOM     63  H   UNL     1       8.018   5.119 -13.898  1.00  0.00     0.167 HD
ATOM     64  C   UNL     1       8.115   2.832 -15.574  1.00  0.00     0.074 A 
ATOM     65  C   UNL     1       7.950   1.476 -16.052  1.00  0.00     0.031 C 
ATOM     66  C   UNL     1       8.610   3.849 -16.323  1.00  0.00     0.037 A 
BRANCH  53  67
ATOM     67  C   UNL     1       8.750   9.293 -13.401  1.00  0.00     0.064 A 
ATOM     68  C   UNL     1       9.783   9.858 -12.638  1.00  0.00     0.173 A 
ATOM     69  C   UNL     1       8.022  10.141 -14.249  1.00  0.00     0.173 A 
ATOM     70  F   UNL     1      10.497   9.095 -11.797  1.00  0.00    -0.203 F 
ATOM     71  C   UNL     1      10.056  11.223 -12.701  1.00  0.00     0.198 A 
ATOM     72  C   UNL     1       8.319  11.498 -14.335  1.00  0.00     0.198 A 
ATOM     73  F   UNL     1       7.024   9.652 -15.001  1.00  0.00    -0.203 F 
ATOM     74  F   UNL     1      11.012  11.749 -11.924  1.00  0.00    -0.200 F 
ATOM     75  C   UNL     1       9.330  12.039 -13.556  1.00  0.00     0.200 A 
ATOM     76  F   UNL     1       7.625  12.283 -15.171  1.00  0.00    -0.200 F 
ATOM     77  F   UNL     1       9.600  13.350 -13.622  1.00  0.00    -0.200 F 
ENDBRANCH  53  67
BRANCH  54  78
ATOM     78  C   UNL     1       6.367  -0.384 -12.610  1.00  0.00     0.064 A 
ATOM     79  C   UNL     1       7.333  -1.397 -12.696  1.00  0.00     0.173 A 
ATOM     80  C   UNL     1       5.027  -0.774 -12.465  1.00  0.00     0.173 A 
ATOM     81  F   UNL     1       8.625  -1.078 -12.863  1.00  0.00    -0.203 F 
ATOM     82  C   UNL     1       6.971  -2.743 -12.661  1.00  0.00     0.198 A 
ATOM     83  C   UNL     1       4.670  -2.119 -12.398  1.00  0.00     0.198 A 
ATOM     84  F   UNL     1       4.063   0.155 -12.383  1.00  0.00    -0.203 F 
ATOM     85  F   UNL     1       7.909  -3.690 -12.798  1.00  0.00    -0.200 F 
ATOM     86  C   UNL     1       5.641  -3.102 -12.506  1.00  0.00     0.200 A 
ATOM     87  F   UNL     1       3.385  -2.462 -12.237  1.00  0.00    -0.200 F 
ATOM     88  F   UNL     1       5.294  -4.396 -12.469  1.00  0.00    -0.200 F 
ENDBRANCH  54  78
BRANCH  66  89
ATOM     89  C   UNL     1       9.053   3.531 -17.723  1.00  0.00     0.064 A 
ATOM     90  C   UNL     1       8.134   3.237 -18.741  1.00  0.00     0.173 A 
ATOM     91  C   UNL     1      10.414   3.579 -18.062  1.00  0.00     0.173 A 
ATOM     92  F   UNL     1       6.823   3.167 -18.468  1.00  0.00    -0.203 F 
ATOM     93  C   UNL     1       8.565   2.978 -20.041  1.00  0.00     0.198 A 
ATOM     94  C   UNL     1      10.838   3.353 -19.368  1.00  0.00     0.198 A 
ATOM     95  F   UNL     1      11.334   3.865 -17.128  1.00  0.00    -0.203 F 
ATOM     96  F   UNL     1       7.673   2.653 -20.987  1.00  0.00    -0.200 F 
ATOM     97  C   UNL     1       9.914   3.046 -20.355  1.00  0.00     0.200 A 
ATOM     98  F   UNL     1      12.140   3.438 -19.673  1.00  0.00    -0.200 F 
ATOM     99  F   UNL     1      10.324   2.809 -21.608  1.00  0.00    -0.200 F 
ENDBRANCH  66  89
ENDBRANCH  40  41
ENDBRANCH  33  35
ENDBRANCH  32  33
ENDBRANCH  31  32
ENDBRANCH  30  31
ENDBRANCH  29  30
ENDBRANCH  28  29
ENDBRANCH  27  28
ENDBRANCH  26  27
ENDBRANCH  25  26
ENDBRANCH   1  25
TORSDOF 26
