REMARK SMILES Cc1cc(C)n(-c2ccccc2NS(=O)(=O)c2cc(C)c(C(=O)OCCOCCOCCOCCOC(=O)c3ccc(-c4c5nc(c(-c6c(F)c(F)c(F)c(F)c6F)c6ccc([nH]6)c(-c6c(F)c(F)c(F)c(F)c6F)c6nc(c(-c7c(F)c(F)c(F)c(F)c7F)c7ccc4[nH]7)C=C6)C=C5)cc3)s2)n1
REMARK SMILES IDX 29 1 28 2 27 3 26 4 25 5 24 6 22 7 23 8 21 9 17 10 18 11
REMARK SMILES IDX 102 12 19 13 20 14 14 15 15 16 16 17 13 18 12 20 7 21 8 22
REMARK SMILES IDX 9 23 11 24 10 25 6 26 1 27 2 28 3 29 103 30 4 31 5 32 30 33
REMARK SMILES IDX 31 34 32 35 33 36 34 37 35 38 36 39 37 40 38 41 39 42 40 43
REMARK SMILES IDX 101 44 41 45 100 46 42 47 43 48 44 49 94 50 45 51 99 52
REMARK SMILES IDX 93 53 95 54 46 55 98 56 92 57 91 58 47 60 79 61 59 62 78 63
REMARK SMILES IDX 60 64 63 65 77 66 96 67 61 68 62 69 76 71 97 72 64 73 48 74
REMARK SMILES IDX 49 75 57 76 50 77 51 78 55 79 58 80 52 81 53 82 56 83 54 84
REMARK SMILES IDX 80 85 81 86 89 87 82 88 83 89 87 90 90 91 84 92 85 93 88 94
REMARK SMILES IDX 86 95 65 96 66 97 74 98 67 99 68 100 72 101 75 102 69 103
REMARK SMILES IDX 70 104 73 105 71 106
REMARK H PARENT 13 19 95 59 63 70
REMARK Flexibility Score: inf
ROOT
ATOM      1  C   UNL     1      -4.876  10.176   3.709  1.00  0.00     0.188 C 
ENDROOT
BRANCH   1   2
ATOM      2  C   UNL     1      -3.986  11.133   4.544  1.00  0.00     0.188 C 
BRANCH   2   3
ATOM      3  O   UNL     1      -4.032  12.477   4.116  1.00  0.00    -0.376 OA
BRANCH   3   4
ATOM      4  C   UNL     1      -2.884  13.110   3.608  1.00  0.00     0.202 C 
BRANCH   4   5
ATOM      5  C   UNL     1      -2.192  12.508   2.380  1.00  0.00     0.261 C 
BRANCH   5   6
ATOM      6  O   UNL     1      -2.207  11.082   2.290  1.00  0.00    -0.459 OA
BRANCH   6   7
ATOM      7  C   UNL     1      -1.310  10.381   3.027  1.00  0.00     0.348 C 
ATOM      8  O   UNL     1      -0.443  10.886   3.744  1.00  0.00    -0.245 OA
BRANCH   7   9
ATOM      9  C   UNL     1      -1.688   8.985   3.001  1.00  0.00     0.116 A 
ATOM     10  C   UNL     1      -2.224   6.723   2.211  1.00  0.00     0.141 A 
ATOM     11  C   UNL     1      -2.493   6.873   3.559  1.00  0.00     0.038 A 
ATOM     12  S   UNL     1      -1.883   8.223   1.480  1.00  0.00    -0.115 S 
ATOM     13  C   UNL     1      -1.992   8.128   4.056  1.00  0.00    -0.024 A 
ATOM     14  C   UNL     1      -1.866   8.428   5.516  1.00  0.00     0.046 C 
BRANCH  10  15
ATOM     15  S   UNL     1      -2.021   5.283   1.193  1.00  0.00     0.271 S 
ATOM     16  O   UNL     1      -1.152   5.658   0.099  1.00  0.00    -0.200 OA
ATOM     17  O   UNL     1      -3.370   4.814   0.957  1.00  0.00    -0.200 OA
BRANCH  15  18
ATOM     18  N   UNL     1      -1.236   4.092   2.063  1.00  0.00    -0.277 N 
ATOM     19  H   UNL     1      -1.527   3.168   1.885  1.00  0.00     0.180 HD
BRANCH  18  20
ATOM     20  C   UNL     1      -0.185   4.243   3.043  1.00  0.00     0.075 A 
ATOM     21  C   UNL     1       0.218   3.073   3.715  1.00  0.00     0.089 A 
ATOM     22  C   UNL     1       0.845   3.141   4.970  1.00  0.00     0.030 A 
ATOM     23  C   UNL     1       1.097   4.379   5.555  1.00  0.00     0.002 A 
ATOM     24  C   UNL     1       0.223   5.462   3.580  1.00  0.00     0.029 A 
ATOM     25  C   UNL     1       0.817   5.538   4.844  1.00  0.00     0.002 A 
BRANCH  21  26
ATOM     26  N   UNL     1       0.084   1.824   3.060  1.00  0.00    -0.236 N 
ATOM     27  C   UNL     1       0.823   0.043   0.078  1.00  0.00     0.069 C 
ATOM     28  C   UNL     1       0.409   0.477   1.435  1.00  0.00     0.060 A 
ATOM     29  C   UNL     1       0.106  -0.320   2.556  1.00  0.00     0.048 A 
ATOM     30  N   UNL     1       0.261   1.775   1.710  1.00  0.00    -0.173 NA
ATOM     31  C   UNL     1      -0.165   0.568   3.578  1.00  0.00     0.041 A 
ATOM     32  C   UNL     1      -0.710   0.320   4.935  1.00  0.00     0.067 C 
ENDBRANCH  21  26
ENDBRANCH  18  20
ENDBRANCH  15  18
ENDBRANCH  10  15
ENDBRANCH   7   9
ENDBRANCH   6   7
ENDBRANCH   5   6
ENDBRANCH   4   5
ENDBRANCH   3   4
ENDBRANCH   2   3
ENDBRANCH   1   2
BRANCH   1  33
ATOM     33  O   UNL     1      -5.752  10.631   2.684  1.00  0.00    -0.377 OA
BRANCH  33  34
ATOM     34  C   UNL     1      -6.183  11.982   2.659  1.00  0.00     0.188 C 
BRANCH  34  35
ATOM     35  C   UNL     1      -6.759  12.618   3.948  1.00  0.00     0.188 C 
BRANCH  35  36
ATOM     36  O   UNL     1      -6.449  11.945   5.155  1.00  0.00    -0.376 OA
BRANCH  36  37
ATOM     37  C   UNL     1      -7.343  11.088   5.834  1.00  0.00     0.202 C 
BRANCH  37  38
ATOM     38  C   UNL     1      -8.154  10.024   5.106  1.00  0.00     0.261 C 
BRANCH  38  39
ATOM     39  O   UNL     1      -8.457  10.319   3.763  1.00  0.00    -0.460 OA
BRANCH  39  40
ATOM     40  C   UNL     1      -9.436  11.220   3.605  1.00  0.00     0.338 C 
ATOM     41  O   UNL     1      -9.907  11.972   4.447  1.00  0.00    -0.246 OA
BRANCH  40  42
ATOM     42  C   UNL     1      -9.968  11.059   2.259  1.00  0.00     0.060 A 
ATOM     43  C   UNL     1     -10.808  12.068   1.793  1.00  0.00     0.016 A 
ATOM     44  C   UNL     1      -9.921   9.778   1.685  1.00  0.00     0.016 A 
ATOM     45  C   UNL     1     -11.792  11.709   0.907  1.00  0.00     0.010 A 
ATOM     46  C   UNL     1     -10.916   9.418   0.819  1.00  0.00     0.010 A 
ATOM     47  C   UNL     1     -11.890  10.364   0.523  1.00  0.00    -0.014 A 
BRANCH  47  48
ATOM     48  C   UNL     1     -13.013   9.981  -0.294  1.00  0.00     0.031 A 
ATOM     49  C   UNL     1     -12.893  10.497  -1.671  1.00  0.00     0.074 A 
ATOM     50  C   UNL     1     -13.997   9.185   0.161  1.00  0.00     0.049 A 
ATOM     51  N   UNL     1     -13.635  11.386  -2.238  1.00  0.00    -0.248 NA
ATOM     52  C   UNL     1     -11.695  10.120  -2.441  1.00  0.00     0.031 C 
ATOM     53  C   UNL     1     -14.062   8.434   1.417  1.00  0.00     0.029 A 
ATOM     54  N   UNL     1     -15.141   8.815  -0.472  1.00  0.00    -0.354 N 
ATOM     55  C   UNL     1     -13.117  11.532  -3.517  1.00  0.00     0.074 A 
ATOM     56  C   UNL     1     -11.832  10.883  -3.525  1.00  0.00     0.031 C 
ATOM     57  C   UNL     1     -15.071   7.534   1.348  1.00  0.00     0.029 A 
ATOM     58  C   UNL     1     -15.800   7.738   0.107  1.00  0.00     0.049 A 
ATOM     59  H   UNL     1     -15.476   9.273  -1.276  1.00  0.00     0.167 HD
ATOM     60  C   UNL     1     -13.918  11.925  -4.539  1.00  0.00     0.037 A 
ATOM     61  C   UNL     1     -16.825   7.044  -0.450  1.00  0.00     0.037 A 
ATOM     62  C   UNL     1     -15.088  12.612  -4.054  1.00  0.00     0.049 A 
ATOM     63  C   UNL     1     -17.406   7.896  -1.520  1.00  0.00     0.074 A 
ATOM     64  C   UNL     1     -15.293  13.759  -3.311  1.00  0.00     0.029 A 
ATOM     65  N   UNL     1     -16.264  11.907  -3.980  1.00  0.00    -0.354 N 
ATOM     66  N   UNL     1     -18.077   8.989  -1.289  1.00  0.00    -0.248 NA
ATOM     67  C   UNL     1     -16.843   7.778  -2.857  1.00  0.00     0.031 C 
ATOM     68  C   UNL     1     -16.393  13.458  -2.454  1.00  0.00     0.029 A 
ATOM     69  C   UNL     1     -16.840  12.174  -2.764  1.00  0.00     0.049 A 
ATOM     70  H   UNL     1     -16.628  11.314  -4.676  1.00  0.00     0.167 HD
ATOM     71  C   UNL     1     -17.650   9.874  -2.268  1.00  0.00     0.074 A 
ATOM     72  C   UNL     1     -16.960   9.048  -3.255  1.00  0.00     0.031 C 
ATOM     73  C   UNL     1     -17.642  11.220  -2.035  1.00  0.00     0.037 A 
BRANCH  60  74
ATOM     74  C   UNL     1     -13.825  11.320  -5.913  1.00  0.00     0.064 A 
ATOM     75  C   UNL     1     -14.558  11.893  -6.967  1.00  0.00     0.173 A 
ATOM     76  C   UNL     1     -13.280  10.040  -6.171  1.00  0.00     0.173 A 
ATOM     77  F   UNL     1     -15.153  13.085  -6.814  1.00  0.00    -0.203 F 
ATOM     78  C   UNL     1     -14.772  11.210  -8.167  1.00  0.00     0.198 A 
ATOM     79  C   UNL     1     -13.445   9.389  -7.389  1.00  0.00     0.198 A 
ATOM     80  F   UNL     1     -12.671   9.317  -5.223  1.00  0.00    -0.203 F 
ATOM     81  F   UNL     1     -15.578  11.739  -9.097  1.00  0.00    -0.200 F 
ATOM     82  C   UNL     1     -14.216   9.960  -8.377  1.00  0.00     0.200 A 
ATOM     83  F   UNL     1     -12.921   8.167  -7.558  1.00  0.00    -0.200 F 
ATOM     84  F   UNL     1     -14.466   9.282  -9.504  1.00  0.00    -0.200 F 
ENDBRANCH  60  74
BRANCH  61  85
ATOM     85  C   UNL     1     -17.133   5.597  -0.362  1.00  0.00     0.064 A 
ATOM     86  C   UNL     1     -18.379   5.101  -0.782  1.00  0.00     0.173 A 
ATOM     87  C   UNL     1     -16.117   4.644  -0.159  1.00  0.00     0.173 A 
ATOM     88  F   UNL     1     -19.389   5.946  -1.038  1.00  0.00    -0.203 F 
ATOM     89  C   UNL     1     -18.585   3.739  -1.025  1.00  0.00     0.198 A 
ATOM     90  C   UNL     1     -16.325   3.283  -0.396  1.00  0.00     0.198 A 
ATOM     91  F   UNL     1     -14.875   5.022   0.173  1.00  0.00    -0.203 F 
ATOM     92  F   UNL     1     -19.766   3.314  -1.495  1.00  0.00    -0.200 F 
ATOM     93  C   UNL     1     -17.553   2.833  -0.845  1.00  0.00     0.200 A 
ATOM     94  F   UNL     1     -15.309   2.421  -0.253  1.00  0.00    -0.200 F 
ATOM     95  F   UNL     1     -17.728   1.539  -1.144  1.00  0.00    -0.200 F 
ENDBRANCH  61  85
BRANCH  73  96
ATOM     96  C   UNL     1     -18.357  11.709  -0.803  1.00  0.00     0.064 A 
ATOM     97  C   UNL     1     -18.015  11.344   0.513  1.00  0.00     0.173 A 
ATOM     98  C   UNL     1     -19.372  12.662  -0.959  1.00  0.00     0.173 A 
ATOM     99  F   UNL     1     -16.987  10.522   0.757  1.00  0.00    -0.203 F 
ATOM    100  C   UNL     1     -18.703  11.861   1.611  1.00  0.00     0.198 A 
ATOM    101  C   UNL     1     -20.029  13.207   0.141  1.00  0.00     0.198 A 
ATOM    102  F   UNL     1     -19.706  13.093  -2.185  1.00  0.00    -0.203 F 
ATOM    103  F   UNL     1     -18.377  11.473   2.853  1.00  0.00    -0.200 F 
ATOM    104  C   UNL     1     -19.707  12.795   1.423  1.00  0.00     0.200 A 
ATOM    105  F   UNL     1     -20.965  14.148  -0.044  1.00  0.00    -0.200 F 
ATOM    106  F   UNL     1     -20.349  13.316   2.478  1.00  0.00    -0.200 F 
ENDBRANCH  73  96
ENDBRANCH  47  48
ENDBRANCH  40  42
ENDBRANCH  39  40
ENDBRANCH  38  39
ENDBRANCH  37  38
ENDBRANCH  36  37
ENDBRANCH  35  36
ENDBRANCH  34  35
ENDBRANCH  33  34
ENDBRANCH   1  33
TORSDOF 24
