REMARK SMILES Cc1nn([C@H]2CCS(=O)(=O)C2)c(C)c1/C=C(\CC(=O)OCCOCCOCCOCCOC(=O)c1ccc(-c2c3nc(c(-c4c(F)c(F)c(F)c(F)c4F)c4ccc([nH]4)c(-c4c(F)c(F)c(F)c(F)c4F)c4nc(c(-c5c(F)c(F)c(F)c(F)c5F)c5ccc2[nH]5)C=C4)C=C3)cc1)c1nc2ccccc2s1
REMARK SMILES IDX 25 1 24 2 23 3 22 4 21 5 20 6 18 7 19 8 17 9 16 10 15 11
REMARK SMILES IDX 14 12 1 13 2 14 3 15 4 16 12 17 13 18 5 19 6 20 11 21 7 22
REMARK SMILES IDX 8 23 9 24 10 25 98 26 99 27 106 28 100 29 105 30 101 31
REMARK SMILES IDX 104 32 102 33 103 34 26 35 27 36 28 37 29 38 30 39 31 40
REMARK SMILES IDX 32 41 33 42 34 43 35 44 36 45 97 46 37 47 96 48 38 49 39 50
REMARK SMILES IDX 40 51 90 52 41 53 95 54 89 55 91 56 42 57 94 58 88 59 87 60
REMARK SMILES IDX 43 62 75 63 55 64 74 65 56 66 59 67 73 68 92 69 57 70 58 71
REMARK SMILES IDX 72 73 93 74 60 75 44 76 45 77 53 78 46 79 47 80 51 81 54 82
REMARK SMILES IDX 48 83 49 84 52 85 50 86 76 87 77 88 85 89 78 90 79 91 83 92
REMARK SMILES IDX 86 93 80 94 81 95 84 96 82 97 61 98 62 99 70 100 63 101
REMARK SMILES IDX 64 102 68 103 71 104 65 105 66 106 69 107 67 108
REMARK H PARENT 91 61 59 72
REMARK Flexibility Score: inf
ROOT
ATOM      1  C   UNL     1      -0.729 -11.651   3.027  1.00  0.00     0.188 C 
ENDROOT
BRANCH   1   2
ATOM      2  C   UNL     1      -2.221 -11.274   3.204  1.00  0.00     0.188 C 
BRANCH   2   3
ATOM      3  O   UNL     1      -3.143 -11.299   2.116  1.00  0.00    -0.376 OA
BRANCH   3   4
ATOM      4  C   UNL     1      -2.683 -11.550   0.801  1.00  0.00     0.202 C 
BRANCH   4   5
ATOM      5  C   UNL     1      -1.841 -10.441   0.142  1.00  0.00     0.261 C 
BRANCH   5   6
ATOM      6  O   UNL     1      -0.976  -9.694   1.025  1.00  0.00    -0.463 OA
BRANCH   6   7
ATOM      7  C   UNL     1      -1.617  -8.750   1.755  1.00  0.00     0.310 C 
ATOM      8  O   UNL     1      -2.799  -8.446   1.597  1.00  0.00    -0.252 OA
BRANCH   7   9
ATOM      9  C   UNL     1      -0.731  -7.900   2.653  1.00  0.00     0.161 C 
BRANCH   9  10
ATOM     10  C   UNL     1       0.586  -8.163   3.406  1.00  0.00    -0.000 C 
ATOM     11  C   UNL     1       1.721  -7.485   3.062  1.00  0.00     0.019 C 
BRANCH  11  12
ATOM     12  C   UNL     1       1.892  -6.624   1.929  1.00  0.00     0.019 A 
ATOM     13  C   UNL     1       4.361  -7.101   1.159  1.00  0.00     0.069 C 
ATOM     14  C   UNL     1       2.990  -6.546   1.035  1.00  0.00     0.067 A 
ATOM     15  N   UNL     1       2.654  -5.845  -0.057  1.00  0.00    -0.177 NA
ATOM     16  N   UNL     1       1.379  -5.470   0.179  1.00  0.00    -0.265 N 
ATOM     17  C   UNL     1       1.062  -5.593   1.511  1.00  0.00     0.043 A 
ATOM     18  C   UNL     1      -0.016  -4.833   2.207  1.00  0.00     0.067 C 
BRANCH  16  19
ATOM     19  C   UNL     1       0.539  -5.048  -0.931  1.00  0.00     0.123 C 
ATOM     20  C   UNL     1       0.911  -5.730  -2.269  1.00  0.00     0.044 C 
ATOM     21  C   UNL     1      -0.946  -5.385  -0.770  1.00  0.00     0.164 C 
ATOM     22  C   UNL     1      -0.124  -5.282  -3.292  1.00  0.00     0.139 C 
ATOM     23  S   UNL     1      -1.643  -5.110  -2.379  1.00  0.00     0.152 S 
ATOM     24  O   UNL     1      -2.054  -3.712  -2.446  1.00  0.00    -0.229 OA
ATOM     25  O   UNL     1      -2.527  -6.192  -2.706  1.00  0.00    -0.229 OA
ENDBRANCH  16  19
ENDBRANCH  11  12
BRANCH  10  26
ATOM     26  C   UNL     1       0.598  -8.940   4.644  1.00  0.00     0.121 A 
ATOM     27  N   UNL     1      -0.487  -9.243   5.334  1.00  0.00    -0.236 NA
ATOM     28  S   UNL     1       2.045  -9.621   5.343  1.00  0.00    -0.114 S 
ATOM     29  C   UNL     1      -0.199 -10.023   6.447  1.00  0.00     0.082 A 
ATOM     30  C   UNL     1       1.145 -10.346   6.615  1.00  0.00     0.055 A 
ATOM     31  C   UNL     1      -1.138 -10.542   7.366  1.00  0.00     0.030 A 
ATOM     32  C   UNL     1       1.588 -11.165   7.673  1.00  0.00     0.021 A 
ATOM     33  C   UNL     1      -0.714 -11.384   8.404  1.00  0.00     0.002 A 
ATOM     34  C   UNL     1       0.635 -11.691   8.553  1.00  0.00     0.002 A 
ENDBRANCH  10  26
ENDBRANCH   9  10
ENDBRANCH   7   9
ENDBRANCH   6   7
ENDBRANCH   5   6
ENDBRANCH   4   5
ENDBRANCH   3   4
ENDBRANCH   2   3
ENDBRANCH   1   2
BRANCH   1  35
ATOM     35  O   UNL     1      -0.413 -12.477   1.915  1.00  0.00    -0.377 OA
BRANCH  35  36
ATOM     36  C   UNL     1      -0.182 -13.840   2.223  1.00  0.00     0.188 C 
BRANCH  36  37
ATOM     37  C   UNL     1      -1.373 -14.593   2.847  1.00  0.00     0.188 C 
BRANCH  37  38
ATOM     38  O   UNL     1      -2.002 -13.917   3.929  1.00  0.00    -0.376 OA
BRANCH  38  39
ATOM     39  C   UNL     1      -1.800 -14.352   5.265  1.00  0.00     0.202 C 
BRANCH  39  40
ATOM     40  C   UNL     1      -0.496 -13.870   5.887  1.00  0.00     0.261 C 
BRANCH  40  41
ATOM     41  O   UNL     1       0.651 -14.174   5.117  1.00  0.00    -0.460 OA
BRANCH  41  42
ATOM     42  C   UNL     1       0.836 -15.475   4.863  1.00  0.00     0.338 C 
ATOM     43  O   UNL     1       0.109 -16.410   5.181  1.00  0.00    -0.246 OA
BRANCH  42  44
ATOM     44  C   UNL     1       2.155 -15.642   4.256  1.00  0.00     0.060 A 
ATOM     45  C   UNL     1       2.507 -16.976   4.086  1.00  0.00     0.016 A 
ATOM     46  C   UNL     1       3.093 -14.615   4.461  1.00  0.00     0.016 A 
ATOM     47  C   UNL     1       3.742 -17.335   4.541  1.00  0.00     0.010 A 
ATOM     48  C   UNL     1       4.323 -14.978   4.930  1.00  0.00     0.010 A 
ATOM     49  C   UNL     1       4.576 -16.337   5.062  1.00  0.00    -0.014 A 
BRANCH  49  50
ATOM     50  C   UNL     1       5.800 -16.794   5.655  1.00  0.00     0.031 A 
ATOM     51  C   UNL     1       6.779 -17.192   4.633  1.00  0.00     0.074 A 
ATOM     52  C   UNL     1       6.008 -16.825   6.977  1.00  0.00     0.049 A 
ATOM     53  N   UNL     1       7.166 -18.383   4.325  1.00  0.00    -0.248 NA
ATOM     54  C   UNL     1       7.205 -16.140   3.699  1.00  0.00     0.031 C 
ATOM     55  C   UNL     1       5.271 -16.161   8.051  1.00  0.00     0.029 A 
ATOM     56  N   UNL     1       7.038 -17.422   7.619  1.00  0.00    -0.354 N 
ATOM     57  C   UNL     1       8.016 -18.213   3.241  1.00  0.00     0.074 A 
ATOM     58  C   UNL     1       7.842 -16.862   2.781  1.00  0.00     0.031 C 
ATOM     59  C   UNL     1       6.016 -16.213   9.181  1.00  0.00     0.029 A 
ATOM     60  C   UNL     1       7.202 -17.018   8.927  1.00  0.00     0.049 A 
ATOM     61  H   UNL     1       7.620 -18.089   7.188  1.00  0.00     0.167 HD
ATOM     62  C   UNL     1       8.979 -19.123   2.949  1.00  0.00     0.037 A 
ATOM     63  C   UNL     1       8.312 -17.253   9.664  1.00  0.00     0.037 A 
ATOM     64  C   UNL     1       8.707 -20.393   3.566  1.00  0.00     0.049 A 
ATOM     65  C   UNL     1       9.075 -18.349   8.998  1.00  0.00     0.074 A 
ATOM     66  C   UNL     1       7.704 -21.333   3.435  1.00  0.00     0.029 A 
ATOM     67  N   UNL     1       9.350 -20.688   4.744  1.00  0.00    -0.354 N 
ATOM     68  N   UNL     1       8.671 -19.588   8.927  1.00  0.00    -0.248 NA
ATOM     69  C   UNL     1      10.092 -17.976   8.023  1.00  0.00     0.031 C 
ATOM     70  C   UNL     1       7.514 -21.866   4.744  1.00  0.00     0.029 A 
ATOM     71  C   UNL     1       8.424 -21.236   5.595  1.00  0.00     0.049 A 
ATOM     72  H   UNL     1      10.302 -20.535   4.941  1.00  0.00     0.167 HD
ATOM     73  C   UNL     1       9.089 -20.038   7.679  1.00  0.00     0.074 A 
ATOM     74  C   UNL     1      10.037 -19.035   7.210  1.00  0.00     0.031 C 
ATOM     75  C   UNL     1       8.421 -21.033   7.026  1.00  0.00     0.037 A 
BRANCH  62  76
ATOM     76  C   UNL     1      10.324 -18.744   2.395  1.00  0.00     0.064 A 
ATOM     77  C   UNL     1      11.199 -19.760   1.973  1.00  0.00     0.173 A 
ATOM     78  C   UNL     1      10.896 -17.455   2.512  1.00  0.00     0.173 A 
ATOM     79  F   UNL     1      10.770 -21.025   1.854  1.00  0.00    -0.203 F 
ATOM     80  C   UNL     1      12.556 -19.515   1.751  1.00  0.00     0.198 A 
ATOM     81  C   UNL     1      12.233 -17.203   2.226  1.00  0.00     0.198 A 
ATOM     82  F   UNL     1      10.225 -16.412   3.014  1.00  0.00    -0.203 F 
ATOM     83  F   UNL     1      13.376 -20.536   1.474  1.00  0.00    -0.200 F 
ATOM     84  C   UNL     1      13.072 -18.238   1.879  1.00  0.00     0.200 A 
ATOM     85  F   UNL     1      12.713 -15.960   2.374  1.00  0.00    -0.200 F 
ATOM     86  F   UNL     1      14.381 -18.011   1.720  1.00  0.00    -0.200 F 
ENDBRANCH  62  76
BRANCH  63  87
ATOM     87  C   UNL     1       8.913 -16.354  10.673  1.00  0.00     0.064 A 
ATOM     88  C   UNL     1       9.838 -16.839  11.608  1.00  0.00     0.173 A 
ATOM     89  C   UNL     1       8.782 -14.954  10.585  1.00  0.00     0.173 A 
ATOM     90  F   UNL     1      10.057 -18.158  11.716  1.00  0.00    -0.203 F 
ATOM     91  C   UNL     1      10.597 -15.973  12.402  1.00  0.00     0.198 A 
ATOM     92  C   UNL     1       9.530 -14.091  11.385  1.00  0.00     0.198 A 
ATOM     93  F   UNL     1       7.994 -14.390   9.658  1.00  0.00    -0.203 F 
ATOM     94  F   UNL     1      11.512 -16.469  13.245  1.00  0.00    -0.200 F 
ATOM     95  C   UNL     1      10.446 -14.600  12.285  1.00  0.00     0.200 A 
ATOM     96  F   UNL     1       9.398 -12.765  11.235  1.00  0.00    -0.200 F 
ATOM     97  F   UNL     1      11.209 -13.769  13.008  1.00  0.00    -0.200 F 
ENDBRANCH  63  87
BRANCH  75  98
ATOM     98  C   UNL     1       7.399 -21.810   7.805  1.00  0.00     0.064 A 
ATOM     99  C   UNL     1       6.206 -21.247   8.288  1.00  0.00     0.173 A 
ATOM    100  C   UNL     1       7.552 -23.198   7.915  1.00  0.00     0.173 A 
ATOM    101  F   UNL     1       5.947 -19.943   8.124  1.00  0.00    -0.203 F 
ATOM    102  C   UNL     1       5.228 -22.037   8.888  1.00  0.00     0.198 A 
ATOM    103  C   UNL     1       6.558 -23.990   8.482  1.00  0.00     0.198 A 
ATOM    104  F   UNL     1       8.646 -23.795   7.415  1.00  0.00    -0.203 F 
ATOM    105  F   UNL     1       4.098 -21.477   9.345  1.00  0.00    -0.200 F 
ATOM    106  C   UNL     1       5.401 -23.409   8.976  1.00  0.00     0.200 A 
ATOM    107  F   UNL     1       6.706 -25.321   8.518  1.00  0.00    -0.200 F 
ATOM    108  F   UNL     1       4.438 -24.175   9.507  1.00  0.00    -0.200 F 
ENDBRANCH  75  98
ENDBRANCH  49  50
ENDBRANCH  42  44
ENDBRANCH  41  42
ENDBRANCH  40  41
ENDBRANCH  39  40
ENDBRANCH  38  39
ENDBRANCH  37  38
ENDBRANCH  36  37
ENDBRANCH  35  36
ENDBRANCH   1  35
TORSDOF 24
