REMARK SMILES [NH3+][C@H]1C=C[C@H](C(=O)N2CC[NH+](CC(=O)OCCOCCOCCOCCOC(=O)c3ccc(-c4c5nc(c(-c6c(F)c(F)c(F)c(F)c6F)c6ccc([nH]6)c(-c6c(F)c(F)c(F)c(F)c6F)c6nc(c(-c7c(F)c(F)c(F)c(F)c7F)c7ccc4[nH]7)C=C6)C=C5)cc3)CC2)C1
REMARK SMILES IDX 20 1 19 2 18 3 17 4 16 5 15 6 13 7 14 8 12 9 11 10 6 11 7 12
REMARK SMILES IDX 8 13 9 14 94 15 10 16 93 17 5 19 2 20 3 21 95 22 4 23 1 24
REMARK SMILES IDX 21 28 22 29 23 30 24 31 25 32 26 33 27 34 28 35 29 36 30 37
REMARK SMILES IDX 31 38 92 39 32 40 91 41 33 42 34 43 35 44 85 45 36 46 90 47
REMARK SMILES IDX 84 48 86 49 37 50 89 51 83 52 82 53 38 55 70 56 50 57 69 58
REMARK SMILES IDX 51 59 54 60 68 61 87 62 52 63 53 64 67 66 88 67 55 68 39 69
REMARK SMILES IDX 40 70 48 71 41 72 42 73 46 74 49 75 43 76 44 77 47 78 45 79
REMARK SMILES IDX 71 80 72 81 80 82 73 83 74 84 78 85 81 86 75 87 76 88 79 89
REMARK SMILES IDX 77 90 56 91 57 92 65 93 58 94 59 95 63 96 66 97 60 98 61 99
REMARK SMILES IDX 64 100 62 101
REMARK H PARENT 11 18 1 25 1 26 1 27 86 54 54 65
REMARK Flexibility Score: inf
ROOT
ATOM      1  C   UNL     1      -3.822  -6.163   3.010  1.00  0.00     0.188 C 
ENDROOT
BRANCH   1   2
ATOM      2  C   UNL     1      -4.159  -7.655   3.053  1.00  0.00     0.188 C 
BRANCH   2   3
ATOM      3  O   UNL     1      -3.178  -8.527   3.601  1.00  0.00    -0.376 OA
BRANCH   3   4
ATOM      4  C   UNL     1      -1.946  -8.702   2.914  1.00  0.00     0.202 C 
BRANCH   4   5
ATOM      5  C   UNL     1      -1.943  -9.067   1.418  1.00  0.00     0.261 C 
BRANCH   5   6
ATOM      6  O   UNL     1      -2.688  -8.187   0.553  1.00  0.00    -0.459 OA
BRANCH   6   7
ATOM      7  C   UNL     1      -3.569  -8.798  -0.286  1.00  0.00     0.361 C 
ATOM      8  O   UNL     1      -3.758 -10.012  -0.318  1.00  0.00    -0.245 OA
BRANCH   7   9
ATOM      9  C   UNL     1      -4.406  -7.841  -1.128  1.00  0.00     0.386 C 
BRANCH   9  10
ATOM     10  N   UNL     1      -3.722  -6.889  -1.999  1.00  0.00    -0.323 N 
ATOM     11  C   UNL     1      -0.417  -4.241  -1.450  1.00  0.00     0.230 C 
ATOM     12  O   UNL     1       0.372  -4.567  -0.563  1.00  0.00    -0.274 OA
ATOM     13  N   UNL     1      -1.507  -5.037  -1.784  1.00  0.00    -0.331 N 
ATOM     14  C   UNL     1      -2.792  -4.697  -1.181  1.00  0.00     0.181 C 
ATOM     15  C   UNL     1      -1.259  -6.472  -1.874  1.00  0.00     0.181 C 
ATOM     16  C   UNL     1      -3.970  -5.464  -1.795  1.00  0.00     0.284 C 
ATOM     17  C   UNL     1      -2.418  -7.208  -2.564  1.00  0.00     0.284 C 
ATOM     18  H   UNL     1      -4.310  -7.127  -2.798  1.00  0.00     0.348 HD
BRANCH  11  19
ATOM     19  C   UNL     1      -0.141  -3.103  -2.448  1.00  0.00     0.107 C 
ATOM     20  C   UNL     1       0.094  -0.917  -1.386  1.00  0.00     0.205 C 
ATOM     21  C   UNL     1      -1.154  -0.992  -2.189  1.00  0.00     0.033 C 
ATOM     22  C   UNL     1       0.897  -2.110  -1.921  1.00  0.00     0.087 C 
ATOM     23  C   UNL     1      -1.295  -2.196  -2.756  1.00  0.00    -0.012 C 
BRANCH  20  24
ATOM     24  N   UNL     1       0.796   0.340  -1.565  1.00  0.00    -0.352 N 
ATOM     25  H   UNL     1       0.227   1.102  -1.196  1.00  0.00     0.345 HD
ATOM     26  H   UNL     1       0.969   0.494  -2.558  1.00  0.00     0.345 HD
ATOM     27  H   UNL     1       1.685   0.306  -1.065  1.00  0.00     0.345 HD
ENDBRANCH  20  24
ENDBRANCH  11  19
ENDBRANCH   9  10
ENDBRANCH   7   9
ENDBRANCH   6   7
ENDBRANCH   5   6
ENDBRANCH   4   5
ENDBRANCH   3   4
ENDBRANCH   2   3
ENDBRANCH   1   2
BRANCH   1  28
ATOM     28  O   UNL     1      -2.838  -5.841   2.038  1.00  0.00    -0.377 OA
BRANCH  28  29
ATOM     29  C   UNL     1      -1.595  -5.289   2.470  1.00  0.00     0.188 C 
BRANCH  29  30
ATOM     30  C   UNL     1      -1.607  -4.375   3.696  1.00  0.00     0.188 C 
BRANCH  30  31
ATOM     31  O   UNL     1      -2.632  -3.383   3.739  1.00  0.00    -0.376 OA
BRANCH  31  32
ATOM     32  C   UNL     1      -2.923  -2.690   2.530  1.00  0.00     0.202 C 
BRANCH  32  33
ATOM     33  C   UNL     1      -1.925  -1.601   2.155  1.00  0.00     0.261 C 
BRANCH  33  34
ATOM     34  O   UNL     1      -0.624  -2.135   1.882  1.00  0.00    -0.460 OA
BRANCH  34  35
ATOM     35  C   UNL     1       0.348  -1.827   2.771  1.00  0.00     0.338 C 
ATOM     36  O   UNL     1       0.253  -1.220   3.823  1.00  0.00    -0.246 OA
BRANCH  35  37
ATOM     37  C   UNL     1       1.617  -2.286   2.199  1.00  0.00     0.060 A 
ATOM     38  C   UNL     1       2.237  -3.464   2.610  1.00  0.00     0.016 A 
ATOM     39  C   UNL     1       2.189  -1.489   1.215  1.00  0.00     0.016 A 
ATOM     40  C   UNL     1       3.465  -3.827   2.040  1.00  0.00     0.010 A 
ATOM     41  C   UNL     1       3.341  -1.918   0.568  1.00  0.00     0.010 A 
ATOM     42  C   UNL     1       4.038  -3.051   1.018  1.00  0.00    -0.014 A 
BRANCH  42  43
ATOM     43  C   UNL     1       5.426  -3.285   0.519  1.00  0.00     0.031 A 
ATOM     44  C   UNL     1       6.425  -2.147   0.591  1.00  0.00     0.074 A 
ATOM     45  C   UNL     1       5.805  -4.457  -0.030  1.00  0.00     0.049 A 
ATOM     46  N   UNL     1       7.638  -2.062   0.103  1.00  0.00    -0.248 NA
ATOM     47  C   UNL     1       5.965  -0.903   1.234  1.00  0.00     0.031 C 
ATOM     48  C   UNL     1       4.947  -5.622  -0.241  1.00  0.00     0.029 A 
ATOM     49  N   UNL     1       7.029  -4.856  -0.514  1.00  0.00    -0.354 N 
ATOM     50  C   UNL     1       8.036  -0.748   0.323  1.00  0.00     0.074 A 
ATOM     51  C   UNL     1       6.900  -0.045   0.868  1.00  0.00     0.031 C 
ATOM     52  C   UNL     1       5.681  -6.620  -0.764  1.00  0.00     0.029 A 
ATOM     53  C   UNL     1       7.053  -6.157  -0.957  1.00  0.00     0.049 A 
ATOM     54  H   UNL     1       7.815  -4.265  -0.540  1.00  0.00     0.167 HD
ATOM     55  C   UNL     1       9.256  -0.181   0.165  1.00  0.00     0.037 A 
ATOM     56  C   UNL     1       8.074  -6.888  -1.450  1.00  0.00     0.037 A 
ATOM     57  C   UNL     1      10.420  -0.904  -0.261  1.00  0.00     0.049 A 
ATOM     58  C   UNL     1       9.444  -6.262  -1.563  1.00  0.00     0.074 A 
ATOM     59  C   UNL     1      11.725  -0.461  -0.361  1.00  0.00     0.029 A 
ATOM     60  N   UNL     1      10.416  -2.240  -0.633  1.00  0.00    -0.354 N 
ATOM     61  N   UNL     1       9.829  -5.043  -1.272  1.00  0.00    -0.248 NA
ATOM     62  C   UNL     1      10.527  -7.125  -2.059  1.00  0.00     0.031 C 
ATOM     63  C   UNL     1      12.508  -1.520  -0.829  1.00  0.00     0.029 A 
ATOM     64  C   UNL     1      11.698  -2.637  -0.970  1.00  0.00     0.049 A 
ATOM     65  H   UNL     1       9.621  -2.820  -0.654  1.00  0.00     0.167 HD
ATOM     66  C   UNL     1      11.198  -5.005  -1.511  1.00  0.00     0.074 A 
ATOM     67  C   UNL     1      11.581  -6.328  -1.954  1.00  0.00     0.031 C 
ATOM     68  C   UNL     1      12.063  -3.968  -1.379  1.00  0.00     0.037 A 
BRANCH  55  69
ATOM     69  C   UNL     1       9.391   1.278   0.503  1.00  0.00     0.064 A 
ATOM     70  C   UNL     1       9.222   1.752   1.816  1.00  0.00     0.173 A 
ATOM     71  C   UNL     1       9.678   2.219  -0.497  1.00  0.00     0.173 A 
ATOM     72  F   UNL     1       8.936   0.899   2.811  1.00  0.00    -0.203 F 
ATOM     73  C   UNL     1       9.270   3.114   2.100  1.00  0.00     0.198 A 
ATOM     74  C   UNL     1       9.772   3.576  -0.200  1.00  0.00     0.198 A 
ATOM     75  F   UNL     1       9.862   1.824  -1.766  1.00  0.00    -0.203 F 
ATOM     76  F   UNL     1       9.012   3.545   3.343  1.00  0.00    -0.200 F 
ATOM     77  C   UNL     1       9.550   4.024   1.094  1.00  0.00     0.200 A 
ATOM     78  F   UNL     1      10.061   4.454  -1.170  1.00  0.00    -0.200 F 
ATOM     79  F   UNL     1       9.595   5.335   1.369  1.00  0.00    -0.200 F 
ENDBRANCH  55  69
BRANCH  56  80
ATOM     80  C   UNL     1       7.869  -8.315  -1.823  1.00  0.00     0.064 A 
ATOM     81  C   UNL     1       8.470  -9.344  -1.081  1.00  0.00     0.173 A 
ATOM     82  C   UNL     1       7.110  -8.683  -2.943  1.00  0.00     0.173 A 
ATOM     83  F   UNL     1       9.225  -9.045  -0.013  1.00  0.00    -0.203 F 
ATOM     84  C   UNL     1       8.350 -10.678  -1.464  1.00  0.00     0.198 A 
ATOM     85  C   UNL     1       6.964 -10.021  -3.308  1.00  0.00     0.198 A 
ATOM     86  F   UNL     1       6.510  -7.742  -3.687  1.00  0.00    -0.203 F 
ATOM     87  F   UNL     1       8.988 -11.632  -0.773  1.00  0.00    -0.200 F 
ATOM     88  C   UNL     1       7.594 -11.017  -2.576  1.00  0.00     0.200 A 
ATOM     89  F   UNL     1       6.222 -10.346  -4.376  1.00  0.00    -0.200 F 
ATOM     90  F   UNL     1       7.482 -12.299  -2.948  1.00  0.00    -0.200 F 
ENDBRANCH  56  80
BRANCH  68  91
ATOM     91  C   UNL     1      13.515  -4.230  -1.658  1.00  0.00     0.064 A 
ATOM     92  C   UNL     1      13.990  -4.459  -2.957  1.00  0.00     0.173 A 
ATOM     93  C   UNL     1      14.453  -4.190  -0.614  1.00  0.00     0.173 A 
ATOM     94  F   UNL     1      13.134  -4.515  -3.989  1.00  0.00    -0.203 F 
ATOM     95  C   UNL     1      15.345  -4.668  -3.197  1.00  0.00     0.198 A 
ATOM     96  C   UNL     1      15.811  -4.364  -0.862  1.00  0.00     0.198 A 
ATOM     97  F   UNL     1      14.054  -3.961   0.647  1.00  0.00    -0.203 F 
ATOM     98  F   UNL     1      15.770  -4.935  -4.440  1.00  0.00    -0.200 F 
ATOM     99  C   UNL     1      16.255  -4.611  -2.152  1.00  0.00     0.200 A 
ATOM    100  F   UNL     1      16.691  -4.287   0.146  1.00  0.00    -0.200 F 
ATOM    101  F   UNL     1      17.561  -4.799  -2.387  1.00  0.00    -0.200 F 
ENDBRANCH  68  91
ENDBRANCH  42  43
ENDBRANCH  35  37
ENDBRANCH  34  35
ENDBRANCH  33  34
ENDBRANCH  32  33
ENDBRANCH  31  32
ENDBRANCH  30  31
ENDBRANCH  29  30
ENDBRANCH  28  29
ENDBRANCH   1  28
TORSDOF 23
