REMARK SMILES O=C(OCCOCCOCCOCCOC(=O)c1ccccc1[C@@H]1SCC(=O)N1NC(=S)Nc1ccccc1)c1ccc(-c2c3nc(c(-c4c(F)c(F)c(F)c(F)c4F)c4ccc([nH]4)c(-c4c(F)c(F)c(F)c(F)c4F)c4nc(c(-c5c(F)c(F)c(F)c(F)c5F)c5ccc2[nH]5)C=C4)C=C3)cc1
REMARK SMILES IDX 10 1 9 2 8 3 7 4 6 5 5 6 4 7 3 8 2 9 1 10 40 11 41 12 102 13
REMARK SMILES IDX 42 14 101 15 43 16 44 17 45 18 95 19 46 20 100 21 94 22
REMARK SMILES IDX 96 23 47 24 99 25 93 26 92 27 48 29 80 30 60 31 79 32 61 33
REMARK SMILES IDX 64 34 78 35 97 36 62 37 63 38 77 40 98 41 65 42 49 43 50 44
REMARK SMILES IDX 58 45 51 46 52 47 56 48 59 49 53 50 54 51 57 52 55 53 81 54
REMARK SMILES IDX 82 55 90 56 83 57 84 58 88 59 91 60 85 61 86 62 89 63 87 64
REMARK SMILES IDX 66 65 67 66 75 67 68 68 69 69 73 70 76 71 70 72 71 73 74 74
REMARK SMILES IDX 72 75 11 76 12 77 13 78 14 79 15 80 16 81 17 82 18 83 19 84
REMARK SMILES IDX 23 85 20 86 22 87 21 88 24 89 25 90 29 91 26 92 27 93 28 94
REMARK SMILES IDX 30 95 31 97 32 98 33 99 34 101 35 102 39 103 36 104 38 105
REMARK SMILES IDX 37 106
REMARK H PARENT 96 28 64 39 30 96 33 100
REMARK Flexibility Score: inf
ROOT
ATOM      1  C   UNL     1       4.266   3.361  -1.249  1.00  0.00     0.188 C 
ENDROOT
BRANCH   1   2
ATOM      2  O   UNL     1       2.877   3.597  -1.091  1.00  0.00    -0.377 OA
BRANCH   2   3
ATOM      3  C   UNL     1       2.147   2.678  -0.283  1.00  0.00     0.188 C 
BRANCH   3   4
ATOM      4  C   UNL     1       2.437   1.199  -0.544  1.00  0.00     0.188 C 
BRANCH   4   5
ATOM      5  O   UNL     1       3.791   0.869  -0.245  1.00  0.00    -0.376 OA
BRANCH   5   6
ATOM      6  C   UNL     1       4.504   0.078  -1.190  1.00  0.00     0.202 C 
BRANCH   6   7
ATOM      7  C   UNL     1       4.112  -1.395  -1.239  1.00  0.00     0.261 C 
BRANCH   7   8
ATOM      8  O   UNL     1       2.748  -1.641  -0.876  1.00  0.00    -0.460 OA
BRANCH   8   9
ATOM      9  C   UNL     1       2.222  -1.860   0.352  1.00  0.00     0.338 C 
ATOM     10  O   UNL     1       1.033  -2.170   0.420  1.00  0.00    -0.246 OA
BRANCH   9  11
ATOM     11  C   UNL     1       2.966  -1.714   1.646  1.00  0.00     0.060 A 
ATOM     12  C   UNL     1       4.154  -1.009   1.831  1.00  0.00     0.016 A 
ATOM     13  C   UNL     1       2.362  -2.267   2.790  1.00  0.00     0.016 A 
ATOM     14  C   UNL     1       4.723  -0.829   3.078  1.00  0.00     0.010 A 
ATOM     15  C   UNL     1       2.942  -2.129   4.055  1.00  0.00     0.010 A 
ATOM     16  C   UNL     1       4.138  -1.418   4.188  1.00  0.00    -0.014 A 
BRANCH  16  17
ATOM     17  C   UNL     1       4.979  -1.487   5.389  1.00  0.00     0.031 A 
ATOM     18  C   UNL     1       5.746  -2.755   5.601  1.00  0.00     0.074 A 
ATOM     19  C   UNL     1       5.213  -0.376   6.107  1.00  0.00     0.049 A 
ATOM     20  N   UNL     1       6.537  -3.097   6.578  1.00  0.00    -0.248 NA
ATOM     21  C   UNL     1       5.626  -3.773   4.539  1.00  0.00     0.031 C 
ATOM     22  C   UNL     1       4.655   0.948   5.820  1.00  0.00     0.029 A 
ATOM     23  N   UNL     1       6.013  -0.173   7.196  1.00  0.00    -0.354 N 
ATOM     24  C   UNL     1       6.984  -4.373   6.263  1.00  0.00     0.074 A 
ATOM     25  C   UNL     1       6.376  -4.754   5.011  1.00  0.00     0.031 C 
ATOM     26  C   UNL     1       5.131   1.827   6.717  1.00  0.00     0.029 A 
ATOM     27  C   UNL     1       5.962   1.112   7.677  1.00  0.00     0.049 A 
ATOM     28  H   UNL     1       6.572  -0.878   7.596  1.00  0.00     0.167 HD
ATOM     29  C   UNL     1       7.829  -5.151   6.973  1.00  0.00     0.037 A 
ATOM     30  C   UNL     1       6.494   1.616   8.805  1.00  0.00     0.037 A 
ATOM     31  C   UNL     1       8.402  -4.727   8.220  1.00  0.00     0.049 A 
ATOM     32  C   UNL     1       7.301   0.676   9.665  1.00  0.00     0.074 A 
ATOM     33  C   UNL     1       9.182  -5.440   9.107  1.00  0.00     0.029 A 
ATOM     34  N   UNL     1       8.243  -3.451   8.750  1.00  0.00    -0.354 N 
ATOM     35  N   UNL     1       7.638  -0.573   9.436  1.00  0.00    -0.248 NA
ATOM     36  C   UNL     1       7.788   1.204  10.943  1.00  0.00     0.031 C 
ATOM     37  C   UNL     1       9.451  -4.610  10.200  1.00  0.00     0.029 A 
ATOM     38  C   UNL     1       8.897  -3.359   9.963  1.00  0.00     0.049 A 
ATOM     39  H   UNL     1       7.739  -2.721   8.323  1.00  0.00     0.167 HD
ATOM     40  C   UNL     1       8.398  -0.973  10.525  1.00  0.00     0.074 A 
ATOM     41  C   UNL     1       8.489   0.178  11.404  1.00  0.00     0.031 C 
ATOM     42  C   UNL     1       8.967  -2.176  10.787  1.00  0.00     0.037 A 
BRANCH  29  43
ATOM     43  C   UNL     1       8.084  -6.534   6.454  1.00  0.00     0.064 A 
ATOM     44  C   UNL     1       8.829  -6.769   5.287  1.00  0.00     0.173 A 
ATOM     45  C   UNL     1       7.521  -7.643   7.104  1.00  0.00     0.173 A 
ATOM     46  F   UNL     1       9.356  -5.742   4.604  1.00  0.00    -0.203 F 
ATOM     47  C   UNL     1       8.972  -8.058   4.775  1.00  0.00     0.198 A 
ATOM     48  C   UNL     1       7.691  -8.932   6.606  1.00  0.00     0.198 A 
ATOM     49  F   UNL     1       6.785  -7.474   8.213  1.00  0.00    -0.203 F 
ATOM     50  F   UNL     1       9.627  -8.250   3.622  1.00  0.00    -0.200 F 
ATOM     51  C   UNL     1       8.408  -9.137   5.438  1.00  0.00     0.200 A 
ATOM     52  F   UNL     1       7.144  -9.973   7.248  1.00  0.00    -0.200 F 
ATOM     53  F   UNL     1       8.538 -10.375   4.939  1.00  0.00    -0.200 F 
ENDBRANCH  29  43
BRANCH  30  54
ATOM     54  C   UNL     1       6.218   3.019   9.221  1.00  0.00     0.064 A 
ATOM     55  C   UNL     1       7.251   3.952   9.391  1.00  0.00     0.173 A 
ATOM     56  C   UNL     1       4.910   3.447   9.507  1.00  0.00     0.173 A 
ATOM     57  F   UNL     1       8.521   3.596   9.151  1.00  0.00    -0.203 F 
ATOM     58  C   UNL     1       6.992   5.239   9.863  1.00  0.00     0.198 A 
ATOM     59  C   UNL     1       4.649   4.745   9.942  1.00  0.00     0.198 A 
ATOM     60  F   UNL     1       3.879   2.601   9.367  1.00  0.00    -0.203 F 
ATOM     61  F   UNL     1       8.007   6.087  10.079  1.00  0.00    -0.200 F 
ATOM     62  C   UNL     1       5.691   5.636  10.134  1.00  0.00     0.200 A 
ATOM     63  F   UNL     1       3.387   5.125  10.187  1.00  0.00    -0.200 F 
ATOM     64  F   UNL     1       5.445   6.870  10.595  1.00  0.00    -0.200 F 
ENDBRANCH  30  54
BRANCH  42  65
ATOM     65  C   UNL     1       9.776  -2.278  12.045  1.00  0.00     0.064 A 
ATOM     66  C   UNL     1       9.175  -2.281  13.311  1.00  0.00     0.173 A 
ATOM     67  C   UNL     1      11.169  -2.425  11.971  1.00  0.00     0.173 A 
ATOM     68  F   UNL     1       7.847  -2.128  13.429  1.00  0.00    -0.203 F 
ATOM     69  C   UNL     1       9.945  -2.396  14.462  1.00  0.00     0.198 A 
ATOM     70  C   UNL     1      11.931  -2.581  13.123  1.00  0.00     0.198 A 
ATOM     71  F   UNL     1      11.787  -2.439  10.780  1.00  0.00    -0.203 F 
ATOM     72  F   UNL     1       9.359  -2.339  15.666  1.00  0.00    -0.200 F 
ATOM     73  C   UNL     1      11.320  -2.556  14.367  1.00  0.00     0.200 A 
ATOM     74  F   UNL     1      13.256  -2.756  13.028  1.00  0.00    -0.200 F 
ATOM     75  F   UNL     1      12.059  -2.681  15.478  1.00  0.00    -0.200 F 
ENDBRANCH  42  65
ENDBRANCH  16  17
ENDBRANCH   9  11
ENDBRANCH   8   9
ENDBRANCH   7   8
ENDBRANCH   6   7
ENDBRANCH   5   6
ENDBRANCH   4   5
ENDBRANCH   3   4
ENDBRANCH   2   3
ENDBRANCH   1   2
BRANCH   1  76
ATOM     76  C   UNL     1       5.190   3.326  -0.006  1.00  0.00     0.188 C 
BRANCH  76  77
ATOM     77  O   UNL     1       4.512   3.131   1.225  1.00  0.00    -0.376 OA
BRANCH  77  78
ATOM     78  C   UNL     1       4.455   4.255   2.091  1.00  0.00     0.202 C 
BRANCH  78  79
ATOM     79  C   UNL     1       3.900   5.580   1.551  1.00  0.00     0.261 C 
BRANCH  79  80
ATOM     80  O   UNL     1       4.108   5.828   0.143  1.00  0.00    -0.460 OA
BRANCH  80  81
ATOM     81  C   UNL     1       5.053   6.707  -0.264  1.00  0.00     0.338 C 
ATOM     82  O   UNL     1       5.805   7.327   0.444  1.00  0.00    -0.246 OA
BRANCH  81  83
ATOM     83  C   UNL     1       5.188   6.594  -1.753  1.00  0.00     0.066 A 
ATOM     84  C   UNL     1       6.398   5.978  -2.153  1.00  0.00     0.016 A 
ATOM     85  C   UNL     1       4.225   6.965  -2.728  1.00  0.00     0.001 A 
ATOM     86  C   UNL     1       6.651   5.680  -3.491  1.00  0.00     0.001 A 
ATOM     87  C   UNL     1       4.543   6.689  -4.084  1.00  0.00     0.008 A 
ATOM     88  C   UNL     1       5.727   6.046  -4.457  1.00  0.00     0.000 A 
BRANCH  85  89
ATOM     89  C   UNL     1       2.879   7.652  -2.484  1.00  0.00     0.197 C 
ATOM     90  S   UNL     1       3.040   9.162  -1.514  1.00  0.00    -0.120 SA
ATOM     91  N   UNL     1       1.874   6.838  -1.831  1.00  0.00    -0.236 N 
ATOM     92  C   UNL     1       2.236   8.430  -0.075  1.00  0.00     0.174 C 
ATOM     93  C   UNL     1       1.749   7.045  -0.468  1.00  0.00     0.252 C 
ATOM     94  O   UNL     1       1.320   6.259   0.364  1.00  0.00    -0.272 OA
BRANCH  91  95
ATOM     95  N   UNL     1       1.393   5.733  -2.568  1.00  0.00    -0.270 N 
ATOM     96  H   UNL     1       1.980   5.483  -3.318  1.00  0.00     0.191 HD
BRANCH  95  97
ATOM     97  C   UNL     1       0.298   4.943  -2.464  1.00  0.00     0.189 C 
ATOM     98  S   UNL     1       0.220   3.651  -3.548  1.00  0.00    -0.039 S 
BRANCH  97  99
ATOM     99  N   UNL     1      -0.672   5.004  -1.534  1.00  0.00    -0.331 N 
ATOM    100  H   UNL     1      -1.152   4.155  -1.405  1.00  0.00     0.169 HD
BRANCH  99 101
ATOM    101  C   UNL     1      -1.130   6.039  -0.715  1.00  0.00     0.040 A 
ATOM    102  C   UNL     1      -1.437   5.723   0.617  1.00  0.00     0.026 A 
ATOM    103  C   UNL     1      -1.189   7.359  -1.155  1.00  0.00     0.026 A 
ATOM    104  C   UNL     1      -1.615   6.750   1.544  1.00  0.00     0.002 A 
ATOM    105  C   UNL     1      -1.422   8.380  -0.233  1.00  0.00     0.002 A 
ATOM    106  C   UNL     1      -1.588   8.079   1.121  1.00  0.00     0.000 A 
ENDBRANCH  99 101
ENDBRANCH  97  99
ENDBRANCH  95  97
ENDBRANCH  91  95
ENDBRANCH  85  89
ENDBRANCH  81  83
ENDBRANCH  80  81
ENDBRANCH  79  80
ENDBRANCH  78  79
ENDBRANCH  77  78
ENDBRANCH  76  77
ENDBRANCH   1  76
TORSDOF 25
