REMARK SMILES CC(C)(C)N(CCC(=O)OCCOCCOCCOCCOC(=O)c1ccc(-c2c3nc(c(-c4c(F)c(F)c(F)c(F)c4F)c4ccc([nH]4)c(-c4c(F)c(F)c(F)c(F)c4F)c4nc(c(-c5c(F)c(F)c(F)c(F)c5F)c5ccc2[nH]5)C=C4)C=C3)cc1)C(=O)N1CC[N@@H+]2CCC[C@H]2C1
REMARK SMILES IDX 15 1 14 2 13 3 12 4 11 5 10 6 8 7 9 8 7 9 6 10 5 11 2 12
REMARK SMILES IDX 1 13 3 14 4 15 88 16 89 17 90 18 91 19 98 20 92 21 97 22
REMARK SMILES IDX 93 23 96 24 94 25 95 27 16 28 17 29 18 30 19 31 20 32 21 33
REMARK SMILES IDX 22 34 23 35 24 36 25 37 26 38 87 39 27 40 86 41 28 42 29 43
REMARK SMILES IDX 30 44 80 45 31 46 85 47 79 48 81 49 32 50 84 51 78 52 77 53
REMARK SMILES IDX 33 55 65 56 45 57 64 58 46 59 49 60 63 61 82 62 47 63 48 64
REMARK SMILES IDX 62 66 83 67 50 68 34 69 35 70 43 71 36 72 37 73 41 74 44 75
REMARK SMILES IDX 38 76 39 77 42 78 40 79 66 80 67 81 75 82 68 83 69 84 73 85
REMARK SMILES IDX 76 86 70 87 71 88 74 89 72 90 51 91 52 92 60 93 53 94 54 95
REMARK SMILES IDX 58 96 61 97 55 98 56 99 59 100 57 101
REMARK H PARENT 93 26 81 54 49 65
REMARK Flexibility Score: inf
ROOT
ATOM      1  C   UNL     1       0.633  -3.541  -3.286  1.00  0.00     0.188 C 
ENDROOT
BRANCH   1   2
ATOM      2  C   UNL     1       1.580  -4.729  -3.617  1.00  0.00     0.188 C 
BRANCH   2   3
ATOM      3  O   UNL     1       1.982  -5.844  -2.598  1.00  0.00    -0.376 OA
BRANCH   3   4
ATOM      4  C   UNL     1       3.153  -6.601  -1.276  1.00  0.00     0.202 C 
BRANCH   4   5
ATOM      5  C   UNL     1       3.415  -6.208   0.360  1.00  0.00     0.261 C 
BRANCH   5   6
ATOM      6  O   UNL     1       3.439  -4.838   0.828  1.00  0.00    -0.463 OA
BRANCH   6   7
ATOM      7  C   UNL     1       4.516  -4.058   0.637  1.00  0.00     0.307 C 
ATOM      8  O   UNL     1       5.659  -4.481   0.514  1.00  0.00    -0.252 OA
BRANCH   7   9
ATOM      9  C   UNL     1       4.146  -2.592   0.485  1.00  0.00     0.144 C 
BRANCH   9  10
ATOM     10  C   UNL     1       2.959  -2.188  -0.400  1.00  0.00     0.133 C 
BRANCH  10  11
ATOM     11  N   UNL     1       1.619  -2.622  -0.014  1.00  0.00    -0.319 N 
BRANCH  11  12
ATOM     12  C   UNL     1       0.725  -1.620   0.715  1.00  0.00     0.036 C 
ATOM     13  C   UNL     1       1.003  -0.147   0.298  1.00  0.00     0.034 C 
ATOM     14  C   UNL     1       0.960  -1.737   2.228  1.00  0.00     0.034 C 
ATOM     15  C   UNL     1      -0.791  -1.799   0.417  1.00  0.00     0.034 C 
ENDBRANCH  11  12
BRANCH  11  16
ATOM     16  C   UNL     1       1.199  -3.950  -0.133  1.00  0.00     0.320 C 
ATOM     17  O   UNL     1       0.220  -4.372   0.492  1.00  0.00    -0.248 OA
BRANCH  16  18
ATOM     18  N   UNL     1       1.846  -4.841  -0.999  1.00  0.00    -0.313 N 
ATOM     19  C   UNL     1       3.413  -4.651  -2.105  1.00  0.00     0.183 C 
ATOM     20  C   UNL     1       0.898  -6.479  -1.079  1.00  0.00     0.186 C 
ATOM     21  C   UNL     1       3.736  -6.069  -3.462  1.00  0.00     0.284 C 
ATOM     22  C   UNL     1       1.222  -7.586  -2.623  1.00  0.00     0.204 C 
ATOM     23  N   UNL     1       2.813  -7.613  -3.420  1.00  0.00    -0.330 N 
ATOM     24  C   UNL     1       0.774  -8.978  -2.964  1.00  0.00     0.073 C 
ATOM     25  C   UNL     1       2.379  -8.059  -4.744  1.00  0.00     0.262 C 
ATOM     26  H   UNL     1       3.500  -8.188  -2.932  1.00  0.00     0.348 HD
ATOM     27  C   UNL     1       1.235  -9.078  -4.462  1.00  0.00     0.068 C 
ENDBRANCH  16  18
ENDBRANCH  11  16
ENDBRANCH  10  11
ENDBRANCH   9  10
ENDBRANCH   7   9
ENDBRANCH   6   7
ENDBRANCH   5   6
ENDBRANCH   4   5
ENDBRANCH   3   4
ENDBRANCH   2   3
ENDBRANCH   1   2
BRANCH   1  28
ATOM     28  O   UNL     1      -0.753  -3.737  -3.558  1.00  0.00    -0.377 OA
BRANCH  28  29
ATOM     29  C   UNL     1      -1.266  -4.949  -3.046  1.00  0.00     0.188 C 
BRANCH  29  30
ATOM     30  C   UNL     1      -1.659  -5.975  -4.117  1.00  0.00     0.188 C 
BRANCH  30  31
ATOM     31  O   UNL     1      -1.435  -5.629  -5.463  1.00  0.00    -0.376 OA
BRANCH  31  32
ATOM     32  C   UNL     1      -1.984  -4.396  -5.908  1.00  0.00     0.202 C 
BRANCH  32  33
ATOM     33  C   UNL     1      -3.254  -3.734  -5.291  1.00  0.00     0.261 C 
BRANCH  33  34
ATOM     34  O   UNL     1      -3.699  -4.099  -3.966  1.00  0.00    -0.460 OA
BRANCH  34  35
ATOM     35  C   UNL     1      -4.614  -5.097  -3.856  1.00  0.00     0.338 C 
ATOM     36  O   UNL     1      -5.143  -5.700  -4.766  1.00  0.00    -0.246 OA
BRANCH  35  37
ATOM     37  C   UNL     1      -4.710  -5.519  -2.426  1.00  0.00     0.060 A 
ATOM     38  C   UNL     1      -4.320  -6.821  -2.056  1.00  0.00     0.016 A 
ATOM     39  C   UNL     1      -5.243  -4.661  -1.466  1.00  0.00     0.016 A 
ATOM     40  C   UNL     1      -4.516  -7.287  -0.751  1.00  0.00     0.010 A 
ATOM     41  C   UNL     1      -5.483  -5.141  -0.171  1.00  0.00     0.010 A 
ATOM     42  C   UNL     1      -5.176  -6.473   0.175  1.00  0.00    -0.014 A 
BRANCH  42  43
ATOM     43  C   UNL     1      -5.863  -7.088   1.344  1.00  0.00     0.031 A 
ATOM     44  C   UNL     1      -7.310  -7.476   1.158  1.00  0.00     0.074 A 
ATOM     45  C   UNL     1      -5.265  -7.289   2.531  1.00  0.00     0.049 A 
ATOM     46  N   UNL     1      -8.196  -7.868   2.037  1.00  0.00    -0.248 NA
ATOM     47  C   UNL     1      -7.828  -7.392  -0.218  1.00  0.00     0.031 C 
ATOM     48  C   UNL     1      -3.861  -7.030   2.831  1.00  0.00     0.029 A 
ATOM     49  N   UNL     1      -5.789  -7.741   3.720  1.00  0.00    -0.354 N 
ATOM     50  C   UNL     1      -9.377  -8.047   1.325  1.00  0.00     0.074 A 
ATOM     51  C   UNL     1      -9.102  -7.704  -0.051  1.00  0.00     0.031 C 
ATOM     52  C   UNL     1      -3.639  -7.297   4.132  1.00  0.00     0.029 A 
ATOM     53  C   UNL     1      -4.896  -7.703   4.764  1.00  0.00     0.049 A 
ATOM     54  H   UNL     1      -6.715  -8.061   3.814  1.00  0.00     0.167 HD
ATOM     55  C   UNL     1     -10.585  -8.460   1.775  1.00  0.00     0.037 A 
ATOM     56  C   UNL     1      -5.087  -7.931   6.080  1.00  0.00     0.037 A 
ATOM     57  C   UNL     1     -10.860  -8.796   3.146  1.00  0.00     0.049 A 
ATOM     58  C   UNL     1      -6.464  -8.310   6.577  1.00  0.00     0.074 A 
ATOM     59  C   UNL     1     -12.048  -9.227   3.707  1.00  0.00     0.029 A 
ATOM     60  N   UNL     1      -9.932  -8.728   4.174  1.00  0.00    -0.354 N 
ATOM     61  N   UNL     1      -7.577  -8.478   5.904  1.00  0.00    -0.248 NA
ATOM     62  C   UNL     1      -6.609  -8.530   8.025  1.00  0.00     0.031 C 
ATOM     63  C   UNL     1     -11.855  -9.362   5.086  1.00  0.00     0.029 A 
ATOM     64  C   UNL     1     -10.528  -9.087   5.372  1.00  0.00     0.049 A 
ATOM     65  H   UNL     1      -8.989  -8.464   4.068  1.00  0.00     0.167 HD
ATOM     66  C   UNL     1      -8.538  -8.860   6.834  1.00  0.00     0.074 A 
ATOM     67  C   UNL     1      -7.875  -8.910   8.119  1.00  0.00     0.031 C 
ATOM     68  C   UNL     1      -9.850  -9.148   6.642  1.00  0.00     0.037 A 
BRANCH  55  69
ATOM     69  C   UNL     1     -11.710  -8.525   0.781  1.00  0.00     0.064 A 
ATOM     70  C   UNL     1     -11.735  -9.475  -0.252  1.00  0.00     0.173 A 
ATOM     71  C   UNL     1     -12.787  -7.630   0.874  1.00  0.00     0.173 A 
ATOM     72  F   UNL     1     -10.721 -10.341  -0.398  1.00  0.00    -0.203 F 
ATOM     73  C   UNL     1     -12.780  -9.506  -1.172  1.00  0.00     0.198 A 
ATOM     74  C   UNL     1     -13.848  -7.688  -0.026  1.00  0.00     0.198 A 
ATOM     75  F   UNL     1     -12.816  -6.702   1.842  1.00  0.00    -0.203 F 
ATOM     76  F   UNL     1     -12.753 -10.384  -2.184  1.00  0.00    -0.200 F 
ATOM     77  C   UNL     1     -13.839  -8.619  -1.053  1.00  0.00     0.200 A 
ATOM     78  F   UNL     1     -14.878  -6.839   0.100  1.00  0.00    -0.200 F 
ATOM     79  F   UNL     1     -14.848  -8.655  -1.934  1.00  0.00    -0.200 F 
ENDBRANCH  55  69
BRANCH  56  80
ATOM     80  C   UNL     1      -3.957  -7.786   7.039  1.00  0.00     0.064 A 
ATOM     81  C   UNL     1      -3.452  -8.893   7.737  1.00  0.00     0.173 A 
ATOM     82  C   UNL     1      -3.385  -6.533   7.311  1.00  0.00     0.173 A 
ATOM     83  F   UNL     1      -3.987 -10.107   7.543  1.00  0.00    -0.203 F 
ATOM     84  C   UNL     1      -2.436  -8.751   8.681  1.00  0.00     0.198 A 
ATOM     85  C   UNL     1      -2.346  -6.397   8.230  1.00  0.00     0.198 A 
ATOM     86  F   UNL     1      -3.837  -5.438   6.684  1.00  0.00    -0.203 F 
ATOM     87  F   UNL     1      -2.016  -9.817   9.376  1.00  0.00    -0.200 F 
ATOM     88  C   UNL     1      -1.879  -7.504   8.922  1.00  0.00     0.200 A 
ATOM     89  F   UNL     1      -1.805  -5.192   8.455  1.00  0.00    -0.200 F 
ATOM     90  F   UNL     1      -0.902  -7.368   9.829  1.00  0.00    -0.200 F 
ENDBRANCH  56  80
BRANCH  68  91
ATOM     91  C   UNL     1     -10.646  -9.606   7.834  1.00  0.00     0.064 A 
ATOM     92  C   UNL     1     -10.977  -8.740   8.887  1.00  0.00     0.173 A 
ATOM     93  C   UNL     1     -11.120 -10.927   7.900  1.00  0.00     0.173 A 
ATOM     94  F   UNL     1     -10.544  -7.471   8.880  1.00  0.00    -0.203 F 
ATOM     95  C   UNL     1     -11.721  -9.189   9.977  1.00  0.00     0.198 A 
ATOM     96  C   UNL     1     -11.894 -11.361   8.972  1.00  0.00     0.198 A 
ATOM     97  F   UNL     1     -10.845 -11.794   6.915  1.00  0.00    -0.203 F 
ATOM     98  F   UNL     1     -11.975  -8.360  10.998  1.00  0.00    -0.200 F 
ATOM     99  C   UNL     1     -12.185 -10.495  10.015  1.00  0.00     0.200 A 
ATOM    100  F   UNL     1     -12.359 -12.618   8.996  1.00  0.00    -0.200 F 
ATOM    101  F   UNL     1     -12.906 -10.923  11.060  1.00  0.00    -0.200 F 
ENDBRANCH  68  91
ENDBRANCH  42  43
ENDBRANCH  35  37
ENDBRANCH  34  35
ENDBRANCH  33  34
ENDBRANCH  32  33
ENDBRANCH  31  32
ENDBRANCH  30  31
ENDBRANCH  29  30
ENDBRANCH  28  29
ENDBRANCH   1  28
TORSDOF 25
