REMARK SMILES O=C(C[C@@H](c1ccccc1)[NH+]1CCCCC1)OCCOCCOCCOCCOC(=O)c1ccc(-c2c3nc(c(-c4c(F)c(F)c(F)c(F)c4F)c4ccc([nH]4)c(-c4c(F)c(F)c(F)c(F)c4F)c4nc(c(-c5c(F)c(F)c(F)c(F)c5F)c5ccc2[nH]5)C=C4)C=C3)cc1
REMARK SMILES IDX 23 1 22 2 21 3 20 4 19 5 18 6 17 7 2 8 1 9 3 10 4 11 5 12
REMARK SMILES IDX 6 13 10 14 7 15 9 16 8 17 11 18 12 19 16 20 13 22 15 23
REMARK SMILES IDX 14 24 24 25 25 26 26 27 27 28 28 29 29 30 30 31 31 32 32 33
REMARK SMILES IDX 33 34 94 35 34 36 93 37 35 38 36 39 37 40 87 41 38 42 92 43
REMARK SMILES IDX 86 44 88 45 39 46 91 47 85 48 84 49 40 51 72 52 52 53 71 54
REMARK SMILES IDX 53 55 56 56 70 57 89 58 54 59 55 60 69 62 90 63 57 64 41 65
REMARK SMILES IDX 42 66 50 67 43 68 44 69 48 70 51 71 45 72 46 73 49 74 47 75
REMARK SMILES IDX 73 76 74 77 82 78 75 79 76 80 80 81 83 82 77 83 78 84 81 85
REMARK SMILES IDX 79 86 58 87 59 88 67 89 60 90 61 91 65 92 68 93 62 94 63 95
REMARK SMILES IDX 66 96 64 97
REMARK H PARENT 11 21 88 50 56 61
REMARK Flexibility Score: inf
ROOT
ATOM      1  O   UNL     1       1.931   3.914   0.505  1.00  0.00    -0.377 OA
ENDROOT
BRANCH   1   2
ATOM      2  C   UNL     1       1.507   2.597   0.192  1.00  0.00     0.188 C 
BRANCH   2   3
ATOM      3  C   UNL     1       2.246   1.539   0.992  1.00  0.00     0.188 C 
BRANCH   3   4
ATOM      4  O   UNL     1       3.605   1.312   0.641  1.00  0.00    -0.376 OA
BRANCH   4   5
ATOM      5  C   UNL     1       4.021   1.174  -0.706  1.00  0.00     0.202 C 
BRANCH   5   6
ATOM      6  C   UNL     1       3.324   0.192  -1.637  1.00  0.00     0.261 C 
BRANCH   6   7
ATOM      7  O   UNL     1       2.217  -0.503  -1.075  1.00  0.00    -0.463 OA
BRANCH   7   8
ATOM      8  C   UNL     1       2.467  -1.740  -0.578  1.00  0.00     0.312 C 
ATOM      9  O   UNL     1       1.852  -2.718  -0.988  1.00  0.00    -0.252 OA
BRANCH   8  10
ATOM     10  C   UNL     1       3.357  -1.783   0.639  1.00  0.00     0.192 C 
BRANCH  10  11
ATOM     11  C   UNL     1       4.494  -2.794   0.515  1.00  0.00     0.226 C 
BRANCH  11  12
ATOM     12  C   UNL     1       5.556  -2.417  -0.530  1.00  0.00     0.010 A 
ATOM     13  C   UNL     1       5.746  -3.233  -1.655  1.00  0.00     0.010 A 
ATOM     14  C   UNL     1       6.346  -1.255  -0.447  1.00  0.00     0.010 A 
ATOM     15  C   UNL     1       6.681  -2.900  -2.644  1.00  0.00     0.001 A 
ATOM     16  C   UNL     1       7.284  -0.919  -1.428  1.00  0.00     0.001 A 
ATOM     17  C   UNL     1       7.449  -1.743  -2.532  1.00  0.00     0.000 A 
ENDBRANCH  11  12
BRANCH  11  18
ATOM     18  N   UNL     1       4.987  -3.063   1.894  1.00  0.00    -0.328 N 
ATOM     19  C   UNL     1       5.402  -4.454   2.060  1.00  0.00     0.262 C 
ATOM     20  C   UNL     1       5.938  -2.095   2.451  1.00  0.00     0.262 C 
ATOM     21  H   UNL     1       4.168  -2.910   2.483  1.00  0.00     0.348 HD
ATOM     22  C   UNL     1       5.764  -4.764   3.512  1.00  0.00     0.062 C 
ATOM     23  C   UNL     1       6.332  -2.383   3.897  1.00  0.00     0.062 C 
ATOM     24  C   UNL     1       6.835  -3.812   4.024  1.00  0.00     0.012 C 
ENDBRANCH  11  18
ENDBRANCH  10  11
ENDBRANCH   8  10
ENDBRANCH   7   8
ENDBRANCH   6   7
ENDBRANCH   5   6
ENDBRANCH   4   5
ENDBRANCH   3   4
ENDBRANCH   2   3
ENDBRANCH   1   2
BRANCH   1  25
ATOM     25  C   UNL     1       3.200   4.292   0.001  1.00  0.00     0.188 C 
BRANCH  25  26
ATOM     26  C   UNL     1       4.415   4.111   0.947  1.00  0.00     0.188 C 
BRANCH  26  27
ATOM     27  O   UNL     1       4.324   4.322   2.350  1.00  0.00    -0.376 OA
BRANCH  27  28
ATOM     28  C   UNL     1       3.208   5.010   2.880  1.00  0.00     0.202 C 
BRANCH  28  29
ATOM     29  C   UNL     1       3.144   6.523   2.619  1.00  0.00     0.261 C 
BRANCH  29  30
ATOM     30  O   UNL     1       3.421   6.918   1.263  1.00  0.00    -0.460 OA
BRANCH  30  31
ATOM     31  C   UNL     1       4.700   7.272   0.982  1.00  0.00     0.338 C 
ATOM     32  O   UNL     1       5.609   7.435   1.781  1.00  0.00    -0.246 OA
BRANCH  31  33
ATOM     33  C   UNL     1       4.916   7.237  -0.492  1.00  0.00     0.060 A 
ATOM     34  C   UNL     1       6.088   6.633  -0.979  1.00  0.00     0.016 A 
ATOM     35  C   UNL     1       3.971   7.735  -1.393  1.00  0.00     0.016 A 
ATOM     36  C   UNL     1       6.337   6.556  -2.353  1.00  0.00     0.010 A 
ATOM     37  C   UNL     1       4.232   7.688  -2.768  1.00  0.00     0.010 A 
ATOM     38  C   UNL     1       5.435   7.138  -3.251  1.00  0.00    -0.014 A 
BRANCH  38  39
ATOM     39  C   UNL     1       5.874   7.469  -4.632  1.00  0.00     0.031 A 
ATOM     40  C   UNL     1       6.459   8.839  -4.849  1.00  0.00     0.074 A 
ATOM     41  C   UNL     1       5.741   6.624  -5.668  1.00  0.00     0.049 A 
ATOM     42  N   UNL     1       6.771   9.451  -5.961  1.00  0.00    -0.248 NA
ATOM     43  C   UNL     1       6.712   9.630  -3.633  1.00  0.00     0.031 C 
ATOM     44  C   UNL     1       5.245   5.255  -5.590  1.00  0.00     0.029 A 
ATOM     45  N   UNL     1       5.991   6.819  -7.007  1.00  0.00    -0.354 N 
ATOM     46  C   UNL     1       7.226  10.707  -5.579  1.00  0.00     0.074 A 
ATOM     47  C   UNL     1       7.137  10.775  -4.138  1.00  0.00     0.031 C 
ATOM     48  C   UNL     1       5.188   4.743  -6.834  1.00  0.00     0.029 A 
ATOM     49  C   UNL     1       5.604   5.765  -7.797  1.00  0.00     0.049 A 
ATOM     50  H   UNL     1       6.407   7.637  -7.364  1.00  0.00     0.167 HD
ATOM     51  C   UNL     1       7.673  11.718  -6.358  1.00  0.00     0.037 A 
ATOM     52  C   UNL     1       5.550   5.658  -9.141  1.00  0.00     0.037 A 
ATOM     53  C   UNL     1       7.760  11.650  -7.790  1.00  0.00     0.049 A 
ATOM     54  C   UNL     1       5.989   6.819 -10.001  1.00  0.00     0.074 A 
ATOM     55  C   UNL     1       8.228  12.608  -8.671  1.00  0.00     0.029 A 
ATOM     56  N   UNL     1       7.354  10.565  -8.552  1.00  0.00    -0.354 N 
ATOM     57  N   UNL     1       6.440   7.996  -9.637  1.00  0.00    -0.248 NA
ATOM     58  C   UNL     1       5.908   6.640 -11.459  1.00  0.00     0.031 C 
ATOM     59  C   UNL     1       8.048  12.126  -9.971  1.00  0.00     0.029 A 
ATOM     60  C   UNL     1       7.529  10.842  -9.897  1.00  0.00     0.049 A 
ATOM     61  H   UNL     1       6.994   9.723  -8.190  1.00  0.00     0.167 HD
ATOM     62  C   UNL     1       6.721   8.683 -10.813  1.00  0.00     0.074 A 
ATOM     63  C   UNL     1       6.394   7.791 -11.905  1.00  0.00     0.031 C 
ATOM     64  C   UNL     1       7.210   9.938 -10.973  1.00  0.00     0.037 A 
BRANCH  51  65
ATOM     65  C   UNL     1       8.048  12.998  -5.672  1.00  0.00     0.064 A 
ATOM     66  C   UNL     1       9.178  13.097  -4.847  1.00  0.00     0.173 A 
ATOM     67  C   UNL     1       7.251  14.141  -5.834  1.00  0.00     0.173 A 
ATOM     68  F   UNL     1       9.961  12.026  -4.642  1.00  0.00    -0.203 F 
ATOM     69  C   UNL     1       9.475  14.282  -4.179  1.00  0.00     0.198 A 
ATOM     70  C   UNL     1       7.570  15.334  -5.193  1.00  0.00     0.198 A 
ATOM     71  F   UNL     1       6.158  14.100  -6.611  1.00  0.00    -0.203 F 
ATOM     72  F   UNL     1      10.522  14.335  -3.344  1.00  0.00    -0.200 F 
ATOM     73  C   UNL     1       8.674  15.401  -4.357  1.00  0.00     0.200 A 
ATOM     74  F   UNL     1       6.801  16.416  -5.374  1.00  0.00    -0.200 F 
ATOM     75  F   UNL     1       8.960  16.540  -3.712  1.00  0.00    -0.200 F 
ENDBRANCH  51  65
BRANCH  52  76
ATOM     76  C   UNL     1       5.018   4.414  -9.761  1.00  0.00     0.064 A 
ATOM     77  C   UNL     1       5.851   3.542 -10.476  1.00  0.00     0.173 A 
ATOM     78  C   UNL     1       3.660   4.076  -9.655  1.00  0.00     0.173 A 
ATOM     79  F   UNL     1       7.150   3.836 -10.633  1.00  0.00    -0.203 F 
ATOM     80  C   UNL     1       5.346   2.384 -11.065  1.00  0.00     0.198 A 
ATOM     81  C   UNL     1       3.162   2.904 -10.221  1.00  0.00     0.198 A 
ATOM     82  F   UNL     1       2.818   4.880  -8.989  1.00  0.00    -0.203 F 
ATOM     83  F   UNL     1       6.157   1.586 -11.773  1.00  0.00    -0.200 F 
ATOM     84  C   UNL     1       4.003   2.061 -10.930  1.00  0.00     0.200 A 
ATOM     85  F   UNL     1       1.866   2.592 -10.078  1.00  0.00    -0.200 F 
ATOM     86  F   UNL     1       3.521   0.942 -11.486  1.00  0.00    -0.200 F 
ENDBRANCH  52  76
BRANCH  64  87
ATOM     87  C   UNL     1       7.471  10.421 -12.371  1.00  0.00     0.064 A 
ATOM     88  C   UNL     1       6.428  10.784 -13.234  1.00  0.00     0.173 A 
ATOM     89  C   UNL     1       8.789  10.613 -12.816  1.00  0.00     0.173 A 
ATOM     90  F   UNL     1       5.151  10.610 -12.861  1.00  0.00    -0.203 F 
ATOM     91  C   UNL     1       6.695  11.313 -14.495  1.00  0.00     0.198 A 
ATOM     92  C   UNL     1       9.052  11.168 -14.064  1.00  0.00     0.198 A 
ATOM     93  F   UNL     1       9.823  10.291 -12.024  1.00  0.00    -0.203 F 
ATOM     94  F   UNL     1       5.683  11.627 -15.315  1.00  0.00    -0.200 F 
ATOM     95  C   UNL     1       8.005  11.515 -14.904  1.00  0.00     0.200 A 
ATOM     96  F   UNL     1      10.318  11.380 -14.449  1.00  0.00    -0.200 F 
ATOM     97  F   UNL     1       8.258  12.045 -16.109  1.00  0.00    -0.200 F 
ENDBRANCH  64  87
ENDBRANCH  38  39
ENDBRANCH  31  33
ENDBRANCH  30  31
ENDBRANCH  29  30
ENDBRANCH  28  29
ENDBRANCH  27  28
ENDBRANCH  26  27
ENDBRANCH  25  26
ENDBRANCH   1  25
TORSDOF 23
