REMARK SMILES COc1cc([C@@H]2CC(=O)Nc3c(C(=O)OCCOCCOCCOCCOC(=O)c4ccc(-c5c6nc(c(-c7c(F)c(F)c(F)c(F)c7F)c7ccc([nH]7)c(-c7c(F)c(F)c(F)c(F)c7F)c7nc(c(-c8c(F)c(F)c(F)c(F)c8F)c8ccc5[nH]8)C=C7)C=C6)cc4)cn(-c4ccc(F)cc4)c32)c(OC)c2c1OCO2
REMARK SMILES IDX 21 1 20 2 19 3 18 4 17 5 16 6 15 7 13 8 14 9 12 10 6 11 7 12
REMARK SMILES IDX 102 13 8 14 11 15 94 16 9 17 10 18 93 19 5 21 3 22 4 23
REMARK SMILES IDX 107 24 106 25 108 26 103 27 110 28 109 29 2 30 1 31 104 32
REMARK SMILES IDX 105 33 95 34 96 35 101 36 97 37 100 38 98 39 99 40 22 41
REMARK SMILES IDX 23 42 24 43 25 44 26 45 27 46 28 47 29 48 30 49 31 50 92 51
REMARK SMILES IDX 32 52 91 53 33 54 34 55 35 56 85 57 36 58 90 59 84 60 86 61
REMARK SMILES IDX 37 62 89 63 83 64 82 65 38 67 70 68 50 69 69 70 51 71 54 72
REMARK SMILES IDX 68 73 87 74 52 75 53 76 67 78 88 79 55 80 39 81 40 82 48 83
REMARK SMILES IDX 41 84 42 85 46 86 49 87 43 88 44 89 47 90 45 91 71 92 72 93
REMARK SMILES IDX 80 94 73 95 74 96 78 97 81 98 75 99 76 100 79 101 77 102
REMARK SMILES IDX 56 103 57 104 65 105 58 106 59 107 63 108 66 109 60 110
REMARK SMILES IDX 61 111 64 112 62 113
REMARK H PARENT 10 20 86 66 54 77
REMARK Flexibility Score: inf
ROOT
ATOM      1  O   UNL     1      -1.220   1.404  11.570  1.00  0.00    -0.377 OA
ENDROOT
BRANCH   1   2
ATOM      2  C   UNL     1      -1.925   0.418  10.838  1.00  0.00     0.188 C 
BRANCH   2   3
ATOM      3  C   UNL     1      -1.521  -1.047  11.108  1.00  0.00     0.188 C 
BRANCH   3   4
ATOM      4  O   UNL     1      -0.800  -1.250  12.306  1.00  0.00    -0.376 OA
BRANCH   4   5
ATOM      5  C   UNL     1       0.606  -1.207  12.397  1.00  0.00     0.202 C 
BRANCH   5   6
ATOM      6  C   UNL     1       1.540  -0.391  11.488  1.00  0.00     0.261 C 
BRANCH   6   7
ATOM      7  O   UNL     1       1.024   0.074  10.248  1.00  0.00    -0.460 OA
BRANCH   7   8
ATOM      8  C   UNL     1       0.896  -0.850   9.268  1.00  0.00     0.341 C 
ATOM      9  O   UNL     1       1.284  -2.018   9.350  1.00  0.00    -0.246 OA
BRANCH   8  10
ATOM     10  C   UNL     1       0.113  -0.341   8.162  1.00  0.00     0.102 A 
ATOM     11  C   UNL     1      -0.523   2.032   5.451  1.00  0.00     0.082 C 
ATOM     12  C   UNL     1      -0.347   3.375   6.181  1.00  0.00     0.115 C 
ATOM     13  C   UNL     1      -0.603   0.929   6.455  1.00  0.00     0.055 A 
ATOM     14  C   UNL     1       0.507   3.332   7.445  1.00  0.00     0.225 C 
ATOM     15  C   UNL     1       0.009   0.984   7.683  1.00  0.00     0.078 A 
ATOM     16  N   UNL     1      -1.196  -0.305   6.334  1.00  0.00    -0.317 N 
ATOM     17  O   UNL     1       1.072   4.341   7.869  1.00  0.00    -0.275 OA
ATOM     18  N   UNL     1       0.547   2.157   8.158  1.00  0.00    -0.324 N 
ATOM     19  C   UNL     1      -0.743  -1.093   7.368  1.00  0.00     0.109 A 
ATOM     20  H   UNL     1       0.979   2.156   9.043  1.00  0.00     0.170 HD
BRANCH  11  21
ATOM     21  C   UNL     1       0.577   1.767   4.407  1.00  0.00     0.012 A 
ATOM     22  C   UNL     1       1.072   1.359   2.034  1.00  0.00     0.165 A 
ATOM     23  C   UNL     1       0.190   1.755   3.043  1.00  0.00     0.059 A 
ATOM     24  C   UNL     1       2.369   1.050   2.395  1.00  0.00     0.211 A 
ATOM     25  C   UNL     1       2.783   1.102   3.711  1.00  0.00     0.211 A 
ATOM     26  O   UNL     1       3.382   0.686   1.558  1.00  0.00    -0.449 OA
ATOM     27  C   UNL     1       1.922   1.456   4.738  1.00  0.00     0.168 A 
ATOM     28  O   UNL     1       4.098   0.759   3.837  1.00  0.00    -0.449 OA
ATOM     29  C   UNL     1       4.485   0.582   2.470  1.00  0.00     0.468 C 
BRANCH  22  30
ATOM     30  O   UNL     1       0.560   1.341   0.769  1.00  0.00    -0.493 OA
ATOM     31  C   UNL     1       0.962   0.215  -0.007  1.00  0.00     0.278 C 
ENDBRANCH  22  30
BRANCH  27  32
ATOM     32  O   UNL     1       2.263   1.532   6.051  1.00  0.00    -0.492 OA
ATOM     33  C   UNL     1       3.570   1.196   6.484  1.00  0.00     0.278 C 
ENDBRANCH  27  32
ENDBRANCH  11  21
BRANCH  16  34
ATOM     34  C   UNL     1      -2.042  -0.756   5.306  1.00  0.00     0.046 A 
ATOM     35  C   UNL     1      -1.507  -0.975   4.035  1.00  0.00     0.029 A 
ATOM     36  C   UNL     1      -3.393  -1.000   5.577  1.00  0.00     0.029 A 
ATOM     37  C   UNL     1      -2.344  -1.388   3.003  1.00  0.00     0.041 A 
ATOM     38  C   UNL     1      -4.226  -1.413   4.534  1.00  0.00     0.041 A 
ATOM     39  C   UNL     1      -3.696  -1.595   3.259  1.00  0.00     0.123 A 
ATOM     40  F   UNL     1      -4.500  -1.984   2.260  1.00  0.00    -0.207 F 
ENDBRANCH  16  34
ENDBRANCH   8  10
ENDBRANCH   7   8
ENDBRANCH   6   7
ENDBRANCH   5   6
ENDBRANCH   4   5
ENDBRANCH   3   4
ENDBRANCH   2   3
ENDBRANCH   1   2
BRANCH   1  41
ATOM     41  C   UNL     1      -1.425   1.506  12.978  1.00  0.00     0.188 C 
BRANCH  41  42
ATOM     42  C   UNL     1      -2.317   0.531  13.805  1.00  0.00     0.188 C 
BRANCH  42  43
ATOM     43  O   UNL     1      -3.158  -0.334  13.062  1.00  0.00    -0.376 OA
BRANCH  43  44
ATOM     44  C   UNL     1      -4.565  -0.235  13.018  1.00  0.00     0.202 C 
BRANCH  44  45
ATOM     45  C   UNL     1      -5.172   1.017  12.399  1.00  0.00     0.261 C 
BRANCH  45  46
ATOM     46  O   UNL     1      -4.435   2.183  12.696  1.00  0.00    -0.460 OA
BRANCH  46  47
ATOM     47  C   UNL     1      -4.508   2.560  13.984  1.00  0.00     0.338 C 
ATOM     48  O   UNL     1      -5.051   1.962  14.900  1.00  0.00    -0.246 OA
BRANCH  47  49
ATOM     49  C   UNL     1      -3.929   3.903  14.093  1.00  0.00     0.060 A 
ATOM     50  C   UNL     1      -4.049   4.457  15.364  1.00  0.00     0.016 A 
ATOM     51  C   UNL     1      -3.917   4.672  12.919  1.00  0.00     0.016 A 
ATOM     52  C   UNL     1      -4.590   5.710  15.430  1.00  0.00     0.010 A 
ATOM     53  C   UNL     1      -4.495   5.906  12.983  1.00  0.00     0.010 A 
ATOM     54  C   UNL     1      -4.924   6.348  14.229  1.00  0.00    -0.014 A 
BRANCH  54  55
ATOM     55  C   UNL     1      -5.664   7.574  14.323  1.00  0.00     0.031 A 
ATOM     56  C   UNL     1      -4.792   8.690  14.718  1.00  0.00     0.074 A 
ATOM     57  C   UNL     1      -6.970   7.657  14.021  1.00  0.00     0.049 A 
ATOM     58  N   UNL     1      -4.772   9.296  15.855  1.00  0.00    -0.248 NA
ATOM     59  C   UNL     1      -3.656   9.004  13.836  1.00  0.00     0.031 C 
ATOM     60  C   UNL     1      -7.831   6.670  13.369  1.00  0.00     0.029 A 
ATOM     61  N   UNL     1      -7.784   8.732  14.162  1.00  0.00    -0.354 N 
ATOM     62  C   UNL     1      -3.741  10.218  15.752  1.00  0.00     0.074 A 
ATOM     63  C   UNL     1      -2.959   9.836  14.608  1.00  0.00     0.031 C 
ATOM     64  C   UNL     1      -8.969   7.282  12.962  1.00  0.00     0.029 A 
ATOM     65  C   UNL     1      -8.959   8.657  13.430  1.00  0.00     0.049 A 
ATOM     66  H   UNL     1      -7.559   9.500  14.735  1.00  0.00     0.167 HD
ATOM     67  C   UNL     1      -3.800  11.389  16.436  1.00  0.00     0.037 A 
ATOM     68  C   UNL     1      -9.762   9.716  13.157  1.00  0.00     0.037 A 
ATOM     69  C   UNL     1      -4.720  11.295  17.543  1.00  0.00     0.049 A 
ATOM     70  C   UNL     1      -9.428  10.790  14.139  1.00  0.00     0.074 A 
ATOM     71  C   UNL     1      -4.804  10.472  18.652  1.00  0.00     0.029 A 
ATOM     72  N   UNL     1      -5.968  11.854  17.401  1.00  0.00    -0.354 N 
ATOM     73  N   UNL     1      -9.699  10.712  15.414  1.00  0.00    -0.248 NA
ATOM     74  C   UNL     1      -8.356  11.715  13.789  1.00  0.00     0.031 C 
ATOM     75  C   UNL     1      -6.196  10.206  18.814  1.00  0.00     0.029 A 
ATOM     76  C   UNL     1      -6.885  10.934  17.844  1.00  0.00     0.049 A 
ATOM     77  H   UNL     1      -6.167  12.750  17.047  1.00  0.00     0.167 HD
ATOM     78  C   UNL     1      -8.576  11.228  16.049  1.00  0.00     0.074 A 
ATOM     79  C   UNL     1      -7.812  11.893  14.997  1.00  0.00     0.031 C 
ATOM     80  C   UNL     1      -8.216  10.813  17.299  1.00  0.00     0.037 A 
BRANCH  67  81
ATOM     81  C   UNL     1      -3.350  12.703  15.848  1.00  0.00     0.064 A 
ATOM     82  C   UNL     1      -3.369  13.845  16.668  1.00  0.00     0.173 A 
ATOM     83  C   UNL     1      -3.189  12.950  14.464  1.00  0.00     0.173 A 
ATOM     84  F   UNL     1      -3.529  13.729  17.995  1.00  0.00    -0.203 F 
ATOM     85  C   UNL     1      -3.327  15.134  16.134  1.00  0.00     0.198 A 
ATOM     86  C   UNL     1      -3.089  14.236  13.942  1.00  0.00     0.198 A 
ATOM     87  F   UNL     1      -3.238  11.983  13.543  1.00  0.00    -0.203 F 
ATOM     88  F   UNL     1      -3.489  16.190  16.942  1.00  0.00    -0.200 F 
ATOM     89  C   UNL     1      -3.195  15.328  14.772  1.00  0.00     0.200 A 
ATOM     90  F   UNL     1      -2.978  14.399  12.616  1.00  0.00    -0.200 F 
ATOM     91  F   UNL     1      -3.222  16.562  14.252  1.00  0.00    -0.200 F 
ENDBRANCH  67  81
BRANCH  68  92
ATOM     92  C   UNL     1     -10.510   9.983  11.905  1.00  0.00     0.064 A 
ATOM     93  C   UNL     1     -11.507  10.971  11.855  1.00  0.00     0.173 A 
ATOM     94  C   UNL     1     -10.087   9.462  10.666  1.00  0.00     0.173 A 
ATOM     95  F   UNL     1     -11.932  11.556  12.984  1.00  0.00    -0.203 F 
ATOM     96  C   UNL     1     -12.034  11.421  10.639  1.00  0.00     0.198 A 
ATOM     97  C   UNL     1     -10.620   9.904   9.455  1.00  0.00     0.198 A 
ATOM     98  F   UNL     1      -9.080   8.580  10.594  1.00  0.00    -0.203 F 
ATOM     99  F   UNL     1     -12.942  12.407  10.629  1.00  0.00    -0.200 F 
ATOM    100  C   UNL     1     -11.585  10.893   9.440  1.00  0.00     0.200 A 
ATOM    101  F   UNL     1     -10.149   9.409   8.302  1.00  0.00    -0.200 F 
ATOM    102  F   UNL     1     -12.049  11.362   8.274  1.00  0.00    -0.200 F 
ENDBRANCH  68  92
BRANCH  80 103
ATOM    103  C   UNL     1      -9.193   9.971  18.073  1.00  0.00     0.064 A 
ATOM    104  C   UNL     1      -9.654   8.711  17.650  1.00  0.00     0.173 A 
ATOM    105  C   UNL     1      -9.559  10.390  19.358  1.00  0.00     0.173 A 
ATOM    106  F   UNL     1      -9.258   8.188  16.482  1.00  0.00    -0.203 F 
ATOM    107  C   UNL     1     -10.487   7.937  18.457  1.00  0.00     0.198 A 
ATOM    108  C   UNL     1     -10.357   9.598  20.179  1.00  0.00     0.198 A 
ATOM    109  F   UNL     1      -9.101  11.556  19.841  1.00  0.00    -0.203 F 
ATOM    110  F   UNL     1     -10.928   6.747  18.023  1.00  0.00    -0.200 F 
ATOM    111  C   UNL     1     -10.832   8.379  19.723  1.00  0.00     0.200 A 
ATOM    112  F   UNL     1     -10.643  10.005  21.423  1.00  0.00    -0.200 F 
ATOM    113  F   UNL     1     -11.598   7.617  20.517  1.00  0.00    -0.200 F 
ENDBRANCH  80 103
ENDBRANCH  54  55
ENDBRANCH  47  49
ENDBRANCH  46  47
ENDBRANCH  45  46
ENDBRANCH  44  45
ENDBRANCH  43  44
ENDBRANCH  42  43
ENDBRANCH  41  42
ENDBRANCH   1  41
TORSDOF 24
