REMARK SMILES C[NH2+][C@@]1(C(=O)OCCOCCOCCOCCOC(=O)c2ccc(-c3c4nc(c(-c5c(F)c(F)c(F)c(F)c5F)c5ccc([nH]5)c(-c5c(F)c(F)c(F)c(F)c5F)c5nc(c(-c6c(F)c(F)c(F)c(F)c6F)c6ccc3[nH]6)C=C5)C=C4)cc2)CC[C@H]([NH+]2CC[NH+](C)CC2)C1
REMARK SMILES IDX 13 1 12 2 11 3 10 4 9 5 8 6 7 7 6 8 4 9 5 10 3 11 84 12
REMARK SMILES IDX 94 13 85 14 86 15 2 16 1 17 87 20 88 21 93 22 89 24 92 25
REMARK SMILES IDX 90 26 91 27 14 29 15 30 16 31 17 32 18 33 19 34 20 35 21 36
REMARK SMILES IDX 22 37 83 38 23 39 82 40 24 41 25 42 26 43 76 44 27 45 81 46
REMARK SMILES IDX 75 47 77 48 28 49 80 50 74 51 73 52 29 54 61 55 41 56 60 57
REMARK SMILES IDX 42 58 45 59 59 60 78 61 43 62 44 63 58 65 79 66 46 67 30 68
REMARK SMILES IDX 31 69 39 70 32 71 33 72 37 73 40 74 34 75 35 76 38 77 36 78
REMARK SMILES IDX 62 79 63 80 71 81 64 82 65 83 69 84 72 85 66 86 67 87 70 88
REMARK SMILES IDX 68 89 47 90 48 91 56 92 49 93 50 94 54 95 57 96 51 97 52 98
REMARK SMILES IDX 55 99 53 100
REMARK H PARENT 2 18 2 19 87 23 90 28 77 53 45 64
REMARK Flexibility Score: inf
ROOT
ATOM      1  C   UNL     1      -2.665  -2.250   2.262  1.00  0.00     0.188 C 
ENDROOT
BRANCH   1   2
ATOM      2  O   UNL     1      -1.715  -2.318   1.230  1.00  0.00    -0.377 OA
BRANCH   2   3
ATOM      3  C   UNL     1      -0.740  -1.303   1.159  1.00  0.00     0.188 C 
BRANCH   3   4
ATOM      4  C   UNL     1      -0.105  -0.639   2.380  1.00  0.00     0.188 C 
BRANCH   4   5
ATOM      5  O   UNL     1      -0.939  -0.187   3.426  1.00  0.00    -0.376 OA
BRANCH   5   6
ATOM      6  C   UNL     1      -1.849   0.893   3.310  1.00  0.00     0.202 C 
BRANCH   6   7
ATOM      7  C   UNL     1      -1.825   1.919   2.168  1.00  0.00     0.261 C 
BRANCH   7   8
ATOM      8  O   UNL     1      -1.825   1.373   0.834  1.00  0.00    -0.459 OA
BRANCH   8   9
ATOM      9  C   UNL     1      -1.120   2.078  -0.091  1.00  0.00     0.368 C 
ATOM     10  O   UNL     1      -0.570   3.147   0.176  1.00  0.00    -0.245 OA
BRANCH   9  11
ATOM     11  C   UNL     1      -0.961   1.421  -1.516  1.00  0.00     0.200 C 
ATOM     12  C   UNL     1      -1.562   2.413  -2.534  1.00  0.00     0.087 C 
ATOM     13  C   UNL     1      -1.678   0.122  -1.945  1.00  0.00     0.146 C 
ATOM     14  C   UNL     1      -3.028   2.019  -2.666  1.00  0.00     0.072 C 
ATOM     15  C   UNL     1      -3.076   0.498  -2.490  1.00  0.00     0.191 C 
BRANCH  11  16
ATOM     16  N   UNL     1       0.506   1.373  -1.816  1.00  0.00    -0.334 N 
ATOM     17  C   UNL     1       1.283   0.461  -0.993  1.00  0.00     0.331 C 
ATOM     18  H   UNL     1       0.618   1.091  -2.790  1.00  0.00     0.347 HD
ATOM     19  H   UNL     1       0.864   2.307  -1.615  1.00  0.00     0.347 HD
ENDBRANCH  11  16
BRANCH  15  20
ATOM     20  N   UNL     1      -4.230  -0.139  -1.835  1.00  0.00    -0.323 N 
ATOM     21  C   UNL     1      -5.545   0.196  -2.410  1.00  0.00     0.324 C 
ATOM     22  C   UNL     1      -4.340  -0.054  -0.378  1.00  0.00     0.324 C 
ATOM     23  H   UNL     1      -3.983  -1.105  -2.052  1.00  0.00     0.348 HD
ATOM     24  C   UNL     1      -6.181   1.515  -1.900  1.00  0.00     0.324 C 
ATOM     25  C   UNL     1      -4.849   1.298   0.150  1.00  0.00     0.324 C 
ATOM     26  N   UNL     1      -6.128   1.727  -0.437  1.00  0.00    -0.328 N 
ATOM     27  C   UNL     1      -6.371   3.137  -0.122  1.00  0.00     0.333 C 
ATOM     28  H   UNL     1      -6.861   1.148  -0.027  1.00  0.00     0.348 HD
ENDBRANCH  15  20
ENDBRANCH   9  11
ENDBRANCH   8   9
ENDBRANCH   7   8
ENDBRANCH   6   7
ENDBRANCH   5   6
ENDBRANCH   4   5
ENDBRANCH   3   4
ENDBRANCH   2   3
ENDBRANCH   1   2
BRANCH   1  29
ATOM     29  C   UNL     1      -2.197  -2.910   3.564  1.00  0.00     0.188 C 
BRANCH  29  30
ATOM     30  O   UNL     1      -1.098  -3.815   3.596  1.00  0.00    -0.376 OA
BRANCH  30  31
ATOM     31  C   UNL     1      -0.626  -4.462   2.427  1.00  0.00     0.202 C 
BRANCH  31  32
ATOM     32  C   UNL     1      -1.552  -5.387   1.618  1.00  0.00     0.261 C 
BRANCH  32  33
ATOM     33  O   UNL     1      -2.946  -5.063   1.603  1.00  0.00    -0.460 OA
BRANCH  33  34
ATOM     34  C   UNL     1      -3.674  -5.600   2.602  1.00  0.00     0.338 C 
ATOM     35  O   UNL     1      -3.281  -6.325   3.509  1.00  0.00    -0.246 OA
BRANCH  34  36
ATOM     36  C   UNL     1      -5.051  -5.084   2.526  1.00  0.00     0.060 A 
ATOM     37  C   UNL     1      -5.560  -4.365   3.615  1.00  0.00     0.016 A 
ATOM     38  C   UNL     1      -5.859  -5.367   1.422  1.00  0.00     0.016 A 
ATOM     39  C   UNL     1      -6.886  -3.950   3.621  1.00  0.00     0.010 A 
ATOM     40  C   UNL     1      -7.202  -4.983   1.444  1.00  0.00     0.010 A 
ATOM     41  C   UNL     1      -7.726  -4.308   2.562  1.00  0.00    -0.014 A 
BRANCH  41  42
ATOM     42  C   UNL     1      -9.189  -4.178   2.741  1.00  0.00     0.031 A 
ATOM     43  C   UNL     1      -9.957  -5.388   3.195  1.00  0.00     0.074 A 
ATOM     44  C   UNL     1      -9.807  -3.000   2.559  1.00  0.00     0.049 A 
ATOM     45  N   UNL     1     -11.243  -5.538   3.380  1.00  0.00    -0.248 NA
ATOM     46  C   UNL     1      -9.163  -6.595   3.479  1.00  0.00     0.031 C 
ATOM     47  C   UNL     1      -9.150  -1.751   2.184  1.00  0.00     0.029 A 
ATOM     48  N   UNL     1     -11.134  -2.670   2.664  1.00  0.00    -0.354 N 
ATOM     49  C   UNL     1     -11.411  -6.855   3.789  1.00  0.00     0.074 A 
ATOM     50  C   UNL     1     -10.103  -7.470   3.799  1.00  0.00     0.031 C 
ATOM     51  C   UNL     1     -10.081  -0.788   2.072  1.00  0.00     0.029 A 
ATOM     52  C   UNL     1     -11.400  -1.365   2.331  1.00  0.00     0.049 A 
ATOM     53  H   UNL     1     -11.829  -3.306   2.949  1.00  0.00     0.167 HD
ATOM     54  C   UNL     1     -12.557  -7.489   4.131  1.00  0.00     0.037 A 
ATOM     55  C   UNL     1     -12.580  -0.727   2.219  1.00  0.00     0.037 A 
ATOM     56  C   UNL     1     -13.854  -6.866   4.114  1.00  0.00     0.049 A 
ATOM     57  C   UNL     1     -13.852  -1.480   2.520  1.00  0.00     0.074 A 
ATOM     58  C   UNL     1     -15.079  -7.413   4.447  1.00  0.00     0.029 A 
ATOM     59  N   UNL     1     -14.091  -5.553   3.732  1.00  0.00    -0.354 N 
ATOM     60  N   UNL     1     -14.008  -2.721   2.917  1.00  0.00    -0.248 NA
ATOM     61  C   UNL     1     -15.112  -0.742   2.360  1.00  0.00     0.031 C 
ATOM     62  C   UNL     1     -16.065  -6.452   4.205  1.00  0.00     0.029 A 
ATOM     63  C   UNL     1     -15.448  -5.282   3.791  1.00  0.00     0.049 A 
ATOM     64  H   UNL     1     -13.398  -4.910   3.459  1.00  0.00     0.167 HD
ATOM     65  C   UNL     1     -15.376  -2.902   3.084  1.00  0.00     0.074 A 
ATOM     66  C   UNL     1     -16.003  -1.638   2.760  1.00  0.00     0.031 C 
ATOM     67  C   UNL     1     -16.052  -4.012   3.473  1.00  0.00     0.037 A 
BRANCH  54  68
ATOM     68  C   UNL     1     -12.462  -8.940   4.509  1.00  0.00     0.064 A 
ATOM     69  C   UNL     1     -11.849  -9.360   5.699  1.00  0.00     0.173 A 
ATOM     70  C   UNL     1     -13.016  -9.924   3.676  1.00  0.00     0.173 A 
ATOM     71  F   UNL     1     -11.290  -8.462   6.524  1.00  0.00    -0.203 F 
ATOM     72  C   UNL     1     -11.770 -10.711   6.027  1.00  0.00     0.198 A 
ATOM     73  C   UNL     1     -12.964 -11.271   4.023  1.00  0.00     0.198 A 
ATOM     74  F   UNL     1     -13.615  -9.579   2.526  1.00  0.00    -0.203 F 
ATOM     75  F   UNL     1     -11.133 -11.092   7.143  1.00  0.00    -0.200 F 
ATOM     76  C   UNL     1     -12.334 -11.665   5.193  1.00  0.00     0.200 A 
ATOM     77  F   UNL     1     -13.524 -12.190   3.222  1.00  0.00    -0.200 F 
ATOM     78  F   UNL     1     -12.265 -12.964   5.514  1.00  0.00    -0.200 F 
ENDBRANCH  54  68
BRANCH  55  79
ATOM     79  C   UNL     1     -12.619   0.694   1.782  1.00  0.00     0.064 A 
ATOM     80  C   UNL     1     -13.056   1.707   2.646  1.00  0.00     0.173 A 
ATOM     81  C   UNL     1     -12.240   1.065   0.482  1.00  0.00     0.173 A 
ATOM     82  F   UNL     1     -13.453   1.402   3.890  1.00  0.00    -0.203 F 
ATOM     83  C   UNL     1     -13.132   3.033   2.221  1.00  0.00     0.198 A 
ATOM     84  C   UNL     1     -12.284   2.395   0.070  1.00  0.00     0.198 A 
ATOM     85  F   UNL     1     -11.819   0.135  -0.387  1.00  0.00    -0.203 F 
ATOM     86  F   UNL     1     -13.604   3.973   3.051  1.00  0.00    -0.200 F 
ATOM     87  C   UNL     1     -12.739   3.376   0.937  1.00  0.00     0.200 A 
ATOM     88  F   UNL     1     -11.892   2.724  -1.168  1.00  0.00    -0.200 F 
ATOM     89  F   UNL     1     -12.810   4.651   0.530  1.00  0.00    -0.200 F 
ENDBRANCH  55  79
BRANCH  67  90
ATOM     90  C   UNL     1     -17.544  -3.899   3.615  1.00  0.00     0.064 A 
ATOM     91  C   UNL     1     -18.387  -3.759   2.503  1.00  0.00     0.173 A 
ATOM     92  C   UNL     1     -18.141  -3.977   4.884  1.00  0.00     0.173 A 
ATOM     93  F   UNL     1     -17.868  -3.668   1.269  1.00  0.00    -0.203 F 
ATOM     94  C   UNL     1     -19.768  -3.671   2.658  1.00  0.00     0.198 A 
ATOM     95  C   UNL     1     -19.524  -3.925   5.032  1.00  0.00     0.198 A 
ATOM     96  F   UNL     1     -17.383  -4.120   5.981  1.00  0.00    -0.203 F 
ATOM     97  F   UNL     1     -20.550  -3.482   1.585  1.00  0.00    -0.200 F 
ATOM     98  C   UNL     1     -20.336  -3.763   3.920  1.00  0.00     0.200 A 
ATOM     99  F   UNL     1     -20.071  -4.034   6.250  1.00  0.00    -0.200 F 
ATOM    100  F   UNL     1     -21.666  -3.687   4.066  1.00  0.00    -0.200 F 
ENDBRANCH  67  90
ENDBRANCH  41  42
ENDBRANCH  34  36
ENDBRANCH  33  34
ENDBRANCH  32  33
ENDBRANCH  31  32
ENDBRANCH  30  31
ENDBRANCH  29  30
ENDBRANCH   1  29
TORSDOF 22
