REMARK SMILES Cc1cc(C)c2c(O[C@@H](C)C(=O)OCCOCCOCCOCCOC(=O)c3ccc(-c4c5nc(c(-c6c(F)c(F)c(F)c(F)c6F)c6ccc([nH]6)c(-c6c(F)c(F)c(F)c(F)c6F)c6nc(c(-c7c(F)c(F)c(F)c(F)c7F)c7ccc4[nH]7)C=C6)C=C5)cc3)nsc2n1
REMARK SMILES IDX 19 1 18 2 17 3 16 4 15 5 14 6 13 7 11 8 12 9 9 10 10 11 8 12
REMARK SMILES IDX 7 13 1 14 2 15 3 16 94 17 4 18 93 19 5 20 6 21 92 22 91 23
REMARK SMILES IDX 20 24 21 25 22 26 23 27 24 28 25 29 26 30 27 31 28 32 29 33
REMARK SMILES IDX 90 34 30 35 89 36 31 37 32 38 33 39 83 40 34 41 88 42 82 43
REMARK SMILES IDX 84 44 35 45 87 46 81 47 80 48 36 50 68 51 48 52 67 53 49 54
REMARK SMILES IDX 52 55 66 56 85 57 50 58 51 59 65 61 86 62 53 63 37 64 38 65
REMARK SMILES IDX 46 66 39 67 40 68 44 69 47 70 41 71 42 72 45 73 43 74 69 75
REMARK SMILES IDX 70 76 78 77 71 78 72 79 76 80 79 81 73 82 74 83 77 84 75 85
REMARK SMILES IDX 54 86 55 87 63 88 56 89 57 90 61 91 64 92 58 93 59 94 62 95
REMARK SMILES IDX 60 96
REMARK H PARENT 84 49 52 60
REMARK Flexibility Score: inf
ROOT
ATOM      1  O   UNL     1      -2.961  -3.607  -3.101  1.00  0.00    -0.377 OA
ENDROOT
BRANCH   1   2
ATOM      2  C   UNL     1      -2.903  -4.624  -4.088  1.00  0.00     0.188 C 
BRANCH   2   3
ATOM      3  C   UNL     1      -2.890  -6.072  -3.537  1.00  0.00     0.188 C 
BRANCH   3   4
ATOM      4  O   UNL     1      -3.181  -6.334  -2.165  1.00  0.00    -0.376 OA
BRANCH   4   5
ATOM      5  C   UNL     1      -2.611  -5.515  -1.154  1.00  0.00     0.202 C 
BRANCH   5   6
ATOM      6  C   UNL     1      -1.104  -5.258  -1.185  1.00  0.00     0.261 C 
BRANCH   6   7
ATOM      7  O   UNL     1      -0.614  -4.796  -2.456  1.00  0.00    -0.461 OA
BRANCH   7   8
ATOM      8  C   UNL     1       0.332  -5.541  -3.078  1.00  0.00     0.347 C 
ATOM      9  O   UNL     1       0.801  -6.580  -2.628  1.00  0.00    -0.248 OA
BRANCH   8  10
ATOM     10  C   UNL     1       0.727  -4.960  -4.455  1.00  0.00     0.281 C 
ATOM     11  C   UNL     1       2.208  -5.140  -4.784  1.00  0.00     0.066 C 
BRANCH  10  12
ATOM     12  O   UNL     1       0.327  -3.764  -5.051  1.00  0.00    -0.462 OA
BRANCH  12  13
ATOM     13  C   UNL     1       0.179  -2.591  -4.399  1.00  0.00     0.236 A 
ATOM     14  C   UNL     1       0.762   0.687   0.217  1.00  0.00     0.067 C 
ATOM     15  C   UNL     1       0.677  -0.269  -0.934  1.00  0.00     0.039 A 
ATOM     16  C   UNL     1       1.280  -1.509  -0.831  1.00  0.00     0.027 A 
ATOM     17  N   UNL     1       0.051   0.149  -2.037  1.00  0.00    -0.240 NA
ATOM     18  C   UNL     1       1.301  -2.412  -1.919  1.00  0.00    -0.034 A 
ATOM     19  C   UNL     1       0.014  -0.750  -3.039  1.00  0.00     0.147 A 
ATOM     20  C   UNL     1       2.111  -3.649  -1.637  1.00  0.00     0.045 C 
ATOM     21  C   UNL     1       0.566  -2.043  -3.095  1.00  0.00     0.078 A 
ATOM     22  S   UNL     1      -0.761  -0.346  -4.493  1.00  0.00    -0.012 S 
ATOM     23  N   UNL     1      -0.470  -1.774  -5.232  1.00  0.00    -0.153 NA
ENDBRANCH  12  13
ENDBRANCH  10  12
ENDBRANCH   8  10
ENDBRANCH   7   8
ENDBRANCH   6   7
ENDBRANCH   5   6
ENDBRANCH   4   5
ENDBRANCH   3   4
ENDBRANCH   2   3
ENDBRANCH   1   2
BRANCH   1  24
ATOM     24  C   UNL     1      -4.249  -3.040  -2.880  1.00  0.00     0.188 C 
BRANCH  24  25
ATOM     25  C   UNL     1      -5.442  -4.016  -2.720  1.00  0.00     0.188 C 
BRANCH  25  26
ATOM     26  O   UNL     1      -5.463  -5.089  -3.656  1.00  0.00    -0.376 OA
BRANCH  26  27
ATOM     27  C   UNL     1      -6.319  -5.091  -4.787  1.00  0.00     0.202 C 
BRANCH  27  28
ATOM     28  C   UNL     1      -6.046  -4.074  -5.896  1.00  0.00     0.261 C 
BRANCH  28  29
ATOM     29  O   UNL     1      -5.815  -2.761  -5.428  1.00  0.00    -0.460 OA
BRANCH  29  30
ATOM     30  C   UNL     1      -6.845  -2.206  -4.764  1.00  0.00     0.338 C 
ATOM     31  O   UNL     1      -7.900  -2.725  -4.460  1.00  0.00    -0.246 OA
BRANCH  30  32
ATOM     32  C   UNL     1      -6.531  -0.793  -4.541  1.00  0.00     0.060 A 
ATOM     33  C   UNL     1      -7.464  -0.094  -3.780  1.00  0.00     0.016 A 
ATOM     34  C   UNL     1      -5.632  -0.165  -5.417  1.00  0.00     0.016 A 
ATOM     35  C   UNL     1      -7.739   1.189  -4.167  1.00  0.00     0.010 A 
ATOM     36  C   UNL     1      -5.915   1.113  -5.811  1.00  0.00     0.010 A 
ATOM     37  C   UNL     1      -7.044   1.710  -5.267  1.00  0.00    -0.014 A 
BRANCH  37  38
ATOM     38  C   UNL     1      -7.561   2.920  -5.847  1.00  0.00     0.031 A 
ATOM     39  C   UNL     1      -7.274   4.105  -5.028  1.00  0.00     0.074 A 
ATOM     40  C   UNL     1      -8.233   2.926  -7.011  1.00  0.00     0.049 A 
ATOM     41  N   UNL     1      -8.115   4.785  -4.328  1.00  0.00    -0.248 NA
ATOM     42  C   UNL     1      -5.865   4.451  -4.807  1.00  0.00     0.031 C 
ATOM     43  C   UNL     1      -8.369   1.871  -8.016  1.00  0.00     0.029 A 
ATOM     44  N   UNL     1      -8.901   3.967  -7.566  1.00  0.00    -0.354 N 
ATOM     45  C   UNL     1      -7.362   5.766  -3.700  1.00  0.00     0.074 A 
ATOM     46  C   UNL     1      -5.981   5.409  -3.888  1.00  0.00     0.031 C 
ATOM     47  C   UNL     1      -8.880   2.406  -9.151  1.00  0.00     0.029 A 
ATOM     48  C   UNL     1      -9.231   3.794  -8.899  1.00  0.00     0.049 A 
ATOM     49  H   UNL     1      -9.133   4.780  -7.062  1.00  0.00     0.167 HD
ATOM     50  C   UNL     1      -7.943   6.919  -3.278  1.00  0.00     0.037 A 
ATOM     51  C   UNL     1      -9.670   4.777  -9.723  1.00  0.00     0.037 A 
ATOM     52  C   UNL     1      -9.371   6.773  -3.161  1.00  0.00     0.049 A 
ATOM     53  C   UNL     1     -10.210   5.864  -8.857  1.00  0.00     0.074 A 
ATOM     54  C   UNL     1     -10.197   5.982  -2.385  1.00  0.00     0.029 A 
ATOM     55  N   UNL     1     -10.157   7.237  -4.189  1.00  0.00    -0.354 N 
ATOM     56  N   UNL     1     -11.297   5.745  -8.143  1.00  0.00    -0.248 NA
ATOM     57  C   UNL     1      -9.287   6.902  -8.416  1.00  0.00     0.031 C 
ATOM     58  C   UNL     1     -11.287   5.635  -3.234  1.00  0.00     0.029 A 
ATOM     59  C   UNL     1     -11.092   6.271  -4.461  1.00  0.00     0.049 A 
ATOM     60  H   UNL     1     -10.065   8.104  -4.646  1.00  0.00     0.167 HD
ATOM     61  C   UNL     1     -11.008   6.385  -6.945  1.00  0.00     0.074 A 
ATOM     62  C   UNL     1      -9.785   7.142  -7.200  1.00  0.00     0.031 C 
ATOM     63  C   UNL     1     -11.615   6.011  -5.781  1.00  0.00     0.037 A 
BRANCH  50  64
ATOM     64  C   UNL     1      -7.262   8.258  -3.334  1.00  0.00     0.064 A 
ATOM     65  C   UNL     1      -7.903   9.370  -2.757  1.00  0.00     0.173 A 
ATOM     66  C   UNL     1      -6.168   8.552  -4.177  1.00  0.00     0.173 A 
ATOM     67  F   UNL     1      -8.963   9.206  -1.951  1.00  0.00    -0.203 F 
ATOM     68  C   UNL     1      -7.529  10.677  -3.071  1.00  0.00     0.198 A 
ATOM     69  C   UNL     1      -5.761   9.856  -4.442  1.00  0.00     0.198 A 
ATOM     70  F   UNL     1      -5.520   7.609  -4.871  1.00  0.00    -0.203 F 
ATOM     71  F   UNL     1      -8.252  11.704  -2.604  1.00  0.00    -0.200 F 
ATOM     72  C   UNL     1      -6.463  10.919  -3.918  1.00  0.00     0.200 A 
ATOM     73  F   UNL     1      -4.736  10.068  -5.280  1.00  0.00    -0.200 F 
ATOM     74  F   UNL     1      -6.144  12.171  -4.271  1.00  0.00    -0.200 F 
ENDBRANCH  50  64
BRANCH  51  75
ATOM     75  C   UNL     1      -9.314   4.994 -11.146  1.00  0.00     0.064 A 
ATOM     76  C   UNL     1     -10.025   5.915 -11.932  1.00  0.00     0.173 A 
ATOM     77  C   UNL     1      -8.101   4.520 -11.683  1.00  0.00     0.173 A 
ATOM     78  F   UNL     1     -11.167   6.450 -11.477  1.00  0.00    -0.203 F 
ATOM     79  C   UNL     1      -9.536   6.359 -13.166  1.00  0.00     0.198 A 
ATOM     80  C   UNL     1      -7.617   4.958 -12.917  1.00  0.00     0.198 A 
ATOM     81  F   UNL     1      -7.309   3.698 -10.980  1.00  0.00    -0.203 F 
ATOM     82  F   UNL     1     -10.210   7.289 -13.857  1.00  0.00    -0.200 F 
ATOM     83  C   UNL     1      -8.327   5.888 -13.651  1.00  0.00     0.200 A 
ATOM     84  F   UNL     1      -6.429   4.521 -13.357  1.00  0.00    -0.200 F 
ATOM     85  F   UNL     1      -7.827   6.361 -14.801  1.00  0.00    -0.200 F 
ENDBRANCH  51  75
BRANCH  63  86
ATOM     86  C   UNL     1     -12.769   5.051  -5.867  1.00  0.00     0.064 A 
ATOM     87  C   UNL     1     -12.648   3.725  -6.317  1.00  0.00     0.173 A 
ATOM     88  C   UNL     1     -13.996   5.433  -5.309  1.00  0.00     0.173 A 
ATOM     89  F   UNL     1     -11.479   3.256  -6.771  1.00  0.00    -0.203 F 
ATOM     90  C   UNL     1     -13.718   2.834  -6.240  1.00  0.00     0.198 A 
ATOM     91  C   UNL     1     -15.051   4.532  -5.199  1.00  0.00     0.198 A 
ATOM     92  F   UNL     1     -14.151   6.670  -4.811  1.00  0.00    -0.203 F 
ATOM     93  F   UNL     1     -13.577   1.574  -6.677  1.00  0.00    -0.200 F 
ATOM     94  C   UNL     1     -14.915   3.236  -5.671  1.00  0.00     0.200 A 
ATOM     95  F   UNL     1     -16.190   4.910  -4.602  1.00  0.00    -0.200 F 
ATOM     96  F   UNL     1     -15.927   2.366  -5.548  1.00  0.00    -0.200 F 
ENDBRANCH  63  86
ENDBRANCH  37  38
ENDBRANCH  30  32
ENDBRANCH  29  30
ENDBRANCH  28  29
ENDBRANCH  27  28
ENDBRANCH  26  27
ENDBRANCH  25  26
ENDBRANCH  24  25
ENDBRANCH   1  24
TORSDOF 22
