REMARK SMILES CCCc1cc(OC(F)(F)F)cc2c1O[C@H](C(F)(F)F)C(C(=O)OCCOCCOCCOCCOC(=O)c1ccc(-c3c4nc(c(-c5c(F)c(F)c(F)c(F)c5F)c5ccc([nH]5)c(-c5c(F)c(F)c(F)c(F)c5F)c5nc(c(-c6c(F)c(F)c(F)c(F)c6F)c6ccc3[nH]6)C=C5)C=C4)cc1)=C2
REMARK SMILES IDX 30 1 29 2 28 3 27 4 26 5 25 6 24 7 22 8 23 9 21 10 4 11 5 12
REMARK SMILES IDX 14 13 6 14 13 15 15 16 12 17 102 18 16 19 3 20 2 21 1 22
REMARK SMILES IDX 7 23 8 24 9 25 10 26 11 27 17 28 18 29 19 30 20 31 31 32
REMARK SMILES IDX 32 33 33 34 34 35 35 36 36 37 37 38 38 39 39 40 40 41 101 42
REMARK SMILES IDX 41 43 100 44 42 45 43 46 44 47 94 48 45 49 99 50 93 51 95 52
REMARK SMILES IDX 46 53 98 54 92 55 91 56 47 58 79 59 59 60 78 61 60 62 63 63
REMARK SMILES IDX 77 64 96 65 61 66 62 67 76 69 97 70 64 71 48 72 49 73 57 74
REMARK SMILES IDX 50 75 51 76 55 77 58 78 52 79 53 80 56 81 54 82 80 83 81 84
REMARK SMILES IDX 89 85 82 86 83 87 87 88 90 89 84 90 85 91 88 92 86 93 65 94
REMARK SMILES IDX 66 95 74 96 67 97 68 98 72 99 75 100 69 101 70 102 73 103
REMARK SMILES IDX 71 104
REMARK H PARENT 95 57 63 68
REMARK Flexibility Score: inf
ROOT
ATOM      1  O   UNL     1      -3.268  -6.394   6.237  1.00  0.00    -0.377 OA
ENDROOT
BRANCH   1   2
ATOM      2  C   UNL     1      -3.021  -6.655   4.866  1.00  0.00     0.188 C 
BRANCH   2   3
ATOM      3  C   UNL     1      -2.348  -8.004   4.532  1.00  0.00     0.188 C 
BRANCH   3   4
ATOM      4  O   UNL     1      -2.276  -8.876   5.643  1.00  0.00    -0.376 OA
BRANCH   4   5
ATOM      5  C   UNL     1      -1.086  -8.973   6.396  1.00  0.00     0.202 C 
BRANCH   5   6
ATOM      6  C   UNL     1      -0.266  -7.744   6.825  1.00  0.00     0.261 C 
BRANCH   6   7
ATOM      7  O   UNL     1      -0.329  -6.572   6.009  1.00  0.00    -0.460 OA
BRANCH   7   8
ATOM      8  C   UNL     1       0.395  -6.564   4.871  1.00  0.00     0.338 C 
ATOM      9  O   UNL     1       1.081  -7.478   4.447  1.00  0.00    -0.246 OA
BRANCH   8  10
ATOM     10  C   UNL     1       0.138  -5.320   4.117  1.00  0.00     0.087 C 
ATOM     11  C   UNL     1       0.679  -1.938   1.771  1.00  0.00    -0.002 A 
ATOM     12  C   UNL     1       0.478  -0.682   2.358  1.00  0.00     0.054 A 
ATOM     13  C   UNL     1       0.508  -3.059   2.587  1.00  0.00     0.131 A 
ATOM     14  C   UNL     1       0.021  -0.544   3.674  1.00  0.00     0.130 A 
ATOM     15  C   UNL     1       0.074  -2.945   3.921  1.00  0.00     0.021 A 
ATOM     16  O   UNL     1       0.861  -4.280   2.058  1.00  0.00    -0.475 OA
ATOM     17  C   UNL     1      -0.199  -1.685   4.448  1.00  0.00     0.058 A 
ATOM     18  C   UNL     1       0.049  -4.143   4.757  1.00  0.00     0.027 C 
ATOM     19  C   UNL     1       0.115  -5.388   2.610  1.00  0.00     0.316 C 
BRANCH  11  20
ATOM     20  C   UNL     1       1.151  -2.103   0.342  1.00  0.00     0.039 C 
BRANCH  20  21
ATOM     21  C   UNL     1       0.481  -1.236  -0.733  1.00  0.00     0.001 C 
ATOM     22  C   UNL     1       0.979   0.200  -0.799  1.00  0.00     0.004 C 
ENDBRANCH  20  21
ENDBRANCH  11  20
BRANCH  14  23
ATOM     23  O   UNL     1      -0.217   0.639   4.316  1.00  0.00    -0.406 OA
BRANCH  23  24
ATOM     24  C   UNL     1       0.053   1.837   3.604  1.00  0.00     0.573 C 
ATOM     25  F   UNL     1       1.359   1.915   3.265  1.00  0.00    -0.132 F 
ATOM     26  F   UNL     1      -0.707   1.925   2.492  1.00  0.00    -0.132 F 
ATOM     27  F   UNL     1      -0.237   2.891   4.396  1.00  0.00    -0.132 F 
ENDBRANCH  23  24
ENDBRANCH  14  23
BRANCH  19  28
ATOM     28  C   UNL     1      -1.289  -5.437   1.959  1.00  0.00     0.430 C 
ATOM     29  F   UNL     1      -2.128  -4.481   2.424  1.00  0.00    -0.167 F 
ATOM     30  F   UNL     1      -1.216  -5.278   0.614  1.00  0.00    -0.167 F 
ATOM     31  F   UNL     1      -1.898  -6.627   2.166  1.00  0.00    -0.167 F 
ENDBRANCH  19  28
ENDBRANCH   8  10
ENDBRANCH   7   8
ENDBRANCH   6   7
ENDBRANCH   5   6
ENDBRANCH   4   5
ENDBRANCH   3   4
ENDBRANCH   2   3
ENDBRANCH   1   2
BRANCH   1  32
ATOM     32  C   UNL     1      -4.127  -7.267   6.964  1.00  0.00     0.188 C 
BRANCH  32  33
ATOM     33  C   UNL     1      -4.935  -8.407   6.292  1.00  0.00     0.188 C 
BRANCH  33  34
ATOM     34  O   UNL     1      -5.087  -8.298   4.888  1.00  0.00    -0.376 OA
BRANCH  34  35
ATOM     35  C   UNL     1      -6.345  -7.928   4.359  1.00  0.00     0.202 C 
BRANCH  35  36
ATOM     36  C   UNL     1      -6.834  -6.508   4.671  1.00  0.00     0.261 C 
BRANCH  36  37
ATOM     37  O   UNL     1      -6.848  -6.146   6.060  1.00  0.00    -0.460 OA
BRANCH  37  38
ATOM     38  C   UNL     1      -7.704  -6.818   6.856  1.00  0.00     0.338 C 
ATOM     39  O   UNL     1      -8.484  -7.699   6.529  1.00  0.00    -0.246 OA
BRANCH  38  40
ATOM     40  C   UNL     1      -7.409  -6.441   8.251  1.00  0.00     0.060 A 
ATOM     41  C   UNL     1      -7.016  -7.437   9.154  1.00  0.00     0.016 A 
ATOM     42  C   UNL     1      -7.507  -5.109   8.659  1.00  0.00     0.016 A 
ATOM     43  C   UNL     1      -6.759  -7.108  10.483  1.00  0.00     0.010 A 
ATOM     44  C   UNL     1      -7.273  -4.784   9.997  1.00  0.00     0.010 A 
ATOM     45  C   UNL     1      -6.937  -5.789  10.921  1.00  0.00    -0.014 A 
BRANCH  45  46
ATOM     46  C   UNL     1      -6.988  -5.514  12.376  1.00  0.00     0.031 A 
ATOM     47  C   UNL     1      -8.337  -5.431  13.035  1.00  0.00     0.074 A 
ATOM     48  C   UNL     1      -5.866  -5.388  13.105  1.00  0.00     0.049 A 
ATOM     49  N   UNL     1      -8.642  -5.201  14.286  1.00  0.00    -0.248 NA
ATOM     50  C   UNL     1      -9.503  -5.636  12.160  1.00  0.00     0.031 C 
ATOM     51  C   UNL     1      -4.504  -5.489  12.586  1.00  0.00     0.029 A 
ATOM     52  N   UNL     1      -5.701  -5.147  14.446  1.00  0.00    -0.354 N 
ATOM     53  C   UNL     1     -10.029  -5.231  14.346  1.00  0.00     0.074 A 
ATOM     54  C   UNL     1     -10.509  -5.460  13.001  1.00  0.00     0.031 C 
ATOM     55  C   UNL     1      -3.639  -5.304  13.598  1.00  0.00     0.029 A 
ATOM     56  C   UNL     1      -4.387  -5.043  14.828  1.00  0.00     0.049 A 
ATOM     57  H   UNL     1      -6.454  -5.057  15.074  1.00  0.00     0.167 HD
ATOM     58  C   UNL     1     -10.831  -5.091  15.428  1.00  0.00     0.037 A 
ATOM     59  C   UNL     1      -3.855  -4.751  16.031  1.00  0.00     0.037 A 
ATOM     60  C   UNL     1     -10.348  -4.857  16.763  1.00  0.00     0.049 A 
ATOM     61  C   UNL     1      -4.773  -4.525  17.207  1.00  0.00     0.074 A 
ATOM     62  C   UNL     1     -11.076  -4.714  17.931  1.00  0.00     0.029 A 
ATOM     63  N   UNL     1      -9.011  -4.721  17.106  1.00  0.00    -0.354 N 
ATOM     64  N   UNL     1      -6.082  -4.584  17.265  1.00  0.00    -0.248 NA
ATOM     65  C   UNL     1      -4.135  -4.200  18.491  1.00  0.00     0.031 C 
ATOM     66  C   UNL     1     -10.184  -4.426  18.969  1.00  0.00     0.029 A 
ATOM     67  C   UNL     1      -8.895  -4.465  18.463  1.00  0.00     0.049 A 
ATOM     68  H   UNL     1      -8.256  -4.794  16.478  1.00  0.00     0.167 HD
ATOM     69  C   UNL     1      -6.420  -4.341  18.590  1.00  0.00     0.074 A 
ATOM     70  C   UNL     1      -5.177  -4.150  19.307  1.00  0.00     0.031 C 
ATOM     71  C   UNL     1      -7.648  -4.285  19.165  1.00  0.00     0.037 A 
BRANCH  58  72
ATOM     72  C   UNL     1     -12.315  -5.156  15.204  1.00  0.00     0.064 A 
ATOM     73  C   UNL     1     -12.959  -6.348  14.841  1.00  0.00     0.173 A 
ATOM     74  C   UNL     1     -13.107  -4.011  15.378  1.00  0.00     0.173 A 
ATOM     75  F   UNL     1     -12.247  -7.469  14.644  1.00  0.00    -0.203 F 
ATOM     76  C   UNL     1     -14.336  -6.385  14.633  1.00  0.00     0.198 A 
ATOM     77  C   UNL     1     -14.487  -4.059  15.204  1.00  0.00     0.198 A 
ATOM     78  F   UNL     1     -12.543  -2.844  15.725  1.00  0.00    -0.203 F 
ATOM     79  F   UNL     1     -14.922  -7.522  14.233  1.00  0.00    -0.200 F 
ATOM     80  C   UNL     1     -15.099  -5.243  14.823  1.00  0.00     0.200 A 
ATOM     81  F   UNL     1     -15.224  -2.958  15.402  1.00  0.00    -0.200 F 
ATOM     82  F   UNL     1     -16.425  -5.282  14.631  1.00  0.00    -0.200 F 
ENDBRANCH  58  72
BRANCH  59  83
ATOM     83  C   UNL     1      -2.379  -4.648  16.190  1.00  0.00     0.064 A 
ATOM     84  C   UNL     1      -1.668  -5.561  16.981  1.00  0.00     0.173 A 
ATOM     85  C   UNL     1      -1.653  -3.614  15.579  1.00  0.00     0.173 A 
ATOM     86  F   UNL     1      -2.319  -6.553  17.608  1.00  0.00    -0.203 F 
ATOM     87  C   UNL     1      -0.294  -5.431  17.175  1.00  0.00     0.198 A 
ATOM     88  C   UNL     1      -0.275  -3.504  15.747  1.00  0.00     0.198 A 
ATOM     89  F   UNL     1      -2.284  -2.711  14.814  1.00  0.00    -0.203 F 
ATOM     90  F   UNL     1       0.350  -6.285  17.982  1.00  0.00    -0.200 F 
ATOM     91  C   UNL     1       0.403  -4.406  16.553  1.00  0.00     0.200 A 
ATOM     92  F   UNL     1       0.396  -2.521  15.132  1.00  0.00    -0.200 F 
ATOM     93  F   UNL     1       1.724  -4.282  16.738  1.00  0.00    -0.200 F 
ENDBRANCH  59  83
BRANCH  71  94
ATOM     94  C   UNL     1      -7.708  -4.056  20.650  1.00  0.00     0.064 A 
ATOM     95  C   UNL     1      -7.346  -2.831  21.230  1.00  0.00     0.173 A 
ATOM     96  C   UNL     1      -8.164  -5.073  21.504  1.00  0.00     0.173 A 
ATOM     97  F   UNL     1      -6.894  -1.827  20.462  1.00  0.00    -0.203 F 
ATOM     98  C   UNL     1      -7.399  -2.647  22.610  1.00  0.00     0.198 A 
ATOM     99  C   UNL     1      -8.253  -4.873  22.879  1.00  0.00     0.198 A 
ATOM    100  F   UNL     1      -8.535  -6.261  21.004  1.00  0.00    -0.203 F 
ATOM    101  F   UNL     1      -6.986  -1.489  23.145  1.00  0.00    -0.200 F 
ATOM    102  C   UNL     1      -7.858  -3.664  23.432  1.00  0.00     0.200 A 
ATOM    103  F   UNL     1      -8.716  -5.851  23.669  1.00  0.00    -0.200 F 
ATOM    104  F   UNL     1      -7.913  -3.484  24.759  1.00  0.00    -0.200 F 
ENDBRANCH  71  94
ENDBRANCH  45  46
ENDBRANCH  38  40
ENDBRANCH  37  38
ENDBRANCH  36  37
ENDBRANCH  35  36
ENDBRANCH  34  35
ENDBRANCH  33  34
ENDBRANCH  32  33
ENDBRANCH   1  32
TORSDOF 25
