REMARK SMILES CCCC(O)(CCC)[C@@]1(C)CC[C@@H](C(=O)OCCOCCOCCOCCOC(=O)c2ccc(-c3c4nc(c(-c5c(F)c(F)c(F)c(F)c5F)c5ccc([nH]5)c(-c5c(F)c(F)c(F)c(F)c5F)c5nc(c(-c6c(F)c(F)c(F)c(F)c6F)c6ccc3[nH]6)C=C5)C=C4)cc2)C(C)(C)O1
REMARK SMILES IDX 21 1 20 2 19 3 18 4 17 5 16 6 14 7 15 8 13 9 9 10 10 11
REMARK SMILES IDX 11 12 97 13 12 14 94 15 95 16 96 17 4 18 3 19 2 20 1 21 5 22
REMARK SMILES IDX 6 24 7 25 8 26 22 27 23 28 24 29 25 30 26 31 27 32 28 33
REMARK SMILES IDX 29 34 30 35 31 36 32 37 93 38 33 39 92 40 34 41 35 42 36 43
REMARK SMILES IDX 86 44 37 45 91 46 85 47 87 48 38 49 90 50 84 51 83 52 39 54
REMARK SMILES IDX 71 55 51 56 70 57 52 58 55 59 69 60 88 61 53 62 54 63 68 65
REMARK SMILES IDX 89 66 56 67 40 68 41 69 49 70 42 71 43 72 47 73 50 74 44 75
REMARK SMILES IDX 45 76 48 77 46 78 72 79 73 80 81 81 74 82 75 83 79 84 82 85
REMARK SMILES IDX 76 86 77 87 80 88 78 89 57 90 58 91 66 92 59 93 60 94 64 95
REMARK SMILES IDX 67 96 61 97 62 98 65 99 63 100
REMARK H PARENT 5 23 87 53 55 64
REMARK Flexibility Score: inf
ROOT
ATOM      1  C   UNL     1       5.769  -5.098  -2.791  1.00  0.00     0.188 C 
ENDROOT
BRANCH   1   2
ATOM      2  C   UNL     1       6.149  -6.536  -2.429  1.00  0.00     0.188 C 
BRANCH   2   3
ATOM      3  O   UNL     1       5.744  -7.625  -3.251  1.00  0.00    -0.376 OA
BRANCH   3   4
ATOM      4  C   UNL     1       4.623  -7.513  -4.113  1.00  0.00     0.202 C 
BRANCH   4   5
ATOM      5  C   UNL     1       3.245  -7.220  -3.499  1.00  0.00     0.261 C 
BRANCH   5   6
ATOM      6  O   UNL     1       3.075  -5.965  -2.799  1.00  0.00    -0.463 OA
BRANCH   6   7
ATOM      7  C   UNL     1       3.100  -5.979  -1.442  1.00  0.00     0.311 C 
ATOM      8  O   UNL     1       3.416  -6.966  -0.784  1.00  0.00    -0.252 OA
BRANCH   7   9
ATOM      9  C   UNL     1       2.502  -4.725  -0.777  1.00  0.00     0.131 C 
ATOM     10  C   UNL     1       0.635  -2.423  -0.521  1.00  0.00     0.095 C 
ATOM     11  C   UNL     1       0.064  -1.707   0.756  1.00  0.00     0.045 C 
ATOM     12  C   UNL     1       0.177  -3.869  -0.263  1.00  0.00     0.039 C 
ATOM     13  O   UNL     1       2.055  -2.295  -0.332  1.00  0.00    -0.366 OA
ATOM     14  C   UNL     1       0.997  -4.946  -0.910  1.00  0.00     0.021 C 
ATOM     15  C   UNL     1       3.011  -3.233  -0.895  1.00  0.00     0.077 C 
ATOM     16  C   UNL     1       3.441  -2.571  -2.207  1.00  0.00     0.043 C 
ATOM     17  C   UNL     1       4.273  -3.058   0.007  1.00  0.00     0.043 C 
BRANCH  10  18
ATOM     18  C   UNL     1      -0.006  -1.700  -1.835  1.00  0.00     0.093 C 
BRANCH  18  19
ATOM     19  C   UNL     1       0.638  -0.324  -2.241  1.00  0.00     0.038 C 
BRANCH  19  20
ATOM     20  C   UNL     1       0.537   0.904  -1.317  1.00  0.00    -0.000 C 
ATOM     21  C   UNL     1       1.697   1.084  -0.345  1.00  0.00     0.004 C 
ENDBRANCH  19  20
ENDBRANCH  18  19
BRANCH  18  22
ATOM     22  O   UNL     1      -1.409  -1.451  -1.492  1.00  0.00    -0.387 OA
ATOM     23  H   UNL     1      -1.852  -1.018  -2.238  1.00  0.00     0.211 HD
ENDBRANCH  18  22
BRANCH  18  24
ATOM     24  C   UNL     1      -0.264  -2.565  -3.143  1.00  0.00     0.038 C 
BRANCH  24  25
ATOM     25  C   UNL     1       0.721  -2.683  -4.319  1.00  0.00    -0.000 C 
ATOM     26  C   UNL     1       1.495  -3.982  -4.312  1.00  0.00     0.004 C 
ENDBRANCH  24  25
ENDBRANCH  18  24
ENDBRANCH  10  18
ENDBRANCH   7   9
ENDBRANCH   6   7
ENDBRANCH   5   6
ENDBRANCH   4   5
ENDBRANCH   3   4
ENDBRANCH   2   3
ENDBRANCH   1   2
BRANCH   1  27
ATOM     27  O   UNL     1       5.310  -4.911  -4.115  1.00  0.00    -0.377 OA
BRANCH  27  28
ATOM     28  C   UNL     1       6.244  -4.365  -5.029  1.00  0.00     0.188 C 
BRANCH  28  29
ATOM     29  C   UNL     1       7.670  -4.922  -4.936  1.00  0.00     0.188 C 
BRANCH  29  30
ATOM     30  O   UNL     1       8.266  -4.773  -3.662  1.00  0.00    -0.376 OA
BRANCH  30  31
ATOM     31  C   UNL     1       8.873  -3.582  -3.202  1.00  0.00     0.202 C 
BRANCH  31  32
ATOM     32  C   UNL     1       8.472  -2.144  -3.584  1.00  0.00     0.261 C 
BRANCH  32  33
ATOM     33  O   UNL     1       7.825  -1.900  -4.831  1.00  0.00    -0.460 OA
BRANCH  33  34
ATOM     34  C   UNL     1       8.562  -2.022  -5.957  1.00  0.00     0.338 C 
ATOM     35  O   UNL     1       9.724  -2.334  -6.044  1.00  0.00    -0.246 OA
BRANCH  34  36
ATOM     36  C   UNL     1       7.623  -1.875  -7.094  1.00  0.00     0.060 A 
ATOM     37  C   UNL     1       7.423  -2.958  -7.959  1.00  0.00     0.016 A 
ATOM     38  C   UNL     1       6.946  -0.670  -7.299  1.00  0.00     0.016 A 
ATOM     39  C   UNL     1       6.566  -2.832  -9.052  1.00  0.00     0.010 A 
ATOM     40  C   UNL     1       6.113  -0.534  -8.412  1.00  0.00     0.010 A 
ATOM     41  C   UNL     1       5.945  -1.604  -9.309  1.00  0.00    -0.014 A 
BRANCH  41  42
ATOM     42  C   UNL     1       5.281  -1.372 -10.613  1.00  0.00     0.031 A 
ATOM     43  C   UNL     1       6.057  -0.664 -11.687  1.00  0.00     0.074 A 
ATOM     44  C   UNL     1       4.021  -1.779 -10.837  1.00  0.00     0.049 A 
ATOM     45  N   UNL     1       5.664  -0.249 -12.864  1.00  0.00    -0.248 NA
ATOM     46  C   UNL     1       7.471  -0.380 -11.389  1.00  0.00     0.031 C 
ATOM     47  C   UNL     1       3.192  -2.523  -9.893  1.00  0.00     0.029 A 
ATOM     48  N   UNL     1       3.213  -1.603 -11.933  1.00  0.00    -0.354 N 
ATOM     49  C   UNL     1       6.774   0.356 -13.438  1.00  0.00     0.074 A 
ATOM     50  C   UNL     1       7.849   0.278 -12.474  1.00  0.00     0.031 C 
ATOM     51  C   UNL     1       1.980  -2.719 -10.440  1.00  0.00     0.029 A 
ATOM     52  C   UNL     1       1.937  -2.076 -11.753  1.00  0.00     0.049 A 
ATOM     53  H   UNL     1       3.519  -1.178 -12.767  1.00  0.00     0.167 HD
ATOM     54  C   UNL     1       6.883   0.924 -14.661  1.00  0.00     0.037 A 
ATOM     55  C   UNL     1       0.852  -1.966 -12.545  1.00  0.00     0.037 A 
ATOM     56  C   UNL     1       5.806   0.998 -15.613  1.00  0.00     0.049 A 
ATOM     57  C   UNL     1       0.975  -1.248 -13.867  1.00  0.00     0.074 A 
ATOM     58  C   UNL     1       5.819   1.531 -16.889  1.00  0.00     0.029 A 
ATOM     59  N   UNL     1       4.519   0.535 -15.384  1.00  0.00    -0.354 N 
ATOM     60  N   UNL     1       2.031  -0.698 -14.418  1.00  0.00    -0.248 NA
ATOM     61  C   UNL     1      -0.246  -1.133 -14.677  1.00  0.00     0.031 C 
ATOM     62  C   UNL     1       4.523   1.451 -17.407  1.00  0.00     0.029 A 
ATOM     63  C   UNL     1       3.718   0.804 -16.482  1.00  0.00     0.049 A 
ATOM     64  H   UNL     1       4.218   0.081 -14.563  1.00  0.00     0.167 HD
ATOM     65  C   UNL     1       1.610  -0.201 -15.646  1.00  0.00     0.074 A 
ATOM     66  C   UNL     1       0.205  -0.527 -15.766  1.00  0.00     0.031 C 
ATOM     67  C   UNL     1       2.322   0.464 -16.589  1.00  0.00     0.037 A 
BRANCH  54  68
ATOM     68  C   UNL     1       8.199   1.546 -15.026  1.00  0.00     0.064 A 
ATOM     69  C   UNL     1       9.344   0.773 -15.269  1.00  0.00     0.173 A 
ATOM     70  C   UNL     1       8.306   2.938 -15.170  1.00  0.00     0.173 A 
ATOM     71  F   UNL     1       9.301  -0.561 -15.130  1.00  0.00    -0.203 F 
ATOM     72  C   UNL     1      10.552   1.372 -15.618  1.00  0.00     0.198 A 
ATOM     73  C   UNL     1       9.507   3.531 -15.552  1.00  0.00     0.198 A 
ATOM     74  F   UNL     1       7.242   3.725 -14.951  1.00  0.00    -0.203 F 
ATOM     75  F   UNL     1      11.645   0.617 -15.798  1.00  0.00    -0.200 F 
ATOM     76  C   UNL     1      10.630   2.748 -15.768  1.00  0.00     0.200 A 
ATOM     77  F   UNL     1       9.575   4.860 -15.709  1.00  0.00    -0.200 F 
ATOM     78  F   UNL     1      11.791   3.322 -16.114  1.00  0.00    -0.200 F 
ENDBRANCH  54  68
BRANCH  55  79
ATOM     79  C   UNL     1      -0.456  -2.518 -12.101  1.00  0.00     0.064 A 
ATOM     80  C   UNL     1      -1.059  -3.587 -12.777  1.00  0.00     0.173 A 
ATOM     81  C   UNL     1      -1.144  -1.969 -11.008  1.00  0.00     0.173 A 
ATOM     82  F   UNL     1      -0.455  -4.130 -13.845  1.00  0.00    -0.203 F 
ATOM     83  C   UNL     1      -2.308  -4.071 -12.392  1.00  0.00     0.198 A 
ATOM     84  C   UNL     1      -2.377  -2.475 -10.603  1.00  0.00     0.198 A 
ATOM     85  F   UNL     1      -0.615  -0.941 -10.327  1.00  0.00    -0.203 F 
ATOM     86  F   UNL     1      -2.885  -5.058 -13.091  1.00  0.00    -0.200 F 
ATOM     87  C   UNL     1      -2.963  -3.520 -11.301  1.00  0.00     0.200 A 
ATOM     88  F   UNL     1      -2.999  -1.947  -9.540  1.00  0.00    -0.200 F 
ATOM     89  F   UNL     1      -4.162  -3.987 -10.931  1.00  0.00    -0.200 F 
ENDBRANCH  55  79
BRANCH  67  90
ATOM     90  C   UNL     1       1.610   0.854 -17.854  1.00  0.00     0.064 A 
ATOM     91  C   UNL     1       0.643   1.869 -17.875  1.00  0.00     0.173 A 
ATOM     92  C   UNL     1       1.947   0.244 -19.073  1.00  0.00     0.173 A 
ATOM     93  F   UNL     1       0.275   2.475 -16.736  1.00  0.00    -0.203 F 
ATOM     94  C   UNL     1       0.025   2.245 -19.065  1.00  0.00     0.198 A 
ATOM     95  C   UNL     1       1.353   0.646 -20.266  1.00  0.00     0.198 A 
ATOM     96  F   UNL     1       2.872  -0.727 -19.111  1.00  0.00    -0.203 F 
ATOM     97  F   UNL     1      -0.928   3.187 -19.055  1.00  0.00    -0.200 F 
ATOM     98  C   UNL     1       0.388   1.641 -20.260  1.00  0.00     0.200 A 
ATOM     99  F   UNL     1       1.719   0.074 -21.421  1.00  0.00    -0.200 F 
ATOM    100  F   UNL     1      -0.197   2.015 -21.407  1.00  0.00    -0.200 F 
ENDBRANCH  67  90
ENDBRANCH  41  42
ENDBRANCH  34  36
ENDBRANCH  33  34
ENDBRANCH  32  33
ENDBRANCH  31  32
ENDBRANCH  30  31
ENDBRANCH  29  30
ENDBRANCH  28  29
ENDBRANCH  27  28
ENDBRANCH   1  27
TORSDOF 26
