REMARK SMILES O=C(COc1ccc(Cl)c2ccccc12)N[C@@H](Cc1c[nH]c2ccccc12)C(=O)OCCOCCOCCOCCOC(=O)c1ccc(-c2c3nc(c(-c4c(F)c(F)c(F)c(F)c4F)c4ccc([nH]4)c(-c4c(F)c(F)c(F)c(F)c4F)c4nc(c(-c5c(F)c(F)c(F)c(F)c5F)c5ccc2[nH]5)C=C4)C=C3)cc1
REMARK SMILES IDX 35 1 34 2 33 3 32 4 31 5 30 6 28 7 29 8 17 9 16 10 1 11 2 12
REMARK SMILES IDX 3 14 4 15 5 16 6 17 15 18 7 19 10 20 14 21 8 22 11 23 13 24
REMARK SMILES IDX 9 25 12 26 18 27 19 28 20 29 27 30 21 31 22 32 26 33 23 35
REMARK SMILES IDX 25 36 24 37 36 38 37 39 38 40 39 41 40 42 41 43 42 44 43 45
REMARK SMILES IDX 44 46 45 47 46 48 107 49 47 50 106 51 48 52 49 53 50 54
REMARK SMILES IDX 100 55 51 56 105 57 99 58 101 59 52 60 104 61 98 62 97 63
REMARK SMILES IDX 53 65 85 66 65 67 84 68 66 69 69 70 83 71 102 72 67 73 68 74
REMARK SMILES IDX 82 76 103 77 70 78 54 79 55 80 63 81 56 82 57 83 61 84 64 85
REMARK SMILES IDX 58 86 59 87 62 88 60 89 86 90 87 91 95 92 88 93 89 94 93 95
REMARK SMILES IDX 96 96 90 97 91 98 94 99 92 100 71 101 72 102 80 103 73 104
REMARK SMILES IDX 74 105 78 106 81 107 75 108 76 109 79 110 77 111
REMARK H PARENT 16 13 21 34 101 64 69 75
REMARK Flexibility Score: inf
ROOT
ATOM      1  C   UNL     1       3.162   3.316  -0.778  1.00  0.00     0.188 C 
ENDROOT
BRANCH   1   2
ATOM      2  C   UNL     1       1.876   4.070  -0.383  1.00  0.00     0.188 C 
BRANCH   2   3
ATOM      3  O   UNL     1       1.920   5.420   0.052  1.00  0.00    -0.376 OA
BRANCH   3   4
ATOM      4  C   UNL     1       2.936   5.876   0.927  1.00  0.00     0.202 C 
BRANCH   4   5
ATOM      5  C   UNL     1       3.479   5.015   2.079  1.00  0.00     0.261 C 
BRANCH   5   6
ATOM      6  O   UNL     1       3.259   3.603   1.984  1.00  0.00    -0.462 OA
BRANCH   6   7
ATOM      7  C   UNL     1       2.209   3.106   2.678  1.00  0.00     0.329 C 
ATOM      8  O   UNL     1       1.454   3.787   3.365  1.00  0.00    -0.250 OA
BRANCH   7   9
ATOM      9  C   UNL     1       2.182   1.566   2.662  1.00  0.00     0.196 C 
BRANCH   9  10
ATOM     10  N   UNL     1       2.816   0.821   1.536  1.00  0.00    -0.339 N 
ATOM     11  O   UNL     1       0.854  -0.053   0.769  1.00  0.00    -0.271 OA
ATOM     12  C   UNL     1       2.080   0.032   0.672  1.00  0.00     0.258 C 
ATOM     13  H   UNL     1       3.789   0.893   1.404  1.00  0.00     0.164 HD
BRANCH  12  14
ATOM     14  C   UNL     1       2.842  -0.804  -0.403  1.00  0.00     0.329 C 
BRANCH  14  15
ATOM     15  O   UNL     1       3.398  -0.232  -1.582  1.00  0.00    -0.483 OA
BRANCH  15  16
ATOM     16  C   UNL     1       2.566   0.007  -2.659  1.00  0.00     0.128 A 
ATOM     17  C   UNL     1       1.295   0.555  -2.483  1.00  0.00     0.048 A 
ATOM     18  C   UNL     1       3.115  -0.110  -3.975  1.00  0.00     0.025 A 
ATOM     19  C   UNL     1       0.581   1.049  -3.572  1.00  0.00     0.025 A 
ATOM     20  C   UNL     1       2.390   0.412  -5.090  1.00  0.00     0.004 A 
ATOM     21  C   UNL     1       4.387  -0.675  -4.228  1.00  0.00     0.012 A 
ATOM     22  C   UNL     1       1.125   0.999  -4.855  1.00  0.00     0.049 A 
ATOM     23  C   UNL     1       3.000   0.403  -6.371  1.00  0.00     0.010 A 
ATOM     24  C   UNL     1       4.956  -0.686  -5.507  1.00  0.00     0.001 A 
ATOM     25  Cl  UNL     1       0.222   1.792  -6.106  1.00  0.00    -0.084 Cl
ATOM     26  C   UNL     1       4.272  -0.127  -6.575  1.00  0.00     0.001 A 
ENDBRANCH  15  16
ENDBRANCH  14  15
ENDBRANCH  12  14
ENDBRANCH   9  10
BRANCH   9  27
ATOM     27  C   UNL     1       2.765   1.133   4.021  1.00  0.00     0.074 C 
BRANCH  27  28
ATOM     28  C   UNL     1       4.248   1.360   4.129  1.00  0.00    -0.020 A 
ATOM     29  C   UNL     1       4.893   2.556   4.386  1.00  0.00     0.087 A 
ATOM     30  C   UNL     1       5.268   0.372   3.973  1.00  0.00     0.003 A 
ATOM     31  N   UNL     1       6.242   2.347   4.304  1.00  0.00    -0.361 N 
ATOM     32  C   UNL     1       6.500   1.017   4.077  1.00  0.00     0.046 A 
ATOM     33  C   UNL     1       5.249  -1.018   3.747  1.00  0.00     0.010 A 
ATOM     34  H   UNL     1       6.928   3.047   4.395  1.00  0.00     0.166 HD
ATOM     35  C   UNL     1       7.719   0.341   3.962  1.00  0.00     0.026 A 
ATOM     36  C   UNL     1       6.458  -1.713   3.652  1.00  0.00     0.001 A 
ATOM     37  C   UNL     1       7.673  -1.040   3.756  1.00  0.00     0.002 A 
ENDBRANCH  27  28
ENDBRANCH   9  27
ENDBRANCH   7   9
ENDBRANCH   6   7
ENDBRANCH   5   6
ENDBRANCH   4   5
ENDBRANCH   3   4
ENDBRANCH   2   3
ENDBRANCH   1   2
BRANCH   1  38
ATOM     38  O   UNL     1       4.378   3.932  -0.372  1.00  0.00    -0.377 OA
BRANCH  38  39
ATOM     39  C   UNL     1       5.194   4.379  -1.444  1.00  0.00     0.188 C 
BRANCH  39  40
ATOM     40  C   UNL     1       4.546   5.471  -2.320  1.00  0.00     0.188 C 
BRANCH  40  41
ATOM     41  O   UNL     1       3.220   5.167  -2.716  1.00  0.00    -0.376 OA
BRANCH  41  42
ATOM     42  C   UNL     1       2.965   4.578  -3.980  1.00  0.00     0.202 C 
BRANCH  42  43
ATOM     43  C   UNL     1       3.774   3.367  -4.454  1.00  0.00     0.261 C 
BRANCH  43  44
ATOM     44  O   UNL     1       5.164   3.349  -4.155  1.00  0.00    -0.460 OA
BRANCH  44  45
ATOM     45  C   UNL     1       6.004   3.959  -4.996  1.00  0.00     0.338 C 
ATOM     46  O   UNL     1       5.739   4.548  -6.033  1.00  0.00    -0.246 OA
BRANCH  45  47
ATOM     47  C   UNL     1       7.303   3.971  -4.309  1.00  0.00     0.060 A 
ATOM     48  C   UNL     1       7.784   5.202  -3.853  1.00  0.00     0.016 A 
ATOM     49  C   UNL     1       8.013   2.787  -4.078  1.00  0.00     0.016 A 
ATOM     50  C   UNL     1       9.012   5.266  -3.215  1.00  0.00     0.010 A 
ATOM     51  C   UNL     1       9.264   2.856  -3.463  1.00  0.00     0.010 A 
ATOM     52  C   UNL     1       9.783   4.104  -3.079  1.00  0.00    -0.014 A 
BRANCH  52  53
ATOM     53  C   UNL     1      11.220   4.271  -2.783  1.00  0.00     0.031 A 
ATOM     54  C   UNL     1      12.165   4.333  -3.949  1.00  0.00     0.074 A 
ATOM     55  C   UNL     1      11.642   4.480  -1.526  1.00  0.00     0.049 A 
ATOM     56  N   UNL     1      13.459   4.518  -3.965  1.00  0.00    -0.248 NA
ATOM     57  C   UNL     1      11.565   4.176  -5.286  1.00  0.00     0.031 C 
ATOM     58  C   UNL     1      10.784   4.512  -0.344  1.00  0.00     0.029 A 
ATOM     59  N   UNL     1      12.900   4.721  -1.040  1.00  0.00    -0.354 N 
ATOM     60  C   UNL     1      13.823   4.496  -5.305  1.00  0.00     0.074 A 
ATOM     61  C   UNL     1      12.626   4.248  -6.074  1.00  0.00     0.031 C 
ATOM     62  C   UNL     1      11.544   4.757   0.737  1.00  0.00     0.029 A 
ATOM     63  C   UNL     1      12.942   4.861   0.324  1.00  0.00     0.049 A 
ATOM     64  H   UNL     1      13.697   4.786  -1.615  1.00  0.00     0.167 HD
ATOM     65  C   UNL     1      15.051   4.676  -5.842  1.00  0.00     0.037 A 
ATOM     66  C   UNL     1      14.001   5.031   1.137  1.00  0.00     0.037 A 
ATOM     67  C   UNL     1      16.231   4.918  -5.056  1.00  0.00     0.049 A 
ATOM     68  C   UNL     1      15.373   5.138   0.519  1.00  0.00     0.074 A 
ATOM     69  C   UNL     1      17.531   5.109  -5.485  1.00  0.00     0.029 A 
ATOM     70  N   UNL     1      16.247   4.992  -3.670  1.00  0.00    -0.354 N 
ATOM     71  N   UNL     1      15.715   5.121  -0.748  1.00  0.00    -0.248 NA
ATOM     72  C   UNL     1      16.504   5.293   1.442  1.00  0.00     0.031 C 
ATOM     73  C   UNL     1      18.344   5.234  -4.354  1.00  0.00     0.029 A 
ATOM     74  C   UNL     1      17.542   5.194  -3.223  1.00  0.00     0.049 A 
ATOM     75  H   UNL     1      15.456   4.912  -3.090  1.00  0.00     0.167 HD
ATOM     76  C   UNL     1      17.092   5.291  -0.777  1.00  0.00     0.074 A 
ATOM     77  C   UNL     1      17.520   5.428   0.601  1.00  0.00     0.031 C 
ATOM     78  C   UNL     1      17.932   5.332  -1.842  1.00  0.00     0.037 A 
BRANCH  65  79
ATOM     79  C   UNL     1      15.181   4.570  -7.335  1.00  0.00     0.064 A 
ATOM     80  C   UNL     1      14.638   5.531  -8.201  1.00  0.00     0.173 A 
ATOM     81  C   UNL     1      15.873   3.491  -7.907  1.00  0.00     0.173 A 
ATOM     82  F   UNL     1      13.948   6.571  -7.709  1.00  0.00    -0.203 F 
ATOM     83  C   UNL     1      14.760   5.402  -9.583  1.00  0.00     0.198 A 
ATOM     84  C   UNL     1      16.021   3.382  -9.287  1.00  0.00     0.198 A 
ATOM     85  F   UNL     1      16.408   2.541  -7.126  1.00  0.00    -0.203 F 
ATOM     86  F   UNL     1      14.186   6.303 -10.392  1.00  0.00    -0.200 F 
ATOM     87  C   UNL     1      15.458   4.333 -10.124  1.00  0.00     0.200 A 
ATOM     88  F   UNL     1      16.705   2.354  -9.806  1.00  0.00    -0.200 F 
ATOM     89  F   UNL     1      15.580   4.213 -11.453  1.00  0.00    -0.200 F 
ENDBRANCH  65  79
BRANCH  66  90
ATOM     90  C   UNL     1      13.810   5.085   2.611  1.00  0.00     0.064 A 
ATOM     91  C   UNL     1      14.093   6.246   3.344  1.00  0.00     0.173 A 
ATOM     92  C   UNL     1      13.352   3.965   3.322  1.00  0.00     0.173 A 
ATOM     93  F   UNL     1      14.551   7.339   2.716  1.00  0.00    -0.203 F 
ATOM     94  C   UNL     1      13.945   6.279   4.730  1.00  0.00     0.198 A 
ATOM     95  C   UNL     1      13.172   4.009   4.703  1.00  0.00     0.198 A 
ATOM     96  F   UNL     1      13.062   2.828   2.673  1.00  0.00    -0.203 F 
ATOM     97  F   UNL     1      14.269   7.387   5.410  1.00  0.00    -0.200 F 
ATOM     98  C   UNL     1      13.479   5.162   5.407  1.00  0.00     0.200 A 
ATOM     99  F   UNL     1      12.700   2.934   5.349  1.00  0.00    -0.200 F 
ATOM    100  F   UNL     1      13.330   5.196   6.739  1.00  0.00    -0.200 F 
ENDBRANCH  66  90
BRANCH  78 101
ATOM    101  C   UNL     1      19.387   5.574  -1.559  1.00  0.00     0.064 A 
ATOM    102  C   UNL     1      20.192   4.605  -0.944  1.00  0.00     0.173 A 
ATOM    103  C   UNL     1      19.991   6.779  -1.952  1.00  0.00     0.173 A 
ATOM    104  F   UNL     1      19.659   3.442  -0.538  1.00  0.00    -0.203 F 
ATOM    105  C   UNL     1      21.541   4.846  -0.702  1.00  0.00     0.198 A 
ATOM    106  C   UNL     1      21.349   7.000  -1.744  1.00  0.00     0.198 A 
ATOM    107  F   UNL     1      19.268   7.734  -2.555  1.00  0.00    -0.203 F 
ATOM    108  F   UNL     1      22.278   3.929  -0.061  1.00  0.00    -0.200 F 
ATOM    109  C   UNL     1      22.120   6.039  -1.110  1.00  0.00     0.200 A 
ATOM    110  F   UNL     1      21.910   8.145  -2.157  1.00  0.00    -0.200 F 
ATOM    111  F   UNL     1      23.422   6.264  -0.885  1.00  0.00    -0.200 F 
ENDBRANCH  78 101
ENDBRANCH  52  53
ENDBRANCH  45  47
ENDBRANCH  44  45
ENDBRANCH  43  44
ENDBRANCH  42  43
ENDBRANCH  41  42
ENDBRANCH  40  41
ENDBRANCH  39  40
ENDBRANCH  38  39
ENDBRANCH   1  38
TORSDOF 26
