REMARK SMILES O=C(C[C@H](C(=O)OCCOCCOCCOCCOC(=O)c1ccc(-c2c3nc(c(-c4c(F)c(F)c(F)c(F)c4F)c4ccc([nH]4)c(-c4c(F)c(F)c(F)c(F)c4F)c4nc(c(-c5c(F)c(F)c(F)c(F)c5F)c5ccc2[nH]5)C=C4)C=C3)cc1)c1ccccc1)Nc1ccc(Cl)cc1Cl
REMARK SMILES IDX 12 1 11 2 10 3 9 4 8 5 7 6 5 7 6 8 4 9 3 10 2 11 1 12 91 13
REMARK SMILES IDX 92 15 93 16 98 17 94 18 97 19 99 20 95 21 96 22 85 23 86 24
REMARK SMILES IDX 90 25 87 26 89 27 88 28 13 29 14 30 15 31 16 32 17 33 18 34
REMARK SMILES IDX 19 35 20 36 21 37 22 38 23 39 84 40 24 41 83 42 25 43 26 44
REMARK SMILES IDX 27 45 77 46 28 47 82 48 76 49 78 50 29 51 81 52 75 53 74 54
REMARK SMILES IDX 30 56 62 57 42 58 61 59 43 60 46 61 60 62 79 63 44 64 45 65
REMARK SMILES IDX 59 67 80 68 47 69 31 70 32 71 40 72 33 73 34 74 38 75 41 76
REMARK SMILES IDX 35 77 36 78 39 79 37 80 63 81 64 82 72 83 65 84 66 85 70 86
REMARK SMILES IDX 73 87 67 88 68 89 71 90 69 91 48 92 49 93 57 94 50 95 51 96
REMARK SMILES IDX 55 97 58 98 52 99 53 100 56 101 54 102
REMARK H PARENT 91 14 78 55 46 66
REMARK Flexibility Score: inf
ROOT
ATOM      1  C   UNL     1       2.302  -0.517   3.330  1.00  0.00     0.188 C 
ENDROOT
BRANCH   1   2
ATOM      2  C   UNL     1       2.774   0.902   2.940  1.00  0.00     0.188 C 
BRANCH   2   3
ATOM      3  O   UNL     1       1.947   1.788   2.194  1.00  0.00    -0.376 OA
BRANCH   3   4
ATOM      4  C   UNL     1       0.874   1.299   1.415  1.00  0.00     0.202 C 
BRANCH   4   5
ATOM      5  C   UNL     1       1.167   0.363   0.232  1.00  0.00     0.261 C 
BRANCH   5   6
ATOM      6  O   UNL     1       2.098  -0.714   0.431  1.00  0.00    -0.463 OA
BRANCH   6   7
ATOM      7  C   UNL     1       3.414  -0.405   0.233  1.00  0.00     0.314 C 
ATOM      8  O   UNL     1       3.836   0.717  -0.006  1.00  0.00    -0.252 OA
BRANCH   7   9
ATOM      9  C   UNL     1       4.287  -1.665   0.293  1.00  0.00     0.138 C 
BRANCH   9  10
ATOM     10  C   UNL     1       5.278  -1.662  -0.876  1.00  0.00     0.120 C 
BRANCH  10  11
ATOM     11  C   UNL     1       4.682  -1.072  -2.146  1.00  0.00     0.225 C 
ATOM     12  O   UNL     1       5.172  -0.065  -2.643  1.00  0.00    -0.275 OA
ATOM     13  N   UNL     1       3.530  -1.716  -2.573  1.00  0.00    -0.325 N 
ATOM     14  H   UNL     1       3.264  -2.533  -2.093  1.00  0.00     0.169 HD
BRANCH  13  15
ATOM     15  C   UNL     1       2.707  -1.293  -3.645  1.00  0.00     0.060 A 
ATOM     16  C   UNL     1       1.326  -1.478  -3.450  1.00  0.00     0.029 A 
ATOM     17  C   UNL     1       3.146  -0.727  -4.856  1.00  0.00     0.066 A 
ATOM     18  C   UNL     1       0.403  -1.038  -4.402  1.00  0.00     0.023 A 
ATOM     19  C   UNL     1       2.216  -0.269  -5.797  1.00  0.00     0.043 A 
ATOM     20  Cl  UNL     1       4.792  -0.763  -5.391  1.00  0.00    -0.082 Cl
ATOM     21  C   UNL     1       0.853  -0.419  -5.563  1.00  0.00     0.042 A 
ATOM     22  Cl  UNL     1      -0.281   0.121  -6.738  1.00  0.00    -0.084 Cl
ENDBRANCH  13  15
ENDBRANCH  10  11
ENDBRANCH   9  10
BRANCH   9  23
ATOM     23  C   UNL     1       4.977  -1.906   1.634  1.00  0.00    -0.033 A 
ATOM     24  C   UNL     1       4.850  -3.153   2.273  1.00  0.00     0.004 A 
ATOM     25  C   UNL     1       5.701  -0.899   2.290  1.00  0.00     0.004 A 
ATOM     26  C   UNL     1       5.373  -3.361   3.554  1.00  0.00     0.000 A 
ATOM     27  C   UNL     1       6.201  -1.101   3.582  1.00  0.00     0.000 A 
ATOM     28  C   UNL     1       6.031  -2.329   4.216  1.00  0.00     0.000 A 
ENDBRANCH   9  23
ENDBRANCH   7   9
ENDBRANCH   6   7
ENDBRANCH   5   6
ENDBRANCH   4   5
ENDBRANCH   3   4
ENDBRANCH   2   3
ENDBRANCH   1   2
BRANCH   1  29
ATOM     29  O   UNL     1       0.906  -0.733   3.201  1.00  0.00    -0.377 OA
BRANCH  29  30
ATOM     30  C   UNL     1       0.167  -0.598   4.402  1.00  0.00     0.188 C 
BRANCH  30  31
ATOM     31  C   UNL     1       0.398   0.691   5.210  1.00  0.00     0.188 C 
BRANCH  31  32
ATOM     32  O   UNL     1       1.764   0.888   5.549  1.00  0.00    -0.376 OA
BRANCH  32  33
ATOM     33  C   UNL     1       2.205   0.633   6.869  1.00  0.00     0.202 C 
BRANCH  33  34
ATOM     34  C   UNL     1       2.382  -0.842   7.258  1.00  0.00     0.261 C 
BRANCH  34  35
ATOM     35  O   UNL     1       1.242  -1.690   7.062  1.00  0.00    -0.460 OA
BRANCH  35  36
ATOM     36  C   UNL     1       0.112  -1.392   7.739  1.00  0.00     0.338 C 
ATOM     37  O   UNL     1      -0.046  -0.502   8.555  1.00  0.00    -0.246 OA
BRANCH  36  38
ATOM     38  C   UNL     1      -0.978  -2.203   7.153  1.00  0.00     0.060 A 
ATOM     39  C   UNL     1      -2.101  -1.546   6.631  1.00  0.00     0.016 A 
ATOM     40  C   UNL     1      -0.865  -3.593   7.057  1.00  0.00     0.016 A 
ATOM     41  C   UNL     1      -3.121  -2.279   6.024  1.00  0.00     0.010 A 
ATOM     42  C   UNL     1      -1.904  -4.330   6.483  1.00  0.00     0.010 A 
ATOM     43  C   UNL     1      -3.047  -3.677   5.990  1.00  0.00    -0.014 A 
BRANCH  43  44
ATOM     44  C   UNL     1      -4.261  -4.463   5.669  1.00  0.00     0.031 A 
ATOM     45  C   UNL     1      -5.131  -4.898   6.815  1.00  0.00     0.074 A 
ATOM     46  C   UNL     1      -4.595  -4.771   4.404  1.00  0.00     0.049 A 
ATOM     47  N   UNL     1      -6.208  -5.640   6.811  1.00  0.00    -0.248 NA
ATOM     48  C   UNL     1      -4.727  -4.430   8.151  1.00  0.00     0.031 C 
ATOM     49  C   UNL     1      -3.862  -4.359   3.210  1.00  0.00     0.029 A 
ATOM     50  N   UNL     1      -5.643  -5.513   3.920  1.00  0.00    -0.354 N 
ATOM     51  C   UNL     1      -6.606  -5.727   8.139  1.00  0.00     0.074 A 
ATOM     52  C   UNL     1      -5.640  -4.993   8.925  1.00  0.00     0.031 C 
ATOM     53  C   UNL     1      -4.476  -4.869   2.127  1.00  0.00     0.029 A 
ATOM     54  C   UNL     1      -5.623  -5.670   2.556  1.00  0.00     0.049 A 
ATOM     55  H   UNL     1      -6.343  -5.898   4.495  1.00  0.00     0.167 HD
ATOM     56  C   UNL     1      -7.685  -6.358   8.655  1.00  0.00     0.037 A 
ATOM     57  C   UNL     1      -6.427  -6.399   1.756  1.00  0.00     0.037 A 
ATOM     58  C   UNL     1      -8.635  -7.099   7.871  1.00  0.00     0.049 A 
ATOM     59  C   UNL     1      -7.567  -7.177   2.368  1.00  0.00     0.074 A 
ATOM     60  C   UNL     1      -9.765  -7.774   8.296  1.00  0.00     0.029 A 
ATOM     61  N   UNL     1      -8.557  -7.272   6.497  1.00  0.00    -0.354 N 
ATOM     62  N   UNL     1      -7.951  -7.241   3.620  1.00  0.00    -0.248 NA
ATOM     63  C   UNL     1      -8.386  -7.984   1.452  1.00  0.00     0.031 C 
ATOM     64  C   UNL     1     -10.337  -8.405   7.188  1.00  0.00     0.029 A 
ATOM     65  C   UNL     1      -9.603  -8.068   6.061  1.00  0.00     0.049 A 
ATOM     66  H   UNL     1      -7.861  -6.886   5.917  1.00  0.00     0.167 HD
ATOM     67  C   UNL     1      -9.072  -8.062   3.638  1.00  0.00     0.074 A 
ATOM     68  C   UNL     1      -9.314  -8.465   2.268  1.00  0.00     0.031 C 
ATOM     69  C   UNL     1      -9.835  -8.448   4.691  1.00  0.00     0.037 A 
BRANCH  56  70
ATOM     70  C   UNL     1      -7.873  -6.301  10.143  1.00  0.00     0.064 A 
ATOM     71  C   UNL     1      -8.234  -5.113  10.797  1.00  0.00     0.173 A 
ATOM     72  C   UNL     1      -7.711  -7.456  10.922  1.00  0.00     0.173 A 
ATOM     73  F   UNL     1      -8.380  -3.976  10.100  1.00  0.00    -0.203 F 
ATOM     74  C   UNL     1      -8.400  -5.079  12.179  1.00  0.00     0.198 A 
ATOM     75  C   UNL     1      -7.910  -7.425  12.299  1.00  0.00     0.198 A 
ATOM     76  F   UNL     1      -7.364  -8.617  10.347  1.00  0.00    -0.203 F 
ATOM     77  F   UNL     1      -8.694  -3.922  12.788  1.00  0.00    -0.200 F 
ATOM     78  C   UNL     1      -8.247  -6.236  12.928  1.00  0.00     0.200 A 
ATOM     79  F   UNL     1      -7.772  -8.547  13.019  1.00  0.00    -0.200 F 
ATOM     80  F   UNL     1      -8.416  -6.204  14.257  1.00  0.00    -0.200 F 
ENDBRANCH  56  70
BRANCH  57  81
ATOM     81  C   UNL     1      -6.180  -6.450   0.289  1.00  0.00     0.064 A 
ATOM     82  C   UNL     1      -7.098  -5.905  -0.619  1.00  0.00     0.173 A 
ATOM     83  C   UNL     1      -5.038  -7.074  -0.237  1.00  0.00     0.173 A 
ATOM     84  F   UNL     1      -8.219  -5.322  -0.169  1.00  0.00    -0.203 F 
ATOM     85  C   UNL     1      -6.896  -6.001  -1.995  1.00  0.00     0.198 A 
ATOM     86  C   UNL     1      -4.822  -7.141  -1.612  1.00  0.00     0.198 A 
ATOM     87  F   UNL     1      -4.129  -7.615   0.586  1.00  0.00    -0.203 F 
ATOM     88  F   UNL     1      -7.817  -5.518  -2.841  1.00  0.00    -0.200 F 
ATOM     89  C   UNL     1      -5.755  -6.614  -2.490  1.00  0.00     0.200 A 
ATOM     90  F   UNL     1      -3.710  -7.722  -2.085  1.00  0.00    -0.200 F 
ATOM     91  F   UNL     1      -5.559  -6.704  -3.813  1.00  0.00    -0.200 F 
ENDBRANCH  57  81
BRANCH  69  92
ATOM     92  C   UNL     1     -11.031  -9.312   4.405  1.00  0.00     0.064 A 
ATOM     93  C   UNL     1     -10.900 -10.653   4.016  1.00  0.00     0.173 A 
ATOM     94  C   UNL     1     -12.328  -8.803   4.580  1.00  0.00     0.173 A 
ATOM     95  F   UNL     1      -9.684 -11.184   3.823  1.00  0.00    -0.203 F 
ATOM     96  C   UNL     1     -12.023 -11.444   3.787  1.00  0.00     0.198 A 
ATOM     97  C   UNL     1     -13.447  -9.607   4.385  1.00  0.00     0.198 A 
ATOM     98  F   UNL     1     -12.510  -7.530   4.962  1.00  0.00    -0.203 F 
ATOM     99  F   UNL     1     -11.874 -12.709   3.369  1.00  0.00    -0.200 F 
ATOM    100  C   UNL     1     -13.294 -10.925   3.981  1.00  0.00     0.200 A 
ATOM    101  F   UNL     1     -14.674  -9.108   4.591  1.00  0.00    -0.200 F 
ATOM    102  F   UNL     1     -14.373 -11.692   3.773  1.00  0.00    -0.200 F 
ENDBRANCH  69  92
ENDBRANCH  43  44
ENDBRANCH  36  38
ENDBRANCH  35  36
ENDBRANCH  34  35
ENDBRANCH  33  34
ENDBRANCH  32  33
ENDBRANCH  31  32
ENDBRANCH  30  31
ENDBRANCH  29  30
ENDBRANCH   1  29
TORSDOF 24
