REMARK SMILES CCOC(=O)c1cccc(Nc2c(-c3ccc(C(=O)OCCOCCOCCOCCOC(=O)c4ccc(-c5c6nc(c(-c7c(F)c(F)c(F)c(F)c7F)c7ccc([nH]7)c(-c7c(F)c(F)c(F)c(F)c7F)c7nc(c(-c8c(F)c(F)c(F)c(F)c8F)c8ccc5[nH]8)C=C7)C=C6)cc4)cc3)nc3cnccn23)c1
REMARK SMILES IDX 24 1 23 2 22 3 21 4 20 5 18 6 19 7 17 8 14 9 15 10 99 11
REMARK SMILES IDX 16 12 98 13 13 14 12 15 106 16 100 17 101 18 105 19 102 20
REMARK SMILES IDX 104 21 103 22 11 23 10 25 6 26 7 27 107 28 8 29 9 30 4 31
REMARK SMILES IDX 5 32 3 33 2 34 1 35 25 36 26 37 27 38 28 39 29 40 30 41
REMARK SMILES IDX 31 42 32 43 33 44 34 45 35 46 36 47 97 48 37 49 96 50 38 51
REMARK SMILES IDX 39 52 40 53 90 54 41 55 95 56 89 57 91 58 42 59 94 60 88 61
REMARK SMILES IDX 87 62 43 64 75 65 55 66 74 67 56 68 59 69 73 70 92 71 57 72
REMARK SMILES IDX 58 73 72 75 93 76 60 77 44 78 45 79 53 80 46 81 47 82 51 83
REMARK SMILES IDX 54 84 48 85 49 86 52 87 50 88 76 89 77 90 85 91 78 92 79 93
REMARK SMILES IDX 83 94 86 95 80 96 81 97 84 98 82 99 61 100 62 101 70 102
REMARK SMILES IDX 63 103 64 104 68 105 71 106 65 107 66 108 69 109 67 110
REMARK H PARENT 11 24 91 63 59 74
REMARK Flexibility Score: inf
ROOT
ATOM      1  C   UNL     1       3.098 -10.418  -1.288  1.00  0.00     0.188 C 
ENDROOT
BRANCH   1   2
ATOM      2  O   UNL     1       3.214 -11.520  -2.172  1.00  0.00    -0.376 OA
BRANCH   2   3
ATOM      3  C   UNL     1       4.271 -12.441  -1.985  1.00  0.00     0.202 C 
BRANCH   3   4
ATOM      4  C   UNL     1       4.347 -13.216  -0.660  1.00  0.00     0.261 C 
BRANCH   4   5
ATOM      5  O   UNL     1       4.118 -12.452   0.530  1.00  0.00    -0.460 OA
BRANCH   5   6
ATOM      6  C   UNL     1       5.109 -11.618   0.914  1.00  0.00     0.338 C 
ATOM      7  O   UNL     1       6.184 -11.467   0.361  1.00  0.00    -0.246 OA
BRANCH   6   8
ATOM      8  C   UNL     1       4.595 -10.751   2.002  1.00  0.00     0.060 A 
ATOM      9  C   UNL     1       3.719  -9.054   4.053  1.00  0.00     0.004 A 
ATOM     10  C   UNL     1       4.438  -8.533   2.970  1.00  0.00     0.011 A 
ATOM     11  C   UNL     1       3.390 -10.418   4.071  1.00  0.00     0.011 A 
ATOM     12  C   UNL     1       4.887  -9.382   1.955  1.00  0.00     0.016 A 
ATOM     13  C   UNL     1       3.811 -11.264   3.041  1.00  0.00     0.016 A 
BRANCH   9  14
ATOM     14  C   UNL     1       3.490  -8.252   5.239  1.00  0.00     0.114 A 
ATOM     15  C   UNL     1       2.973  -6.961   5.313  1.00  0.00     0.143 A 
ATOM     16  N   UNL     1       3.102  -6.628   6.653  1.00  0.00    -0.283 N 
ATOM     17  N   UNL     1       3.971  -8.680   6.459  1.00  0.00    -0.225 NA
ATOM     18  C   UNL     1       3.768  -7.663   7.258  1.00  0.00     0.157 A 
ATOM     19  C   UNL     1       2.734  -5.524   7.408  1.00  0.00     0.115 A 
ATOM     20  C   UNL     1       4.155  -7.527   8.633  1.00  0.00     0.158 A 
ATOM     21  C   UNL     1       3.105  -5.481   8.701  1.00  0.00     0.129 A 
ATOM     22  N   UNL     1       3.842  -6.470   9.334  1.00  0.00    -0.259 NA
BRANCH  15  23
ATOM     23  N   UNL     1       2.435  -6.130   4.374  1.00  0.00    -0.339 N 
ATOM     24  H   UNL     1       1.595  -6.413   3.947  1.00  0.00     0.168 HD
BRANCH  23  25
ATOM     25  C   UNL     1       2.990  -4.888   3.963  1.00  0.00     0.040 A 
ATOM     26  C   UNL     1       2.940  -2.971   2.460  1.00  0.00     0.062 A 
ATOM     27  C   UNL     1       4.100  -2.459   3.047  1.00  0.00     0.016 A 
ATOM     28  C   UNL     1       2.364  -4.160   2.936  1.00  0.00     0.041 A 
ATOM     29  C   UNL     1       4.691  -3.136   4.105  1.00  0.00     0.003 A 
ATOM     30  C   UNL     1       4.146  -4.343   4.548  1.00  0.00     0.026 A 
BRANCH  26  31
ATOM     31  C   UNL     1       2.445  -2.304   1.240  1.00  0.00     0.338 C 
ATOM     32  O   UNL     1       3.196  -1.931   0.352  1.00  0.00    -0.246 OA
BRANCH  31  33
ATOM     33  O   UNL     1       1.100  -2.154   1.280  1.00  0.00    -0.462 OA
BRANCH  33  34
ATOM     34  C   UNL     1       0.529  -1.548   0.107  1.00  0.00     0.230 C 
ATOM     35  C   UNL     1       0.790  -0.051   0.045  1.00  0.00     0.049 C 
ENDBRANCH  33  34
ENDBRANCH  31  33
ENDBRANCH  26  31
ENDBRANCH  23  25
ENDBRANCH  15  23
ENDBRANCH   9  14
ENDBRANCH   6   8
ENDBRANCH   5   6
ENDBRANCH   4   5
ENDBRANCH   3   4
ENDBRANCH   2   3
ENDBRANCH   1   2
BRANCH   1  36
ATOM     36  C   UNL     1       1.893 -10.512  -0.326  1.00  0.00     0.188 C 
BRANCH  36  37
ATOM     37  O   UNL     1       1.151 -11.722  -0.247  1.00  0.00    -0.377 OA
BRANCH  37  38
ATOM     38  C   UNL     1       0.772 -12.405  -1.439  1.00  0.00     0.188 C 
BRANCH  38  39
ATOM     39  C   UNL     1       0.551 -11.648  -2.772  1.00  0.00     0.188 C 
BRANCH  39  40
ATOM     40  O   UNL     1       0.632 -10.238  -2.667  1.00  0.00    -0.376 OA
BRANCH  40  41
ATOM     41  C   UNL     1      -0.568  -9.496  -2.769  1.00  0.00     0.202 C 
BRANCH  41  42
ATOM     42  C   UNL     1      -1.639  -9.742  -1.697  1.00  0.00     0.261 C 
BRANCH  42  43
ATOM     43  O   UNL     1      -2.009 -11.111  -1.469  1.00  0.00    -0.460 OA
BRANCH  43  44
ATOM     44  C   UNL     1      -2.663 -11.750  -2.460  1.00  0.00     0.338 C 
ATOM     45  O   UNL     1      -2.985 -11.297  -3.547  1.00  0.00    -0.246 OA
BRANCH  44  46
ATOM     46  C   UNL     1      -2.772 -13.172  -2.078  1.00  0.00     0.060 A 
ATOM     47  C   UNL     1      -2.168 -14.148  -2.882  1.00  0.00     0.016 A 
ATOM     48  C   UNL     1      -3.466 -13.536  -0.922  1.00  0.00     0.016 A 
ATOM     49  C   UNL     1      -2.291 -15.498  -2.552  1.00  0.00     0.010 A 
ATOM     50  C   UNL     1      -3.608 -14.889  -0.605  1.00  0.00     0.010 A 
ATOM     51  C   UNL     1      -3.053 -15.877  -1.439  1.00  0.00    -0.014 A 
BRANCH  51  52
ATOM     52  C   UNL     1      -3.461 -17.293  -1.273  1.00  0.00     0.031 A 
ATOM     53  C   UNL     1      -4.830 -17.694  -1.751  1.00  0.00     0.074 A 
ATOM     54  C   UNL     1      -2.638 -18.206  -0.730  1.00  0.00     0.049 A 
ATOM     55  N   UNL     1      -5.442 -18.846  -1.661  1.00  0.00    -0.248 NA
ATOM     56  C   UNL     1      -5.617 -16.645  -2.420  1.00  0.00     0.031 C 
ATOM     57  C   UNL     1      -1.275 -17.952  -0.273  1.00  0.00     0.029 A 
ATOM     58  N   UNL     1      -2.843 -19.538  -0.463  1.00  0.00    -0.354 N 
ATOM     59  C   UNL     1      -6.685 -18.657  -2.251  1.00  0.00     0.074 A 
ATOM     60  C   UNL     1      -6.756 -17.274  -2.664  1.00  0.00     0.031 C 
ATOM     61  C   UNL     1      -0.767 -19.091   0.232  1.00  0.00     0.029 A 
ATOM     62  C   UNL     1      -1.782 -20.142   0.167  1.00  0.00     0.049 A 
ATOM     63  H   UNL     1      -3.671 -20.015  -0.701  1.00  0.00     0.167 HD
ATOM     64  C   UNL     1      -7.676 -19.561  -2.442  1.00  0.00     0.037 A 
ATOM     65  C   UNL     1      -1.662 -21.392   0.656  1.00  0.00     0.037 A 
ATOM     66  C   UNL     1      -7.602 -20.936  -2.026  1.00  0.00     0.049 A 
ATOM     67  C   UNL     1      -2.814 -22.357   0.509  1.00  0.00     0.074 A 
ATOM     68  C   UNL     1      -8.546 -21.936  -2.182  1.00  0.00     0.029 A 
ATOM     69  N   UNL     1      -6.524 -21.503  -1.362  1.00  0.00    -0.354 N 
ATOM     70  N   UNL     1      -3.977 -22.181  -0.071  1.00  0.00    -0.248 NA
ATOM     71  C   UNL     1      -2.632 -23.698   1.083  1.00  0.00     0.031 C 
ATOM     72  C   UNL     1      -8.066 -23.090  -1.556  1.00  0.00     0.029 A 
ATOM     73  C   UNL     1      -6.792 -22.831  -1.075  1.00  0.00     0.049 A 
ATOM     74  H   UNL     1      -5.692 -21.031  -1.129  1.00  0.00     0.167 HD
ATOM     75  C   UNL     1      -4.647 -23.395   0.034  1.00  0.00     0.074 A 
ATOM     76  C   UNL     1      -3.755 -24.303   0.723  1.00  0.00     0.031 C 
ATOM     77  C   UNL     1      -5.888 -23.729  -0.401  1.00  0.00     0.037 A 
BRANCH  64  78
ATOM     78  C   UNL     1      -8.936 -19.080  -3.101  1.00  0.00     0.064 A 
ATOM     79  C   UNL     1      -8.972 -18.715  -4.455  1.00  0.00     0.173 A 
ATOM     80  C   UNL     1     -10.133 -19.010  -2.372  1.00  0.00     0.173 A 
ATOM     81  F   UNL     1      -7.852 -18.748  -5.193  1.00  0.00    -0.203 F 
ATOM     82  C   UNL     1     -10.152 -18.272  -5.048  1.00  0.00     0.198 A 
ATOM     83  C   UNL     1     -11.319 -18.600  -2.977  1.00  0.00     0.198 A 
ATOM     84  F   UNL     1     -10.157 -19.348  -1.074  1.00  0.00    -0.203 F 
ATOM     85  F   UNL     1     -10.149 -17.878  -6.329  1.00  0.00    -0.200 F 
ATOM     86  C   UNL     1     -11.325 -18.223  -4.311  1.00  0.00     0.200 A 
ATOM     87  F   UNL     1     -12.454 -18.567  -2.266  1.00  0.00    -0.200 F 
ATOM     88  F   UNL     1     -12.462 -17.806  -4.885  1.00  0.00    -0.200 F 
ENDBRANCH  64  78
BRANCH  65  89
ATOM     89  C   UNL     1      -0.412 -21.809   1.348  1.00  0.00     0.064 A 
ATOM     90  C   UNL     1       0.419 -22.801   0.808  1.00  0.00     0.173 A 
ATOM     91  C   UNL     1      -0.043 -21.253   2.582  1.00  0.00     0.173 A 
ATOM     92  F   UNL     1       0.096 -23.384  -0.355  1.00  0.00    -0.203 F 
ATOM     93  C   UNL     1       1.555 -23.239   1.488  1.00  0.00     0.198 A 
ATOM     94  C   UNL     1       1.111 -21.667   3.244  1.00  0.00     0.198 A 
ATOM     95  F   UNL     1      -0.804 -20.304   3.147  1.00  0.00    -0.203 F 
ATOM     96  F   UNL     1       2.297 -24.230   0.977  1.00  0.00    -0.200 F 
ATOM     97  C   UNL     1       1.903 -22.668   2.702  1.00  0.00     0.200 A 
ATOM     98  F   UNL     1       1.450 -21.104   4.412  1.00  0.00    -0.200 F 
ATOM     99  F   UNL     1       2.994 -23.090   3.355  1.00  0.00    -0.200 F 
ENDBRANCH  65  89
BRANCH  77 100
ATOM    100  C   UNL     1      -6.338 -25.149  -0.199  1.00  0.00     0.064 A 
ATOM    101  C   UNL     1      -6.634 -25.661   1.073  1.00  0.00     0.173 A 
ATOM    102  C   UNL     1      -6.522 -25.996  -1.304  1.00  0.00     0.173 A 
ATOM    103  F   UNL     1      -6.466 -24.898   2.164  1.00  0.00    -0.203 F 
ATOM    104  C   UNL     1      -7.066 -26.975   1.234  1.00  0.00     0.198 A 
ATOM    105  C   UNL     1      -6.989 -27.297  -1.143  1.00  0.00     0.198 A 
ATOM    106  F   UNL     1      -6.264 -25.555  -2.545  1.00  0.00    -0.203 F 
ATOM    107  F   UNL     1      -7.291 -27.459   2.463  1.00  0.00    -0.200 F 
ATOM    108  C   UNL     1      -7.252 -27.789   0.126  1.00  0.00     0.200 A 
ATOM    109  F   UNL     1      -7.187 -28.074  -2.217  1.00  0.00    -0.200 F 
ATOM    110  F   UNL     1      -7.678 -29.050   0.282  1.00  0.00    -0.200 F 
ENDBRANCH  77 100
ENDBRANCH  51  52
ENDBRANCH  44  46
ENDBRANCH  43  44
ENDBRANCH  42  43
ENDBRANCH  41  42
ENDBRANCH  40  41
ENDBRANCH  39  40
ENDBRANCH  38  39
ENDBRANCH  37  38
ENDBRANCH  36  37
ENDBRANCH   1  36
TORSDOF 26
