REMARK SMILES O=C(OCCOCCOCCOCCOC(=O)[C@@H]1CCCCN1c1ncnc2sccc12)c1ccc(-c2c3nc(c(-c4c(F)c(F)c(F)c(F)c4F)c4ccc([nH]4)c(-c4c(F)c(F)c(F)c(F)c4F)c4nc(c(-c5c(F)c(F)c(F)c(F)c5F)c5ccc2[nH]5)C=C4)C=C3)cc1
REMARK SMILES IDX 8 1 7 2 6 3 5 4 4 5 3 6 2 7 1 8 33 9 34 10 95 11 35 12 94 13
REMARK SMILES IDX 36 14 37 15 38 16 88 17 39 18 93 19 87 20 89 21 40 22 92 23
REMARK SMILES IDX 86 24 85 25 41 27 73 28 53 29 72 30 54 31 57 32 71 33 90 34
REMARK SMILES IDX 55 35 56 36 70 38 91 39 58 40 42 41 43 42 51 43 44 44 45 45
REMARK SMILES IDX 49 46 52 47 46 48 47 49 50 50 48 51 74 52 75 53 83 54 76 55
REMARK SMILES IDX 77 56 81 57 84 58 78 59 79 60 82 61 80 62 59 63 60 64 68 65
REMARK SMILES IDX 61 66 62 67 66 68 69 69 63 70 64 71 67 72 65 73 9 74 10 75
REMARK SMILES IDX 11 76 12 77 13 78 14 79 15 80 16 81 17 82 18 83 19 84 23 85
REMARK SMILES IDX 20 86 22 87 21 88 24 89 25 90 32 91 26 92 28 93 31 94 27 95
REMARK SMILES IDX 29 96 30 97
REMARK H PARENT 89 26 57 37
REMARK Flexibility Score: inf
ROOT
ATOM      1  C   UNL     1       1.885   2.634  -0.170  1.00  0.00     0.188 C 
ENDROOT
BRANCH   1   2
ATOM      2  C   UNL     1       2.295   1.331  -0.865  1.00  0.00     0.188 C 
BRANCH   2   3
ATOM      3  O   UNL     1       3.542   0.902  -0.342  1.00  0.00    -0.376 OA
BRANCH   3   4
ATOM      4  C   UNL     1       4.448   0.175  -1.150  1.00  0.00     0.202 C 
BRANCH   4   5
ATOM      5  C   UNL     1       3.955  -1.176  -1.642  1.00  0.00     0.261 C 
BRANCH   5   6
ATOM      6  O   UNL     1       2.589  -1.484  -1.304  1.00  0.00    -0.460 OA
BRANCH   6   7
ATOM      7  C   UNL     1       2.051  -1.901  -0.133  1.00  0.00     0.338 C 
ATOM      8  O   UNL     1       0.849  -2.146  -0.075  1.00  0.00    -0.246 OA
BRANCH   7   9
ATOM      9  C   UNL     1       2.869  -2.160   1.075  1.00  0.00     0.060 A 
ATOM     10  C   UNL     1       3.818  -1.279   1.576  1.00  0.00     0.016 A 
ATOM     11  C   UNL     1       2.581  -3.306   1.824  1.00  0.00     0.016 A 
ATOM     12  C   UNL     1       4.644  -1.623   2.626  1.00  0.00     0.010 A 
ATOM     13  C   UNL     1       3.314  -3.598   2.980  1.00  0.00     0.010 A 
ATOM     14  C   UNL     1       4.401  -2.789   3.340  1.00  0.00    -0.014 A 
BRANCH  14  15
ATOM     15  C   UNL     1       5.401  -3.197   4.345  1.00  0.00     0.031 A 
ATOM     16  C   UNL     1       6.185  -4.448   4.080  1.00  0.00     0.074 A 
ATOM     17  C   UNL     1       5.711  -2.375   5.366  1.00  0.00     0.049 A 
ATOM     18  N   UNL     1       7.043  -5.069   4.843  1.00  0.00    -0.248 NA
ATOM     19  C   UNL     1       5.976  -5.090   2.769  1.00  0.00     0.031 C 
ATOM     20  C   UNL     1       5.098  -1.066   5.618  1.00  0.00     0.029 A 
ATOM     21  N   UNL     1       6.652  -2.491   6.354  1.00  0.00    -0.354 N 
ATOM     22  C   UNL     1       7.432  -6.192   4.127  1.00  0.00     0.074 A 
ATOM     23  C   UNL     1       6.712  -6.183   2.876  1.00  0.00     0.031 C 
ATOM     24  C   UNL     1       5.713  -0.481   6.656  1.00  0.00     0.029 A 
ATOM     25  C   UNL     1       6.680  -1.417   7.212  1.00  0.00     0.049 A 
ATOM     26  H   UNL     1       7.250  -3.268   6.442  1.00  0.00     0.167 HD
ATOM     27  C   UNL     1       8.319  -7.144   4.492  1.00  0.00     0.037 A 
ATOM     28  C   UNL     1       7.374  -1.245   8.352  1.00  0.00     0.037 A 
ATOM     29  C   UNL     1       9.035  -7.104   5.737  1.00  0.00     0.049 A 
ATOM     30  C   UNL     1       8.283  -2.364   8.784  1.00  0.00     0.074 A 
ATOM     31  C   UNL     1       9.886  -8.044   6.283  1.00  0.00     0.029 A 
ATOM     32  N   UNL     1       8.984  -6.037   6.627  1.00  0.00    -0.354 N 
ATOM     33  N   UNL     1       8.558  -3.491   8.167  1.00  0.00    -0.248 NA
ATOM     34  C   UNL     1       8.959  -2.204  10.075  1.00  0.00     0.031 C 
ATOM     35  C   UNL     1      10.323  -7.560   7.521  1.00  0.00     0.029 A 
ATOM     36  C   UNL     1       9.787  -6.296   7.722  1.00  0.00     0.049 A 
ATOM     37  H   UNL     1       8.454  -5.218   6.496  1.00  0.00     0.167 HD
ATOM     38  C   UNL     1       9.444  -4.170   8.988  1.00  0.00     0.074 A 
ATOM     39  C   UNL     1       9.687  -3.310  10.131  1.00  0.00     0.031 C 
ATOM     40  C   UNL     1      10.000  -5.398   8.829  1.00  0.00     0.037 A 
BRANCH  27  41
ATOM     41  C   UNL     1       8.492  -8.310   3.565  1.00  0.00     0.064 A 
ATOM     42  C   UNL     1       9.134  -8.186   2.323  1.00  0.00     0.173 A 
ATOM     43  C   UNL     1       7.962  -9.564   3.904  1.00  0.00     0.173 A 
ATOM     44  F   UNL     1       9.626  -7.000   1.933  1.00  0.00    -0.203 F 
ATOM     45  C   UNL     1       9.210  -9.265   1.444  1.00  0.00     0.198 A 
ATOM     46  C   UNL     1       8.065 -10.648   3.036  1.00  0.00     0.198 A 
ATOM     47  F   UNL     1       7.325  -9.735   5.073  1.00  0.00    -0.203 F 
ATOM     48  F   UNL     1       9.768  -9.105   0.236  1.00  0.00    -0.200 F 
ATOM     49  C   UNL     1       8.680 -10.495   1.803  1.00  0.00     0.200 A 
ATOM     50  F   UNL     1       7.551 -11.835   3.385  1.00  0.00    -0.200 F 
ATOM     51  F   UNL     1       8.746 -11.529   0.953  1.00  0.00    -0.200 F 
ENDBRANCH  27  41
BRANCH  28  52
ATOM     52  C   UNL     1       7.170  -0.031   9.191  1.00  0.00     0.064 A 
ATOM     53  C   UNL     1       8.217   0.859   9.464  1.00  0.00     0.173 A 
ATOM     54  C   UNL     1       5.920   0.249   9.768  1.00  0.00     0.173 A 
ATOM     55  F   UNL     1       9.439   0.633   8.958  1.00  0.00    -0.203 F 
ATOM     56  C   UNL     1       8.031   1.961  10.300  1.00  0.00     0.198 A 
ATOM     57  C   UNL     1       5.724   1.372  10.570  1.00  0.00     0.198 A 
ATOM     58  F   UNL     1       4.878  -0.566   9.547  1.00  0.00    -0.203 F 
ATOM     59  F   UNL     1       9.066   2.759  10.594  1.00  0.00    -0.200 F 
ATOM     60  C   UNL     1       6.783   2.220  10.847  1.00  0.00     0.200 A 
ATOM     61  F   UNL     1       4.511   1.624  11.080  1.00  0.00    -0.200 F 
ATOM     62  F   UNL     1       6.605   3.276  11.652  1.00  0.00    -0.200 F 
ENDBRANCH  28  52
BRANCH  40  63
ATOM     63  C   UNL     1      10.944  -5.848   9.902  1.00  0.00     0.064 A 
ATOM     64  C   UNL     1      10.486  -6.217  11.175  1.00  0.00     0.173 A 
ATOM     65  C   UNL     1      12.318  -5.936   9.639  1.00  0.00     0.173 A 
ATOM     66  F   UNL     1       9.181  -6.132  11.475  1.00  0.00    -0.203 F 
ATOM     67  C   UNL     1      11.379  -6.628  12.159  1.00  0.00     0.198 A 
ATOM     68  C   UNL     1      13.202  -6.381  10.614  1.00  0.00     0.198 A 
ATOM     69  F   UNL     1      12.799  -5.600   8.432  1.00  0.00    -0.203 F 
ATOM     70  F   UNL     1      10.929  -6.921  13.387  1.00  0.00    -0.200 F 
ATOM     71  C   UNL     1      12.734  -6.717  11.876  1.00  0.00     0.200 A 
ATOM     72  F   UNL     1      14.509  -6.481  10.335  1.00  0.00    -0.200 F 
ATOM     73  F   UNL     1      13.591  -7.118  12.823  1.00  0.00    -0.200 F 
ENDBRANCH  40  63
ENDBRANCH  14  15
ENDBRANCH   7   9
ENDBRANCH   6   7
ENDBRANCH   5   6
ENDBRANCH   4   5
ENDBRANCH   3   4
ENDBRANCH   2   3
ENDBRANCH   1   2
BRANCH   1  74
ATOM     74  O   UNL     1       2.733   3.752  -0.436  1.00  0.00    -0.377 OA
BRANCH  74  75
ATOM     75  C   UNL     1       4.132   3.502  -0.382  1.00  0.00     0.188 C 
BRANCH  75  76
ATOM     76  C   UNL     1       4.761   3.021   0.952  1.00  0.00     0.188 C 
BRANCH  76  77
ATOM     77  O   UNL     1       3.833   2.646   1.963  1.00  0.00    -0.376 OA
BRANCH  77  78
ATOM     78  C   UNL     1       3.743   3.525   3.082  1.00  0.00     0.202 C 
BRANCH  78  79
ATOM     79  C   UNL     1       3.015   4.852   2.821  1.00  0.00     0.261 C 
BRANCH  79  80
ATOM     80  O   UNL     1       3.519   5.648   1.735  1.00  0.00    -0.462 OA
BRANCH  80  81
ATOM     81  C   UNL     1       4.832   6.002   1.747  1.00  0.00     0.328 C 
ATOM     82  O   UNL     1       5.616   5.712   2.647  1.00  0.00    -0.250 OA
BRANCH  81  83
ATOM     83  C   UNL     1       5.203   6.700   0.425  1.00  0.00     0.193 C 
ATOM     84  C   UNL     1       6.506   6.148  -0.175  1.00  0.00     0.037 C 
ATOM     85  N   UNL     1       5.385   8.163   0.465  1.00  0.00    -0.342 N 
ATOM     86  C   UNL     1       6.669   6.689  -1.598  1.00  0.00     0.005 C 
ATOM     87  C   UNL     1       5.364   8.780  -0.852  1.00  0.00     0.119 C 
ATOM     88  C   UNL     1       6.569   8.223  -1.638  1.00  0.00     0.022 C 
BRANCH  85  89
ATOM     89  C   UNL     1       4.875   8.796   1.574  1.00  0.00     0.141 A 
ATOM     90  N   UNL     1       3.621   9.283   1.564  1.00  0.00    -0.219 NA
ATOM     91  C   UNL     1       5.571   8.717   2.799  1.00  0.00     0.054 A 
ATOM     92  C   UNL     1       3.059   9.596   2.745  1.00  0.00     0.225 A 
ATOM     93  C   UNL     1       4.847   9.018   3.937  1.00  0.00     0.128 A 
ATOM     94  C   UNL     1       6.892   8.253   3.131  1.00  0.00     0.026 A 
ATOM     95  N   UNL     1       3.583   9.471   3.972  1.00  0.00    -0.225 NA
ATOM     96  S   UNL     1       5.711   8.665   5.366  1.00  0.00    -0.124 S 
ATOM     97  C   UNL     1       7.073   8.111   4.488  1.00  0.00     0.068 A 
ENDBRANCH  85  89
ENDBRANCH  81  83
ENDBRANCH  80  81
ENDBRANCH  79  80
ENDBRANCH  78  79
ENDBRANCH  77  78
ENDBRANCH  76  77
ENDBRANCH  75  76
ENDBRANCH  74  75
ENDBRANCH   1  74
TORSDOF 21
