REMARK SMILES Cn1c(C[NH+]2CCC3(CC2)NC(=O)C[C@@H]3C(=O)OCCOCCOCCOCCOC(=O)c2ccc(-c3c4nc(c(-c5c(F)c(F)c(F)c(F)c5F)c5ccc([nH]5)c(-c5c(F)c(F)c(F)c(F)c5F)c5nc(c(-c6c(F)c(F)c(F)c(F)c6F)c6ccc3[nH]6)C=C5)C=C4)cc2)nc2ccccc21
REMARK SMILES IDX 24 1 23 2 22 3 21 4 20 5 19 6 18 7 16 8 17 9 15 10 5 11 6 12
REMARK SMILES IDX 10 13 7 15 9 16 8 17 11 18 12 19 14 21 13 22 4 23 3 24 1 25
REMARK SMILES IDX 2 26 102 27 96 28 97 29 101 30 98 31 100 32 99 33 25 34
REMARK SMILES IDX 26 35 27 36 28 37 29 38 30 39 31 40 32 41 33 42 34 43 95 44
REMARK SMILES IDX 35 45 94 46 36 47 37 48 38 49 88 50 39 51 93 52 87 53 89 54
REMARK SMILES IDX 40 55 92 56 86 57 85 58 41 60 73 61 53 62 72 63 54 64 57 65
REMARK SMILES IDX 71 66 90 67 55 68 56 69 70 71 91 72 58 73 42 74 43 75 51 76
REMARK SMILES IDX 44 77 45 78 49 79 52 80 46 81 47 82 50 83 48 84 74 85 75 86
REMARK SMILES IDX 83 87 76 88 77 89 81 90 84 91 78 92 79 93 82 94 80 95 59 96
REMARK SMILES IDX 60 97 68 98 61 99 62 100 66 101 69 102 63 103 64 104 67 105
REMARK SMILES IDX 65 106
REMARK H PARENT 5 14 11 20 89 59 57 70
REMARK Flexibility Score: inf
ROOT
ATOM      1  O   UNL     1      -5.883  -3.033  -3.296  1.00  0.00    -0.377 OA
ENDROOT
BRANCH   1   2
ATOM      2  C   UNL     1      -4.695  -2.261  -3.290  1.00  0.00     0.188 C 
BRANCH   2   3
ATOM      3  C   UNL     1      -4.537  -1.188  -4.386  1.00  0.00     0.188 C 
BRANCH   3   4
ATOM      4  O   UNL     1      -4.861  -1.506  -5.728  1.00  0.00    -0.376 OA
BRANCH   4   5
ATOM      5  C   UNL     1      -4.959  -2.867  -6.081  1.00  0.00     0.202 C 
BRANCH   5   6
ATOM      6  C   UNL     1      -3.681  -3.727  -6.106  1.00  0.00     0.261 C 
BRANCH   6   7
ATOM      7  O   UNL     1      -2.736  -3.686  -5.008  1.00  0.00    -0.463 OA
BRANCH   7   8
ATOM      8  C   UNL     1      -1.749  -2.745  -5.074  1.00  0.00     0.311 C 
ATOM      9  O   UNL     1      -1.785  -1.781  -5.827  1.00  0.00    -0.252 OA
BRANCH   8  10
ATOM     10  C   UNL     1      -0.521  -3.141  -4.253  1.00  0.00     0.134 C 
ATOM     11  N   UNL     1      -2.380  -1.885  -0.896  1.00  0.00    -0.328 N 
ATOM     12  C   UNL     1      -1.959  -0.929  -1.910  1.00  0.00     0.265 C 
ATOM     13  C   UNL     1      -1.934  -3.257  -1.089  1.00  0.00     0.265 C 
ATOM     14  H   UNL     1      -3.377  -1.948  -1.102  1.00  0.00     0.348 HD
ATOM     15  C   UNL     1      -0.599  -1.090  -2.576  1.00  0.00     0.091 C 
ATOM     16  C   UNL     1      -0.528  -3.424  -1.642  1.00  0.00     0.091 C 
ATOM     17  C   UNL     1      -0.174  -2.536  -2.850  1.00  0.00     0.064 C 
ATOM     18  N   UNL     1       1.293  -2.526  -2.916  1.00  0.00    -0.349 N 
ATOM     19  C   UNL     1       1.814  -2.581  -4.173  1.00  0.00     0.221 C 
ATOM     20  H   UNL     1       1.858  -2.484  -2.111  1.00  0.00     0.164 HD
ATOM     21  C   UNL     1       0.695  -2.757  -5.138  1.00  0.00     0.117 C 
ATOM     22  O   UNL     1       3.001  -2.456  -4.452  1.00  0.00    -0.275 OA
BRANCH  11  23
ATOM     23  C   UNL     1      -2.417  -1.409   0.498  1.00  0.00     0.339 C 
BRANCH  23  24
ATOM     24  C   UNL     1      -1.145  -0.752   0.910  1.00  0.00     0.165 A 
ATOM     25  C   UNL     1      -1.850   1.673   0.627  1.00  0.00     0.152 C 
ATOM     26  N   UNL     1      -0.897   0.603   0.814  1.00  0.00    -0.326 N 
ATOM     27  C   UNL     1       0.462   0.745   0.638  1.00  0.00     0.068 A 
ATOM     28  N   UNL     1      -0.031  -1.411   1.163  1.00  0.00    -0.227 NA
ATOM     29  C   UNL     1       0.969  -0.528   0.881  1.00  0.00     0.089 A 
ATOM     30  C   UNL     1       1.263   1.813   0.227  1.00  0.00     0.028 A 
ATOM     31  C   UNL     1       2.334  -0.778   0.714  1.00  0.00     0.030 A 
ATOM     32  C   UNL     1       2.617   1.531   0.011  1.00  0.00     0.002 A 
ATOM     33  C   UNL     1       3.145   0.260   0.248  1.00  0.00     0.002 A 
ENDBRANCH  23  24
ENDBRANCH  11  23
ENDBRANCH   8  10
ENDBRANCH   7   8
ENDBRANCH   6   7
ENDBRANCH   5   6
ENDBRANCH   4   5
ENDBRANCH   3   4
ENDBRANCH   2   3
ENDBRANCH   1   2
BRANCH   1  34
ATOM     34  C   UNL     1      -7.075  -2.265  -3.168  1.00  0.00     0.188 C 
BRANCH  34  35
ATOM     35  C   UNL     1      -7.046  -1.336  -1.957  1.00  0.00     0.188 C 
BRANCH  35  36
ATOM     36  O   UNL     1      -6.420  -0.071  -2.150  1.00  0.00    -0.376 OA
BRANCH  36  37
ATOM     37  C   UNL     1      -5.600   0.382  -1.064  1.00  0.00     0.202 C 
BRANCH  37  38
ATOM     38  C   UNL     1      -6.203   0.423   0.353  1.00  0.00     0.261 C 
BRANCH  38  39
ATOM     39  O   UNL     1      -6.559  -0.891   0.834  1.00  0.00    -0.460 OA
BRANCH  39  40
ATOM     40  C   UNL     1      -7.893  -1.093   0.997  1.00  0.00     0.338 C 
ATOM     41  O   UNL     1      -8.758  -0.233   1.027  1.00  0.00    -0.246 OA
BRANCH  40  42
ATOM     42  C   UNL     1      -8.223  -2.529   0.821  1.00  0.00     0.060 A 
ATOM     43  C   UNL     1      -9.225  -2.827  -0.117  1.00  0.00     0.016 A 
ATOM     44  C   UNL     1      -7.592  -3.558   1.522  1.00  0.00     0.016 A 
ATOM     45  C   UNL     1      -9.619  -4.137  -0.345  1.00  0.00     0.010 A 
ATOM     46  C   UNL     1      -8.039  -4.876   1.347  1.00  0.00     0.010 A 
ATOM     47  C   UNL     1      -9.083  -5.158   0.444  1.00  0.00    -0.014 A 
BRANCH  47  48
ATOM     48  C   UNL     1      -9.868  -6.411   0.527  1.00  0.00     0.031 A 
ATOM     49  C   UNL     1     -10.966  -6.465   1.557  1.00  0.00     0.074 A 
ATOM     50  C   UNL     1      -9.713  -7.405  -0.363  1.00  0.00     0.049 A 
ATOM     51  N   UNL     1     -11.845  -7.403   1.795  1.00  0.00    -0.248 NA
ATOM     52  C   UNL     1     -11.098  -5.284   2.428  1.00  0.00     0.031 C 
ATOM     53  C   UNL     1      -8.746  -7.418  -1.457  1.00  0.00     0.029 A 
ATOM     54  N   UNL     1     -10.386  -8.594  -0.489  1.00  0.00    -0.354 N 
ATOM     55  C   UNL     1     -12.632  -6.922   2.834  1.00  0.00     0.074 A 
ATOM     56  C   UNL     1     -12.113  -5.626   3.204  1.00  0.00     0.031 C 
ATOM     57  C   UNL     1      -8.878  -8.571  -2.138  1.00  0.00     0.029 A 
ATOM     58  C   UNL     1      -9.920  -9.383  -1.512  1.00  0.00     0.049 A 
ATOM     59  H   UNL     1     -11.132  -8.857   0.097  1.00  0.00     0.167 HD
ATOM     60  C   UNL     1     -13.698  -7.508   3.425  1.00  0.00     0.037 A 
ATOM     61  C   UNL     1     -10.287 -10.627  -1.877  1.00  0.00     0.037 A 
ATOM     62  C   UNL     1     -14.197  -8.807   3.063  1.00  0.00     0.049 A 
ATOM     63  C   UNL     1     -11.409 -11.307  -1.131  1.00  0.00     0.074 A 
ATOM     64  C   UNL     1     -15.261  -9.505   3.603  1.00  0.00     0.029 A 
ATOM     65  N   UNL     1     -13.650  -9.609   2.071  1.00  0.00    -0.354 N 
ATOM     66  N   UNL     1     -12.155 -10.848  -0.153  1.00  0.00    -0.248 NA
ATOM     67  C   UNL     1     -11.745 -12.678  -1.542  1.00  0.00     0.031 C 
ATOM     68  C   UNL     1     -15.316 -10.757   2.984  1.00  0.00     0.029 A 
ATOM     69  C   UNL     1     -14.334 -10.812   2.007  1.00  0.00     0.049 A 
ATOM     70  H   UNL     1     -12.889  -9.361   1.499  1.00  0.00     0.167 HD
ATOM     71  C   UNL     1     -13.064 -11.856   0.144  1.00  0.00     0.074 A 
ATOM     72  C   UNL     1     -12.786 -12.946  -0.768  1.00  0.00     0.031 C 
ATOM     73  C   UNL     1     -14.041 -11.880   1.085  1.00  0.00     0.037 A 
BRANCH  60  74
ATOM     74  C   UNL     1     -14.354  -6.771   4.557  1.00  0.00     0.064 A 
ATOM     75  C   UNL     1     -15.091  -5.595   4.351  1.00  0.00     0.173 A 
ATOM     76  C   UNL     1     -14.247  -7.255   5.870  1.00  0.00     0.173 A 
ATOM     77  F   UNL     1     -15.206  -5.075   3.119  1.00  0.00    -0.203 F 
ATOM     78  C   UNL     1     -15.672  -4.916   5.421  1.00  0.00     0.198 A 
ATOM     79  C   UNL     1     -14.857  -6.593   6.931  1.00  0.00     0.198 A 
ATOM     80  F   UNL     1     -13.550  -8.373   6.124  1.00  0.00    -0.203 F 
ATOM     81  F   UNL     1     -16.323  -3.764   5.207  1.00  0.00    -0.200 F 
ATOM     82  C   UNL     1     -15.561  -5.420   6.708  1.00  0.00     0.200 A 
ATOM     83  F   UNL     1     -14.756  -7.087   8.173  1.00  0.00    -0.200 F 
ATOM     84  F   UNL     1     -16.124  -4.769   7.735  1.00  0.00    -0.200 F 
ENDBRANCH  60  74
BRANCH  61  85
ATOM     85  C   UNL     1      -9.574 -11.323  -2.983  1.00  0.00     0.064 A 
ATOM     86  C   UNL     1     -10.226 -11.657  -4.178  1.00  0.00     0.173 A 
ATOM     87  C   UNL     1      -8.227 -11.695  -2.854  1.00  0.00     0.173 A 
ATOM     88  F   UNL     1     -11.521 -11.350  -4.344  1.00  0.00    -0.203 F 
ATOM     89  C   UNL     1      -9.566 -12.353  -5.191  1.00  0.00     0.198 A 
ATOM     90  C   UNL     1      -7.558 -12.361  -3.879  1.00  0.00     0.198 A 
ATOM     91  F   UNL     1      -7.555 -11.406  -1.729  1.00  0.00    -0.203 F 
ATOM     92  F   UNL     1     -10.228 -12.706  -6.301  1.00  0.00    -0.200 F 
ATOM     93  C   UNL     1      -8.231 -12.698  -5.043  1.00  0.00     0.200 A 
ATOM     94  F   UNL     1      -6.265 -12.681  -3.735  1.00  0.00    -0.200 F 
ATOM     95  F   UNL     1      -7.596 -13.363  -6.017  1.00  0.00    -0.200 F 
ENDBRANCH  61  85
BRANCH  73  96
ATOM     96  C   UNL     1     -14.909 -13.106   1.149  1.00  0.00     0.064 A 
ATOM     97  C   UNL     1     -14.418 -14.338   1.604  1.00  0.00     0.173 A 
ATOM     98  C   UNL     1     -16.265 -13.032   0.793  1.00  0.00     0.173 A 
ATOM     99  F   UNL     1     -13.127 -14.466   1.948  1.00  0.00    -0.203 F 
ATOM    100  C   UNL     1     -15.243 -15.458   1.668  1.00  0.00     0.198 A 
ATOM    101  C   UNL     1     -17.096 -14.143   0.895  1.00  0.00     0.198 A 
ATOM    102  F   UNL     1     -16.790 -11.874   0.364  1.00  0.00    -0.203 F 
ATOM    103  F   UNL     1     -14.738 -16.639   2.052  1.00  0.00    -0.200 F 
ATOM    104  C   UNL     1     -16.582 -15.358   1.322  1.00  0.00     0.200 A 
ATOM    105  F   UNL     1     -18.394 -14.039   0.579  1.00  0.00    -0.200 F 
ATOM    106  F   UNL     1     -17.377 -16.435   1.393  1.00  0.00    -0.200 F 
ENDBRANCH  73  96
ENDBRANCH  47  48
ENDBRANCH  40  42
ENDBRANCH  39  40
ENDBRANCH  38  39
ENDBRANCH  37  38
ENDBRANCH  36  37
ENDBRANCH  35  36
ENDBRANCH  34  35
ENDBRANCH   1  34
TORSDOF 22
