REMARK SMILES Cc1ccc(C(=O)NC2CC2)cc1NC(=O)[C@@H]1[C@@H](C(=O)OCCOCCOCCOCCOC(=O)c2ccc(-c3c4nc(c(-c5c(F)c(F)c(F)c(F)c5F)c5ccc([nH]5)c(-c5c(F)c(F)c(F)c(F)c5F)c5nc(c(-c6c(F)c(F)c(F)c(F)c6F)c6ccc3[nH]6)C=C5)C=C4)cc2)[C@H]2C=C[C@@H]1C2
REMARK SMILES IDX 26 1 25 2 24 3 23 4 22 5 21 6 19 7 20 8 18 9 17 10 102 11
REMARK SMILES IDX 99 12 101 13 103 14 100 15 15 16 14 17 16 19 13 20 1 21 2 22
REMARK SMILES IDX 3 23 4 24 12 25 5 26 6 27 7 28 8 29 9 31 10 32 11 33 27 34
REMARK SMILES IDX 28 35 29 36 30 37 31 38 32 39 33 40 34 41 35 42 36 43 37 44
REMARK SMILES IDX 98 45 38 46 97 47 39 48 40 49 41 50 91 51 42 52 96 53 90 54
REMARK SMILES IDX 92 55 43 56 95 57 89 58 88 59 44 61 76 62 56 63 75 64 57 65
REMARK SMILES IDX 60 66 74 67 93 68 58 69 59 70 73 72 94 73 61 74 45 75 46 76
REMARK SMILES IDX 54 77 47 78 48 79 52 80 55 81 49 82 50 83 53 84 51 85 77 86
REMARK SMILES IDX 78 87 86 88 79 89 80 90 84 91 87 92 81 93 82 94 85 95 83 96
REMARK SMILES IDX 62 97 63 98 71 99 64 100 65 101 69 102 72 103 66 104 67 105
REMARK SMILES IDX 70 106 68 107
REMARK H PARENT 14 18 8 30 92 60 60 71
REMARK Flexibility Score: inf
ROOT
ATOM      1  C   UNL     1       0.521   6.609  -1.408  1.00  0.00     0.188 C 
ENDROOT
BRANCH   1   2
ATOM      2  C   UNL     1      -0.007   6.170  -2.787  1.00  0.00     0.188 C 
BRANCH   2   3
ATOM      3  O   UNL     1      -0.448   4.828  -2.897  1.00  0.00    -0.376 OA
BRANCH   3   4
ATOM      4  C   UNL     1      -1.807   4.702  -3.284  1.00  0.00     0.202 C 
BRANCH   4   5
ATOM      5  C   UNL     1      -2.684   4.117  -2.189  1.00  0.00     0.261 C 
BRANCH   5   6
ATOM      6  O   UNL     1      -2.388   4.503  -0.816  1.00  0.00    -0.463 OA
BRANCH   6   7
ATOM      7  C   UNL     1      -1.254   4.044  -0.289  1.00  0.00     0.310 C 
ATOM      8  O   UNL     1      -0.472   3.331  -0.915  1.00  0.00    -0.252 OA
BRANCH   7   9
ATOM      9  C   UNL     1      -0.973   4.372   1.161  1.00  0.00     0.119 C 
ATOM     10  C   UNL     1      -0.553   2.967   1.707  1.00  0.00     0.100 C 
ATOM     11  C   UNL     1      -1.053   2.978   3.156  1.00  0.00     0.025 C 
ATOM     12  C   UNL     1      -1.902   4.884   2.292  1.00  0.00     0.027 C 
ATOM     13  C   UNL     1      -2.569   2.837   3.101  1.00  0.00    -0.027 C 
ATOM     14  C   UNL     1      -1.031   4.464   3.510  1.00  0.00     0.017 C 
ATOM     15  C   UNL     1      -3.066   3.976   2.591  1.00  0.00    -0.027 C 
BRANCH  10  16
ATOM     16  C   UNL     1       0.914   2.739   1.402  1.00  0.00     0.228 C 
ATOM     17  N   UNL     1       1.405   1.611   0.796  1.00  0.00    -0.326 N 
ATOM     18  H   UNL     1       2.359   1.703   0.575  1.00  0.00     0.169 HD
ATOM     19  O   UNL     1       1.738   3.619   1.686  1.00  0.00    -0.274 OA
BRANCH  17  20
ATOM     20  C   UNL     1       0.893   0.344   0.405  1.00  0.00     0.044 A 
ATOM     21  C   UNL     1       3.254  -0.612   0.207  1.00  0.00     0.046 C 
ATOM     22  C   UNL     1       1.759  -0.736   0.238  1.00  0.00    -0.027 A 
ATOM     23  C   UNL     1       1.219  -2.035   0.100  1.00  0.00     0.006 A 
ATOM     24  C   UNL     1      -0.158  -2.265   0.039  1.00  0.00     0.014 A 
ATOM     25  C   UNL     1      -0.455   0.083   0.163  1.00  0.00     0.040 A 
ATOM     26  C   UNL     1      -1.038  -1.197   0.029  1.00  0.00     0.041 A 
BRANCH  26  27
ATOM     27  C   UNL     1      -2.516  -1.545  -0.122  1.00  0.00     0.251 C 
ATOM     28  O   UNL     1      -2.853  -2.686  -0.437  1.00  0.00    -0.269 OA
ATOM     29  N   UNL     1      -3.516  -0.622   0.119  1.00  0.00    -0.349 N 
ATOM     30  H   UNL     1      -4.449  -0.937   0.146  1.00  0.00     0.164 HD
BRANCH  29  31
ATOM     31  C   UNL     1      -3.266   0.734   0.323  1.00  0.00     0.082 C 
ATOM     32  C   UNL     1      -3.161   1.398  -1.024  1.00  0.00     0.027 C 
ATOM     33  C   UNL     1      -4.000   1.981   0.049  1.00  0.00     0.027 C 
ENDBRANCH  29  31
ENDBRANCH  26  27
ENDBRANCH  17  20
ENDBRANCH  10  16
ENDBRANCH   7   9
ENDBRANCH   6   7
ENDBRANCH   5   6
ENDBRANCH   4   5
ENDBRANCH   3   4
ENDBRANCH   2   3
ENDBRANCH   1   2
BRANCH   1  34
ATOM     34  O   UNL     1      -0.342   7.465  -0.642  1.00  0.00    -0.377 OA
BRANCH  34  35
ATOM     35  C   UNL     1      -0.924   8.581  -1.320  1.00  0.00     0.188 C 
BRANCH  35  36
ATOM     36  C   UNL     1      -0.015   9.450  -2.200  1.00  0.00     0.188 C 
BRANCH  36  37
ATOM     37  O   UNL     1       0.311   8.742  -3.392  1.00  0.00    -0.376 OA
BRANCH  37  38
ATOM     38  C   UNL     1       1.564   9.043  -3.995  1.00  0.00     0.202 C 
BRANCH  38  39
ATOM     39  C   UNL     1       1.622  10.471  -4.538  1.00  0.00     0.261 C 
BRANCH  39  40
ATOM     40  O   UNL     1       0.751  10.575  -5.684  1.00  0.00    -0.460 OA
BRANCH  40  41
ATOM     41  C   UNL     1      -0.374  11.309  -5.496  1.00  0.00     0.338 C 
ATOM     42  O   UNL     1      -0.394  12.506  -5.222  1.00  0.00    -0.246 OA
BRANCH  41  43
ATOM     43  C   UNL     1      -1.569  10.428  -5.462  1.00  0.00     0.060 A 
ATOM     44  C   UNL     1      -2.793  10.906  -4.962  1.00  0.00     0.016 A 
ATOM     45  C   UNL     1      -1.403   9.066  -5.685  1.00  0.00     0.016 A 
ATOM     46  C   UNL     1      -3.783  10.009  -4.543  1.00  0.00     0.010 A 
ATOM     47  C   UNL     1      -2.332   8.192  -5.166  1.00  0.00     0.010 A 
ATOM     48  C   UNL     1      -3.515   8.645  -4.562  1.00  0.00    -0.014 A 
BRANCH  48  49
ATOM     49  C   UNL     1      -4.288   7.628  -3.832  1.00  0.00     0.031 A 
ATOM     50  C   UNL     1      -4.608   6.319  -4.518  1.00  0.00     0.074 A 
ATOM     51  C   UNL     1      -4.328   7.769  -2.486  1.00  0.00     0.049 A 
ATOM     52  N   UNL     1      -5.138   5.270  -3.980  1.00  0.00    -0.248 NA
ATOM     53  C   UNL     1      -4.346   6.106  -5.942  1.00  0.00     0.031 C 
ATOM     54  C   UNL     1      -4.131   6.702  -1.542  1.00  0.00     0.029 A 
ATOM     55  N   UNL     1      -4.297   8.859  -1.633  1.00  0.00    -0.354 N 
ATOM     56  C   UNL     1      -5.080   4.205  -4.881  1.00  0.00     0.074 A 
ATOM     57  C   UNL     1      -4.614   4.807  -6.100  1.00  0.00     0.031 C 
ATOM     58  C   UNL     1      -4.368   7.036  -0.276  1.00  0.00     0.029 A 
ATOM     59  C   UNL     1      -4.706   8.418  -0.346  1.00  0.00     0.049 A 
ATOM     60  H   UNL     1      -4.037   9.777  -1.875  1.00  0.00     0.167 HD
ATOM     61  C   UNL     1      -5.366   2.926  -4.465  1.00  0.00     0.037 A 
ATOM     62  C   UNL     1      -5.791   8.949   0.256  1.00  0.00     0.037 A 
ATOM     63  C   UNL     1      -6.096   2.950  -3.165  1.00  0.00     0.049 A 
ATOM     64  C   UNL     1      -6.907   7.907   0.205  1.00  0.00     0.074 A 
ATOM     65  C   UNL     1      -6.183   2.134  -2.059  1.00  0.00     0.029 A 
ATOM     66  N   UNL     1      -6.934   4.048  -2.830  1.00  0.00    -0.354 N 
ATOM     67  N   UNL     1      -7.061   6.987  -0.735  1.00  0.00    -0.248 NA
ATOM     68  C   UNL     1      -7.750   7.660   1.373  1.00  0.00     0.031 C 
ATOM     69  C   UNL     1      -6.833   2.839  -1.014  1.00  0.00     0.029 A 
ATOM     70  C   UNL     1      -7.311   4.035  -1.508  1.00  0.00     0.049 A 
ATOM     71  H   UNL     1      -7.213   4.740  -3.473  1.00  0.00     0.167 HD
ATOM     72  C   UNL     1      -7.976   6.047  -0.300  1.00  0.00     0.074 A 
ATOM     73  C   UNL     1      -8.356   6.513   1.028  1.00  0.00     0.031 C 
ATOM     74  C   UNL     1      -8.345   4.877  -0.923  1.00  0.00     0.037 A 
BRANCH  61  75
ATOM     75  C   UNL     1      -4.805   1.611  -5.145  1.00  0.00     0.064 A 
ATOM     76  C   UNL     1      -5.000   0.317  -4.589  1.00  0.00     0.173 A 
ATOM     77  C   UNL     1      -3.952   1.561  -6.278  1.00  0.00     0.173 A 
ATOM     78  F   UNL     1      -5.915   0.091  -3.644  1.00  0.00    -0.203 F 
ATOM     79  C   UNL     1      -4.308  -0.842  -5.007  1.00  0.00     0.198 A 
ATOM     80  C   UNL     1      -3.323   0.389  -6.751  1.00  0.00     0.198 A 
ATOM     81  F   UNL     1      -3.662   2.639  -7.003  1.00  0.00    -0.203 F 
ATOM     82  F   UNL     1      -4.483  -1.998  -4.351  1.00  0.00    -0.200 F 
ATOM     83  C   UNL     1      -3.464  -0.806  -6.090  1.00  0.00     0.200 A 
ATOM     84  F   UNL     1      -2.565   0.446  -7.857  1.00  0.00    -0.200 F 
ATOM     85  F   UNL     1      -2.822  -1.905  -6.509  1.00  0.00    -0.200 F 
ENDBRANCH  61  75
BRANCH  62  86
ATOM     86  C   UNL     1      -5.641  10.445   0.158  1.00  0.00     0.064 A 
ATOM     87  C   UNL     1      -4.473  10.912   0.842  1.00  0.00     0.173 A 
ATOM     88  C   UNL     1      -5.958  11.104  -1.042  1.00  0.00     0.173 A 
ATOM     89  F   UNL     1      -4.102  10.322   1.992  1.00  0.00    -0.203 F 
ATOM     90  C   UNL     1      -3.531  11.727   0.206  1.00  0.00     0.198 A 
ATOM     91  C   UNL     1      -5.024  11.963  -1.651  1.00  0.00     0.198 A 
ATOM     92  F   UNL     1      -7.027  10.721  -1.752  1.00  0.00    -0.203 F 
ATOM     93  F   UNL     1      -2.311  11.890   0.744  1.00  0.00    -0.200 F 
ATOM     94  C   UNL     1      -3.788  12.209  -1.063  1.00  0.00     0.200 A 
ATOM     95  F   UNL     1      -5.247  12.416  -2.894  1.00  0.00    -0.200 F 
ATOM     96  F   UNL     1      -2.811  12.810  -1.761  1.00  0.00    -0.200 F 
ENDBRANCH  62  86
BRANCH  74  97
ATOM     97  C   UNL     1      -9.691   4.175  -0.712  1.00  0.00     0.064 A 
ATOM     98  C   UNL     1     -10.801   4.804  -0.136  1.00  0.00     0.173 A 
ATOM     99  C   UNL     1      -9.953   2.867  -1.217  1.00  0.00     0.173 A 
ATOM    100  F   UNL     1     -10.769   6.098   0.207  1.00  0.00    -0.203 F 
ATOM    101  C   UNL     1     -12.014   4.137   0.052  1.00  0.00     0.198 A 
ATOM    102  C   UNL     1     -11.154   2.198  -1.014  1.00  0.00     0.198 A 
ATOM    103  F   UNL     1      -9.091   2.203  -1.998  1.00  0.00    -0.203 F 
ATOM    104  F   UNL     1     -13.035   4.787   0.626  1.00  0.00    -0.200 F 
ATOM    105  C   UNL     1     -12.184   2.830  -0.364  1.00  0.00     0.200 A 
ATOM    106  F   UNL     1     -11.308   0.953  -1.487  1.00  0.00    -0.200 F 
ATOM    107  F   UNL     1     -13.353   2.203  -0.189  1.00  0.00    -0.200 F 
ENDBRANCH  74  97
ENDBRANCH  48  49
ENDBRANCH  41  43
ENDBRANCH  40  41
ENDBRANCH  39  40
ENDBRANCH  38  39
ENDBRANCH  37  38
ENDBRANCH  36  37
ENDBRANCH  35  36
ENDBRANCH  34  35
ENDBRANCH   1  34
TORSDOF 24
