REMARK SMILES Cc1c(CC(=O)OCCOCCOCCOCCOC(=O)c2ccc(-c3c4nc(c(-c5c(F)c(F)c(F)c(F)c5F)c5ccc([nH]5)c(-c5c(F)c(F)c(F)c(F)c5F)c5nc(c(-c6c(F)c(F)c(F)c(F)c6F)c6ccc3[nH]6)C=C5)C=C4)cc2)cc(-c2ccc(S(C)(=O)=O)cc2)n1-c1ccccc1
REMARK SMILES IDX 12 1 11 2 10 3 9 4 8 5 7 6 5 7 6 8 4 9 3 10 1 11 2 12 97 13
REMARK SMILES IDX 85 14 86 15 98 16 99 17 103 18 100 19 102 20 101 21 87 22
REMARK SMILES IDX 88 23 96 24 89 25 95 26 90 27 91 28 92 29 93 30 94 31 13 32
REMARK SMILES IDX 14 33 15 34 16 35 17 36 18 37 19 38 20 39 21 40 22 41 23 42
REMARK SMILES IDX 84 43 24 44 83 45 25 46 26 47 27 48 77 49 28 50 82 51 76 52
REMARK SMILES IDX 78 53 29 54 81 55 75 56 74 57 30 59 62 60 42 61 61 62 43 63
REMARK SMILES IDX 46 64 60 65 79 66 44 67 45 68 59 70 80 71 47 72 31 73 32 74
REMARK SMILES IDX 40 75 33 76 34 77 38 78 41 79 35 80 36 81 39 82 37 83 63 84
REMARK SMILES IDX 64 85 72 86 65 87 66 88 70 89 73 90 67 91 68 92 71 93 69 94
REMARK SMILES IDX 48 95 49 96 57 97 50 98 51 99 55 100 58 101 52 102 53 103
REMARK SMILES IDX 56 104 54 105
REMARK H PARENT 78 58 46 69
REMARK Flexibility Score: inf
ROOT
ATOM      1  C   UNL     1       1.236  -0.973  -1.943  1.00  0.00     0.188 C 
ENDROOT
BRANCH   1   2
ATOM      2  C   UNL     1       0.256  -2.079  -2.374  1.00  0.00     0.188 C 
BRANCH   2   3
ATOM      3  O   UNL     1       0.297  -2.531  -3.717  1.00  0.00    -0.376 OA
BRANCH   3   4
ATOM      4  C   UNL     1       0.217  -1.543  -4.741  1.00  0.00     0.202 C 
BRANCH   4   5
ATOM      5  C   UNL     1      -0.866  -0.438  -4.656  1.00  0.00     0.261 C 
BRANCH   5   6
ATOM      6  O   UNL     1      -0.882   0.361  -3.438  1.00  0.00    -0.463 OA
BRANCH   6   7
ATOM      7  C   UNL     1      -2.047   0.407  -2.751  1.00  0.00     0.310 C 
ATOM      8  O   UNL     1      -3.077  -0.139  -3.150  1.00  0.00    -0.252 OA
BRANCH   7   9
ATOM      9  C   UNL     1      -2.042   1.079  -1.385  1.00  0.00     0.160 C 
BRANCH   9  10
ATOM     10  C   UNL     1      -0.908   1.937  -0.858  1.00  0.00    -0.015 A 
ATOM     11  C   UNL     1       0.137   0.449   1.052  1.00  0.00     0.065 C 
ATOM     12  C   UNL     1      -0.022   1.665   0.196  1.00  0.00     0.024 A 
ATOM     13  N   UNL     1       0.759   2.794   0.417  1.00  0.00    -0.314 N 
ATOM     14  C   UNL     1      -0.722   3.322  -1.164  1.00  0.00     0.033 A 
ATOM     15  C   UNL     1       0.256   3.842  -0.333  1.00  0.00     0.053 A 
BRANCH  13  16
ATOM     16  C   UNL     1       1.914   2.882   1.238  1.00  0.00     0.046 A 
ATOM     17  C   UNL     1       1.837   3.332   2.557  1.00  0.00     0.026 A 
ATOM     18  C   UNL     1       3.155   2.694   0.637  1.00  0.00     0.026 A 
ATOM     19  C   UNL     1       3.018   3.537   3.284  1.00  0.00     0.002 A 
ATOM     20  C   UNL     1       4.321   2.884   1.381  1.00  0.00     0.002 A 
ATOM     21  C   UNL     1       4.259   3.298   2.702  1.00  0.00     0.000 A 
ENDBRANCH  13  16
BRANCH  15  22
ATOM     22  C   UNL     1       0.687   5.224  -0.136  1.00  0.00    -0.001 A 
ATOM     23  C   UNL     1       1.922   5.667  -0.626  1.00  0.00     0.011 A 
ATOM     24  C   UNL     1      -0.102   6.088   0.636  1.00  0.00     0.011 A 
ATOM     25  C   UNL     1       2.374   6.956  -0.339  1.00  0.00     0.021 A 
ATOM     26  C   UNL     1       0.341   7.380   0.924  1.00  0.00     0.021 A 
ATOM     27  C   UNL     1       1.581   7.804   0.438  1.00  0.00     0.067 A 
BRANCH  27  28
ATOM     28  S   UNL     1       2.131   9.463   0.753  1.00  0.00     0.175 S 
ATOM     29  C   UNL     1       3.572   9.269   1.766  1.00  0.00     0.163 C 
ATOM     30  O   UNL     1       2.554  10.010  -0.533  1.00  0.00    -0.224 OA
ATOM     31  O   UNL     1       1.123  10.125   1.545  1.00  0.00    -0.224 OA
ENDBRANCH  27  28
ENDBRANCH  15  22
ENDBRANCH   9  10
ENDBRANCH   7   9
ENDBRANCH   6   7
ENDBRANCH   5   6
ENDBRANCH   4   5
ENDBRANCH   3   4
ENDBRANCH   2   3
ENDBRANCH   1   2
BRANCH   1  32
ATOM     32  O   UNL     1       1.628  -0.069  -2.955  1.00  0.00    -0.377 OA
BRANCH  32  33
ATOM     33  C   UNL     1       2.986   0.122  -3.314  1.00  0.00     0.188 C 
BRANCH  33  34
ATOM     34  C   UNL     1       3.989  -1.002  -3.055  1.00  0.00     0.188 C 
BRANCH  34  35
ATOM     35  O   UNL     1       4.276  -1.291  -1.685  1.00  0.00    -0.376 OA
BRANCH  35  36
ATOM     36  C   UNL     1       4.405  -0.166  -0.807  1.00  0.00     0.202 C 
BRANCH  36  37
ATOM     37  C   UNL     1       5.754   0.593  -0.924  1.00  0.00     0.261 C 
BRANCH  37  38
ATOM     38  O   UNL     1       5.662   2.063  -1.110  1.00  0.00    -0.460 OA
BRANCH  38  39
ATOM     39  C   UNL     1       6.548   2.716  -1.928  1.00  0.00     0.338 C 
ATOM     40  O   UNL     1       7.192   2.141  -2.795  1.00  0.00    -0.246 OA
BRANCH  39  41
ATOM     41  C   UNL     1       6.666   4.252  -1.719  1.00  0.00     0.060 A 
ATOM     42  C   UNL     1       6.266   5.119  -2.730  1.00  0.00     0.016 A 
ATOM     43  C   UNL     1       7.397   4.891  -0.690  1.00  0.00     0.016 A 
ATOM     44  C   UNL     1       6.547   6.546  -2.682  1.00  0.00     0.010 A 
ATOM     45  C   UNL     1       7.753   6.342  -0.687  1.00  0.00     0.010 A 
ATOM     46  C   UNL     1       7.348   7.247  -1.693  1.00  0.00    -0.014 A 
BRANCH  46  47
ATOM     47  C   UNL     1       8.061   8.705  -2.170  1.00  0.00     0.031 A 
ATOM     48  C   UNL     1       8.493   8.333  -3.549  1.00  0.00     0.074 A 
ATOM     49  C   UNL     1       8.521   9.992  -1.780  1.00  0.00     0.049 A 
ATOM     50  N   UNL     1       9.272   7.294  -3.693  1.00  0.00    -0.248 NA
ATOM     51  C   UNL     1       7.802   8.751  -4.769  1.00  0.00     0.031 C 
ATOM     52  C   UNL     1       8.537  10.592  -0.428  1.00  0.00     0.029 A 
ATOM     53  N   UNL     1       9.114  11.116  -2.504  1.00  0.00    -0.354 N 
ATOM     54  C   UNL     1       9.420   7.104  -5.041  1.00  0.00     0.074 A 
ATOM     55  C   UNL     1       8.324   7.866  -5.630  1.00  0.00     0.031 C 
ATOM     56  C   UNL     1       8.922  11.909  -0.430  1.00  0.00     0.029 A 
ATOM     57  C   UNL     1       9.284  12.378  -1.771  1.00  0.00     0.049 A 
ATOM     58  H   UNL     1       9.389  11.030  -3.445  1.00  0.00     0.167 HD
ATOM     59  C   UNL     1      10.722   7.036  -5.446  1.00  0.00     0.037 A 
ATOM     60  C   UNL     1       9.755  13.656  -2.153  1.00  0.00     0.037 A 
ATOM     61  C   UNL     1      11.187   8.307  -5.925  1.00  0.00     0.049 A 
ATOM     62  C   UNL     1      10.669  13.414  -3.271  1.00  0.00     0.074 A 
ATOM     63  C   UNL     1      10.612   9.250  -6.753  1.00  0.00     0.029 A 
ATOM     64  N   UNL     1      12.139   8.962  -5.176  1.00  0.00    -0.354 N 
ATOM     65  N   UNL     1      11.879  12.992  -3.069  1.00  0.00    -0.248 NA
ATOM     66  C   UNL     1      10.336  13.750  -4.649  1.00  0.00     0.031 C 
ATOM     67  C   UNL     1      10.835  10.473  -6.092  1.00  0.00     0.029 A 
ATOM     68  C   UNL     1      11.884  10.312  -5.199  1.00  0.00     0.049 A 
ATOM     69  H   UNL     1      12.885   8.530  -4.700  1.00  0.00     0.167 HD
ATOM     70  C   UNL     1      12.209  12.477  -4.277  1.00  0.00     0.074 A 
ATOM     71  C   UNL     1      11.399  13.200  -5.242  1.00  0.00     0.031 C 
ATOM     72  C   UNL     1      12.547  11.167  -4.253  1.00  0.00     0.037 A 
BRANCH  59  73
ATOM     73  C   UNL     1      11.540   6.082  -4.616  1.00  0.00     0.064 A 
ATOM     74  C   UNL     1      11.894   4.848  -5.167  1.00  0.00     0.173 A 
ATOM     75  C   UNL     1      11.829   6.288  -3.249  1.00  0.00     0.173 A 
ATOM     76  F   UNL     1      11.699   4.616  -6.474  1.00  0.00    -0.203 F 
ATOM     77  C   UNL     1      12.445   3.841  -4.374  1.00  0.00     0.198 A 
ATOM     78  C   UNL     1      12.309   5.259  -2.447  1.00  0.00     0.198 A 
ATOM     79  F   UNL     1      11.647   7.492  -2.680  1.00  0.00    -0.203 F 
ATOM     80  F   UNL     1      12.800   2.675  -4.930  1.00  0.00    -0.200 F 
ATOM     81  C   UNL     1      12.613   4.033  -3.010  1.00  0.00     0.200 A 
ATOM     82  F   UNL     1      12.470   5.457  -1.130  1.00  0.00    -0.200 F 
ATOM     83  F   UNL     1      13.088   3.044  -2.241  1.00  0.00    -0.200 F 
ENDBRANCH  59  73
BRANCH  60  84
ATOM     84  C   UNL     1       9.908  15.200  -1.783  1.00  0.00     0.064 A 
ATOM     85  C   UNL     1      11.030  15.994  -2.252  1.00  0.00     0.173 A 
ATOM     86  C   UNL     1       8.825  16.000  -1.388  1.00  0.00     0.173 A 
ATOM     87  F   UNL     1      12.183  15.428  -2.632  1.00  0.00    -0.203 F 
ATOM     88  C   UNL     1      11.011  17.396  -2.421  1.00  0.00     0.198 A 
ATOM     89  C   UNL     1       8.823  17.422  -1.527  1.00  0.00     0.198 A 
ATOM     90  F   UNL     1       7.705  15.424  -0.935  1.00  0.00    -0.203 F 
ATOM     91  F   UNL     1      12.056  18.026  -2.986  1.00  0.00    -0.200 F 
ATOM     92  C   UNL     1       9.894  18.111  -2.077  1.00  0.00     0.200 A 
ATOM     93  F   UNL     1       7.732  18.126  -1.185  1.00  0.00    -0.200 F 
ATOM     94  F   UNL     1       9.837  19.435  -2.300  1.00  0.00    -0.200 F 
ENDBRANCH  60  84
BRANCH  72  95
ATOM     95  C   UNL     1      13.482  10.726  -3.143  1.00  0.00     0.064 A 
ATOM     96  C   UNL     1      13.330  10.949  -1.752  1.00  0.00     0.173 A 
ATOM     97  C   UNL     1      14.679  10.113  -3.539  1.00  0.00     0.173 A 
ATOM     98  F   UNL     1      12.192  11.421  -1.223  1.00  0.00    -0.203 F 
ATOM     99  C   UNL     1      14.356  10.662  -0.845  1.00  0.00     0.198 A 
ATOM    100  C   UNL     1      15.675   9.776  -2.626  1.00  0.00     0.198 A 
ATOM    101  F   UNL     1      14.882   9.821  -4.833  1.00  0.00    -0.203 F 
ATOM    102  F   UNL     1      14.204  10.950   0.457  1.00  0.00    -0.200 F 
ATOM    103  C   UNL     1      15.527  10.075  -1.284  1.00  0.00     0.200 A 
ATOM    104  F   UNL     1      16.783   9.157  -3.057  1.00  0.00    -0.200 F 
ATOM    105  F   UNL     1      16.505   9.780  -0.415  1.00  0.00    -0.200 F 
ENDBRANCH  72  95
ENDBRANCH  46  47
ENDBRANCH  39  41
ENDBRANCH  38  39
ENDBRANCH  37  38
ENDBRANCH  36  37
ENDBRANCH  35  36
ENDBRANCH  34  35
ENDBRANCH  33  34
ENDBRANCH  32  33
ENDBRANCH   1  32
TORSDOF 24
