REMARK SMILES O=C(OCCOCCOCCOCCOC(=O)c1ccc2c(=O)n(Cc3cccnc3)c(=O)[nH]c2c1)c1ccc(-c2c3nc(c(-c4c(F)c(F)c(F)c(F)c4F)c4ccc([nH]4)c(-c4c(F)c(F)c(F)c(F)c4F)c4nc(c(-c5c(F)c(F)c(F)c(F)c5F)c5ccc2[nH]5)C=C4)C=C3)cc1
REMARK SMILES IDX 9 1 8 2 7 3 6 4 5 5 4 6 3 7 2 8 1 9 37 10 38 11 99 12 39 13
REMARK SMILES IDX 98 14 40 15 41 16 42 17 92 18 43 19 97 20 91 21 93 22 44 23
REMARK SMILES IDX 96 24 90 25 89 26 45 28 77 29 57 30 76 31 58 32 61 33 75 34
REMARK SMILES IDX 94 35 59 36 60 37 74 39 95 40 62 41 46 42 47 43 55 44 48 45
REMARK SMILES IDX 49 46 53 47 56 48 50 49 51 50 54 51 52 52 78 53 79 54 87 55
REMARK SMILES IDX 80 56 81 57 85 58 88 59 82 60 83 61 86 62 84 63 63 64 64 65
REMARK SMILES IDX 72 66 65 67 66 68 70 69 73 70 67 71 68 72 71 73 69 74 10 75
REMARK SMILES IDX 11 76 12 77 13 78 14 79 15 80 16 81 17 82 18 83 19 84 36 85
REMARK SMILES IDX 20 86 35 87 21 88 34 89 22 90 32 91 23 93 24 94 33 95 25 96
REMARK SMILES IDX 26 97 27 98 31 99 28 100 30 101 29 102
REMARK H PARENT 93 27 61 38 34 92
REMARK Flexibility Score: inf
ROOT
ATOM      1  O   UNL     1       2.786   0.737  -2.902  1.00  0.00    -0.377 OA
ENDROOT
BRANCH   1   2
ATOM      2  C   UNL     1       1.904   1.179  -1.901  1.00  0.00     0.188 C 
BRANCH   2   3
ATOM      3  C   UNL     1       2.482   1.051  -0.497  1.00  0.00     0.188 C 
BRANCH   3   4
ATOM      4  O   UNL     1       3.878   0.793  -0.350  1.00  0.00    -0.376 OA
BRANCH   4   5
ATOM      5  C   UNL     1       4.455  -0.384  -0.905  1.00  0.00     0.202 C 
BRANCH   5   6
ATOM      6  C   UNL     1       4.199  -1.712  -0.203  1.00  0.00     0.261 C 
BRANCH   6   7
ATOM      7  O   UNL     1       2.896  -1.852   0.362  1.00  0.00    -0.460 OA
BRANCH   7   8
ATOM      8  C   UNL     1       2.572  -1.567   1.649  1.00  0.00     0.338 C 
ATOM      9  O   UNL     1       1.638  -2.162   2.180  1.00  0.00    -0.246 OA
BRANCH   8  10
ATOM     10  C   UNL     1       3.132  -0.362   2.343  1.00  0.00     0.060 A 
ATOM     11  C   UNL     1       2.214   0.393   3.096  1.00  0.00     0.016 A 
ATOM     12  C   UNL     1       4.459   0.075   2.282  1.00  0.00     0.016 A 
ATOM     13  C   UNL     1       2.612   1.557   3.755  1.00  0.00     0.010 A 
ATOM     14  C   UNL     1       4.851   1.270   2.885  1.00  0.00     0.010 A 
ATOM     15  C   UNL     1       3.939   1.992   3.657  1.00  0.00    -0.014 A 
BRANCH  15  16
ATOM     16  C   UNL     1       4.464   2.991   4.606  1.00  0.00     0.031 A 
ATOM     17  C   UNL     1       4.647   4.425   4.246  1.00  0.00     0.074 A 
ATOM     18  C   UNL     1       4.841   2.509   5.804  1.00  0.00     0.049 A 
ATOM     19  N   UNL     1       4.984   5.420   5.026  1.00  0.00    -0.248 NA
ATOM     20  C   UNL     1       4.451   4.795   2.838  1.00  0.00     0.031 C 
ATOM     21  C   UNL     1       4.779   1.093   6.183  1.00  0.00     0.029 A 
ATOM     22  N   UNL     1       5.348   3.129   6.911  1.00  0.00    -0.354 N 
ATOM     23  C   UNL     1       5.009   6.544   4.215  1.00  0.00     0.074 A 
ATOM     24  C   UNL     1       4.712   6.098   2.868  1.00  0.00     0.031 C 
ATOM     25  C   UNL     1       5.208   0.957   7.443  1.00  0.00     0.029 A 
ATOM     26  C   UNL     1       5.572   2.270   7.957  1.00  0.00     0.049 A 
ATOM     27  H   UNL     1       5.533   4.095   6.954  1.00  0.00     0.167 HD
ATOM     28  C   UNL     1       5.242   7.826   4.588  1.00  0.00     0.037 A 
ATOM     29  C   UNL     1       5.998   2.520   9.207  1.00  0.00     0.037 A 
ATOM     30  C   UNL     1       5.572   8.212   5.939  1.00  0.00     0.049 A 
ATOM     31  C   UNL     1       6.245   3.946   9.595  1.00  0.00     0.074 A 
ATOM     32  C   UNL     1       5.753   9.482   6.457  1.00  0.00     0.029 A 
ATOM     33  N   UNL     1       5.798   7.320   6.982  1.00  0.00    -0.354 N 
ATOM     34  N   UNL     1       6.111   5.028   8.866  1.00  0.00    -0.248 NA
ATOM     35  C   UNL     1       6.686   4.192  10.971  1.00  0.00     0.031 C 
ATOM     36  C   UNL     1       6.149   9.355   7.792  1.00  0.00     0.029 A 
ATOM     37  C   UNL     1       6.163   8.010   8.128  1.00  0.00     0.049 A 
ATOM     38  H   UNL     1       5.712   6.341   6.917  1.00  0.00     0.167 HD
ATOM     39  C   UNL     1       6.447   6.087   9.691  1.00  0.00     0.074 A 
ATOM     40  C   UNL     1       6.765   5.517  10.987  1.00  0.00     0.031 C 
ATOM     41  C   UNL     1       6.495   7.410   9.399  1.00  0.00     0.037 A 
BRANCH  28  42
ATOM     42  C   UNL     1       5.133   8.902   3.543  1.00  0.00     0.064 A 
ATOM     43  C   UNL     1       3.898   9.232   2.962  1.00  0.00     0.173 A 
ATOM     44  C   UNL     1       6.249   9.669   3.175  1.00  0.00     0.173 A 
ATOM     45  F   UNL     1       2.794   8.538   3.278  1.00  0.00    -0.203 F 
ATOM     46  C   UNL     1       3.790  10.269   2.037  1.00  0.00     0.198 A 
ATOM     47  C   UNL     1       6.132  10.725   2.271  1.00  0.00     0.198 A 
ATOM     48  F   UNL     1       7.453   9.411   3.707  1.00  0.00    -0.203 F 
ATOM     49  F   UNL     1       2.605  10.539   1.470  1.00  0.00    -0.200 F 
ATOM     50  C   UNL     1       4.905  11.020   1.699  1.00  0.00     0.200 A 
ATOM     51  F   UNL     1       7.208  11.462   1.961  1.00  0.00    -0.200 F 
ATOM     52  F   UNL     1       4.796  12.026   0.821  1.00  0.00    -0.200 F 
ENDBRANCH  28  42
BRANCH  29  53
ATOM     53  C   UNL     1       6.108   1.391  10.162  1.00  0.00     0.064 A 
ATOM     54  C   UNL     1       5.161   1.226  11.180  1.00  0.00     0.173 A 
ATOM     55  C   UNL     1       7.075   0.387   9.997  1.00  0.00     0.173 A 
ATOM     56  F   UNL     1       4.217   2.158  11.374  1.00  0.00    -0.203 F 
ATOM     57  C   UNL     1       5.173   0.097  11.996  1.00  0.00     0.198 A 
ATOM     58  C   UNL     1       7.070  -0.754  10.797  1.00  0.00     0.198 A 
ATOM     59  F   UNL     1       7.987   0.486   9.018  1.00  0.00    -0.203 F 
ATOM     60  F   UNL     1       4.259  -0.035  12.967  1.00  0.00    -0.200 F 
ATOM     61  C   UNL     1       6.120  -0.898  11.796  1.00  0.00     0.200 A 
ATOM     62  F   UNL     1       7.968  -1.726  10.580  1.00  0.00    -0.200 F 
ATOM     63  F   UNL     1       6.110  -1.999  12.560  1.00  0.00    -0.200 F 
ENDBRANCH  29  53
BRANCH  41  64
ATOM     64  C   UNL     1       6.944   8.334  10.491  1.00  0.00     0.064 A 
ATOM     65  C   UNL     1       8.292   8.399  10.871  1.00  0.00     0.173 A 
ATOM     66  C   UNL     1       6.045   9.232  11.085  1.00  0.00     0.173 A 
ATOM     67  F   UNL     1       9.185   7.549  10.342  1.00  0.00    -0.203 F 
ATOM     68  C   UNL     1       8.725   9.334  11.806  1.00  0.00     0.198 A 
ATOM     69  C   UNL     1       6.487  10.184  11.998  1.00  0.00     0.198 A 
ATOM     70  F   UNL     1       4.746   9.210  10.751  1.00  0.00    -0.203 F 
ATOM     71  F   UNL     1      10.014   9.367  12.170  1.00  0.00    -0.200 F 
ATOM     72  C   UNL     1       7.826  10.235  12.357  1.00  0.00     0.200 A 
ATOM     73  F   UNL     1       5.621  11.065  12.517  1.00  0.00    -0.200 F 
ATOM     74  F   UNL     1       8.251  11.155  13.233  1.00  0.00    -0.200 F 
ENDBRANCH  41  64
ENDBRANCH  15  16
ENDBRANCH   8  10
ENDBRANCH   7   8
ENDBRANCH   6   7
ENDBRANCH   5   6
ENDBRANCH   4   5
ENDBRANCH   3   4
ENDBRANCH   2   3
ENDBRANCH   1   2
BRANCH   1  75
ATOM     75  C   UNL     1       3.616   1.746  -3.455  1.00  0.00     0.188 C 
BRANCH  75  76
ATOM     76  C   UNL     1       4.532   2.598  -2.540  1.00  0.00     0.188 C 
BRANCH  76  77
ATOM     77  O   UNL     1       3.974   3.595  -1.702  1.00  0.00    -0.376 OA
BRANCH  77  78
ATOM     78  C   UNL     1       3.055   4.548  -2.205  1.00  0.00     0.202 C 
BRANCH  78  79
ATOM     79  C   UNL     1       3.210   5.232  -3.578  1.00  0.00     0.261 C 
BRANCH  79  80
ATOM     80  O   UNL     1       3.584   4.388  -4.678  1.00  0.00    -0.460 OA
BRANCH  80  81
ATOM     81  C   UNL     1       4.885   4.460  -5.072  1.00  0.00     0.338 C 
ATOM     82  O   UNL     1       5.750   5.173  -4.622  1.00  0.00    -0.246 OA
BRANCH  81  83
ATOM     83  C   UNL     1       5.153   3.344  -6.012  1.00  0.00     0.062 A 
ATOM     84  C   UNL     1       4.503   3.299  -7.246  1.00  0.00     0.016 A 
ATOM     85  C   UNL     1       6.050   2.323  -5.633  1.00  0.00     0.042 A 
ATOM     86  C   UNL     1       4.840   2.293  -8.150  1.00  0.00     0.017 A 
ATOM     87  C   UNL     1       6.259   1.245  -6.486  1.00  0.00     0.056 A 
ATOM     88  C   UNL     1       5.742   1.295  -7.766  1.00  0.00     0.064 A 
ATOM     89  N   UNL     1       6.928   0.090  -6.074  1.00  0.00    -0.307 N 
ATOM     90  C   UNL     1       6.255   0.315  -8.722  1.00  0.00     0.264 A 
ATOM     91  C   UNL     1       7.082  -1.023  -6.871  1.00  0.00     0.329 A 
ATOM     92  H   UNL     1       7.310   0.070  -5.167  1.00  0.00     0.171 HD
ATOM     93  O   UNL     1       6.326   0.655  -9.899  1.00  0.00    -0.268 OA
ATOM     94  N   UNL     1       6.705  -0.889  -8.199  1.00  0.00    -0.255 N 
ATOM     95  O   UNL     1       7.571  -2.042  -6.386  1.00  0.00    -0.248 OA
BRANCH  94  96
ATOM     96  C   UNL     1       7.006  -1.968  -9.139  1.00  0.00     0.168 C 
BRANCH  96  97
ATOM     97  C   UNL     1       5.771  -2.605  -9.739  1.00  0.00    -0.010 A 
ATOM     98  C   UNL     1       4.946  -1.928 -10.646  1.00  0.00     0.009 A 
ATOM     99  C   UNL     1       5.408  -3.910  -9.427  1.00  0.00     0.116 A 
ATOM    100  C   UNL     1       3.798  -2.529 -11.148  1.00  0.00     0.020 A 
ATOM    101  N   UNL     1       4.310  -4.534  -9.919  1.00  0.00    -0.264 NA
ATOM    102  C   UNL     1       3.525  -3.824 -10.758  1.00  0.00     0.111 A 
ENDBRANCH  96  97
ENDBRANCH  94  96
ENDBRANCH  81  83
ENDBRANCH  80  81
ENDBRANCH  79  80
ENDBRANCH  78  79
ENDBRANCH  77  78
ENDBRANCH  76  77
ENDBRANCH  75  76
ENDBRANCH   1  75
TORSDOF 22
