REMARK SMILES COc1ccccc1C(=O)N1[C@@H](C(=O)OCCOCCOCCOCCOC(=O)c2ccc(-c3c4nc(c(-c5c(F)c(F)c(F)c(F)c5F)c5ccc([nH]5)c(-c5c(F)c(F)c(F)c(F)c5F)c5nc(c(-c6c(F)c(F)c(F)c(F)c6F)c6ccc3[nH]6)C=C5)C=C4)cc2)COC12CC[NH+](Cc1ccccc1)CC2
REMARK SMILES IDX 20 1 19 2 18 3 17 4 16 5 15 6 13 7 14 8 12 9 11 10 95 11
REMARK SMILES IDX 93 12 94 13 96 14 107 15 97 16 106 17 98 18 9 20 10 21 8 22
REMARK SMILES IDX 3 23 4 24 5 25 7 26 6 27 2 28 1 29 99 30 100 31 101 32
REMARK SMILES IDX 105 33 102 34 104 35 103 36 21 37 22 38 23 39 24 40 25 41
REMARK SMILES IDX 26 42 27 43 28 44 29 45 30 46 31 47 92 48 32 49 91 50 33 51
REMARK SMILES IDX 34 52 35 53 85 54 36 55 90 56 84 57 86 58 37 59 89 60 83 61
REMARK SMILES IDX 82 62 38 64 70 65 50 66 69 67 51 68 54 69 68 70 87 71 52 72
REMARK SMILES IDX 53 73 67 75 88 76 55 77 39 78 40 79 48 80 41 81 42 82 46 83
REMARK SMILES IDX 49 84 43 85 44 86 47 87 45 88 71 89 72 90 80 91 73 92 74 93
REMARK SMILES IDX 78 94 81 95 75 96 76 97 79 98 77 99 56 100 57 101 65 102
REMARK SMILES IDX 58 103 59 104 63 105 66 106 60 107 61 108 64 109 62 110
REMARK H PARENT 98 19 86 63 54 74
REMARK Flexibility Score: inf
ROOT
ATOM      1  C   UNL     1       2.404   3.485  -2.536  1.00  0.00     0.188 C 
ENDROOT
BRANCH   1   2
ATOM      2  C   UNL     1       2.197   2.804  -3.897  1.00  0.00     0.188 C 
BRANCH   2   3
ATOM      3  O   UNL     1       0.897   2.754  -4.462  1.00  0.00    -0.376 OA
BRANCH   3   4
ATOM      4  C   UNL     1      -0.160   2.068  -3.800  1.00  0.00     0.202 C 
BRANCH   4   5
ATOM      5  C   UNL     1       0.087   0.799  -2.981  1.00  0.00     0.261 C 
BRANCH   5   6
ATOM      6  O   UNL     1       0.873   0.986  -1.791  1.00  0.00    -0.462 OA
BRANCH   6   7
ATOM      7  C   UNL     1       2.069   0.351  -1.759  1.00  0.00     0.331 C 
ATOM      8  O   UNL     1       2.502  -0.325  -2.690  1.00  0.00    -0.250 OA
BRANCH   7   9
ATOM      9  C   UNL     1       2.767   0.385  -0.404  1.00  0.00     0.224 C 
ATOM     10  N   UNL     1       2.213  -0.678   0.403  1.00  0.00    -0.293 N 
ATOM     11  C   UNL     1       2.149  -0.226   1.797  1.00  0.00     0.155 C 
ATOM     12  C   UNL     1       2.716   1.603   0.486  1.00  0.00     0.200 C 
ATOM     13  O   UNL     1       2.010   1.213   1.677  1.00  0.00    -0.352 OA
ATOM     14  C   UNL     1       0.878  -0.718   2.481  1.00  0.00     0.120 C 
ATOM     15  C   UNL     1       3.435  -0.486   2.609  1.00  0.00     0.120 C 
ATOM     16  C   UNL     1       0.852  -0.520   3.978  1.00  0.00     0.267 C 
ATOM     17  C   UNL     1       3.236  -0.448   4.130  1.00  0.00     0.267 C 
ATOM     18  N   UNL     1       2.024  -1.088   4.623  1.00  0.00    -0.331 N 
ATOM     19  H   UNL     1       1.989  -0.845   5.613  1.00  0.00     0.348 HD
BRANCH  10  20
ATOM     20  C   UNL     1       2.600  -1.953   0.019  1.00  0.00     0.260 C 
ATOM     21  O   UNL     1       3.795  -2.255  -0.002  1.00  0.00    -0.269 OA
BRANCH  20  22
ATOM     22  C   UNL     1       1.598  -2.841  -0.670  1.00  0.00     0.082 A 
ATOM     23  C   UNL     1       0.212  -2.880  -0.460  1.00  0.00     0.131 A 
ATOM     24  C   UNL     1      -0.572  -3.885  -1.050  1.00  0.00     0.047 A 
ATOM     25  C   UNL     1      -0.006  -4.810  -1.921  1.00  0.00     0.004 A 
ATOM     26  C   UNL     1       2.142  -3.762  -1.588  1.00  0.00     0.018 A 
ATOM     27  C   UNL     1       1.350  -4.733  -2.210  1.00  0.00     0.001 A 
BRANCH  23  28
ATOM     28  O   UNL     1      -0.447  -2.072   0.418  1.00  0.00    -0.496 OA
ATOM     29  C   UNL     1      -1.174  -1.038  -0.236  1.00  0.00     0.278 C 
ENDBRANCH  23  28
ENDBRANCH  20  22
ENDBRANCH  10  20
BRANCH  18  30
ATOM     30  C   UNL     1       2.021  -2.550   4.808  1.00  0.00     0.299 C 
BRANCH  30  31
ATOM     31  C   UNL     1       2.525  -3.457   3.701  1.00  0.00     0.006 A 
ATOM     32  C   UNL     1       1.643  -4.184   2.887  1.00  0.00     0.009 A 
ATOM     33  C   UNL     1       3.903  -3.615   3.485  1.00  0.00     0.009 A 
ATOM     34  C   UNL     1       2.125  -4.988   1.849  1.00  0.00     0.001 A 
ATOM     35  C   UNL     1       4.383  -4.377   2.417  1.00  0.00     0.001 A 
ATOM     36  C   UNL     1       3.493  -5.061   1.597  1.00  0.00     0.000 A 
ENDBRANCH  30  31
ENDBRANCH  18  30
ENDBRANCH   7   9
ENDBRANCH   6   7
ENDBRANCH   5   6
ENDBRANCH   4   5
ENDBRANCH   3   4
ENDBRANCH   2   3
ENDBRANCH   1   2
BRANCH   1  37
ATOM     37  O   UNL     1       1.257   3.491  -1.711  1.00  0.00    -0.377 OA
BRANCH  37  38
ATOM     38  C   UNL     1       0.379   4.607  -1.723  1.00  0.00     0.188 C 
BRANCH  38  39
ATOM     39  C   UNL     1       0.321   5.497  -2.973  1.00  0.00     0.188 C 
BRANCH  39  40
ATOM     40  O   UNL     1       1.593   5.936  -3.423  1.00  0.00    -0.376 OA
BRANCH  40  41
ATOM     41  C   UNL     1       2.078   7.186  -2.950  1.00  0.00     0.202 C 
BRANCH  41  42
ATOM     42  C   UNL     1       2.309   7.316  -1.436  1.00  0.00     0.261 C 
BRANCH  42  43
ATOM     43  O   UNL     1       1.135   7.295  -0.602  1.00  0.00    -0.460 OA
BRANCH  43  44
ATOM     44  C   UNL     1       0.106   8.110  -0.909  1.00  0.00     0.338 C 
ATOM     45  O   UNL     1       0.061   8.964  -1.770  1.00  0.00    -0.246 OA
BRANCH  44  46
ATOM     46  C   UNL     1      -1.063   7.669  -0.123  1.00  0.00     0.060 A 
ATOM     47  C   UNL     1      -2.221   7.265  -0.801  1.00  0.00     0.016 A 
ATOM     48  C   UNL     1      -1.029   7.706   1.272  1.00  0.00     0.016 A 
ATOM     49  C   UNL     1      -3.372   6.949  -0.081  1.00  0.00     0.010 A 
ATOM     50  C   UNL     1      -2.188   7.410   1.991  1.00  0.00     0.010 A 
ATOM     51  C   UNL     1      -3.374   7.075   1.314  1.00  0.00    -0.014 A 
BRANCH  51  52
ATOM     52  C   UNL     1      -4.663   7.091   2.045  1.00  0.00     0.031 A 
ATOM     53  C   UNL     1      -5.292   8.426   2.337  1.00  0.00     0.074 A 
ATOM     54  C   UNL     1      -5.269   5.955   2.428  1.00  0.00     0.049 A 
ATOM     55  N   UNL     1      -6.376   8.709   3.012  1.00  0.00    -0.248 NA
ATOM     56  C   UNL     1      -4.597   9.605   1.793  1.00  0.00     0.031 C 
ATOM     57  C   UNL     1      -4.780   4.605   2.163  1.00  0.00     0.029 A 
ATOM     58  N   UNL     1      -6.428   5.765   3.137  1.00  0.00    -0.354 N 
ATOM     59  C   UNL     1      -6.488  10.092   2.979  1.00  0.00     0.074 A 
ATOM     60  C   UNL     1      -5.349  10.597   2.244  1.00  0.00     0.031 C 
ATOM     61  C   UNL     1      -5.628   3.721   2.719  1.00  0.00     0.029 A 
ATOM     62  C   UNL     1      -6.696   4.446   3.406  1.00  0.00     0.049 A 
ATOM     63  H   UNL     1      -7.012   6.504   3.426  1.00  0.00     0.167 HD
ATOM     64  C   UNL     1      -7.459  10.873   3.508  1.00  0.00     0.037 A 
ATOM     65  C   UNL     1      -7.679   3.896   4.146  1.00  0.00     0.037 A 
ATOM     66  C   UNL     1      -8.587  10.368   4.244  1.00  0.00     0.049 A 
ATOM     67  C   UNL     1      -8.706   4.792   4.793  1.00  0.00     0.074 A 
ATOM     68  C   UNL     1      -9.632  11.073   4.812  1.00  0.00     0.029 A 
ATOM     69  N   UNL     1      -8.810   9.027   4.520  1.00  0.00    -0.354 N 
ATOM     70  N   UNL     1      -8.821   6.097   4.740  1.00  0.00    -0.248 NA
ATOM     71  C   UNL     1      -9.743   4.134   5.602  1.00  0.00     0.031 C 
ATOM     72  C   UNL     1     -10.460  10.164   5.479  1.00  0.00     0.029 A 
ATOM     73  C   UNL     1      -9.963   8.886   5.274  1.00  0.00     0.049 A 
ATOM     74  H   UNL     1      -8.234   8.286   4.224  1.00  0.00     0.167 HD
ATOM     75  C   UNL     1      -9.955   6.414   5.479  1.00  0.00     0.074 A 
ATOM     76  C   UNL     1     -10.500   5.162   5.960  1.00  0.00     0.031 C 
ATOM     77  C   UNL     1     -10.497   7.630   5.735  1.00  0.00     0.037 A 
BRANCH  64  78
ATOM     78  C   UNL     1      -7.323  12.357   3.336  1.00  0.00     0.064 A 
ATOM     79  C   UNL     1      -7.497  12.975   2.088  1.00  0.00     0.173 A 
ATOM     80  C   UNL     1      -7.035  13.175   4.439  1.00  0.00     0.173 A 
ATOM     81  F   UNL     1      -7.755  12.236   0.999  1.00  0.00    -0.203 F 
ATOM     82  C   UNL     1      -7.362  14.354   1.947  1.00  0.00     0.198 A 
ATOM     83  C   UNL     1      -6.931  14.556   4.299  1.00  0.00     0.198 A 
ATOM     84  F   UNL     1      -6.859  12.635   5.654  1.00  0.00    -0.203 F 
ATOM     85  F   UNL     1      -7.482  14.917   0.737  1.00  0.00    -0.200 F 
ATOM     86  C   UNL     1      -7.086  15.144   3.053  1.00  0.00     0.200 A 
ATOM     87  F   UNL     1      -6.675  15.318   5.372  1.00  0.00    -0.200 F 
ATOM     88  F   UNL     1      -6.963  16.471   2.917  1.00  0.00    -0.200 F 
ENDBRANCH  64  78
BRANCH  65  89
ATOM     89  C   UNL     1      -7.735   2.422   4.331  1.00  0.00     0.064 A 
ATOM     90  C   UNL     1      -8.775   1.661   3.780  1.00  0.00     0.173 A 
ATOM     91  C   UNL     1      -6.763   1.747   5.085  1.00  0.00     0.173 A 
ATOM     92  F   UNL     1      -9.744   2.264   3.074  1.00  0.00    -0.203 F 
ATOM     93  C   UNL     1      -8.852   0.286   3.991  1.00  0.00     0.198 A 
ATOM     94  C   UNL     1      -6.824   0.367   5.270  1.00  0.00     0.198 A 
ATOM     95  F   UNL     1      -5.748   2.428   5.636  1.00  0.00    -0.203 F 
ATOM     96  F   UNL     1      -9.884  -0.409   3.494  1.00  0.00    -0.200 F 
ATOM     97  C   UNL     1      -7.873  -0.361   4.730  1.00  0.00     0.200 A 
ATOM     98  F   UNL     1      -5.869  -0.255   5.975  1.00  0.00    -0.200 F 
ATOM     99  F   UNL     1      -7.946  -1.684   4.930  1.00  0.00    -0.200 F 
ENDBRANCH  65  89
BRANCH  77 100
ATOM    100  C   UNL     1     -11.768   7.668   6.536  1.00  0.00     0.064 A 
ATOM    101  C   UNL     1     -11.785   7.383   7.909  1.00  0.00     0.173 A 
ATOM    102  C   UNL     1     -12.976   8.043   5.928  1.00  0.00     0.173 A 
ATOM    103  F   UNL     1     -10.659   7.008   8.535  1.00  0.00    -0.203 F 
ATOM    104  C   UNL     1     -12.970   7.447   8.638  1.00  0.00     0.198 A 
ATOM    105  C   UNL     1     -14.152   8.137   6.667  1.00  0.00     0.198 A 
ATOM    106  F   UNL     1     -13.013   8.335   4.620  1.00  0.00    -0.203 F 
ATOM    107  F   UNL     1     -12.972   7.124   9.939  1.00  0.00    -0.200 F 
ATOM    108  C   UNL     1     -14.150   7.831   8.019  1.00  0.00     0.200 A 
ATOM    109  F   UNL     1     -15.287   8.525   6.070  1.00  0.00    -0.200 F 
ATOM    110  F   UNL     1     -15.287   7.901   8.725  1.00  0.00    -0.200 F 
ENDBRANCH  77 100
ENDBRANCH  51  52
ENDBRANCH  44  46
ENDBRANCH  43  44
ENDBRANCH  42  43
ENDBRANCH  41  42
ENDBRANCH  40  41
ENDBRANCH  39  40
ENDBRANCH  38  39
ENDBRANCH  37  38
ENDBRANCH   1  37
TORSDOF 25
