REMARK SMILES CC[C@H](NC(=O)[C@H]1[C@@H](C(=O)OCCOCCOCCOCCOC(=O)c2ccc(-c3c4nc(c(-c5c(F)c(F)c(F)c(F)c5F)c5ccc([nH]5)c(-c5c(F)c(F)c(F)c(F)c5F)c5nc(c(-c6c(F)c(F)c(F)c(F)c6F)c6ccc3[nH]6)C=C5)C=C4)cc2)[C@@H]2C=C[C@H]1C2)c1ccccc1
REMARK SMILES IDX 16 1 15 2 14 3 13 4 12 5 11 6 9 7 10 8 8 9 7 10 92 11 89 12
REMARK SMILES IDX 91 13 93 14 90 15 5 16 4 17 6 19 3 20 2 21 1 22 94 23 95 24
REMARK SMILES IDX 99 25 96 26 98 27 97 28 17 29 18 30 19 31 20 32 21 33 22 34
REMARK SMILES IDX 23 35 24 36 25 37 26 38 27 39 88 40 28 41 87 42 29 43 30 44
REMARK SMILES IDX 31 45 81 46 32 47 86 48 80 49 82 50 33 51 85 52 79 53 78 54
REMARK SMILES IDX 34 56 66 57 46 58 65 59 47 60 50 61 64 62 83 63 48 64 49 65
REMARK SMILES IDX 63 67 84 68 51 69 35 70 36 71 44 72 37 73 38 74 42 75 45 76
REMARK SMILES IDX 39 77 40 78 43 79 41 80 67 81 68 82 76 83 69 84 70 85 74 86
REMARK SMILES IDX 77 87 71 88 72 89 75 90 73 91 52 92 53 93 61 94 54 95 55 96
REMARK SMILES IDX 59 97 62 98 56 99 57 100 60 101 58 102
REMARK H PARENT 4 18 82 55 50 66
REMARK Flexibility Score: inf
ROOT
ATOM      1  C   UNL     1      -3.560  -0.061   6.193  1.00  0.00     0.188 C 
ENDROOT
BRANCH   1   2
ATOM      2  C   UNL     1      -2.406  -0.516   7.107  1.00  0.00     0.188 C 
BRANCH   2   3
ATOM      3  O   UNL     1      -1.781   0.396   8.001  1.00  0.00    -0.376 OA
BRANCH   3   4
ATOM      4  C   UNL     1      -1.500   1.727   7.602  1.00  0.00     0.202 C 
BRANCH   4   5
ATOM      5  C   UNL     1      -0.894   2.051   6.231  1.00  0.00     0.261 C 
BRANCH   5   6
ATOM      6  O   UNL     1      -1.155   1.127   5.170  1.00  0.00    -0.463 OA
BRANCH   6   7
ATOM      7  C   UNL     1      -0.146   0.269   4.878  1.00  0.00     0.310 C 
ATOM      8  O   UNL     1       0.806   0.034   5.612  1.00  0.00    -0.252 OA
BRANCH   7   9
ATOM      9  C   UNL     1      -0.327  -0.393   3.522  1.00  0.00     0.119 C 
ATOM     10  C   UNL     1      -0.367   0.546   2.260  1.00  0.00     0.100 C 
ATOM     11  C   UNL     1      -1.703   0.104   1.596  1.00  0.00     0.025 C 
ATOM     12  C   UNL     1      -1.653  -1.191   3.401  1.00  0.00     0.027 C 
ATOM     13  C   UNL     1      -1.554  -1.320   1.110  1.00  0.00    -0.027 C 
ATOM     14  C   UNL     1      -2.604  -0.156   2.792  1.00  0.00     0.017 C 
ATOM     15  C   UNL     1      -1.540  -2.103   2.197  1.00  0.00    -0.027 C 
BRANCH  10  16
ATOM     16  C   UNL     1      -0.237   2.038   2.566  1.00  0.00     0.225 C 
ATOM     17  N   UNL     1      -0.755   2.972   1.726  1.00  0.00    -0.349 N 
ATOM     18  H   UNL     1      -1.156   3.768   2.144  1.00  0.00     0.164 HD
ATOM     19  O   UNL     1       0.419   2.475   3.512  1.00  0.00    -0.275 OA
BRANCH  17  20
ATOM     20  C   UNL     1      -0.777   2.916   0.275  1.00  0.00     0.112 C 
BRANCH  20  21
ATOM     21  C   UNL     1      -2.027   3.648  -0.257  1.00  0.00     0.026 C 
ATOM     22  C   UNL     1      -3.147   2.681  -0.632  1.00  0.00     0.006 C 
ENDBRANCH  20  21
BRANCH  20  23
ATOM     23  C   UNL     1       0.526   3.420  -0.337  1.00  0.00    -0.026 A 
ATOM     24  C   UNL     1       0.730   3.220  -1.714  1.00  0.00     0.006 A 
ATOM     25  C   UNL     1       1.575   3.979   0.413  1.00  0.00     0.006 A 
ATOM     26  C   UNL     1       1.940   3.559  -2.319  1.00  0.00     0.000 A 
ATOM     27  C   UNL     1       2.787   4.314  -0.194  1.00  0.00     0.000 A 
ATOM     28  C   UNL     1       2.970   4.101  -1.557  1.00  0.00     0.000 A 
ENDBRANCH  20  23
ENDBRANCH  17  20
ENDBRANCH  10  16
ENDBRANCH   7   9
ENDBRANCH   6   7
ENDBRANCH   5   6
ENDBRANCH   4   5
ENDBRANCH   3   4
ENDBRANCH   2   3
ENDBRANCH   1   2
BRANCH   1  29
ATOM     29  O   UNL     1      -3.785   1.336   6.166  1.00  0.00    -0.377 OA
BRANCH  29  30
ATOM     30  C   UNL     1      -4.883   1.782   6.950  1.00  0.00     0.188 C 
BRANCH  30  31
ATOM     31  C   UNL     1      -5.002   1.212   8.380  1.00  0.00     0.188 C 
BRANCH  31  32
ATOM     32  O   UNL     1      -4.941  -0.208   8.441  1.00  0.00    -0.376 OA
BRANCH  32  33
ATOM     33  C   UNL     1      -6.143  -0.948   8.579  1.00  0.00     0.202 C 
BRANCH  33  34
ATOM     34  C   UNL     1      -7.096  -0.983   7.373  1.00  0.00     0.261 C 
BRANCH  34  35
ATOM     35  O   UNL     1      -7.524   0.289   6.865  1.00  0.00    -0.460 OA
BRANCH  35  36
ATOM     36  C   UNL     1      -8.213   1.093   7.701  1.00  0.00     0.338 C 
ATOM     37  O   UNL     1      -8.570   0.840   8.839  1.00  0.00    -0.246 OA
BRANCH  36  38
ATOM     38  C   UNL     1      -8.298   2.429   7.076  1.00  0.00     0.060 A 
ATOM     39  C   UNL     1      -7.748   3.526   7.752  1.00  0.00     0.016 A 
ATOM     40  C   UNL     1      -8.905   2.598   5.830  1.00  0.00     0.016 A 
ATOM     41  C   UNL     1      -7.838   4.804   7.201  1.00  0.00     0.010 A 
ATOM     42  C   UNL     1      -9.021   3.882   5.292  1.00  0.00     0.010 A 
ATOM     43  C   UNL     1      -8.521   4.994   5.994  1.00  0.00    -0.014 A 
BRANCH  43  44
ATOM     44  C   UNL     1      -8.911   6.364   5.585  1.00  0.00     0.031 A 
ATOM     45  C   UNL     1     -10.298   6.835   5.928  1.00  0.00     0.074 A 
ATOM     46  C   UNL     1      -8.054   7.183   4.950  1.00  0.00     0.049 A 
ATOM     47  N   UNL     1     -10.896   7.960   5.632  1.00  0.00    -0.248 NA
ATOM     48  C   UNL     1     -11.125   5.902   6.711  1.00  0.00     0.031 C 
ATOM     49  C   UNL     1      -6.671   6.861   4.611  1.00  0.00     0.029 A 
ATOM     50  N   UNL     1      -8.234   8.456   4.469  1.00  0.00    -0.354 N 
ATOM     51  C   UNL     1     -12.168   7.864   6.181  1.00  0.00     0.074 A 
ATOM     52  C   UNL     1     -12.268   6.562   6.802  1.00  0.00     0.031 C 
ATOM     53  C   UNL     1      -6.130   7.905   3.959  1.00  0.00     0.029 A 
ATOM     54  C   UNL     1      -7.140   8.952   3.805  1.00  0.00     0.049 A 
ATOM     55  H   UNL     1      -9.068   8.965   4.589  1.00  0.00     0.167 HD
ATOM     56  C   UNL     1     -13.161   8.784   6.174  1.00  0.00     0.037 A 
ATOM     57  C   UNL     1      -6.987  10.106   3.127  1.00  0.00     0.037 A 
ATOM     58  C   UNL     1     -13.055  10.078   5.554  1.00  0.00     0.049 A 
ATOM     59  C   UNL     1      -8.137  11.082   3.063  1.00  0.00     0.074 A 
ATOM     60  C   UNL     1     -13.996  11.091   5.507  1.00  0.00     0.029 A 
ATOM     61  N   UNL     1     -11.942  10.532   4.862  1.00  0.00    -0.354 N 
ATOM     62  N   UNL     1      -9.329  10.999   3.604  1.00  0.00    -0.248 NA
ATOM     63  C   UNL     1      -7.918  12.316   2.294  1.00  0.00     0.031 C 
ATOM     64  C   UNL     1     -13.478  12.131   4.729  1.00  0.00     0.029 A 
ATOM     65  C   UNL     1     -12.186  11.798   4.354  1.00  0.00     0.049 A 
ATOM     66  H   UNL     1     -11.103  10.029   4.747  1.00  0.00     0.167 HD
ATOM     67  C   UNL     1      -9.986  12.179   3.274  1.00  0.00     0.074 A 
ATOM     68  C   UNL     1      -9.055  12.967   2.495  1.00  0.00     0.031 C 
ATOM     69  C   UNL     1     -11.244  12.575   3.589  1.00  0.00     0.037 A 
BRANCH  56  70
ATOM     70  C   UNL     1     -14.462   8.407   6.822  1.00  0.00     0.064 A 
ATOM     71  C   UNL     1     -14.585   8.257   8.211  1.00  0.00     0.173 A 
ATOM     72  C   UNL     1     -15.612   8.223   6.039  1.00  0.00     0.173 A 
ATOM     73  F   UNL     1     -13.512   8.404   9.004  1.00  0.00    -0.203 F 
ATOM     74  C   UNL     1     -15.803   7.909   8.790  1.00  0.00     0.198 A 
ATOM     75  C   UNL     1     -16.836   7.910   6.624  1.00  0.00     0.198 A 
ATOM     76  F   UNL     1     -15.552   8.355   4.705  1.00  0.00    -0.203 F 
ATOM     77  F   UNL     1     -15.884   7.718  10.114  1.00  0.00    -0.200 F 
ATOM     78  C   UNL     1     -16.929   7.745   7.997  1.00  0.00     0.200 A 
ATOM     79  F   UNL     1     -17.925   7.765   5.856  1.00  0.00    -0.200 F 
ATOM     80  F   UNL     1     -18.103   7.420   8.556  1.00  0.00    -0.200 F 
ENDBRANCH  56  70
BRANCH  57  81
ATOM     81  C   UNL     1      -5.705  10.401   2.432  1.00  0.00     0.064 A 
ATOM     82  C   UNL     1      -4.885  11.463   2.838  1.00  0.00     0.173 A 
ATOM     83  C   UNL     1      -5.289   9.647   1.323  1.00  0.00     0.173 A 
ATOM     84  F   UNL     1      -5.250  12.231   3.875  1.00  0.00    -0.203 F 
ATOM     85  C   UNL     1      -3.713  11.773   2.151  1.00  0.00     0.198 A 
ATOM     86  C   UNL     1      -4.100   9.937   0.658  1.00  0.00     0.198 A 
ATOM     87  F   UNL     1      -6.037   8.622   0.888  1.00  0.00    -0.203 F 
ATOM     88  F   UNL     1      -2.978  12.829   2.526  1.00  0.00    -0.200 F 
ATOM     89  C   UNL     1      -3.318  11.007   1.065  1.00  0.00     0.200 A 
ATOM     90  F   UNL     1      -3.717   9.184  -0.383  1.00  0.00    -0.200 F 
ATOM     91  F   UNL     1      -2.191  11.305   0.404  1.00  0.00    -0.200 F 
ENDBRANCH  57  81
BRANCH  69  92
ATOM     92  C   UNL     1     -11.677  13.942   3.136  1.00  0.00     0.064 A 
ATOM     93  C   UNL     1     -11.910  14.238   1.784  1.00  0.00     0.173 A 
ATOM     94  C   UNL     1     -11.909  14.958   4.077  1.00  0.00     0.173 A 
ATOM     95  F   UNL     1     -11.693  13.307   0.843  1.00  0.00    -0.203 F 
ATOM     96  C   UNL     1     -12.328  15.507   1.390  1.00  0.00     0.198 A 
ATOM     97  C   UNL     1     -12.362  16.214   3.683  1.00  0.00     0.198 A 
ATOM     98  F   UNL     1     -11.713  14.727   5.384  1.00  0.00    -0.203 F 
ATOM     99  F   UNL     1     -12.491  15.782   0.089  1.00  0.00    -0.200 F 
ATOM    100  C   UNL     1     -12.562  16.490   2.340  1.00  0.00     0.200 A 
ATOM    101  F   UNL     1     -12.607  17.156   4.605  1.00  0.00    -0.200 F 
ATOM    102  F   UNL     1     -12.975  17.707   1.959  1.00  0.00    -0.200 F 
ENDBRANCH  69  92
ENDBRANCH  43  44
ENDBRANCH  36  38
ENDBRANCH  35  36
ENDBRANCH  34  35
ENDBRANCH  33  34
ENDBRANCH  32  33
ENDBRANCH  31  32
ENDBRANCH  30  31
ENDBRANCH  29  30
ENDBRANCH   1  29
TORSDOF 24
