REMARK SMILES Cc1ccccc1/C=C1\SC(=S)N(CCC(=O)N[C@@H](C)C(=O)OCCOCCOCCOCCOC(=O)c2ccc(-c3c4nc(c(-c5c(F)c(F)c(F)c(F)c5F)c5ccc([nH]5)c(-c5c(F)c(F)c(F)c(F)c5F)c5nc(c(-c6c(F)c(F)c(F)c(F)c6F)c6ccc3[nH]6)C=C5)C=C4)cc2)C1=O
REMARK SMILES IDX 27 1 26 2 25 3 24 4 23 5 21 6 22 7 19 8 20 9 18 10 16 11
REMARK SMILES IDX 17 12 15 14 14 15 13 16 8 17 9 18 10 19 101 20 11 21 102 22
REMARK SMILES IDX 12 23 7 24 1 25 2 26 3 27 4 28 6 29 5 30 28 31 29 32 30 33
REMARK SMILES IDX 31 34 32 35 33 36 34 37 35 38 36 39 37 40 38 41 39 42 100 43
REMARK SMILES IDX 40 44 99 45 41 46 42 47 43 48 93 49 44 50 98 51 92 52 94 53
REMARK SMILES IDX 45 54 97 55 91 56 90 57 46 59 78 60 58 61 77 62 59 63 62 64
REMARK SMILES IDX 76 65 95 66 60 67 61 68 75 70 96 71 63 72 47 73 48 74 56 75
REMARK SMILES IDX 49 76 50 77 54 78 57 79 51 80 52 81 55 82 53 83 79 84 80 85
REMARK SMILES IDX 88 86 81 87 82 88 86 89 89 90 83 91 84 92 87 93 85 94 64 95
REMARK SMILES IDX 65 96 73 97 66 98 67 99 71 100 74 101 68 102 69 103 72 104
REMARK SMILES IDX 70 105
REMARK H PARENT 18 13 94 58 62 69
REMARK Flexibility Score: inf
ROOT
ATOM      1  C   UNL     1      -1.385   7.328  -1.255  1.00  0.00     0.188 C 
ENDROOT
BRANCH   1   2
ATOM      2  O   UNL     1      -2.575   6.522  -0.599  1.00  0.00    -0.376 OA
BRANCH   2   3
ATOM      3  C   UNL     1      -3.116   4.955  -0.783  1.00  0.00     0.202 C 
BRANCH   3   4
ATOM      4  C   UNL     1      -2.572   3.401  -1.599  1.00  0.00     0.261 C 
BRANCH   4   5
ATOM      5  O   UNL     1      -1.062   2.960  -2.544  1.00  0.00    -0.462 OA
BRANCH   5   6
ATOM      6  C   UNL     1      -0.111   3.408  -3.657  1.00  0.00     0.328 C 
ATOM      7  O   UNL     1      -0.140   2.917  -4.800  1.00  0.00    -0.250 OA
BRANCH   6   8
ATOM      8  C   UNL     1       1.225   4.415  -3.593  1.00  0.00     0.189 C 
ATOM      9  C   UNL     1       2.241   3.307  -3.806  1.00  0.00     0.043 C 
BRANCH   8  10
ATOM     10  N   UNL     1       1.828   5.457  -2.647  1.00  0.00    -0.343 N 
ATOM     11  C   UNL     1       3.073   5.897  -2.304  1.00  0.00     0.222 C 
ATOM     12  O   UNL     1       3.150   6.670  -1.345  1.00  0.00    -0.275 OA
ATOM     13  H   UNL     1       1.127   5.941  -2.153  1.00  0.00     0.164 HD
BRANCH  11  14
ATOM     14  C   UNL     1       4.319   5.528  -3.073  1.00  0.00     0.122 C 
BRANCH  14  15
ATOM     15  C   UNL     1       5.336   4.647  -2.292  1.00  0.00     0.137 C 
BRANCH  15  16
ATOM     16  N   UNL     1       4.957   3.213  -2.122  1.00  0.00    -0.292 N 
ATOM     17  C   UNL     1       2.338   1.336  -0.591  1.00  0.00     0.029 C 
ATOM     18  C   UNL     1       3.496   1.533  -1.252  1.00  0.00     0.081 C 
ATOM     19  S   UNL     1       4.179   0.777  -2.624  1.00  0.00    -0.054 SA
ATOM     20  C   UNL     1       4.279   2.810  -0.975  1.00  0.00     0.266 C 
ATOM     21  C   UNL     1       5.085   2.237  -3.097  1.00  0.00     0.148 C 
ATOM     22  O   UNL     1       4.227   3.442   0.070  1.00  0.00    -0.268 OA
ATOM     23  S   UNL     1       5.822   2.379  -4.591  1.00  0.00    -0.052 S 
BRANCH  17  24
ATOM     24  C   UNL     1       1.043   0.511  -0.529  1.00  0.00    -0.021 A 
ATOM     25  C   UNL     1       2.665  -1.671   0.276  1.00  0.00     0.045 C 
ATOM     26  C   UNL     1       1.268  -1.126   0.243  1.00  0.00    -0.044 A 
ATOM     27  C   UNL     1      -0.096  -1.988   1.103  1.00  0.00     0.004 A 
ATOM     28  C   UNL     1      -1.775  -1.221   1.242  1.00  0.00     0.000 A 
ATOM     29  C   UNL     1      -0.693   1.272  -0.476  1.00  0.00     0.008 A 
ATOM     30  C   UNL     1      -2.106   0.430   0.426  1.00  0.00     0.001 A 
ENDBRANCH  17  24
ENDBRANCH  15  16
ENDBRANCH  14  15
ENDBRANCH  11  14
ENDBRANCH   8  10
ENDBRANCH   6   8
ENDBRANCH   5   6
ENDBRANCH   4   5
ENDBRANCH   3   4
ENDBRANCH   2   3
ENDBRANCH   1   2
BRANCH   1  31
ATOM     31  C   UNL     1      -0.220   7.994  -0.456  1.00  0.00     0.188 C 
BRANCH  31  32
ATOM     32  O   UNL     1      -0.527   9.034   0.437  1.00  0.00    -0.377 OA
BRANCH  32  33
ATOM     33  C   UNL     1      -1.748   9.714   0.235  1.00  0.00     0.188 C 
BRANCH  33  34
ATOM     34  C   UNL     1      -2.195  10.076  -1.182  1.00  0.00     0.188 C 
BRANCH  34  35
ATOM     35  O   UNL     1      -1.151   9.967  -2.142  1.00  0.00    -0.376 OA
BRANCH  35  36
ATOM     36  C   UNL     1      -0.993  10.907  -3.186  1.00  0.00     0.202 C 
BRANCH  36  37
ATOM     37  C   UNL     1      -2.180  11.815  -3.508  1.00  0.00     0.261 C 
BRANCH  37  38
ATOM     38  O   UNL     1      -3.148  11.085  -4.299  1.00  0.00    -0.460 OA
BRANCH  38  39
ATOM     39  C   UNL     1      -4.127  10.411  -3.639  1.00  0.00     0.338 C 
ATOM     40  O   UNL     1      -4.859  10.884  -2.786  1.00  0.00    -0.246 OA
BRANCH  39  41
ATOM     41  C   UNL     1      -3.961   8.936  -3.893  1.00  0.00     0.060 A 
ATOM     42  C   UNL     1      -4.635   8.006  -3.107  1.00  0.00     0.016 A 
ATOM     43  C   UNL     1      -2.884   8.482  -4.655  1.00  0.00     0.016 A 
ATOM     44  C   UNL     1      -4.082   6.716  -2.928  1.00  0.00     0.010 A 
ATOM     45  C   UNL     1      -2.254   7.271  -4.335  1.00  0.00     0.010 A 
ATOM     46  C   UNL     1      -2.761   6.408  -3.348  1.00  0.00    -0.014 A 
BRANCH  46  47
ATOM     47  C   UNL     1      -1.762   5.186  -2.892  1.00  0.00     0.031 A 
ATOM     48  C   UNL     1      -2.393   4.045  -4.185  1.00  0.00     0.074 A 
ATOM     49  C   UNL     1      -0.786   4.920  -1.550  1.00  0.00     0.049 A 
ATOM     50  N   UNL     1      -2.675   2.748  -4.076  1.00  0.00    -0.248 NA
ATOM     51  C   UNL     1      -2.659   4.454  -5.577  1.00  0.00     0.031 C 
ATOM     52  C   UNL     1       0.434   4.004  -1.166  1.00  0.00     0.029 A 
ATOM     53  N   UNL     1      -0.844   5.284  -0.039  1.00  0.00    -0.354 N 
ATOM     54  C   UNL     1      -2.538   2.147  -5.313  1.00  0.00     0.074 A 
ATOM     55  C   UNL     1      -2.789   3.272  -6.209  1.00  0.00     0.031 C 
ATOM     56  C   UNL     1       0.823   3.984   0.107  1.00  0.00     0.029 A 
ATOM     57  C   UNL     1      -0.258   4.399   0.864  1.00  0.00     0.049 A 
ATOM     58  H   UNL     1      -1.281   6.112   0.268  1.00  0.00     0.167 HD
ATOM     59  C   UNL     1      -1.873   0.936  -5.518  1.00  0.00     0.037 A 
ATOM     60  C   UNL     1      -0.582   3.826   2.067  1.00  0.00     0.037 A 
ATOM     61  C   UNL     1      -1.079   0.368  -4.341  1.00  0.00     0.049 A 
ATOM     62  C   UNL     1      -0.316   2.267   2.215  1.00  0.00     0.074 A 
ATOM     63  C   UNL     1       0.295   0.139  -4.247  1.00  0.00     0.029 A 
ATOM     64  N   UNL     1      -1.536   0.129  -3.029  1.00  0.00    -0.354 N 
ATOM     65  N   UNL     1       0.405   1.554   1.373  1.00  0.00    -0.248 NA
ATOM     66  C   UNL     1      -0.905   1.376   3.204  1.00  0.00     0.031 C 
ATOM     67  C   UNL     1       0.620  -0.451  -3.010  1.00  0.00     0.029 A 
ATOM     68  C   UNL     1      -0.482  -0.345  -2.170  1.00  0.00     0.049 A 
ATOM     69  H   UNL     1      -2.465   0.270  -2.735  1.00  0.00     0.167 HD
ATOM     70  C   UNL     1      -0.215   0.123   1.096  1.00  0.00     0.074 A 
ATOM     71  C   UNL     1      -0.630   0.142   2.711  1.00  0.00     0.031 C 
ATOM     72  C   UNL     1      -0.723  -0.754  -0.504  1.00  0.00     0.037 A 
BRANCH  59  73
ATOM     73  C   UNL     1      -1.504   0.444  -6.969  1.00  0.00     0.064 A 
ATOM     74  C   UNL     1      -0.453  -0.475  -7.239  1.00  0.00     0.173 A 
ATOM     75  C   UNL     1      -2.176   0.846  -8.140  1.00  0.00     0.173 A 
ATOM     76  F   UNL     1       0.110  -1.218  -6.280  1.00  0.00    -0.203 F 
ATOM     77  C   UNL     1       0.023  -0.761  -8.528  1.00  0.00     0.198 A 
ATOM     78  C   UNL     1      -1.699   0.573  -9.437  1.00  0.00     0.198 A 
ATOM     79  F   UNL     1      -3.377   1.434  -8.076  1.00  0.00    -0.203 F 
ATOM     80  F   UNL     1       1.053  -1.606  -8.687  1.00  0.00    -0.200 F 
ATOM     81  C   UNL     1      -0.579  -0.205  -9.630  1.00  0.00     0.200 A 
ATOM     82  F   UNL     1      -2.358   1.053 -10.502  1.00  0.00    -0.200 F 
ATOM     83  F   UNL     1      -0.135  -0.482 -10.864  1.00  0.00    -0.200 F 
ENDBRANCH  59  73
BRANCH  60  84
ATOM     84  C   UNL     1      -1.360   4.764   2.919  1.00  0.00     0.064 A 
ATOM     85  C   UNL     1      -0.597   5.865   3.372  1.00  0.00     0.173 A 
ATOM     86  C   UNL     1      -2.733   4.970   2.751  1.00  0.00     0.173 A 
ATOM     87  F   UNL     1       0.717   5.705   3.594  1.00  0.00    -0.203 F 
ATOM     88  C   UNL     1      -1.127   7.152   3.416  1.00  0.00     0.198 A 
ATOM     89  C   UNL     1      -3.267   6.266   2.798  1.00  0.00     0.198 A 
ATOM     90  F   UNL     1      -3.522   3.957   2.363  1.00  0.00    -0.203 F 
ATOM     91  F   UNL     1      -0.326   8.196   3.666  1.00  0.00    -0.200 F 
ATOM     92  C   UNL     1      -2.455   7.357   3.087  1.00  0.00     0.200 A 
ATOM     93  F   UNL     1      -4.541   6.474   2.434  1.00  0.00    -0.200 F 
ATOM     94  F   UNL     1      -2.943   8.603   3.004  1.00  0.00    -0.200 F 
ENDBRANCH  60  84
BRANCH  72  95
ATOM     95  C   UNL     1      -1.895  -2.052  -0.990  1.00  0.00     0.064 A 
ATOM     96  C   UNL     1      -3.276  -2.160  -0.589  1.00  0.00     0.173 A 
ATOM     97  C   UNL     1      -1.548  -3.009  -1.975  1.00  0.00     0.173 A 
ATOM     98  F   UNL     1      -3.935  -1.191   0.070  1.00  0.00    -0.203 F 
ATOM     99  C   UNL     1      -4.052  -3.293  -0.818  1.00  0.00     0.198 A 
ATOM    100  C   UNL     1      -2.425  -4.041  -2.361  1.00  0.00     0.198 A 
ATOM    101  F   UNL     1      -0.378  -2.965  -2.623  1.00  0.00    -0.203 F 
ATOM    102  F   UNL     1      -5.216  -3.442  -0.167  1.00  0.00    -0.200 F 
ATOM    103  C   UNL     1      -3.625  -4.242  -1.707  1.00  0.00     0.200 A 
ATOM    104  F   UNL     1      -2.101  -4.850  -3.379  1.00  0.00    -0.200 F 
ATOM    105  F   UNL     1      -4.383  -5.317  -1.959  1.00  0.00    -0.200 F 
ENDBRANCH  72  95
ENDBRANCH  46  47
ENDBRANCH  39  41
ENDBRANCH  38  39
ENDBRANCH  37  38
ENDBRANCH  36  37
ENDBRANCH  35  36
ENDBRANCH  34  35
ENDBRANCH  33  34
ENDBRANCH  32  33
ENDBRANCH  31  32
ENDBRANCH   1  31
TORSDOF 25
