REMARK SMILES CCCc1c(O)nc(SCCC(=O)OCCOCCOCCOCCOC(=O)c2ccc(-c3c4nc(c(-c5c(F)c(F)c(F)c(F)c5F)c5ccc([nH]5)c(-c5c(F)c(F)c(F)c(F)c5F)c5nc(c(-c6c(F)c(F)c(F)c(F)c6F)c6ccc3[nH]6)C=C5)C=C4)cc2)[nH]c1=O
REMARK SMILES IDX 18 1 17 2 16 3 15 4 14 5 12 6 13 7 11 8 10 9 9 10 8 11 4 12
REMARK SMILES IDX 5 13 93 14 7 15 92 16 94 17 3 19 2 20 1 21 6 22 19 24 20 25
REMARK SMILES IDX 21 26 22 27 23 28 24 29 25 30 26 31 27 32 28 33 29 34 30 35
REMARK SMILES IDX 91 36 31 37 90 38 32 39 33 40 34 41 84 42 35 43 89 44 83 45
REMARK SMILES IDX 85 46 36 47 88 48 82 49 81 50 37 52 69 53 49 54 68 55 50 56
REMARK SMILES IDX 53 57 67 58 86 59 51 60 52 61 66 63 87 64 54 65 38 66 39 67
REMARK SMILES IDX 47 68 40 69 41 70 45 71 48 72 42 73 43 74 46 75 44 76 70 77
REMARK SMILES IDX 71 78 79 79 72 80 73 81 77 82 80 83 74 84 75 85 78 86 76 87
REMARK SMILES IDX 55 88 56 89 64 90 57 91 58 92 62 93 65 94 59 95 60 96 63 97
REMARK SMILES IDX 61 98
REMARK H PARENT 92 18 6 23 85 51 53 62
REMARK Flexibility Score: inf
ROOT
ATOM      1  C   UNL     1      -2.063   2.491  -3.771  1.00  0.00     0.188 C 
ENDROOT
BRANCH   1   2
ATOM      2  O   UNL     1      -1.309   1.309  -3.490  1.00  0.00    -0.376 OA
BRANCH   2   3
ATOM      3  C   UNL     1      -0.189   1.486  -2.621  1.00  0.00     0.202 C 
BRANCH   3   4
ATOM      4  C   UNL     1       1.099   1.958  -3.296  1.00  0.00     0.261 C 
BRANCH   4   5
ATOM      5  O   UNL     1       1.191   3.384  -3.114  1.00  0.00    -0.463 OA
BRANCH   5   6
ATOM      6  C   UNL     1       0.887   4.152  -4.183  1.00  0.00     0.306 C 
ATOM      7  O   UNL     1       0.864   3.763  -5.344  1.00  0.00    -0.252 OA
BRANCH   6   8
ATOM      8  C   UNL     1       0.514   5.556  -3.776  1.00  0.00     0.134 C 
BRANCH   8   9
ATOM      9  C   UNL     1      -0.142   5.675  -2.394  1.00  0.00     0.090 C 
BRANCH   9  10
ATOM     10  S   UNL     1       1.037   6.178  -1.108  1.00  0.00    -0.087 SA
BRANCH  10  11
ATOM     11  C   UNL     1       1.142   4.825  -0.024  1.00  0.00     0.171 A 
ATOM     12  C   UNL     1       1.670   2.846   1.793  1.00  0.00     0.079 A 
ATOM     13  C   UNL     1       0.640   2.843   0.938  1.00  0.00     0.222 A 
ATOM     14  C   UNL     1       2.507   4.068   1.775  1.00  0.00     0.258 A 
ATOM     15  N   UNL     1       0.365   3.796  -0.008  1.00  0.00    -0.189 NA
ATOM     16  N   UNL     1       2.175   4.996   0.839  1.00  0.00    -0.301 N 
ATOM     17  O   UNL     1       3.439   4.241   2.553  1.00  0.00    -0.269 OA
ATOM     18  H   UNL     1       2.704   5.824   0.785  1.00  0.00     0.172 HD
BRANCH  12  19
ATOM     19  C   UNL     1       2.080   1.732   2.729  1.00  0.00     0.047 C 
BRANCH  19  20
ATOM     20  C   UNL     1       1.640   0.285   2.420  1.00  0.00     0.002 C 
ATOM     21  C   UNL     1       2.108  -0.246   1.067  1.00  0.00     0.004 C 
ENDBRANCH  19  20
ENDBRANCH  12  19
BRANCH  13  22
ATOM     22  O   UNL     1      -0.199   1.760   0.941  1.00  0.00    -0.493 OA
ATOM     23  H   UNL     1      -0.070   1.069   1.560  1.00  0.00     0.295 HD
ENDBRANCH  13  22
ENDBRANCH  10  11
ENDBRANCH   9  10
ENDBRANCH   8   9
ENDBRANCH   6   8
ENDBRANCH   5   6
ENDBRANCH   4   5
ENDBRANCH   3   4
ENDBRANCH   2   3
ENDBRANCH   1   2
BRANCH   1  24
ATOM     24  C   UNL     1      -3.372   2.617  -2.971  1.00  0.00     0.188 C 
BRANCH  24  25
ATOM     25  O   UNL     1      -3.201   3.094  -1.632  1.00  0.00    -0.377 OA
BRANCH  25  26
ATOM     26  C   UNL     1      -2.875   2.083  -0.693  1.00  0.00     0.188 C 
BRANCH  26  27
ATOM     27  C   UNL     1      -3.955   1.470   0.204  1.00  0.00     0.188 C 
BRANCH  27  28
ATOM     28  O   UNL     1      -5.285   1.418  -0.267  1.00  0.00    -0.376 OA
BRANCH  28  29
ATOM     29  C   UNL     1      -5.917   2.663  -0.539  1.00  0.00     0.202 C 
BRANCH  29  30
ATOM     30  C   UNL     1      -6.088   3.675   0.603  1.00  0.00     0.261 C 
BRANCH  30  31
ATOM     31  O   UNL     1      -4.879   4.071   1.283  1.00  0.00    -0.460 OA
BRANCH  31  32
ATOM     32  C   UNL     1      -4.838   3.740   2.593  1.00  0.00     0.338 C 
ATOM     33  O   UNL     1      -5.681   3.095   3.220  1.00  0.00    -0.246 OA
BRANCH  32  34
ATOM     34  C   UNL     1      -3.613   4.202   3.263  1.00  0.00     0.060 A 
ATOM     35  C   UNL     1      -2.748   3.244   3.806  1.00  0.00     0.016 A 
ATOM     36  C   UNL     1      -3.480   5.549   3.610  1.00  0.00     0.016 A 
ATOM     37  C   UNL     1      -1.803   3.619   4.765  1.00  0.00     0.010 A 
ATOM     38  C   UNL     1      -2.530   5.923   4.570  1.00  0.00     0.010 A 
ATOM     39  C   UNL     1      -1.731   4.950   5.200  1.00  0.00    -0.014 A 
BRANCH  39  40
ATOM     40  C   UNL     1      -0.979   5.288   6.440  1.00  0.00     0.031 A 
ATOM     41  C   UNL     1      -1.733   5.459   7.734  1.00  0.00     0.074 A 
ATOM     42  C   UNL     1       0.359   5.414   6.437  1.00  0.00     0.049 A 
ATOM     43  N   UNL     1      -1.287   5.785   8.923  1.00  0.00    -0.248 NA
ATOM     44  C   UNL     1      -3.186   5.235   7.681  1.00  0.00     0.031 C 
ATOM     45  C   UNL     1       1.218   5.237   5.272  1.00  0.00     0.029 A 
ATOM     46  N   UNL     1       1.228   5.727   7.455  1.00  0.00    -0.354 N 
ATOM     47  C   UNL     1      -2.401   5.810   9.753  1.00  0.00     0.074 A 
ATOM     48  C   UNL     1      -3.548   5.499   8.927  1.00  0.00     0.031 C 
ATOM     49  C   UNL     1       2.494   5.450   5.636  1.00  0.00     0.029 A 
ATOM     50  C   UNL     1       2.538   5.807   7.053  1.00  0.00     0.049 A 
ATOM     51  H   UNL     1       0.938   5.879   8.383  1.00  0.00     0.167 HD
ATOM     52  C   UNL     1      -2.465   6.058  11.084  1.00  0.00     0.037 A 
ATOM     53  C   UNL     1       3.644   6.145   7.745  1.00  0.00     0.037 A 
ATOM     54  C   UNL     1      -1.331   6.360  11.918  1.00  0.00     0.049 A 
ATOM     55  C   UNL     1       3.540   6.477   9.211  1.00  0.00     0.074 A 
ATOM     56  C   UNL     1      -1.302   6.610  13.279  1.00  0.00     0.029 A 
ATOM     57  N   UNL     1      -0.023   6.457  11.467  1.00  0.00    -0.354 N 
ATOM     58  N   UNL     1       2.486   6.479   9.990  1.00  0.00    -0.248 NA
ATOM     59  C   UNL     1       4.787   6.849   9.897  1.00  0.00     0.031 C 
ATOM     60  C   UNL     1       0.017   6.899  13.645  1.00  0.00     0.029 A 
ATOM     61  C   UNL     1       0.817   6.782  12.521  1.00  0.00     0.049 A 
ATOM     62  H   UNL     1       0.266   6.314  10.537  1.00  0.00     0.167 HD
ATOM     63  C   UNL     1       2.945   6.817  11.257  1.00  0.00     0.074 A 
ATOM     64  C   UNL     1       4.376   7.006  11.147  1.00  0.00     0.031 C 
ATOM     65  C   UNL     1       2.242   6.957  12.408  1.00  0.00     0.037 A 
BRANCH  52  66
ATOM     66  C   UNL     1      -3.822   6.033  11.725  1.00  0.00     0.064 A 
ATOM     67  C   UNL     1      -4.511   4.830  11.940  1.00  0.00     0.173 A 
ATOM     68  C   UNL     1      -4.424   7.223  12.158  1.00  0.00     0.173 A 
ATOM     69  F   UNL     1      -3.982   3.667  11.533  1.00  0.00    -0.203 F 
ATOM     70  C   UNL     1      -5.767   4.824  12.542  1.00  0.00     0.198 A 
ATOM     71  C   UNL     1      -5.668   7.210  12.784  1.00  0.00     0.198 A 
ATOM     72  F   UNL     1      -3.803   8.399  11.982  1.00  0.00    -0.203 F 
ATOM     73  F   UNL     1      -6.427   3.668  12.699  1.00  0.00    -0.200 F 
ATOM     74  C   UNL     1      -6.341   6.012  12.969  1.00  0.00     0.200 A 
ATOM     75  F   UNL     1      -6.215   8.358  13.208  1.00  0.00    -0.200 F 
ATOM     76  F   UNL     1      -7.547   6.003  13.554  1.00  0.00    -0.200 F 
ENDBRANCH  52  66
BRANCH  53  77
ATOM     77  C   UNL     1       4.959   6.194   7.055  1.00  0.00     0.064 A 
ATOM     78  C   UNL     1       5.962   5.259   7.345  1.00  0.00     0.173 A 
ATOM     79  C   UNL     1       5.249   7.196   6.117  1.00  0.00     0.173 A 
ATOM     80  F   UNL     1       5.744   4.305   8.261  1.00  0.00    -0.203 F 
ATOM     81  C   UNL     1       7.213   5.336   6.736  1.00  0.00     0.198 A 
ATOM     82  C   UNL     1       6.490   7.254   5.488  1.00  0.00     0.198 A 
ATOM     83  F   UNL     1       4.326   8.121   5.815  1.00  0.00    -0.203 F 
ATOM     84  F   UNL     1       8.173   4.464   7.072  1.00  0.00    -0.200 F 
ATOM     85  C   UNL     1       7.474   6.330   5.804  1.00  0.00     0.200 A 
ATOM     86  F   UNL     1       6.739   8.216   4.588  1.00  0.00    -0.200 F 
ATOM     87  F   UNL     1       8.680   6.408   5.225  1.00  0.00    -0.200 F 
ENDBRANCH  53  77
BRANCH  65  88
ATOM     88  C   UNL     1       3.011   7.288  13.655  1.00  0.00     0.064 A 
ATOM     89  C   UNL     1       3.563   8.560  13.867  1.00  0.00     0.173 A 
ATOM     90  C   UNL     1       3.166   6.329  14.669  1.00  0.00     0.173 A 
ATOM     91  F   UNL     1       3.454   9.508  12.924  1.00  0.00    -0.203 F 
ATOM     92  C   UNL     1       4.264   8.852  15.035  1.00  0.00     0.198 A 
ATOM     93  C   UNL     1       3.844   6.633  15.847  1.00  0.00     0.198 A 
ATOM     94  F   UNL     1       2.651   5.100  14.521  1.00  0.00    -0.203 F 
ATOM     95  F   UNL     1       4.822  10.060  15.195  1.00  0.00    -0.200 F 
ATOM     96  C   UNL     1       4.398   7.891  16.026  1.00  0.00     0.200 A 
ATOM     97  F   UNL     1       3.961   5.707  16.809  1.00  0.00    -0.200 F 
ATOM     98  F   UNL     1       5.069   8.175  17.151  1.00  0.00    -0.200 F 
ENDBRANCH  65  88
ENDBRANCH  39  40
ENDBRANCH  32  34
ENDBRANCH  31  32
ENDBRANCH  30  31
ENDBRANCH  29  30
ENDBRANCH  28  29
ENDBRANCH  27  28
ENDBRANCH  26  27
ENDBRANCH  25  26
ENDBRANCH  24  25
ENDBRANCH   1  24
TORSDOF 26
