REMARK SMILES Cc1cc(Br)cc2c1O[C@H](C(F)(F)F)C(C(=O)OCCOCCOCCOCCOC(=O)c1ccc(-c3c4nc(c(-c5c(F)c(F)c(F)c(F)c5F)c5ccc([nH]5)c(-c5c(F)c(F)c(F)c(F)c5F)c5nc(c(-c6c(F)c(F)c(F)c(F)c6F)c6ccc3[nH]6)C=C5)C=C4)cc1)=C2
REMARK SMILES IDX 25 1 24 2 23 3 22 4 21 5 20 6 19 7 18 8 16 9 17 10 15 11
REMARK SMILES IDX 1 12 2 13 3 14 8 15 4 16 7 17 9 18 5 19 6 20 96 21 10 22
REMARK SMILES IDX 11 23 12 24 13 25 14 26 26 27 27 28 28 29 29 30 30 31 31 32
REMARK SMILES IDX 32 33 33 34 34 35 95 36 35 37 94 38 36 39 37 40 38 41 88 42
REMARK SMILES IDX 39 43 93 44 87 45 89 46 40 47 92 48 86 49 85 50 41 52 73 53
REMARK SMILES IDX 53 54 72 55 54 56 57 57 71 58 90 59 55 60 56 61 70 63 91 64
REMARK SMILES IDX 58 65 42 66 43 67 51 68 44 69 45 70 49 71 52 72 46 73 47 74
REMARK SMILES IDX 50 75 48 76 74 77 75 78 83 79 76 80 77 81 81 82 84 83 78 84
REMARK SMILES IDX 79 85 82 86 80 87 59 88 60 89 68 90 61 91 62 92 66 93 69 94
REMARK SMILES IDX 63 95 64 96 67 97 65 98
REMARK H PARENT 89 51 57 62
REMARK Flexibility Score: inf
ROOT
ATOM      1  C   UNL     1       6.128  -6.353   3.408  1.00  0.00     0.188 C 
ENDROOT
BRANCH   1   2
ATOM      2  O   UNL     1       5.348  -5.643   2.442  1.00  0.00    -0.377 OA
BRANCH   2   3
ATOM      3  C   UNL     1       3.969  -5.963   2.330  1.00  0.00     0.188 C 
BRANCH   3   4
ATOM      4  C   UNL     1       3.702  -7.264   1.546  1.00  0.00     0.188 C 
BRANCH   4   5
ATOM      5  O   UNL     1       4.854  -8.085   1.439  1.00  0.00    -0.376 OA
BRANCH   5   6
ATOM      6  C   UNL     1       5.657  -8.044   0.272  1.00  0.00     0.202 C 
BRANCH   6   7
ATOM      7  C   UNL     1       6.134  -6.719  -0.351  1.00  0.00     0.261 C 
BRANCH   7   8
ATOM      8  O   UNL     1       5.217  -5.622  -0.325  1.00  0.00    -0.460 OA
BRANCH   8   9
ATOM      9  C   UNL     1       4.194  -5.640  -1.198  1.00  0.00     0.338 C 
ATOM     10  O   UNL     1       3.972  -6.487  -2.045  1.00  0.00    -0.246 OA
BRANCH   9  11
ATOM     11  C   UNL     1       3.278  -4.535  -0.837  1.00  0.00     0.087 C 
ATOM     12  C   UNL     1       1.103   0.036   0.104  1.00  0.00     0.048 C 
ATOM     13  C   UNL     1       0.642  -1.390  -0.027  1.00  0.00    -0.007 A 
ATOM     14  C   UNL     1      -0.738  -1.649  -0.022  1.00  0.00     0.023 A 
ATOM     15  C   UNL     1       1.537  -2.457  -0.214  1.00  0.00     0.130 A 
ATOM     16  C   UNL     1      -1.210  -2.950  -0.181  1.00  0.00     0.019 A 
ATOM     17  C   UNL     1       1.053  -3.753  -0.428  1.00  0.00     0.019 A 
ATOM     18  O   UNL     1       2.869  -2.159  -0.189  1.00  0.00    -0.475 OA
ATOM     19  Br  UNL     1      -3.071  -3.281  -0.177  1.00  0.00    -0.051 Br
ATOM     20  C   UNL     1      -0.322  -4.004  -0.381  1.00  0.00     0.027 A 
ATOM     21  C   UNL     1       1.972  -4.824  -0.776  1.00  0.00     0.027 C 
ATOM     22  C   UNL     1       3.851  -3.188  -0.482  1.00  0.00     0.316 C 
BRANCH  22  23
ATOM     23  C   UNL     1       4.782  -2.643  -1.573  1.00  0.00     0.430 C 
ATOM     24  F   UNL     1       5.228  -1.401  -1.265  1.00  0.00    -0.167 F 
ATOM     25  F   UNL     1       5.880  -3.416  -1.740  1.00  0.00    -0.167 F 
ATOM     26  F   UNL     1       4.158  -2.564  -2.771  1.00  0.00    -0.167 F 
ENDBRANCH  22  23
ENDBRANCH   9  11
ENDBRANCH   8   9
ENDBRANCH   7   8
ENDBRANCH   6   7
ENDBRANCH   5   6
ENDBRANCH   4   5
ENDBRANCH   3   4
ENDBRANCH   2   3
ENDBRANCH   1   2
BRANCH   1  27
ATOM     27  C   UNL     1       5.644  -7.671   4.066  1.00  0.00     0.188 C 
BRANCH  27  28
ATOM     28  O   UNL     1       4.251  -7.713   4.340  1.00  0.00    -0.376 OA
BRANCH  28  29
ATOM     29  C   UNL     1       3.832  -7.604   5.689  1.00  0.00     0.202 C 
BRANCH  29  30
ATOM     30  C   UNL     1       4.022  -6.225   6.334  1.00  0.00     0.261 C 
BRANCH  30  31
ATOM     31  O   UNL     1       5.365  -5.718   6.330  1.00  0.00    -0.460 OA
BRANCH  31  32
ATOM     32  C   UNL     1       6.293  -6.409   7.024  1.00  0.00     0.338 C 
ATOM     33  O   UNL     1       6.121  -7.412   7.696  1.00  0.00    -0.246 OA
BRANCH  32  34
ATOM     34  C   UNL     1       7.614  -5.848   6.675  1.00  0.00     0.060 A 
ATOM     35  C   UNL     1       8.568  -6.675   6.067  1.00  0.00     0.016 A 
ATOM     36  C   UNL     1       7.899  -4.505   6.931  1.00  0.00     0.016 A 
ATOM     37  C   UNL     1       9.824  -6.166   5.740  1.00  0.00     0.010 A 
ATOM     38  C   UNL     1       9.166  -4.003   6.627  1.00  0.00     0.010 A 
ATOM     39  C   UNL     1      10.144  -4.840   6.062  1.00  0.00    -0.014 A 
BRANCH  39  40
ATOM     40  C   UNL     1      11.558  -4.396   6.016  1.00  0.00     0.031 A 
ATOM     41  C   UNL     1      12.360  -4.471   7.285  1.00  0.00     0.074 A 
ATOM     42  C   UNL     1      12.128  -3.971   4.875  1.00  0.00     0.049 A 
ATOM     43  N   UNL     1      13.596  -4.109   7.512  1.00  0.00    -0.248 NA
ATOM     44  C   UNL     1      11.674  -5.036   8.460  1.00  0.00     0.031 C 
ATOM     45  C   UNL     1      11.471  -3.907   3.573  1.00  0.00     0.029 A 
ATOM     46  N   UNL     1      13.400  -3.509   4.636  1.00  0.00    -0.354 N 
ATOM     47  C   UNL     1      13.835  -4.406   8.847  1.00  0.00     0.074 A 
ATOM     48  C   UNL     1      12.609  -4.942   9.393  1.00  0.00     0.031 C 
ATOM     49  C   UNL     1      12.345  -3.429   2.669  1.00  0.00     0.029 A 
ATOM     50  C   UNL     1      13.610  -3.122   3.336  1.00  0.00     0.049 A 
ATOM     51  H   UNL     1      14.095  -3.460   5.332  1.00  0.00     0.167 HD
ATOM     52  C   UNL     1      14.981  -4.259   9.550  1.00  0.00     0.037 A 
ATOM     53  C   UNL     1      14.695  -2.566   2.760  1.00  0.00     0.037 A 
ATOM     54  C   UNL     1      16.198  -3.721   9.006  1.00  0.00     0.049 A 
ATOM     55  C   UNL     1      15.929  -2.316   3.594  1.00  0.00     0.074 A 
ATOM     56  C   UNL     1      17.412  -3.529   9.641  1.00  0.00     0.029 A 
ATOM     57  N   UNL     1      16.354  -3.286   7.699  1.00  0.00    -0.354 N 
ATOM     58  N   UNL     1      16.152  -2.609   4.852  1.00  0.00    -0.248 NA
ATOM     59  C   UNL     1      17.061  -1.654   2.927  1.00  0.00     0.031 C 
ATOM     60  C   UNL     1      18.287  -2.927   8.734  1.00  0.00     0.029 A 
ATOM     61  C   UNL     1      17.638  -2.800   7.516  1.00  0.00     0.049 A 
ATOM     62  H   UNL     1      15.656  -3.318   7.005  1.00  0.00     0.167 HD
ATOM     63  C   UNL     1      17.453  -2.197   5.118  1.00  0.00     0.074 A 
ATOM     64  C   UNL     1      17.976  -1.646   3.886  1.00  0.00     0.031 C 
ATOM     65  C   UNL     1      18.149  -2.266   6.279  1.00  0.00     0.037 A 
BRANCH  52  66
ATOM     66  C   UNL     1      14.976  -4.676  10.990  1.00  0.00     0.064 A 
ATOM     67  C   UNL     1      14.944  -6.028  11.361  1.00  0.00     0.173 A 
ATOM     68  C   UNL     1      15.077  -3.716  12.009  1.00  0.00     0.173 A 
ATOM     69  F   UNL     1      14.829  -6.982  10.425  1.00  0.00    -0.203 F 
ATOM     70  C   UNL     1      15.007  -6.404  12.700  1.00  0.00     0.198 A 
ATOM     71  C   UNL     1      15.169  -4.097  13.344  1.00  0.00     0.198 A 
ATOM     72  F   UNL     1      15.111  -2.410  11.706  1.00  0.00    -0.203 F 
ATOM     73  F   UNL     1      14.944  -7.701  13.033  1.00  0.00    -0.200 F 
ATOM     74  C   UNL     1      15.132  -5.440  13.689  1.00  0.00     0.200 A 
ATOM     75  F   UNL     1      15.303  -3.165  14.297  1.00  0.00    -0.200 F 
ATOM     76  F   UNL     1      15.215  -5.805  14.976  1.00  0.00    -0.200 F 
ENDBRANCH  52  66
BRANCH  53  77
ATOM     77  C   UNL     1      14.671  -2.205   1.317  1.00  0.00     0.064 A 
ATOM     78  C   UNL     1      15.485  -2.873   0.391  1.00  0.00     0.173 A 
ATOM     79  C   UNL     1      13.848  -1.175   0.835  1.00  0.00     0.173 A 
ATOM     80  F   UNL     1      16.311  -3.844   0.805  1.00  0.00    -0.203 F 
ATOM     81  C   UNL     1      15.485  -2.519  -0.957  1.00  0.00     0.198 A 
ATOM     82  C   UNL     1      13.827  -0.842  -0.518  1.00  0.00     0.198 A 
ATOM     83  F   UNL     1      13.057  -0.497   1.678  1.00  0.00    -0.203 F 
ATOM     84  F   UNL     1      16.306  -3.145  -1.812  1.00  0.00    -0.200 F 
ATOM     85  C   UNL     1      14.651  -1.509  -1.412  1.00  0.00     0.200 A 
ATOM     86  F   UNL     1      13.012   0.128  -0.955  1.00  0.00    -0.200 F 
ATOM     87  F   UNL     1      14.647  -1.174  -2.709  1.00  0.00    -0.200 F 
ENDBRANCH  53  77
BRANCH  65  88
ATOM     88  C   UNL     1      19.564  -1.762   6.283  1.00  0.00     0.064 A 
ATOM     89  C   UNL     1      19.855  -0.392   6.217  1.00  0.00     0.173 A 
ATOM     90  C   UNL     1      20.636  -2.653   6.450  1.00  0.00     0.173 A 
ATOM     91  F   UNL     1      18.868   0.501   6.049  1.00  0.00    -0.203 F 
ATOM     92  C   UNL     1      21.168   0.066   6.304  1.00  0.00     0.198 A 
ATOM     93  C   UNL     1      21.943  -2.190   6.570  1.00  0.00     0.198 A 
ATOM     94  F   UNL     1      20.412  -3.974   6.532  1.00  0.00    -0.203 F 
ATOM     95  F   UNL     1      21.425   1.378   6.205  1.00  0.00    -0.200 F 
ATOM     96  C   UNL     1      22.208  -0.831   6.493  1.00  0.00     0.200 A 
ATOM     97  F   UNL     1      22.945  -3.057   6.774  1.00  0.00    -0.200 F 
ATOM     98  F   UNL     1      23.468  -0.386   6.599  1.00  0.00    -0.200 F 
ENDBRANCH  65  88
ENDBRANCH  39  40
ENDBRANCH  32  34
ENDBRANCH  31  32
ENDBRANCH  30  31
ENDBRANCH  29  30
ENDBRANCH  28  29
ENDBRANCH  27  28
ENDBRANCH   1  27
TORSDOF 21
