REMARK SMILES CC[C@@H]1C=CC[C@@H]2C(=O)N(CCCC(=O)OCCOCCOCCOCCOC(=O)c3ccc(-c4c5nc(c(-c6c(F)c(F)c(F)c(F)c6F)c6ccc([nH]6)c(-c6c(F)c(F)c(F)c(F)c6F)c6nc(c(-c7c(F)c(F)c(F)c(F)c7F)c7ccc4[nH]7)C=C6)C=C5)cc3)C(=O)[C@@H]21
REMARK SMILES IDX 21 1 20 2 19 3 18 4 17 5 16 6 14 7 15 8 13 9 12 10 11 11
REMARK SMILES IDX 10 12 3 13 4 14 96 15 5 16 7 17 94 18 6 19 8 20 95 21 9 22
REMARK SMILES IDX 2 23 1 24 22 25 23 26 24 27 25 28 26 29 27 30 28 31 29 32
REMARK SMILES IDX 30 33 31 34 32 35 93 36 33 37 92 38 34 39 35 40 36 41 86 42
REMARK SMILES IDX 37 43 91 44 85 45 87 46 38 47 90 48 84 49 83 50 39 52 71 53
REMARK SMILES IDX 51 54 70 55 52 56 55 57 69 58 88 59 53 60 54 61 68 63 89 64
REMARK SMILES IDX 56 65 40 66 41 67 49 68 42 69 43 70 47 71 50 72 44 73 45 74
REMARK SMILES IDX 48 75 46 76 72 77 73 78 81 79 74 80 75 81 79 82 82 83 76 84
REMARK SMILES IDX 77 85 80 86 78 87 57 88 58 89 66 90 59 91 60 92 64 93 67 94
REMARK SMILES IDX 61 95 62 96 65 97 63 98
REMARK H PARENT 87 51 55 62
REMARK Flexibility Score: inf
ROOT
ATOM      1  C   UNL     1       2.419   2.001   9.210  1.00  0.00     0.188 C 
ENDROOT
BRANCH   1   2
ATOM      2  C   UNL     1       2.175   3.518   9.279  1.00  0.00     0.188 C 
BRANCH   2   3
ATOM      3  O   UNL     1       0.958   3.876   9.894  1.00  0.00    -0.376 OA
BRANCH   3   4
ATOM      4  C   UNL     1      -0.163   4.248   9.112  1.00  0.00     0.202 C 
BRANCH   4   5
ATOM      5  C   UNL     1      -0.480   3.640   7.736  1.00  0.00     0.261 C 
BRANCH   5   6
ATOM      6  O   UNL     1       0.489   2.739   7.202  1.00  0.00    -0.463 OA
BRANCH   6   7
ATOM      7  C   UNL     1       1.224   3.167   6.156  1.00  0.00     0.305 C 
ATOM      8  O   UNL     1       1.223   4.316   5.728  1.00  0.00    -0.252 OA
BRANCH   7   9
ATOM      9  C   UNL     1       2.163   2.108   5.612  1.00  0.00     0.124 C 
BRANCH   9  10
ATOM     10  C   UNL     1       2.056   0.623   6.003  1.00  0.00     0.034 C 
BRANCH  10  11
ATOM     11  C   UNL     1       0.670  -0.008   6.205  1.00  0.00     0.129 C 
BRANCH  11  12
ATOM     12  N   UNL     1       0.022  -0.152   4.925  1.00  0.00    -0.282 N 
ATOM     13  C   UNL     1       1.132  -1.178   2.039  1.00  0.00     0.024 C 
ATOM     14  C   UNL     1       1.985   0.066   2.126  1.00  0.00    -0.027 C 
ATOM     15  C   UNL     1      -0.226  -1.016   2.787  1.00  0.00     0.099 C 
ATOM     16  C   UNL     1       1.429   1.280   2.026  1.00  0.00    -0.030 C 
ATOM     17  C   UNL     1      -0.792   0.423   2.821  1.00  0.00     0.096 C 
ATOM     18  C   UNL     1      -0.055  -1.326   4.252  1.00  0.00     0.233 C 
ATOM     19  C   UNL     1      -0.060   1.443   1.944  1.00  0.00     0.041 C 
ATOM     20  C   UNL     1      -0.609   0.847   4.258  1.00  0.00     0.233 C 
ATOM     21  O   UNL     1       0.018  -2.448   4.731  1.00  0.00    -0.274 OA
ATOM     22  O   UNL     1      -0.971   1.918   4.719  1.00  0.00    -0.274 OA
BRANCH  13  23
ATOM     23  C   UNL     1       1.882  -2.480   2.418  1.00  0.00     0.005 C 
ATOM     24  C   UNL     1       3.218  -2.685   1.716  1.00  0.00     0.004 C 
ENDBRANCH  13  23
ENDBRANCH  11  12
ENDBRANCH  10  11
ENDBRANCH   9  10
ENDBRANCH   7   9
ENDBRANCH   6   7
ENDBRANCH   5   6
ENDBRANCH   4   5
ENDBRANCH   3   4
ENDBRANCH   2   3
ENDBRANCH   1   2
BRANCH   1  25
ATOM     25  O   UNL     1       1.310   1.112   9.263  1.00  0.00    -0.377 OA
BRANCH  25  26
ATOM     26  C   UNL     1       0.426   1.153  10.384  1.00  0.00     0.188 C 
BRANCH  26  27
ATOM     27  C   UNL     1       0.872   1.763  11.733  1.00  0.00     0.188 C 
BRANCH  27  28
ATOM     28  O   UNL     1       2.267   1.956  11.874  1.00  0.00    -0.376 OA
BRANCH  28  29
ATOM     29  C   UNL     1       3.010   0.970  12.574  1.00  0.00     0.202 C 
BRANCH  29  30
ATOM     30  C   UNL     1       2.975  -0.468  12.034  1.00  0.00     0.261 C 
BRANCH  30  31
ATOM     31  O   UNL     1       1.680  -1.085  11.963  1.00  0.00    -0.460 OA
BRANCH  31  32
ATOM     32  C   UNL     1       0.985  -1.209  13.116  1.00  0.00     0.338 C 
ATOM     33  O   UNL     1       1.335  -0.891  14.232  1.00  0.00    -0.246 OA
BRANCH  32  34
ATOM     34  C   UNL     1      -0.380  -1.646  12.761  1.00  0.00     0.060 A 
ATOM     35  C   UNL     1      -1.462  -0.803  13.045  1.00  0.00     0.016 A 
ATOM     36  C   UNL     1      -0.584  -2.890  12.162  1.00  0.00     0.016 A 
ATOM     37  C   UNL     1      -2.762  -1.222  12.766  1.00  0.00     0.010 A 
ATOM     38  C   UNL     1      -1.887  -3.317  11.901  1.00  0.00     0.010 A 
ATOM     39  C   UNL     1      -2.982  -2.501  12.238  1.00  0.00    -0.014 A 
BRANCH  39  40
ATOM     40  C   UNL     1      -4.351  -3.066  12.234  1.00  0.00     0.031 A 
ATOM     41  C   UNL     1      -4.746  -3.980  13.360  1.00  0.00     0.074 A 
ATOM     42  C   UNL     1      -5.233  -2.763  11.268  1.00  0.00     0.049 A 
ATOM     43  N   UNL     1      -5.865  -4.628  13.558  1.00  0.00    -0.248 NA
ATOM     44  C   UNL     1      -3.733  -4.193  14.406  1.00  0.00     0.031 C 
ATOM     45  C   UNL     1      -4.985  -1.851  10.155  1.00  0.00     0.029 A 
ATOM     46  N   UNL     1      -6.518  -3.200  11.071  1.00  0.00    -0.354 N 
ATOM     47  C   UNL     1      -5.686  -5.334  14.741  1.00  0.00     0.074 A 
ATOM     48  C   UNL     1      -4.339  -5.063  15.196  1.00  0.00     0.031 C 
ATOM     49  C   UNL     1      -6.086  -1.798   9.386  1.00  0.00     0.029 A 
ATOM     50  C   UNL     1      -7.099  -2.701   9.932  1.00  0.00     0.049 A 
ATOM     51  H   UNL     1      -6.980  -3.814  11.687  1.00  0.00     0.167 HD
ATOM     52  C   UNL     1      -6.567  -6.130  15.393  1.00  0.00     0.037 A 
ATOM     53  C   UNL     1      -8.304  -2.961   9.389  1.00  0.00     0.037 A 
ATOM     54  C   UNL     1      -7.901  -6.404  14.927  1.00  0.00     0.049 A 
ATOM     55  C   UNL     1      -9.234  -3.926  10.079  1.00  0.00     0.074 A 
ATOM     56  C   UNL     1      -8.881  -7.180  15.519  1.00  0.00     0.029 A 
ATOM     57  N   UNL     1      -8.435  -5.923  13.739  1.00  0.00    -0.354 N 
ATOM     58  N   UNL     1      -9.073  -4.569  11.211  1.00  0.00    -0.248 NA
ATOM     59  C   UNL     1     -10.515  -4.199   9.414  1.00  0.00     0.031 C 
ATOM     60  C   UNL     1      -9.981  -7.227  14.656  1.00  0.00     0.029 A 
ATOM     61  C   UNL     1      -9.718  -6.419  13.561  1.00  0.00     0.049 A 
ATOM     62  H   UNL     1      -7.972  -5.320  13.114  1.00  0.00     0.167 HD
ATOM     63  C   UNL     1     -10.242  -5.295  11.411  1.00  0.00     0.074 A 
ATOM     64  C   UNL     1     -11.107  -5.004  10.286  1.00  0.00     0.031 C 
ATOM     65  C   UNL     1     -10.570  -6.122  12.435  1.00  0.00     0.037 A 
BRANCH  52  66
ATOM     66  C   UNL     1      -6.086  -6.798  16.651  1.00  0.00     0.064 A 
ATOM     67  C   UNL     1      -5.783  -6.070  17.812  1.00  0.00     0.173 A 
ATOM     68  C   UNL     1      -5.910  -8.190  16.688  1.00  0.00     0.173 A 
ATOM     69  F   UNL     1      -5.919  -4.736  17.829  1.00  0.00    -0.203 F 
ATOM     70  C   UNL     1      -5.274  -6.704  18.944  1.00  0.00     0.198 A 
ATOM     71  C   UNL     1      -5.439  -8.824  17.834  1.00  0.00     0.198 A 
ATOM     72  F   UNL     1      -6.190  -8.937  15.610  1.00  0.00    -0.203 F 
ATOM     73  F   UNL     1      -4.919  -5.978  20.013  1.00  0.00    -0.200 F 
ATOM     74  C   UNL     1      -5.107  -8.080  18.956  1.00  0.00     0.200 A 
ATOM     75  F   UNL     1      -5.293 -10.157  17.848  1.00  0.00    -0.200 F 
ATOM     76  F   UNL     1      -4.612  -8.688  20.043  1.00  0.00    -0.200 F 
ENDBRANCH  52  66
BRANCH  53  77
ATOM     77  C   UNL     1      -8.703  -2.290   8.124  1.00  0.00     0.064 A 
ATOM     78  C   UNL     1      -9.729  -1.335   8.110  1.00  0.00     0.173 A 
ATOM     79  C   UNL     1      -8.065  -2.580   6.909  1.00  0.00     0.173 A 
ATOM     80  F   UNL     1     -10.387  -1.044   9.241  1.00  0.00    -0.203 F 
ATOM     81  C   UNL     1     -10.108  -0.703   6.928  1.00  0.00     0.198 A 
ATOM     82  C   UNL     1      -8.425  -1.926   5.732  1.00  0.00     0.198 A 
ATOM     83  F   UNL     1      -7.081  -3.490   6.866  1.00  0.00    -0.203 F 
ATOM     84  F   UNL     1     -11.117   0.178   6.936  1.00  0.00    -0.200 F 
ATOM     85  C   UNL     1      -9.449  -0.991   5.742  1.00  0.00     0.200 A 
ATOM     86  F   UNL     1      -7.778  -2.199   4.591  1.00  0.00    -0.200 F 
ATOM     87  F   UNL     1      -9.806  -0.374   4.607  1.00  0.00    -0.200 F 
ENDBRANCH  53  77
BRANCH  65  88
ATOM     88  C   UNL     1     -11.940  -6.743  12.415  1.00  0.00     0.064 A 
ATOM     89  C   UNL     1     -12.295  -7.730  11.483  1.00  0.00     0.173 A 
ATOM     90  C   UNL     1     -12.900  -6.373  13.371  1.00  0.00     0.173 A 
ATOM     91  F   UNL     1     -11.422  -8.112  10.539  1.00  0.00    -0.203 F 
ATOM     92  C   UNL     1     -13.565  -8.302  11.492  1.00  0.00     0.198 A 
ATOM     93  C   UNL     1     -14.156  -6.973  13.400  1.00  0.00     0.198 A 
ATOM     94  F   UNL     1     -12.613  -5.440  14.292  1.00  0.00    -0.203 F 
ATOM     95  F   UNL     1     -13.899  -9.204  10.559  1.00  0.00    -0.200 F 
ATOM     96  C   UNL     1     -14.491  -7.929  12.455  1.00  0.00     0.200 A 
ATOM     97  F   UNL     1     -15.041  -6.624  14.344  1.00  0.00    -0.200 F 
ATOM     98  F   UNL     1     -15.709  -8.488  12.468  1.00  0.00    -0.200 F 
ENDBRANCH  65  88
ENDBRANCH  39  40
ENDBRANCH  32  34
ENDBRANCH  31  32
ENDBRANCH  30  31
ENDBRANCH  29  30
ENDBRANCH  28  29
ENDBRANCH  27  28
ENDBRANCH  26  27
ENDBRANCH  25  26
ENDBRANCH   1  25
TORSDOF 24
