REMARK SMILES COC(=O)c1ccc(Cl)c(-c2ccc(C(=O)OCCOCCOCCOCCOC(=O)c3ccc(-c4c5nc(c(-c6c(F)c(F)c(F)c(F)c6F)c6ccc([nH]6)c(-c6c(F)c(F)c(F)c(F)c6F)c6nc(c(-c7c(F)c(F)c(F)c(F)c7F)c7ccc4[nH]7)C=C6)C=C5)cc3)c(F)c2)c1
REMARK SMILES IDX 22 1 21 2 20 3 19 4 18 5 17 6 15 7 16 8 14 9 11 10 12 11
REMARK SMILES IDX 97 12 13 13 95 14 96 15 10 16 5 17 6 18 98 19 7 20 8 21 9 22
REMARK SMILES IDX 3 23 4 24 2 25 1 26 23 27 24 28 25 29 26 30 27 31 28 32
REMARK SMILES IDX 29 33 30 34 31 35 32 36 33 37 94 38 34 39 93 40 35 41 36 42
REMARK SMILES IDX 37 43 87 44 38 45 92 46 86 47 88 48 39 49 91 50 85 51 84 52
REMARK SMILES IDX 40 54 72 55 52 56 71 57 53 58 56 59 70 60 89 61 54 62 55 63
REMARK SMILES IDX 69 65 90 66 57 67 41 68 42 69 50 70 43 71 44 72 48 73 51 74
REMARK SMILES IDX 45 75 46 76 49 77 47 78 73 79 74 80 82 81 75 82 76 83 80 84
REMARK SMILES IDX 83 85 77 86 78 87 81 88 79 89 58 90 59 91 67 92 60 93 61 94
REMARK SMILES IDX 65 95 68 96 62 97 63 98 66 99 64 100
REMARK H PARENT 88 53 56 64
REMARK Flexibility Score: inf
ROOT
ATOM      1  C   UNL     1       3.597  -3.654  10.882  1.00  0.00     0.188 C 
ENDROOT
BRANCH   1   2
ATOM      2  C   UNL     1       4.004  -5.141  10.985  1.00  0.00     0.188 C 
BRANCH   2   3
ATOM      3  O   UNL     1       5.238  -5.359  11.648  1.00  0.00    -0.376 OA
BRANCH   3   4
ATOM      4  C   UNL     1       6.352  -5.811  10.903  1.00  0.00     0.202 C 
BRANCH   4   5
ATOM      5  C   UNL     1       6.869  -4.942   9.748  1.00  0.00     0.261 C 
BRANCH   5   6
ATOM      6  O   UNL     1       5.861  -4.338   8.934  1.00  0.00    -0.460 OA
BRANCH   6   7
ATOM      7  C   UNL     1       5.273  -5.122   8.008  1.00  0.00     0.341 C 
ATOM      8  O   UNL     1       5.508  -6.299   7.795  1.00  0.00    -0.246 OA
BRANCH   7   9
ATOM      9  C   UNL     1       4.122  -4.397   7.439  1.00  0.00     0.095 A 
ATOM     10  C   UNL     1       1.907  -3.101   6.292  1.00  0.00    -0.014 A 
ATOM     11  C   UNL     1       1.800  -4.424   6.747  1.00  0.00     0.010 A 
ATOM     12  C   UNL     1       3.116  -2.413   6.501  1.00  0.00     0.049 A 
ATOM     13  C   UNL     1       2.902  -5.073   7.310  1.00  0.00     0.019 A 
ATOM     14  C   UNL     1       4.214  -3.061   7.063  1.00  0.00     0.138 A 
ATOM     15  F   UNL     1       5.364  -2.382   7.177  1.00  0.00    -0.206 F 
BRANCH  10  16
ATOM     16  C   UNL     1       0.870  -2.519   5.426  1.00  0.00     0.001 A 
ATOM     17  C   UNL     1       0.331  -1.764   3.156  1.00  0.00     0.060 A 
ATOM     18  C   UNL     1      -0.978  -1.484   3.547  1.00  0.00     0.017 A 
ATOM     19  C   UNL     1       1.234  -2.284   4.086  1.00  0.00     0.026 A 
ATOM     20  C   UNL     1      -1.367  -1.722   4.870  1.00  0.00     0.022 A 
ATOM     21  C   UNL     1      -0.451  -2.230   5.806  1.00  0.00     0.048 A 
ATOM     22  Cl  UNL     1      -1.009  -2.470   7.424  1.00  0.00    -0.084 Cl
BRANCH  17  23
ATOM     23  C   UNL     1       0.832  -1.551   1.781  1.00  0.00     0.337 C 
ATOM     24  O   UNL     1       1.720  -2.223   1.283  1.00  0.00    -0.246 OA
BRANCH  23  25
ATOM     25  O   UNL     1       0.244  -0.459   1.239  1.00  0.00    -0.465 OA
ATOM     26  C   UNL     1       0.818  -0.077  -0.012  1.00  0.00     0.282 C 
ENDBRANCH  23  25
ENDBRANCH  17  23
ENDBRANCH  10  16
ENDBRANCH   7   9
ENDBRANCH   6   7
ENDBRANCH   5   6
ENDBRANCH   4   5
ENDBRANCH   3   4
ENDBRANCH   2   3
ENDBRANCH   1   2
BRANCH   1  27
ATOM     27  O   UNL     1       4.528  -2.638  11.232  1.00  0.00    -0.377 OA
BRANCH  27  28
ATOM     28  C   UNL     1       5.324  -2.776  12.406  1.00  0.00     0.188 C 
BRANCH  28  29
ATOM     29  C   UNL     1       4.800  -3.545  13.643  1.00  0.00     0.188 C 
BRANCH  29  30
ATOM     30  O   UNL     1       3.462  -3.996  13.533  1.00  0.00    -0.376 OA
BRANCH  30  31
ATOM     31  C   UNL     1       2.474  -3.323  14.293  1.00  0.00     0.202 C 
BRANCH  31  32
ATOM     32  C   UNL     1       2.248  -1.835  13.993  1.00  0.00     0.261 C 
BRANCH  32  33
ATOM     33  O   UNL     1       3.414  -0.998  14.015  1.00  0.00    -0.460 OA
BRANCH  33  34
ATOM     34  C   UNL     1       4.029  -0.817  15.201  1.00  0.00     0.338 C 
ATOM     35  O   UNL     1       3.711  -1.286  16.282  1.00  0.00    -0.246 OA
BRANCH  34  36
ATOM     36  C   UNL     1       5.284  -0.084  14.941  1.00  0.00     0.060 A 
ATOM     37  C   UNL     1       6.510  -0.688  15.250  1.00  0.00     0.016 A 
ATOM     38  C   UNL     1       5.244   1.192  14.376  1.00  0.00     0.016 A 
ATOM     39  C   UNL     1       7.702   0.000  15.024  1.00  0.00     0.010 A 
ATOM     40  C   UNL     1       6.436   1.889  14.171  1.00  0.00     0.010 A 
ATOM     41  C   UNL     1       7.667   1.309  14.525  1.00  0.00    -0.014 A 
BRANCH  41  42
ATOM     42  C   UNL     1       8.889   2.147  14.559  1.00  0.00     0.031 A 
ATOM     43  C   UNL     1       9.065   3.103  15.704  1.00  0.00     0.074 A 
ATOM     44  C   UNL     1       9.831   2.054  13.605  1.00  0.00     0.049 A 
ATOM     45  N   UNL     1      10.014   3.977  15.923  1.00  0.00    -0.248 NA
ATOM     46  C   UNL     1       8.023   3.071  16.743  1.00  0.00     0.031 C 
ATOM     47  C   UNL     1       9.798   1.129  12.476  1.00  0.00     0.029 A 
ATOM     48  N   UNL     1      10.999   2.755  13.438  1.00  0.00    -0.354 N 
ATOM     49  C   UNL     1       9.682   4.596  17.120  1.00  0.00     0.074 A 
ATOM     50  C   UNL     1       8.426   4.031  17.560  1.00  0.00     0.031 C 
ATOM     51  C   UNL     1      10.898   1.321  11.728  1.00  0.00     0.029 A 
ATOM     52  C   UNL     1      11.691   2.407  12.305  1.00  0.00     0.049 A 
ATOM     53  H   UNL     1      11.311   3.442  14.071  1.00  0.00     0.167 HD
ATOM     54  C   UNL     1      10.373   5.542  17.799  1.00  0.00     0.037 A 
ATOM     55  C   UNL     1      12.824   2.921  11.786  1.00  0.00     0.037 A 
ATOM     56  C   UNL     1      11.618   6.107  17.351  1.00  0.00     0.049 A 
ATOM     57  C   UNL     1      13.528   4.043  12.505  1.00  0.00     0.074 A 
ATOM     58  C   UNL     1      12.399   7.067  17.968  1.00  0.00     0.029 A 
ATOM     59  N   UNL     1      12.260   5.769  16.167  1.00  0.00    -0.354 N 
ATOM     60  N   UNL     1      13.216   4.622  13.639  1.00  0.00    -0.248 NA
ATOM     61  C   UNL     1      14.739   4.584  11.871  1.00  0.00     0.031 C 
ATOM     62  C   UNL     1      13.477   7.358  17.128  1.00  0.00     0.029 A 
ATOM     63  C   UNL     1      13.411   6.526  16.021  1.00  0.00     0.049 A 
ATOM     64  H   UNL     1      11.944   5.091  15.527  1.00  0.00     0.167 HD
ATOM     65  C   UNL     1      14.202   5.574  13.869  1.00  0.00     0.074 A 
ATOM     66  C   UNL     1      15.128   5.490  12.758  1.00  0.00     0.031 C 
ATOM     67  C   UNL     1      14.328   6.434  14.911  1.00  0.00     0.037 A 
BRANCH  54  68
ATOM     68  C   UNL     1       9.782   6.042  19.085  1.00  0.00     0.064 A 
ATOM     69  C   UNL     1       9.319   7.363  19.189  1.00  0.00     0.173 A 
ATOM     70  C   UNL     1       9.700   5.229  20.226  1.00  0.00     0.173 A 
ATOM     71  F   UNL     1       9.376   8.185  18.130  1.00  0.00    -0.203 F 
ATOM     72  C   UNL     1       8.803   7.851  20.386  1.00  0.00     0.198 A 
ATOM     73  C   UNL     1       9.150   5.710  21.412  1.00  0.00     0.198 A 
ATOM     74  F   UNL     1      10.114   3.953  20.178  1.00  0.00    -0.203 F 
ATOM     75  F   UNL     1       8.394   9.125  20.467  1.00  0.00    -0.200 F 
ATOM     76  C   UNL     1       8.711   7.022  21.494  1.00  0.00     0.200 A 
ATOM     77  F   UNL     1       9.033   4.898  22.472  1.00  0.00    -0.200 F 
ATOM     78  F   UNL     1       8.193   7.487  22.639  1.00  0.00    -0.200 F 
ENDBRANCH  54  68
BRANCH  55  79
ATOM     79  C   UNL     1      13.365   2.353  10.524  1.00  0.00     0.064 A 
ATOM     80  C   UNL     1      12.698   2.522   9.302  1.00  0.00     0.173 A 
ATOM     81  C   UNL     1      14.534   1.581  10.528  1.00  0.00     0.173 A 
ATOM     82  F   UNL     1      11.578   3.257   9.244  1.00  0.00    -0.203 F 
ATOM     83  C   UNL     1      13.160   1.910   8.139  1.00  0.00     0.198 A 
ATOM     84  C   UNL     1      15.010   0.990   9.359  1.00  0.00     0.198 A 
ATOM     85  F   UNL     1      15.222   1.413  11.667  1.00  0.00    -0.203 F 
ATOM     86  F   UNL     1      12.479   2.051   6.993  1.00  0.00    -0.200 F 
ATOM     87  C   UNL     1      14.316   1.144   8.168  1.00  0.00     0.200 A 
ATOM     88  F   UNL     1      16.140   0.270   9.387  1.00  0.00    -0.200 F 
ATOM     89  F   UNL     1      14.760   0.554   7.050  1.00  0.00    -0.200 F 
ENDBRANCH  55  79
BRANCH  67  90
ATOM     90  C   UNL     1      15.520   7.350  14.930  1.00  0.00     0.064 A 
ATOM     91  C   UNL     1      16.517   7.194  15.908  1.00  0.00     0.173 A 
ATOM     92  C   UNL     1      15.628   8.438  14.053  1.00  0.00     0.173 A 
ATOM     93  F   UNL     1      16.456   6.176  16.779  1.00  0.00    -0.203 F 
ATOM     94  C   UNL     1      17.562   8.106  16.020  1.00  0.00     0.198 A 
ATOM     95  C   UNL     1      16.694   9.331  14.148  1.00  0.00     0.198 A 
ATOM     96  F   UNL     1      14.709   8.627  13.094  1.00  0.00    -0.203 F 
ATOM     97  F   UNL     1      18.474   7.963  16.992  1.00  0.00    -0.200 F 
ATOM     98  C   UNL     1      17.652   9.172  15.138  1.00  0.00     0.200 A 
ATOM     99  F   UNL     1      16.793  10.347  13.279  1.00  0.00    -0.200 F 
ATOM    100  F   UNL     1      18.661  10.047  15.243  1.00  0.00    -0.200 F 
ENDBRANCH  67  90
ENDBRANCH  41  42
ENDBRANCH  34  36
ENDBRANCH  33  34
ENDBRANCH  32  33
ENDBRANCH  31  32
ENDBRANCH  30  31
ENDBRANCH  29  30
ENDBRANCH  28  29
ENDBRANCH  27  28
ENDBRANCH   1  27
TORSDOF 23
