REMARK SMILES Nc1ccc(SCc2ccc(C(=O)OCCOCCOCCOCCOC(=O)c3ccc(-c4c5nc(c(-c6c(F)c(F)c(F)c(F)c6F)c6ccc([nH]6)c(-c6c(F)c(F)c(F)c(F)c6F)c6nc(c(-c7c(F)c(F)c(F)c(F)c7F)c7ccc4[nH]7)C=C6)C=C5)cc3)o2)cc1
REMARK SMILES IDX 19 1 18 2 17 3 16 4 15 5 14 6 12 7 13 8 11 9 8 10 9 11 92 12
REMARK SMILES IDX 10 13 7 14 6 15 5 16 2 17 3 18 94 19 4 20 93 21 1 22 20 25
REMARK SMILES IDX 21 26 22 27 23 28 24 29 25 30 26 31 27 32 28 33 29 34 30 35
REMARK SMILES IDX 91 36 31 37 90 38 32 39 33 40 34 41 84 42 35 43 89 44 83 45
REMARK SMILES IDX 85 46 36 47 88 48 82 49 81 50 37 52 69 53 49 54 68 55 50 56
REMARK SMILES IDX 53 57 67 58 86 59 51 60 52 61 66 63 87 64 54 65 38 66 39 67
REMARK SMILES IDX 47 68 40 69 41 70 45 71 48 72 42 73 43 74 46 75 44 76 70 77
REMARK SMILES IDX 71 78 79 79 72 80 73 81 77 82 80 83 74 84 75 85 78 86 76 87
REMARK SMILES IDX 55 88 56 89 64 90 57 91 58 92 62 93 65 94 59 95 60 96 63 97
REMARK SMILES IDX 61 98
REMARK H PARENT 1 23 1 24 85 51 53 62
REMARK Flexibility Score: inf
ROOT
ATOM      1  C   UNL     1      -4.165   2.064   5.422  1.00  0.00     0.188 C 
ENDROOT
BRANCH   1   2
ATOM      2  C   UNL     1      -2.918   1.219   5.718  1.00  0.00     0.188 C 
BRANCH   2   3
ATOM      3  O   UNL     1      -2.148   1.700   6.822  1.00  0.00    -0.376 OA
BRANCH   3   4
ATOM      4  C   UNL     1      -0.835   2.143   6.498  1.00  0.00     0.202 C 
BRANCH   4   5
ATOM      5  C   UNL     1      -0.791   3.626   6.105  1.00  0.00     0.261 C 
BRANCH   5   6
ATOM      6  O   UNL     1      -1.559   3.954   4.939  1.00  0.00    -0.457 OA
BRANCH   6   7
ATOM      7  C   UNL     1      -1.169   3.374   3.772  1.00  0.00     0.374 C 
ATOM      8  O   UNL     1      -0.138   2.726   3.632  1.00  0.00    -0.242 OA
BRANCH   7   9
ATOM      9  C   UNL     1      -2.216   3.545   2.796  1.00  0.00     0.211 A 
ATOM     10  C   UNL     1      -3.518   2.856   1.146  1.00  0.00     0.115 A 
ATOM     11  C   UNL     1      -4.009   4.081   1.551  1.00  0.00     0.047 A 
ATOM     12  O   UNL     1      -2.419   2.544   1.891  1.00  0.00    -0.453 OA
ATOM     13  C   UNL     1      -3.184   4.517   2.617  1.00  0.00     0.058 A 
BRANCH  10  14
ATOM     14  C   UNL     1      -3.938   1.914   0.066  1.00  0.00     0.150 C 
BRANCH  14  15
ATOM     15  S   UNL     1      -3.477   0.165   0.294  1.00  0.00    -0.118 SA
BRANCH  15  16
ATOM     16  C   UNL     1      -1.708   0.119   0.016  1.00  0.00     0.008 A 
ATOM     17  C   UNL     1       1.109  -0.119  -0.162  1.00  0.00     0.031 A 
ATOM     18  C   UNL     1       0.314  -1.243   0.051  1.00  0.00     0.026 A 
ATOM     19  C   UNL     1       0.480   1.103  -0.383  1.00  0.00     0.026 A 
ATOM     20  C   UNL     1      -1.078  -1.123   0.159  1.00  0.00     0.017 A 
ATOM     21  C   UNL     1      -0.912   1.221  -0.301  1.00  0.00     0.017 A 
BRANCH  17  22
ATOM     22  N   UNL     1       2.485  -0.233  -0.291  1.00  0.00    -0.399 N 
ATOM     23  H   UNL     1       2.924  -1.100  -0.132  1.00  0.00     0.156 HD
ATOM     24  H   UNL     1       3.023   0.552  -0.541  1.00  0.00     0.156 HD
ENDBRANCH  17  22
ENDBRANCH  15  16
ENDBRANCH  14  15
ENDBRANCH  10  14
ENDBRANCH   7   9
ENDBRANCH   6   7
ENDBRANCH   5   6
ENDBRANCH   4   5
ENDBRANCH   3   4
ENDBRANCH   2   3
ENDBRANCH   1   2
BRANCH   1  25
ATOM     25  O   UNL     1      -4.328   3.238   6.199  1.00  0.00    -0.377 OA
BRANCH  25  26
ATOM     26  C   UNL     1      -4.538   3.117   7.603  1.00  0.00     0.188 C 
BRANCH  26  27
ATOM     27  C   UNL     1      -4.748   1.752   8.292  1.00  0.00     0.188 C 
BRANCH  27  28
ATOM     28  O   UNL     1      -5.467   0.796   7.522  1.00  0.00    -0.376 OA
BRANCH  28  29
ATOM     29  C   UNL     1      -6.795   0.515   7.945  1.00  0.00     0.202 C 
BRANCH  29  30
ATOM     30  C   UNL     1      -7.806   1.558   7.459  1.00  0.00     0.261 C 
BRANCH  30  31
ATOM     31  O   UNL     1      -7.644   2.853   8.060  1.00  0.00    -0.460 OA
BRANCH  31  32
ATOM     32  C   UNL     1      -7.811   2.920   9.398  1.00  0.00     0.338 C 
ATOM     33  O   UNL     1      -8.140   2.023  10.152  1.00  0.00    -0.246 OA
BRANCH  32  34
ATOM     34  C   UNL     1      -7.368   4.251   9.844  1.00  0.00     0.060 A 
ATOM     35  C   UNL     1      -6.403   4.333  10.854  1.00  0.00     0.016 A 
ATOM     36  C   UNL     1      -7.918   5.407   9.282  1.00  0.00     0.016 A 
ATOM     37  C   UNL     1      -6.016   5.582  11.338  1.00  0.00     0.010 A 
ATOM     38  C   UNL     1      -7.540   6.654   9.777  1.00  0.00     0.010 A 
ATOM     39  C   UNL     1      -6.615   6.743  10.831  1.00  0.00    -0.014 A 
BRANCH  39  40
ATOM     40  C   UNL     1      -6.424   8.034  11.528  1.00  0.00     0.031 A 
ATOM     41  C   UNL     1      -7.418   8.428  12.583  1.00  0.00     0.074 A 
ATOM     42  C   UNL     1      -5.394   8.842  11.226  1.00  0.00     0.049 A 
ATOM     43  N   UNL     1      -7.474   9.514  13.310  1.00  0.00    -0.248 NA
ATOM     44  C   UNL     1      -8.500   7.466  12.851  1.00  0.00     0.031 C 
ATOM     45  C   UNL     1      -4.361   8.562  10.233  1.00  0.00     0.029 A 
ATOM     46  N   UNL     1      -5.061  10.076  11.726  1.00  0.00    -0.354 N 
ATOM     47  C   UNL     1      -8.589   9.363  14.123  1.00  0.00     0.074 A 
ATOM     48  C   UNL     1      -9.201   8.098  13.780  1.00  0.00     0.031 C 
ATOM     49  C   UNL     1      -3.512   9.604  10.185  1.00  0.00     0.029 A 
ATOM     50  C   UNL     1      -3.956  10.629  11.130  1.00  0.00     0.049 A 
ATOM     51  H   UNL     1      -5.567  10.522  12.443  1.00  0.00     0.167 HD
ATOM     52  C   UNL     1      -9.055  10.200  15.079  1.00  0.00     0.037 A 
ATOM     53  C   UNL     1      -3.382  11.832  11.320  1.00  0.00     0.037 A 
ATOM     54  C   UNL     1      -8.457  11.463  15.411  1.00  0.00     0.049 A 
ATOM     55  C   UNL     1      -3.959  12.775  12.345  1.00  0.00     0.074 A 
ATOM     56  C   UNL     1      -8.840  12.372  16.381  1.00  0.00     0.029 A 
ATOM     57  N   UNL     1      -7.351  12.001  14.770  1.00  0.00    -0.354 N 
ATOM     58  N   UNL     1      -4.984  12.605  13.144  1.00  0.00    -0.248 NA
ATOM     59  C   UNL     1      -3.295  14.079  12.493  1.00  0.00     0.031 C 
ATOM     60  C   UNL     1      -7.990  13.481  16.298  1.00  0.00     0.029 A 
ATOM     61  C   UNL     1      -7.054  13.243  15.304  1.00  0.00     0.049 A 
ATOM     62  H   UNL     1      -6.852  11.564  14.042  1.00  0.00     0.167 HD
ATOM     63  C   UNL     1      -5.074  13.764  13.904  1.00  0.00     0.074 A 
ATOM     64  C   UNL     1      -3.992  14.627  13.478  1.00  0.00     0.031 C 
ATOM     65  C   UNL     1      -5.971  14.086  14.868  1.00  0.00     0.037 A 
BRANCH  52  66
ATOM     66  C   UNL     1     -10.287   9.775  15.817  1.00  0.00     0.064 A 
ATOM     67  C   UNL     1     -10.249   8.751  16.775  1.00  0.00     0.173 A 
ATOM     68  C   UNL     1     -11.515  10.406  15.573  1.00  0.00     0.173 A 
ATOM     69  F   UNL     1      -9.101   8.105  17.028  1.00  0.00    -0.203 F 
ATOM     70  C   UNL     1     -11.404   8.359  17.448  1.00  0.00     0.198 A 
ATOM     71  C   UNL     1     -12.663  10.027  16.264  1.00  0.00     0.198 A 
ATOM     72  F   UNL     1     -11.602  11.389  14.664  1.00  0.00    -0.203 F 
ATOM     73  F   UNL     1     -11.354   7.350  18.328  1.00  0.00    -0.200 F 
ATOM     74  C   UNL     1     -12.607   9.000  17.195  1.00  0.00     0.200 A 
ATOM     75  F   UNL     1     -13.824  10.650  16.023  1.00  0.00    -0.200 F 
ATOM     76  F   UNL     1     -13.718   8.622  17.844  1.00  0.00    -0.200 F 
ENDBRANCH  52  66
BRANCH  53  77
ATOM     77  C   UNL     1      -2.194  12.222  10.520  1.00  0.00     0.064 A 
ATOM     78  C   UNL     1      -0.928  12.322  11.111  1.00  0.00     0.173 A 
ATOM     79  C   UNL     1      -2.305  12.522   9.155  1.00  0.00     0.173 A 
ATOM     80  F   UNL     1      -0.779  12.072  12.420  1.00  0.00    -0.203 F 
ATOM     81  C   UNL     1       0.181  12.724  10.370  1.00  0.00     0.198 A 
ATOM     82  C   UNL     1      -1.191  12.902   8.409  1.00  0.00     0.198 A 
ATOM     83  F   UNL     1      -3.497  12.445   8.545  1.00  0.00    -0.203 F 
ATOM     84  F   UNL     1       1.373  12.854  10.968  1.00  0.00    -0.200 F 
ATOM     85  C   UNL     1       0.050  13.009   9.019  1.00  0.00     0.200 A 
ATOM     86  F   UNL     1      -1.321  13.169   7.103  1.00  0.00    -0.200 F 
ATOM     87  F   UNL     1       1.117  13.396   8.306  1.00  0.00    -0.200 F 
ENDBRANCH  53  77
BRANCH  65  88
ATOM     88  C   UNL     1      -5.809  15.416  15.543  1.00  0.00     0.064 A 
ATOM     89  C   UNL     1      -6.148  16.612  14.896  1.00  0.00     0.173 A 
ATOM     90  C   UNL     1      -5.354  15.489  16.868  1.00  0.00     0.173 A 
ATOM     91  F   UNL     1      -6.574  16.594  13.623  1.00  0.00    -0.203 F 
ATOM     92  C   UNL     1      -6.018  17.837  15.544  1.00  0.00     0.198 A 
ATOM     93  C   UNL     1      -5.250  16.714  17.522  1.00  0.00     0.198 A 
ATOM     94  F   UNL     1      -5.024  14.372  17.533  1.00  0.00    -0.203 F 
ATOM     95  F   UNL     1      -6.311  18.972  14.894  1.00  0.00    -0.200 F 
ATOM     96  C   UNL     1      -5.576  17.887  16.858  1.00  0.00     0.200 A 
ATOM     97  F   UNL     1      -4.833  16.759  18.795  1.00  0.00    -0.200 F 
ATOM     98  F   UNL     1      -5.458  19.066  17.483  1.00  0.00    -0.200 F 
ENDBRANCH  65  88
ENDBRANCH  39  40
ENDBRANCH  32  34
ENDBRANCH  31  32
ENDBRANCH  30  31
ENDBRANCH  29  30
ENDBRANCH  28  29
ENDBRANCH  27  28
ENDBRANCH  26  27
ENDBRANCH  25  26
ENDBRANCH   1  25
TORSDOF 24
