REMARK SMILES Cc1c(C[NH2+]Cc2cccc(F)c2)c(C(=O)OCCOCCOCCOCCOC(=O)c2ccc(-c3c4nc(c(-c5c(F)c(F)c(F)c(F)c5F)c5ccc([nH]5)c(-c5c(F)c(F)c(F)c(F)c5F)c5nc(c(-c6c(F)c(F)c(F)c(F)c6F)c6ccc3[nH]6)C=C5)C=C4)cc2)c(C)n1Cc1c(F)cccc1Cl
REMARK SMILES IDX 22 1 21 2 20 3 19 4 18 5 17 6 15 7 16 8 14 9 1 10 2 11 3 12
REMARK SMILES IDX 97 13 95 14 96 15 4 16 5 17 6 20 7 21 8 22 13 23 9 24 11 25
REMARK SMILES IDX 10 26 12 27 98 28 99 29 100 30 105 31 101 32 102 33 104 34
REMARK SMILES IDX 106 35 103 36 23 37 24 38 25 39 26 40 27 41 28 42 29 43
REMARK SMILES IDX 30 44 31 45 32 46 33 47 94 48 34 49 93 50 35 51 36 52 37 53
REMARK SMILES IDX 87 54 38 55 92 56 86 57 88 58 39 59 91 60 85 61 84 62 40 64
REMARK SMILES IDX 72 65 52 66 71 67 53 68 56 69 70 70 89 71 54 72 55 73 69 75
REMARK SMILES IDX 90 76 57 77 41 78 42 79 50 80 43 81 44 82 48 83 51 84 45 85
REMARK SMILES IDX 46 86 49 87 47 88 73 89 74 90 82 91 75 92 76 93 80 94 83 95
REMARK SMILES IDX 77 96 78 97 81 98 79 99 58 100 59 101 67 102 60 103 61 104
REMARK SMILES IDX 65 105 68 106 62 107 63 108 66 109 64 110
REMARK H PARENT 5 18 5 19 88 63 56 74
REMARK Flexibility Score: inf
ROOT
ATOM      1  C   UNL     1       1.195   4.036  -4.555  1.00  0.00     0.188 C 
ENDROOT
BRANCH   1   2
ATOM      2  C   UNL     1       0.022   3.734  -5.520  1.00  0.00     0.188 C 
BRANCH   2   3
ATOM      3  O   UNL     1      -0.532   4.895  -6.124  1.00  0.00    -0.376 OA
BRANCH   3   4
ATOM      4  C   UNL     1      -1.783   5.394  -5.673  1.00  0.00     0.202 C 
BRANCH   4   5
ATOM      5  C   UNL     1      -1.942   5.817  -4.206  1.00  0.00     0.261 C 
BRANCH   5   6
ATOM      6  O   UNL     1      -1.250   5.000  -3.267  1.00  0.00    -0.460 OA
BRANCH   6   7
ATOM      7  C   UNL     1      -1.838   3.884  -2.768  1.00  0.00     0.340 C 
ATOM      8  O   UNL     1      -2.996   3.551  -3.025  1.00  0.00    -0.246 OA
BRANCH   7   9
ATOM      9  C   UNL     1      -0.890   3.147  -1.919  1.00  0.00     0.089 A 
ATOM     10  C   UNL     1       1.004   0.298  -0.412  1.00  0.00     0.065 C 
ATOM     11  C   UNL     1       0.421   1.575  -0.927  1.00  0.00     0.025 A 
ATOM     12  C   UNL     1      -0.527   1.758  -1.940  1.00  0.00     0.042 A 
ATOM     13  N   UNL     1       0.791   2.825  -0.434  1.00  0.00    -0.343 N 
ATOM     14  C   UNL     1      -0.072   3.766  -0.972  1.00  0.00     0.030 A 
ATOM     15  C   UNL     1      -0.074   5.218  -0.629  1.00  0.00     0.065 C 
BRANCH  12  16
ATOM     16  C   UNL     1      -1.021   0.710  -2.911  1.00  0.00     0.300 C 
BRANCH  16  17
ATOM     17  N   UNL     1      -2.469   0.721  -2.956  1.00  0.00    -0.339 N 
ATOM     18  H   UNL     1      -2.769   1.626  -3.317  1.00  0.00     0.346 HD
ATOM     19  H   UNL     1      -2.789   0.544  -2.003  1.00  0.00     0.346 HD
BRANCH  17  20
ATOM     20  C   UNL     1      -3.057  -0.320  -3.789  1.00  0.00     0.297 C 
BRANCH  20  21
ATOM     21  C   UNL     1      -3.011  -1.734  -3.245  1.00  0.00     0.009 A 
ATOM     22  C   UNL     1      -2.648  -2.049  -1.924  1.00  0.00     0.010 A 
ATOM     23  C   UNL     1      -3.383  -2.789  -4.096  1.00  0.00     0.048 A 
ATOM     24  C   UNL     1      -2.603  -3.374  -1.483  1.00  0.00     0.004 A 
ATOM     25  C   UNL     1      -3.350  -4.105  -3.642  1.00  0.00     0.123 A 
ATOM     26  C   UNL     1      -2.952  -4.407  -2.347  1.00  0.00     0.039 A 
ATOM     27  F   UNL     1      -3.706  -5.096  -4.470  1.00  0.00    -0.207 F 
ENDBRANCH  20  21
ENDBRANCH  17  20
ENDBRANCH  16  17
ENDBRANCH  12  16
BRANCH  13  28
ATOM     28  C   UNL     1       1.789   3.074   0.635  1.00  0.00     0.162 C 
BRANCH  28  29
ATOM     29  C   UNL     1       3.176   3.493   0.180  1.00  0.00     0.026 A 
ATOM     30  C   UNL     1       3.406   4.786  -0.314  1.00  0.00     0.129 A 
ATOM     31  C   UNL     1       4.322   2.693   0.333  1.00  0.00     0.048 A 
ATOM     32  F   UNL     1       2.439   5.705  -0.281  1.00  0.00    -0.207 F 
ATOM     33  C   UNL     1       4.655   5.233  -0.749  1.00  0.00     0.040 A 
ATOM     34  C   UNL     1       5.595   3.146  -0.068  1.00  0.00     0.021 A 
ATOM     35  Cl  UNL     1       4.282   1.151   1.113  1.00  0.00    -0.084 Cl
ATOM     36  C   UNL     1       5.759   4.406  -0.635  1.00  0.00     0.005 A 
ENDBRANCH  28  29
ENDBRANCH  13  28
ENDBRANCH   7   9
ENDBRANCH   6   7
ENDBRANCH   5   6
ENDBRANCH   4   5
ENDBRANCH   3   4
ENDBRANCH   2   3
ENDBRANCH   1   2
BRANCH   1  37
ATOM     37  O   UNL     1       2.216   4.968  -4.912  1.00  0.00    -0.377 OA
BRANCH  37  38
ATOM     38  C   UNL     1       1.829   6.144  -5.597  1.00  0.00     0.188 C 
BRANCH  38  39
ATOM     39  C   UNL     1       2.095   6.091  -7.110  1.00  0.00     0.188 C 
BRANCH  39  40
ATOM     40  O   UNL     1       2.429   4.845  -7.698  1.00  0.00    -0.376 OA
BRANCH  40  41
ATOM     41  C   UNL     1       3.466   4.061  -7.117  1.00  0.00     0.202 C 
BRANCH  41  42
ATOM     42  C   UNL     1       4.930   4.597  -6.938  1.00  0.00     0.261 C 
BRANCH  42  43
ATOM     43  O   UNL     1       5.416   5.508  -5.869  1.00  0.00    -0.460 OA
BRANCH  43  44
ATOM     44  C   UNL     1       6.152   6.612  -6.275  1.00  0.00     0.338 C 
ATOM     45  O   UNL     1       5.960   7.145  -7.364  1.00  0.00    -0.246 OA
BRANCH  44  46
ATOM     46  C   UNL     1       7.240   7.222  -5.322  1.00  0.00     0.060 A 
ATOM     47  C   UNL     1       7.093   8.526  -4.868  1.00  0.00     0.016 A 
ATOM     48  C   UNL     1       8.556   6.736  -5.105  1.00  0.00     0.016 A 
ATOM     49  C   UNL     1       8.168   9.247  -4.181  1.00  0.00     0.010 A 
ATOM     50  C   UNL     1       9.688   7.521  -4.460  1.00  0.00     0.010 A 
ATOM     51  C   UNL     1       9.553   8.834  -3.961  1.00  0.00    -0.014 A 
BRANCH  51  52
ATOM     52  C   UNL     1      10.720  10.053  -3.551  1.00  0.00     0.031 A 
ATOM     53  C   UNL     1      10.099  11.226  -4.232  1.00  0.00     0.074 A 
ATOM     54  C   UNL     1      12.001  10.404  -2.998  1.00  0.00     0.049 A 
ATOM     55  N   UNL     1       9.880  11.145  -5.516  1.00  0.00    -0.248 NA
ATOM     56  C   UNL     1       9.325  12.268  -3.552  1.00  0.00     0.031 C 
ATOM     57  C   UNL     1      13.051   9.517  -2.439  1.00  0.00     0.029 A 
ATOM     58  N   UNL     1      12.727  11.682  -2.809  1.00  0.00    -0.354 N 
ATOM     59  C   UNL     1       9.221  12.286  -5.874  1.00  0.00     0.074 A 
ATOM     60  C   UNL     1       8.704  12.807  -4.612  1.00  0.00     0.031 C 
ATOM     61  C   UNL     1      14.109  10.197  -1.883  1.00  0.00     0.029 A 
ATOM     62  C   UNL     1      13.993  11.655  -2.036  1.00  0.00     0.049 A 
ATOM     63  H   UNL     1      12.381  12.523  -3.185  1.00  0.00     0.167 HD
ATOM     64  C   UNL     1       9.796  12.952  -6.915  1.00  0.00     0.037 A 
ATOM     65  C   UNL     1      14.928  12.658  -1.647  1.00  0.00     0.037 A 
ATOM     66  C   UNL     1      10.589  14.061  -6.462  1.00  0.00     0.049 A 
ATOM     67  C   UNL     1      14.806  13.723  -2.643  1.00  0.00     0.074 A 
ATOM     68  C   UNL     1      10.453  14.957  -5.418  1.00  0.00     0.029 A 
ATOM     69  N   UNL     1      11.928  14.035  -6.778  1.00  0.00    -0.354 N 
ATOM     70  N   UNL     1      15.360  13.610  -3.811  1.00  0.00    -0.248 NA
ATOM     71  C   UNL     1      14.227  15.027  -2.337  1.00  0.00     0.031 C 
ATOM     72  C   UNL     1      11.705  14.905  -4.772  1.00  0.00     0.029 A 
ATOM     73  C   UNL     1      12.639  14.398  -5.665  1.00  0.00     0.049 A 
ATOM     74  H   UNL     1      12.309  13.797  -7.654  1.00  0.00     0.167 HD
ATOM     75  C   UNL     1      14.703  14.553  -4.527  1.00  0.00     0.074 A 
ATOM     76  C   UNL     1      14.263  15.549  -3.565  1.00  0.00     0.031 C 
ATOM     77  C   UNL     1      14.029  14.058  -5.588  1.00  0.00     0.037 A 
BRANCH  64  78
ATOM     78  C   UNL     1      10.222  12.060  -8.061  1.00  0.00     0.064 A 
ATOM     79  C   UNL     1      11.170  11.016  -7.938  1.00  0.00     0.173 A 
ATOM     80  C   UNL     1       9.632  12.234  -9.314  1.00  0.00     0.173 A 
ATOM     81  F   UNL     1      11.950  10.909  -6.849  1.00  0.00    -0.203 F 
ATOM     82  C   UNL     1      11.383  10.098  -8.958  1.00  0.00     0.198 A 
ATOM     83  C   UNL     1       9.917  11.362 -10.367  1.00  0.00     0.198 A 
ATOM     84  F   UNL     1       8.804  13.267  -9.528  1.00  0.00    -0.203 F 
ATOM     85  F   UNL     1      12.222   9.070  -8.767  1.00  0.00    -0.200 F 
ATOM     86  C   UNL     1      10.756  10.273 -10.176  1.00  0.00     0.200 A 
ATOM     87  F   UNL     1       9.386  11.585 -11.577  1.00  0.00    -0.200 F 
ATOM     88  F   UNL     1      10.999   9.419 -11.180  1.00  0.00    -0.200 F 
ENDBRANCH  64  78
BRANCH  65  89
ATOM     89  C   UNL     1      16.217  13.098  -0.764  1.00  0.00     0.064 A 
ATOM     90  C   UNL     1      16.224  13.052   0.642  1.00  0.00     0.173 A 
ATOM     91  C   UNL     1      17.220  14.027  -1.268  1.00  0.00     0.173 A 
ATOM     92  F   UNL     1      15.351  12.264   1.282  1.00  0.00    -0.203 F 
ATOM     93  C   UNL     1      17.065  13.885   1.450  1.00  0.00     0.198 A 
ATOM     94  C   UNL     1      18.019  14.880  -0.467  1.00  0.00     0.198 A 
ATOM     95  F   UNL     1      17.419  14.196  -2.583  1.00  0.00    -0.203 F 
ATOM     96  F   UNL     1      16.978  13.826   2.788  1.00  0.00    -0.200 F 
ATOM     97  C   UNL     1      17.928  14.820   0.899  1.00  0.00     0.200 A 
ATOM     98  F   UNL     1      18.818  15.801  -1.035  1.00  0.00    -0.200 F 
ATOM     99  F   UNL     1      18.631  15.668   1.670  1.00  0.00    -0.200 F 
ENDBRANCH  65  89
BRANCH  77 100
ATOM    100  C   UNL     1      14.733  13.012  -6.428  1.00  0.00     0.064 A 
ATOM    101  C   UNL     1      14.951  13.330  -7.773  1.00  0.00     0.173 A 
ATOM    102  C   UNL     1      15.249  11.769  -5.990  1.00  0.00     0.173 A 
ATOM    103  F   UNL     1      14.455  14.473  -8.272  1.00  0.00    -0.203 F 
ATOM    104  C   UNL     1      15.642  12.477  -8.631  1.00  0.00     0.198 A 
ATOM    105  C   UNL     1      15.979  10.934  -6.841  1.00  0.00     0.198 A 
ATOM    106  F   UNL     1      15.049  11.315  -4.747  1.00  0.00    -0.203 F 
ATOM    107  F   UNL     1      15.779  12.810  -9.921  1.00  0.00    -0.200 F 
ATOM    108  C   UNL     1      16.171  11.288  -8.163  1.00  0.00     0.200 A 
ATOM    109  F   UNL     1      16.490   9.781  -6.380  1.00  0.00    -0.200 F 
ATOM    110  F   UNL     1      16.847  10.479  -8.990  1.00  0.00    -0.200 F 
ENDBRANCH  77 100
ENDBRANCH  51  52
ENDBRANCH  44  46
ENDBRANCH  43  44
ENDBRANCH  42  43
ENDBRANCH  41  42
ENDBRANCH  40  41
ENDBRANCH  39  40
ENDBRANCH  38  39
ENDBRANCH  37  38
ENDBRANCH   1  37
TORSDOF 26
