REMARK SMILES O=C(OCCOCCOCCOCCOC(=O)[C@H]1CC2(CC[NH+](C(=O)C3CC3)CC2)CN1C(=O)CCn1cccn1)c1ccc(-c2c3nc(c(-c4c(F)c(F)c(F)c(F)c4F)c4ccc([nH]4)c(-c4c(F)c(F)c(F)c(F)c4F)c4nc(c(-c5c(F)c(F)c(F)c(F)c5F)c5ccc2[nH]5)C=C4)C=C3)cc1
REMARK SMILES IDX 10 1 9 2 8 3 7 4 6 5 5 6 4 7 3 8 2 9 1 10 42 11 43 12 104 13
REMARK SMILES IDX 44 14 103 15 45 16 46 17 47 18 97 19 48 20 102 21 96 22
REMARK SMILES IDX 98 23 49 24 101 25 95 26 94 27 50 29 82 30 62 31 81 32 63 33
REMARK SMILES IDX 66 34 80 35 99 36 64 37 65 38 79 40 100 41 67 42 51 43 52 44
REMARK SMILES IDX 60 45 53 46 54 47 58 48 61 49 55 50 56 51 59 52 57 53 83 54
REMARK SMILES IDX 84 55 92 56 85 57 86 58 90 59 93 60 87 61 88 62 91 63 89 64
REMARK SMILES IDX 68 65 69 66 77 67 70 68 71 69 75 70 78 71 72 72 73 73 76 74
REMARK SMILES IDX 74 75 11 76 12 77 13 78 14 79 15 80 16 81 17 82 18 83 19 84
REMARK SMILES IDX 32 85 20 86 31 87 21 88 30 89 22 90 29 91 23 92 33 94 34 95
REMARK SMILES IDX 35 96 36 97 37 98 38 99 41 100 39 101 40 102 24 103 25 104
REMARK SMILES IDX 26 105 27 106 28 107
REMARK H PARENT 98 28 66 39 23 93
REMARK Flexibility Score: inf
ROOT
ATOM      1  C   UNL     1       3.090   6.322  -5.389  1.00  0.00     0.188 C 
ENDROOT
BRANCH   1   2
ATOM      2  O   UNL     1       2.605   7.466  -6.027  1.00  0.00    -0.377 OA
BRANCH   2   3
ATOM      3  C   UNL     1       2.158   7.204  -7.342  1.00  0.00     0.188 C 
BRANCH   3   4
ATOM      4  C   UNL     1       1.595   5.784  -7.646  1.00  0.00     0.188 C 
BRANCH   4   5
ATOM      5  O   UNL     1       2.535   4.800  -8.092  1.00  0.00    -0.376 OA
BRANCH   5   6
ATOM      6  C   UNL     1       3.109   3.761  -7.303  1.00  0.00     0.202 C 
BRANCH   6   7
ATOM      7  C   UNL     1       4.648   3.667  -7.501  1.00  0.00     0.261 C 
BRANCH   7   8
ATOM      8  O   UNL     1       5.359   4.919  -7.609  1.00  0.00    -0.460 OA
BRANCH   8   9
ATOM      9  C   UNL     1       5.277   5.848  -8.594  1.00  0.00     0.338 C 
ATOM     10  O   UNL     1       5.886   6.910  -8.484  1.00  0.00    -0.246 OA
BRANCH   9  11
ATOM     11  C   UNL     1       4.400   5.666  -9.775  1.00  0.00     0.060 A 
ATOM     12  C   UNL     1       4.021   4.413 -10.275  1.00  0.00     0.016 A 
ATOM     13  C   UNL     1       3.869   6.840 -10.348  1.00  0.00     0.016 A 
ATOM     14  C   UNL     1       3.072   4.312 -11.252  1.00  0.00     0.010 A 
ATOM     15  C   UNL     1       2.971   6.757 -11.389  1.00  0.00     0.010 A 
ATOM     16  C   UNL     1       2.643   5.486 -11.848  1.00  0.00    -0.014 A 
BRANCH  16  17
ATOM     17  C   UNL     1       2.100   5.280 -13.163  1.00  0.00     0.031 A 
ATOM     18  C   UNL     1       0.722   4.738 -13.185  1.00  0.00     0.074 A 
ATOM     19  C   UNL     1       2.986   5.486 -14.156  1.00  0.00     0.049 A 
ATOM     20  N   UNL     1       0.298   3.654 -13.748  1.00  0.00    -0.248 NA
ATOM     21  C   UNL     1      -0.277   5.389 -12.318  1.00  0.00     0.031 C 
ATOM     22  C   UNL     1       4.333   6.079 -14.063  1.00  0.00     0.029 A 
ATOM     23  N   UNL     1       2.829   5.301 -15.486  1.00  0.00    -0.354 N 
ATOM     24  C   UNL     1      -1.069   3.606 -13.486  1.00  0.00     0.074 A 
ATOM     25  C   UNL     1      -1.332   4.590 -12.471  1.00  0.00     0.031 C 
ATOM     26  C   UNL     1       4.737   6.472 -15.286  1.00  0.00     0.029 A 
ATOM     27  C   UNL     1       3.746   6.034 -16.240  1.00  0.00     0.049 A 
ATOM     28  H   UNL     1       2.144   4.715 -15.880  1.00  0.00     0.167 HD
ATOM     29  C   UNL     1      -1.916   2.977 -14.342  1.00  0.00     0.037 A 
ATOM     30  C   UNL     1       3.507   6.402 -17.519  1.00  0.00     0.037 A 
ATOM     31  C   UNL     1      -1.248   1.921 -15.056  1.00  0.00     0.049 A 
ATOM     32  C   UNL     1       2.485   5.438 -18.033  1.00  0.00     0.074 A 
ATOM     33  C   UNL     1      -0.668   0.727 -14.671  1.00  0.00     0.029 A 
ATOM     34  N   UNL     1      -0.755   2.188 -16.310  1.00  0.00    -0.354 N 
ATOM     35  N   UNL     1       2.718   4.152 -18.144  1.00  0.00    -0.248 NA
ATOM     36  C   UNL     1       1.080   5.803 -17.877  1.00  0.00     0.031 C 
ATOM     37  C   UNL     1       0.495   0.603 -15.485  1.00  0.00     0.029 A 
ATOM     38  C   UNL     1       0.521   1.683 -16.368  1.00  0.00     0.049 A 
ATOM     39  H   UNL     1      -1.229   2.656 -17.034  1.00  0.00     0.167 HD
ATOM     40  C   UNL     1       1.559   3.533 -17.685  1.00  0.00     0.074 A 
ATOM     41  C   UNL     1       0.572   4.604 -17.571  1.00  0.00     0.031 C 
ATOM     42  C   UNL     1       1.579   2.271 -17.157  1.00  0.00     0.037 A 
BRANCH  29  43
ATOM     43  C   UNL     1      -3.194   3.620 -14.822  1.00  0.00     0.064 A 
ATOM     44  C   UNL     1      -4.067   2.885 -15.645  1.00  0.00     0.173 A 
ATOM     45  C   UNL     1      -3.436   5.013 -14.768  1.00  0.00     0.173 A 
ATOM     46  F   UNL     1      -3.925   1.558 -15.777  1.00  0.00    -0.203 F 
ATOM     47  C   UNL     1      -5.045   3.513 -16.423  1.00  0.00     0.198 A 
ATOM     48  C   UNL     1      -4.441   5.627 -15.507  1.00  0.00     0.198 A 
ATOM     49  F   UNL     1      -2.647   5.855 -14.092  1.00  0.00    -0.203 F 
ATOM     50  F   UNL     1      -5.771   2.791 -17.287  1.00  0.00    -0.200 F 
ATOM     51  C   UNL     1      -5.223   4.884 -16.362  1.00  0.00     0.200 A 
ATOM     52  F   UNL     1      -4.582   6.959 -15.444  1.00  0.00    -0.200 F 
ATOM     53  F   UNL     1      -6.109   5.495 -17.158  1.00  0.00    -0.200 F 
ENDBRANCH  29  43
BRANCH  30  54
ATOM     54  C   UNL     1       3.725   7.774 -18.032  1.00  0.00     0.064 A 
ATOM     55  C   UNL     1       3.816   8.028 -19.405  1.00  0.00     0.173 A 
ATOM     56  C   UNL     1       3.656   8.907 -17.188  1.00  0.00     0.173 A 
ATOM     57  F   UNL     1       3.831   7.008 -20.274  1.00  0.00    -0.203 F 
ATOM     58  C   UNL     1       3.845   9.336 -19.904  1.00  0.00     0.198 A 
ATOM     59  C   UNL     1       3.701  10.208 -17.685  1.00  0.00     0.198 A 
ATOM     60  F   UNL     1       3.465   8.778 -15.867  1.00  0.00    -0.203 F 
ATOM     61  F   UNL     1       3.892   9.543 -21.227  1.00  0.00    -0.200 F 
ATOM     62  C   UNL     1       3.787  10.423 -19.045  1.00  0.00     0.200 A 
ATOM     63  F   UNL     1       3.610  11.246 -16.841  1.00  0.00    -0.200 F 
ATOM     64  F   UNL     1       3.777  11.673 -19.528  1.00  0.00    -0.200 F 
ENDBRANCH  30  54
BRANCH  42  65
ATOM     65  C   UNL     1       2.881   1.515 -17.198  1.00  0.00     0.064 A 
ATOM     66  C   UNL     1       4.001   1.867 -16.424  1.00  0.00     0.173 A 
ATOM     67  C   UNL     1       2.936   0.299 -17.887  1.00  0.00     0.173 A 
ATOM     68  F   UNL     1       3.978   2.950 -15.640  1.00  0.00    -0.203 F 
ATOM     69  C   UNL     1       5.139   1.061 -16.378  1.00  0.00     0.198 A 
ATOM     70  C   UNL     1       4.060  -0.522 -17.814  1.00  0.00     0.198 A 
ATOM     71  F   UNL     1       1.869  -0.127 -18.578  1.00  0.00    -0.203 F 
ATOM     72  F   UNL     1       6.190   1.421 -15.625  1.00  0.00    -0.200 F 
ATOM     73  C   UNL     1       5.164  -0.137 -17.069  1.00  0.00     0.200 A 
ATOM     74  F   UNL     1       4.056  -1.710 -18.434  1.00  0.00    -0.200 F 
ATOM     75  F   UNL     1       6.236  -0.939 -16.987  1.00  0.00    -0.200 F 
ENDBRANCH  42  65
ENDBRANCH  16  17
ENDBRANCH   9  11
ENDBRANCH   8   9
ENDBRANCH   7   8
ENDBRANCH   6   7
ENDBRANCH   5   6
ENDBRANCH   4   5
ENDBRANCH   3   4
ENDBRANCH   2   3
ENDBRANCH   1   2
BRANCH   1  76
ATOM     76  C   UNL     1       2.107   5.689  -4.399  1.00  0.00     0.188 C 
BRANCH  76  77
ATOM     77  O   UNL     1       0.963   6.459  -4.087  1.00  0.00    -0.376 OA
BRANCH  77  78
ATOM     78  C   UNL     1       1.241   7.560  -3.210  1.00  0.00     0.202 C 
BRANCH  78  79
ATOM     79  C   UNL     1       1.650   7.214  -1.734  1.00  0.00     0.261 C 
BRANCH  79  80
ATOM     80  O   UNL     1       3.095   7.061  -1.457  1.00  0.00    -0.462 OA
BRANCH  80  81
ATOM     81  C   UNL     1       3.526   6.196  -0.464  1.00  0.00     0.328 C 
ATOM     82  O   UNL     1       2.722   5.551   0.212  1.00  0.00    -0.250 OA
BRANCH  81  83
ATOM     83  C   UNL     1       5.169   6.065  -0.158  1.00  0.00     0.195 C 
ATOM     84  C   UNL     1       5.697   4.557  -0.176  1.00  0.00     0.046 C 
ATOM     85  N   UNL     1       6.439   6.736  -0.564  1.00  0.00    -0.328 N 
ATOM     86  C   UNL     1       7.266   4.524  -0.491  1.00  0.00     0.001 C 
ATOM     87  C   UNL     1       7.599   5.970  -0.086  1.00  0.00     0.128 C 
ATOM     88  C   UNL     1       7.945   4.346  -1.898  1.00  0.00     0.071 C 
ATOM     89  C   UNL     1       7.913   3.390   0.330  1.00  0.00     0.071 C 
ATOM     90  C   UNL     1       7.985   2.960  -2.561  1.00  0.00     0.270 C 
ATOM     91  C   UNL     1       7.666   2.020  -0.343  1.00  0.00     0.270 C 
ATOM     92  N   UNL     1       8.353   1.913  -1.637  1.00  0.00    -0.272 N 
ATOM     93  H   UNL     1       8.133   0.969  -1.807  1.00  0.00     0.356 HD
BRANCH  85  94
ATOM     94  C   UNL     1       6.662   7.883  -1.275  1.00  0.00     0.225 C 
ATOM     95  O   UNL     1       7.763   8.423  -1.372  1.00  0.00    -0.275 OA
BRANCH  94  96
ATOM     96  C   UNL     1       5.531   8.398  -2.071  1.00  0.00     0.124 C 
BRANCH  96  97
ATOM     97  C   UNL     1       5.339   7.551  -3.324  1.00  0.00     0.154 C 
BRANCH  97  98
ATOM     98  N   UNL     1       5.433   6.086  -3.344  1.00  0.00    -0.272 N 
ATOM     99  C   UNL     1       6.046   5.307  -4.305  1.00  0.00     0.108 A 
ATOM    100  N   UNL     1       4.559   5.335  -2.660  1.00  0.00    -0.182 NA
ATOM    101  C   UNL     1       5.506   4.041  -4.211  1.00  0.00     0.042 A 
ATOM    102  C   UNL     1       4.584   4.114  -3.180  1.00  0.00     0.135 A 
ENDBRANCH  97  98
ENDBRANCH  96  97
ENDBRANCH  94  96
ENDBRANCH  85  94
BRANCH  92 103
ATOM    103  C   UNL     1       9.027   0.709  -1.924  1.00  0.00     0.315 C 
ATOM    104  O   UNL     1       9.046  -0.189  -1.101  1.00  0.00    -0.231 OA
BRANCH 103 105
ATOM    105  C   UNL     1       9.787   0.412  -3.190  1.00  0.00     0.119 C 
ATOM    106  C   UNL     1       9.553   0.855  -4.605  1.00  0.00     0.019 C 
ATOM    107  C   UNL     1      10.740   1.380  -3.841  1.00  0.00     0.019 C 
ENDBRANCH 103 105
ENDBRANCH  92 103
ENDBRANCH  81  83
ENDBRANCH  80  81
ENDBRANCH  79  80
ENDBRANCH  78  79
ENDBRANCH  77  78
ENDBRANCH  76  77
ENDBRANCH   1  76
TORSDOF 26
