REMARK SMILES CC(C)c1ccc2c(c1)C(=O)C[C@@H]1[C@@]2(C)CCC[C@]1(C)C(=O)OCCOCCOCCOCCOC(=O)c1ccc(-c2c3nc(c(-c4c(F)c(F)c(F)c(F)c4F)c4ccc([nH]4)c(-c4c(F)c(F)c(F)c(F)c4F)c4nc(c(-c5c(F)c(F)c(F)c(F)c5F)c5ccc2[nH]5)C=C4)C=C3)cc1
REMARK SMILES IDX 30 1 29 2 28 3 27 4 26 5 25 6 24 7 23 8 21 9 22 10 19 11
REMARK SMILES IDX 4 12 5 13 9 14 6 15 8 16 7 17 10 18 14 19 12 20 11 21 13 22
REMARK SMILES IDX 16 23 15 24 17 25 18 26 20 27 2 28 1 29 3 30 31 31 32 32
REMARK SMILES IDX 33 33 34 34 35 35 36 36 37 37 38 38 39 39 100 40 40 41 99 42
REMARK SMILES IDX 41 43 42 44 43 45 93 46 44 47 98 48 92 49 94 50 45 51 97 52
REMARK SMILES IDX 91 53 90 54 46 56 78 57 58 58 77 59 59 60 62 61 76 62 95 63
REMARK SMILES IDX 60 64 61 65 75 67 96 68 63 69 47 70 48 71 56 72 49 73 50 74
REMARK SMILES IDX 54 75 57 76 51 77 52 78 55 79 53 80 79 81 80 82 88 83 81 84
REMARK SMILES IDX 82 85 86 86 89 87 83 88 84 89 87 90 85 91 64 92 65 93 73 94
REMARK SMILES IDX 66 95 67 96 71 97 74 98 68 99 69 100 72 101 70 102
REMARK H PARENT 94 55 62 66
REMARK Flexibility Score: inf
ROOT
ATOM      1  C   UNL     1      -7.814   3.321   6.890  1.00  0.00     0.188 C 
ENDROOT
BRANCH   1   2
ATOM      2  O   UNL     1      -7.809   2.180   6.044  1.00  0.00    -0.377 OA
BRANCH   2   3
ATOM      3  C   UNL     1      -6.787   1.211   6.280  1.00  0.00     0.188 C 
BRANCH   3   4
ATOM      4  C   UNL     1      -5.368   1.668   5.939  1.00  0.00     0.188 C 
BRANCH   4   5
ATOM      5  O   UNL     1      -5.167   3.066   6.103  1.00  0.00    -0.376 OA
BRANCH   5   6
ATOM      6  C   UNL     1      -4.560   3.711   4.977  1.00  0.00     0.202 C 
BRANCH   6   7
ATOM      7  C   UNL     1      -5.514   4.358   3.926  1.00  0.00     0.261 C 
BRANCH   7   8
ATOM      8  O   UNL     1      -5.906   3.700   2.677  1.00  0.00    -0.463 OA
BRANCH   8   9
ATOM      9  C   UNL     1      -6.721   2.616   2.680  1.00  0.00     0.312 C 
ATOM     10  O   UNL     1      -7.038   2.017   3.696  1.00  0.00    -0.252 OA
BRANCH   9  11
ATOM     11  C   UNL     1      -7.072   2.100   1.265  1.00  0.00     0.069 C 
ATOM     12  C   UNL     1      -0.643   0.786   0.231  1.00  0.00    -0.045 A 
ATOM     13  C   UNL     1      -1.309   0.847  -0.995  1.00  0.00     0.004 A 
ATOM     14  C   UNL     1      -1.416   0.597   1.372  1.00  0.00     0.016 A 
ATOM     15  C   UNL     1      -2.713   0.769  -1.062  1.00  0.00     0.005 A 
ATOM     16  C   UNL     1      -2.813   0.499   1.286  1.00  0.00     0.022 A 
ATOM     17  C   UNL     1      -3.515   0.644   0.091  1.00  0.00    -0.031 A 
ATOM     18  C   UNL     1      -3.535   0.255   2.523  1.00  0.00     0.163 C 
ATOM     19  C   UNL     1      -5.061   0.553   0.024  1.00  0.00    -0.002 C 
ATOM     20  C   UNL     1      -4.906   0.816   2.590  1.00  0.00     0.086 C 
ATOM     21  O   UNL     1      -2.966  -0.180   3.521  1.00  0.00    -0.294 OA
ATOM     22  C   UNL     1      -5.877   0.815   1.391  1.00  0.00     0.024 C 
ATOM     23  C   UNL     1      -5.558   1.551  -1.047  1.00  0.00     0.012 C 
ATOM     24  C   UNL     1      -5.357  -0.909  -0.409  1.00  0.00     0.017 C 
ATOM     25  C   UNL     1      -7.053   1.554  -1.234  1.00  0.00     0.002 C 
ATOM     26  C   UNL     1      -7.803   1.395   0.067  1.00  0.00     0.019 C 
ATOM     27  C   UNL     1      -8.644   2.302   1.901  1.00  0.00     0.024 C 
BRANCH  12  28
ATOM     28  C   UNL     1       0.859   0.918   0.382  1.00  0.00     0.013 C 
ATOM     29  C   UNL     1       1.624  -0.096  -0.467  1.00  0.00     0.012 C 
ATOM     30  C   UNL     1       1.312   2.352   0.101  1.00  0.00     0.012 C 
ENDBRANCH  12  28
ENDBRANCH   9  11
ENDBRANCH   8   9
ENDBRANCH   7   8
ENDBRANCH   6   7
ENDBRANCH   5   6
ENDBRANCH   4   5
ENDBRANCH   3   4
ENDBRANCH   2   3
ENDBRANCH   1   2
BRANCH   1  31
ATOM     31  C   UNL     1      -7.488   3.013   8.352  1.00  0.00     0.188 C 
BRANCH  31  32
ATOM     32  O   UNL     1      -8.231   1.989   9.022  1.00  0.00    -0.376 OA
BRANCH  32  33
ATOM     33  C   UNL     1      -9.405   1.453   8.421  1.00  0.00     0.202 C 
BRANCH  33  34
ATOM     34  C   UNL     1     -10.692   2.207   8.743  1.00  0.00     0.261 C 
BRANCH  34  35
ATOM     35  O   UNL     1     -10.655   3.570   8.305  1.00  0.00    -0.460 OA
BRANCH  35  36
ATOM     36  C   UNL     1     -10.156   4.456   9.195  1.00  0.00     0.338 C 
ATOM     37  O   UNL     1      -9.820   4.251  10.354  1.00  0.00    -0.246 OA
BRANCH  36  38
ATOM     38  C   UNL     1      -9.936   5.737   8.500  1.00  0.00     0.060 A 
ATOM     39  C   UNL     1     -10.924   6.252   7.659  1.00  0.00     0.016 A 
ATOM     40  C   UNL     1      -8.744   6.442   8.719  1.00  0.00     0.016 A 
ATOM     41  C   UNL     1     -10.747   7.509   7.090  1.00  0.00     0.010 A 
ATOM     42  C   UNL     1      -8.558   7.693   8.137  1.00  0.00     0.010 A 
ATOM     43  C   UNL     1      -9.585   8.251   7.366  1.00  0.00    -0.014 A 
BRANCH  43  44
ATOM     44  C   UNL     1      -9.584   9.699   7.081  1.00  0.00     0.031 A 
ATOM     45  C   UNL     1      -8.879  10.277   5.903  1.00  0.00     0.074 A 
ATOM     46  C   UNL     1     -10.270  10.479   7.938  1.00  0.00     0.049 A 
ATOM     47  N   UNL     1      -8.900  11.509   5.465  1.00  0.00    -0.248 NA
ATOM     48  C   UNL     1      -8.037   9.366   5.115  1.00  0.00     0.031 C 
ATOM     49  C   UNL     1     -10.953   9.995   9.141  1.00  0.00     0.029 A 
ATOM     50  N   UNL     1     -10.526  11.823   7.927  1.00  0.00    -0.354 N 
ATOM     51  C   UNL     1      -8.102  11.520   4.332  1.00  0.00     0.074 A 
ATOM     52  C   UNL     1      -7.566  10.183   4.180  1.00  0.00     0.031 C 
ATOM     53  C   UNL     1     -11.586  11.019   9.729  1.00  0.00     0.029 A 
ATOM     54  C   UNL     1     -11.329  12.232   8.963  1.00  0.00     0.049 A 
ATOM     55  H   UNL     1     -10.170  12.436   7.244  1.00  0.00     0.167 HD
ATOM     56  C   UNL     1      -7.869  12.558   3.494  1.00  0.00     0.037 A 
ATOM     57  C   UNL     1     -11.814  13.452   9.255  1.00  0.00     0.037 A 
ATOM     58  C   UNL     1      -8.398  13.886   3.687  1.00  0.00     0.049 A 
ATOM     59  C   UNL     1     -11.497  14.589   8.328  1.00  0.00     0.074 A 
ATOM     60  C   UNL     1      -8.244  15.000   2.881  1.00  0.00     0.029 A 
ATOM     61  N   UNL     1      -9.171  14.283   4.771  1.00  0.00    -0.354 N 
ATOM     62  N   UNL     1     -10.814  14.575   7.208  1.00  0.00    -0.248 NA
ATOM     63  C   UNL     1     -12.021  15.909   8.698  1.00  0.00     0.031 C 
ATOM     64  C   UNL     1      -8.872  16.082   3.504  1.00  0.00     0.029 A 
ATOM     65  C   UNL     1      -9.473  15.632   4.669  1.00  0.00     0.049 A 
ATOM     66  H   UNL     1      -9.462  13.693   5.503  1.00  0.00     0.167 HD
ATOM     67  C   UNL     1     -10.841  15.876   6.729  1.00  0.00     0.074 A 
ATOM     68  C   UNL     1     -11.631  16.648   7.668  1.00  0.00     0.031 C 
ATOM     69  C   UNL     1     -10.260  16.385   5.616  1.00  0.00     0.037 A 
BRANCH  56  70
ATOM     70  C   UNL     1      -7.019  12.308   2.283  1.00  0.00     0.064 A 
ATOM     71  C   UNL     1      -7.490  11.536   1.210  1.00  0.00     0.173 A 
ATOM     72  C   UNL     1      -5.765  12.923   2.147  1.00  0.00     0.173 A 
ATOM     73  F   UNL     1      -8.679  10.920   1.291  1.00  0.00    -0.203 F 
ATOM     74  C   UNL     1      -6.734  11.383   0.050  1.00  0.00     0.198 A 
ATOM     75  C   UNL     1      -5.024  12.790   0.974  1.00  0.00     0.198 A 
ATOM     76  F   UNL     1      -5.269  13.677   3.139  1.00  0.00    -0.203 F 
ATOM     77  F   UNL     1      -7.194  10.619  -0.951  1.00  0.00    -0.200 F 
ATOM     78  C   UNL     1      -5.508  12.020  -0.071  1.00  0.00     0.200 A 
ATOM     79  F   UNL     1      -3.847  13.419   0.852  1.00  0.00    -0.200 F 
ATOM     80  F   UNL     1      -4.793  11.889  -1.197  1.00  0.00    -0.200 F 
ENDBRANCH  56  70
BRANCH  57  81
ATOM     81  C   UNL     1     -12.677  13.633  10.449  1.00  0.00     0.064 A 
ATOM     82  C   UNL     1     -14.038  13.936  10.315  1.00  0.00     0.173 A 
ATOM     83  C   UNL     1     -12.169  13.471  11.747  1.00  0.00     0.173 A 
ATOM     84  F   UNL     1     -14.569  14.110   9.095  1.00  0.00    -0.203 F 
ATOM     85  C   UNL     1     -14.855  14.087  11.434  1.00  0.00     0.198 A 
ATOM     86  C   UNL     1     -12.993  13.591  12.863  1.00  0.00     0.198 A 
ATOM     87  F   UNL     1     -10.875  13.169  11.929  1.00  0.00    -0.203 F 
ATOM     88  F   UNL     1     -16.144  14.415  11.278  1.00  0.00    -0.200 F 
ATOM     89  C   UNL     1     -14.333  13.906  12.706  1.00  0.00     0.200 A 
ATOM     90  F   UNL     1     -12.489  13.395  14.089  1.00  0.00    -0.200 F 
ATOM     91  F   UNL     1     -15.122  14.040  13.781  1.00  0.00    -0.200 F 
ENDBRANCH  57  81
BRANCH  69  92
ATOM     92  C   UNL     1     -10.459  17.848   5.344  1.00  0.00     0.064 A 
ATOM     93  C   UNL     1      -9.838  18.830   6.130  1.00  0.00     0.173 A 
ATOM     94  C   UNL     1     -11.222  18.271   4.245  1.00  0.00     0.173 A 
ATOM     95  F   UNL     1      -9.111  18.478   7.201  1.00  0.00    -0.203 F 
ATOM     96  C   UNL     1      -9.988  20.182   5.835  1.00  0.00     0.198 A 
ATOM     97  C   UNL     1     -11.341  19.622   3.933  1.00  0.00     0.198 A 
ATOM     98  F   UNL     1     -11.831  17.372   3.457  1.00  0.00    -0.203 F 
ATOM     99  F   UNL     1      -9.420  21.104   6.624  1.00  0.00    -0.200 F 
ATOM    100  C   UNL     1     -10.729  20.576   4.731  1.00  0.00     0.200 A 
ATOM    101  F   UNL     1     -12.041  20.000   2.854  1.00  0.00    -0.200 F 
ATOM    102  F   UNL     1     -10.854  21.877   4.437  1.00  0.00    -0.200 F 
ENDBRANCH  69  92
ENDBRANCH  43  44
ENDBRANCH  36  38
ENDBRANCH  35  36
ENDBRANCH  34  35
ENDBRANCH  33  34
ENDBRANCH  32  33
ENDBRANCH  31  32
ENDBRANCH   1  31
TORSDOF 21
