REMARK SMILES Cn1c(C(=O)OCCOCCOCCOCCOC(=O)c2ccc(-c3c4nc(c(-c5c(F)c(F)c(F)c(F)c5F)c5ccc([nH]5)c(-c5c(F)c(F)c(F)c(F)c5F)c5nc(c(-c6c(F)c(F)c(F)c(F)c6F)c6ccc3[nH]6)C=C5)C=C4)cc2)cc2cc(OCc3ccccc3)ccc21
REMARK SMILES IDX 11 1 10 2 9 3 8 4 7 5 6 6 4 7 5 8 3 9 1 10 2 11 98 12 84 13
REMARK SMILES IDX 85 14 97 15 86 16 96 17 87 18 88 19 89 20 90 21 91 22 95 23
REMARK SMILES IDX 92 24 94 25 93 26 12 27 13 28 14 29 15 30 16 31 17 32 18 33
REMARK SMILES IDX 19 34 20 35 21 36 22 37 83 38 23 39 82 40 24 41 25 42 26 43
REMARK SMILES IDX 76 44 27 45 81 46 75 47 77 48 28 49 80 50 74 51 73 52 29 54
REMARK SMILES IDX 61 55 41 56 60 57 42 58 45 59 59 60 78 61 43 62 44 63 58 65
REMARK SMILES IDX 79 66 46 67 30 68 31 69 39 70 32 71 33 72 37 73 40 74 34 75
REMARK SMILES IDX 35 76 38 77 36 78 62 79 63 80 71 81 64 82 65 83 69 84 72 85
REMARK SMILES IDX 66 86 67 87 70 88 68 89 47 90 48 91 56 92 49 93 50 94 54 95
REMARK SMILES IDX 57 96 51 97 52 98 55 99 53 100
REMARK H PARENT 77 53 45 64
REMARK Flexibility Score: inf
ROOT
ATOM      1  C   UNL     1       3.504  -1.639   1.934  1.00  0.00     0.188 C 
ENDROOT
BRANCH   1   2
ATOM      2  C   UNL     1       4.008  -2.858   1.144  1.00  0.00     0.188 C 
BRANCH   2   3
ATOM      3  O   UNL     1       5.392  -2.782   0.796  1.00  0.00    -0.376 OA
BRANCH   3   4
ATOM      4  C   UNL     1       5.672  -2.639  -0.591  1.00  0.00     0.202 C 
BRANCH   4   5
ATOM      5  C   UNL     1       5.558  -1.194  -1.089  1.00  0.00     0.261 C 
BRANCH   5   6
ATOM      6  O   UNL     1       4.243  -0.635  -0.965  1.00  0.00    -0.459 OA
BRANCH   6   7
ATOM      7  C   UNL     1       3.255  -1.206  -1.692  1.00  0.00     0.355 C 
ATOM      8  O   UNL     1       3.429  -2.089  -2.522  1.00  0.00    -0.244 OA
BRANCH   7   9
ATOM      9  C   UNL     1       1.965  -0.737  -1.233  1.00  0.00     0.128 A 
ATOM     10  C   UNL     1       2.495   1.637  -0.496  1.00  0.00     0.150 C 
ATOM     11  N   UNL     1       1.619   0.509  -0.740  1.00  0.00    -0.338 N 
ATOM     12  C   UNL     1       0.251   0.573  -0.534  1.00  0.00     0.049 A 
ATOM     13  C   UNL     1       0.815  -1.514  -1.163  1.00  0.00     0.044 A 
ATOM     14  C   UNL     1      -0.259  -0.711  -0.708  1.00  0.00     0.004 A 
ATOM     15  C   UNL     1      -0.573   1.650  -0.192  1.00  0.00     0.031 A 
ATOM     16  C   UNL     1      -1.625  -0.948  -0.450  1.00  0.00     0.056 A 
ATOM     17  C   UNL     1      -1.934   1.401   0.003  1.00  0.00     0.048 A 
ATOM     18  C   UNL     1      -2.464   0.118  -0.103  1.00  0.00     0.120 A 
BRANCH  18  19
ATOM     19  O   UNL     1      -3.769  -0.224   0.143  1.00  0.00    -0.489 OA
BRANCH  19  20
ATOM     20  C   UNL     1      -4.762   0.804   0.031  1.00  0.00     0.265 C 
BRANCH  20  21
ATOM     21  C   UNL     1      -4.897   1.646   1.281  1.00  0.00    -0.011 A 
ATOM     22  C   UNL     1      -5.008   1.046   2.542  1.00  0.00     0.007 A 
ATOM     23  C   UNL     1      -4.889   3.047   1.194  1.00  0.00     0.007 A 
ATOM     24  C   UNL     1      -5.064   1.831   3.695  1.00  0.00     0.000 A 
ATOM     25  C   UNL     1      -4.926   3.830   2.348  1.00  0.00     0.000 A 
ATOM     26  C   UNL     1      -5.010   3.221   3.599  1.00  0.00     0.000 A 
ENDBRANCH  20  21
ENDBRANCH  19  20
ENDBRANCH  18  19
ENDBRANCH   7   9
ENDBRANCH   6   7
ENDBRANCH   5   6
ENDBRANCH   4   5
ENDBRANCH   3   4
ENDBRANCH   2   3
ENDBRANCH   1   2
BRANCH   1  27
ATOM     27  O   UNL     1       4.442  -0.588   2.090  1.00  0.00    -0.377 OA
BRANCH  27  28
ATOM     28  C   UNL     1       5.583  -0.800   2.918  1.00  0.00     0.188 C 
BRANCH  28  29
ATOM     29  C   UNL     1       5.866  -2.144   3.625  1.00  0.00     0.188 C 
BRANCH  29  30
ATOM     30  O   UNL     1       4.711  -2.811   4.123  1.00  0.00    -0.376 OA
BRANCH  30  31
ATOM     31  C   UNL     1       4.566  -2.853   5.537  1.00  0.00     0.202 C 
BRANCH  31  32
ATOM     32  C   UNL     1       3.974  -1.561   6.108  1.00  0.00     0.261 C 
BRANCH  32  33
ATOM     33  O   UNL     1       4.827  -0.413   5.968  1.00  0.00    -0.460 OA
BRANCH  33  34
ATOM     34  C   UNL     1       6.020  -0.467   6.597  1.00  0.00     0.338 C 
ATOM     35  O   UNL     1       6.444  -1.351   7.317  1.00  0.00    -0.246 OA
BRANCH  34  36
ATOM     36  C   UNL     1       6.825   0.675   6.130  1.00  0.00     0.060 A 
ATOM     37  C   UNL     1       8.088   0.429   5.579  1.00  0.00     0.016 A 
ATOM     38  C   UNL     1       6.336   1.978   6.250  1.00  0.00     0.016 A 
ATOM     39  C   UNL     1       8.888   1.499   5.182  1.00  0.00     0.010 A 
ATOM     40  C   UNL     1       7.144   3.048   5.867  1.00  0.00     0.010 A 
ATOM     41  C   UNL     1       8.435   2.813   5.366  1.00  0.00    -0.014 A 
BRANCH  41  42
ATOM     42  C   UNL     1       9.378   3.945   5.229  1.00  0.00     0.031 A 
ATOM     43  C   UNL     1      10.096   4.422   6.460  1.00  0.00     0.074 A 
ATOM     44  C   UNL     1       9.585   4.542   4.044  1.00  0.00     0.049 A 
ATOM     45  N   UNL     1      10.932   5.418   6.603  1.00  0.00    -0.248 NA
ATOM     46  C   UNL     1       9.829   3.675   7.700  1.00  0.00     0.031 C 
ATOM     47  C   UNL     1       8.964   4.153   2.781  1.00  0.00     0.029 A 
ATOM     48  N   UNL     1      10.371   5.618   3.720  1.00  0.00    -0.354 N 
ATOM     49  C   UNL     1      11.292   5.414   7.943  1.00  0.00     0.074 A 
ATOM     50  C   UNL     1      10.562   4.340   8.580  1.00  0.00     0.031 C 
ATOM     51  C   UNL     1       9.385   4.990   1.816  1.00  0.00     0.029 A 
ATOM     52  C   UNL     1      10.283   5.985   2.401  1.00  0.00     0.049 A 
ATOM     53  H   UNL     1      10.945   6.083   4.372  1.00  0.00     0.167 HD
ATOM     54  C   UNL     1      12.161   6.228   8.585  1.00  0.00     0.037 A 
ATOM     55  C   UNL     1      10.850   7.020   1.752  1.00  0.00     0.037 A 
ATOM     56  C   UNL     1      12.875   7.305   7.956  1.00  0.00     0.049 A 
ATOM     57  C   UNL     1      11.758   7.959   2.505  1.00  0.00     0.074 A 
ATOM     58  C   UNL     1      13.792   8.177   8.514  1.00  0.00     0.029 A 
ATOM     59  N   UNL     1      12.740   7.664   6.623  1.00  0.00    -0.354 N 
ATOM     60  N   UNL     1      12.126   7.926   3.763  1.00  0.00    -0.248 NA
ATOM     61  C   UNL     1      12.330   9.080   1.744  1.00  0.00     0.031 C 
ATOM     62  C   UNL     1      14.178   9.093   7.529  1.00  0.00     0.029 A 
ATOM     63  C   UNL     1      13.537   8.762   6.346  1.00  0.00     0.049 A 
ATOM     64  H   UNL     1      12.163   7.205   5.970  1.00  0.00     0.167 HD
ATOM     65  C   UNL     1      12.990   9.000   3.938  1.00  0.00     0.074 A 
ATOM     66  C   UNL     1      13.099   9.661   2.654  1.00  0.00     0.031 C 
ATOM     67  C   UNL     1      13.636   9.402   5.060  1.00  0.00     0.037 A 
BRANCH  54  68
ATOM     68  C   UNL     1      12.363   5.994  10.051  1.00  0.00     0.064 A 
ATOM     69  C   UNL     1      13.079   4.884  10.524  1.00  0.00     0.173 A 
ATOM     70  C   UNL     1      11.843   6.893  10.993  1.00  0.00     0.173 A 
ATOM     71  F   UNL     1      13.579   3.985   9.662  1.00  0.00    -0.203 F 
ATOM     72  C   UNL     1      13.246   4.670  11.889  1.00  0.00     0.198 A 
ATOM     73  C   UNL     1      12.033   6.689  12.357  1.00  0.00     0.198 A 
ATOM     74  F   UNL     1      11.149   7.968  10.591  1.00  0.00    -0.203 F 
ATOM     75  F   UNL     1      13.893   3.578  12.321  1.00  0.00    -0.200 F 
ATOM     76  C   UNL     1      12.728   5.574  12.804  1.00  0.00     0.200 A 
ATOM     77  F   UNL     1      11.537   7.567  13.239  1.00  0.00    -0.200 F 
ATOM     78  F   UNL     1      12.889   5.367  14.118  1.00  0.00    -0.200 F 
ENDBRANCH  54  68
BRANCH  55  79
ATOM     79  C   UNL     1      10.575   7.230   0.308  1.00  0.00     0.064 A 
ATOM     80  C   UNL     1      11.573   7.021  -0.654  1.00  0.00     0.173 A 
ATOM     81  C   UNL     1       9.318   7.662  -0.138  1.00  0.00     0.173 A 
ATOM     82  F   UNL     1      12.799   6.635  -0.273  1.00  0.00    -0.203 F 
ATOM     83  C   UNL     1      11.327   7.250  -2.006  1.00  0.00     0.198 A 
ATOM     84  C   UNL     1       9.066   7.867  -1.492  1.00  0.00     0.198 A 
ATOM     85  F   UNL     1       8.331   7.880   0.744  1.00  0.00    -0.203 F 
ATOM     86  F   UNL     1      12.311   7.084  -2.901  1.00  0.00    -0.200 F 
ATOM     87  C   UNL     1      10.073   7.668  -2.425  1.00  0.00     0.200 A 
ATOM     88  F   UNL     1       7.850   8.263  -1.893  1.00  0.00    -0.200 F 
ATOM     89  F   UNL     1       9.837   7.887  -3.725  1.00  0.00    -0.200 F 
ENDBRANCH  55  79
BRANCH  67  90
ATOM     90  C   UNL     1      14.543  10.592   4.946  1.00  0.00     0.064 A 
ATOM     91  C   UNL     1      14.035  11.893   4.826  1.00  0.00     0.173 A 
ATOM     92  C   UNL     1      15.936  10.431   5.008  1.00  0.00     0.173 A 
ATOM     93  F   UNL     1      12.711  12.097   4.747  1.00  0.00    -0.203 F 
ATOM     94  C   UNL     1      14.890  12.990   4.754  1.00  0.00     0.198 A 
ATOM     95  C   UNL     1      16.786  11.532   4.963  1.00  0.00     0.198 A 
ATOM     96  F   UNL     1      16.470   9.207   5.130  1.00  0.00    -0.203 F 
ATOM     97  F   UNL     1      14.385  14.222   4.600  1.00  0.00    -0.200 F 
ATOM     98  C   UNL     1      16.263  12.810   4.830  1.00  0.00     0.200 A 
ATOM     99  F   UNL     1      18.112  11.357   5.049  1.00  0.00    -0.200 F 
ATOM    100  F   UNL     1      17.084  13.867   4.769  1.00  0.00    -0.200 F 
ENDBRANCH  67  90
ENDBRANCH  41  42
ENDBRANCH  34  36
ENDBRANCH  33  34
ENDBRANCH  32  33
ENDBRANCH  31  32
ENDBRANCH  30  31
ENDBRANCH  29  30
ENDBRANCH  28  29
ENDBRANCH  27  28
ENDBRANCH   1  27
TORSDOF 23
