REMARK SMILES Cc1cccc2nc([C@@H]3CCCC[C@@H]3C(=O)OCCOCCOCCOCCOC(=O)c3ccc(-c4c5nc(c(-c6c(F)c(F)c(F)c(F)c6F)c6ccc([nH]6)c(-c6c(F)c(F)c(F)c(F)c6F)c6nc(c(-c7c(F)c(F)c(F)c(F)c7F)c7ccc4[nH]7)C=C6)C=C5)cc3)oc12
REMARK SMILES IDX 24 1 23 2 22 3 21 4 20 5 19 6 18 7 17 8 15 9 16 10 14 11
REMARK SMILES IDX 9 12 10 13 11 14 13 15 12 16 8 17 1 18 2 19 3 20 96 21 4 22
REMARK SMILES IDX 6 23 95 24 5 25 7 26 25 27 26 28 27 29 28 30 29 31 30 32
REMARK SMILES IDX 31 33 32 34 33 35 94 36 34 37 93 38 35 39 36 40 37 41 87 42
REMARK SMILES IDX 38 43 92 44 86 45 88 46 39 47 91 48 85 49 84 50 40 52 72 53
REMARK SMILES IDX 52 54 71 55 53 56 56 57 70 58 89 59 54 60 55 61 69 63 90 64
REMARK SMILES IDX 57 65 41 66 42 67 50 68 43 69 44 70 48 71 51 72 45 73 46 74
REMARK SMILES IDX 49 75 47 76 73 77 74 78 82 79 75 80 76 81 80 82 83 83 77 84
REMARK SMILES IDX 78 85 81 86 79 87 58 88 59 89 67 90 60 91 61 92 65 93 68 94
REMARK SMILES IDX 62 95 63 96 66 97 64 98
REMARK H PARENT 88 51 56 62
REMARK Flexibility Score: inf
ROOT
ATOM      1  C   UNL     1      -5.741   2.505   4.297  1.00  0.00     0.188 C 
ENDROOT
BRANCH   1   2
ATOM      2  O   UNL     1      -4.875   2.927   3.259  1.00  0.00    -0.377 OA
BRANCH   2   3
ATOM      3  C   UNL     1      -3.478   3.005   3.533  1.00  0.00     0.188 C 
BRANCH   3   4
ATOM      4  C   UNL     1      -2.900   2.847   4.961  1.00  0.00     0.188 C 
BRANCH   4   5
ATOM      5  O   UNL     1      -3.812   3.151   6.004  1.00  0.00    -0.376 OA
BRANCH   5   6
ATOM      6  C   UNL     1      -3.489   4.276   6.796  1.00  0.00     0.202 C 
BRANCH   6   7
ATOM      7  C   UNL     1      -3.666   5.612   6.068  1.00  0.00     0.261 C 
BRANCH   7   8
ATOM      8  O   UNL     1      -2.988   5.724   4.800  1.00  0.00    -0.463 OA
BRANCH   8   9
ATOM      9  C   UNL     1      -1.626   5.670   4.813  1.00  0.00     0.309 C 
ATOM     10  O   UNL     1      -0.960   5.608   5.835  1.00  0.00    -0.252 OA
BRANCH   9  11
ATOM     11  C   UNL     1      -1.083   5.771   3.383  1.00  0.00     0.111 C 
ATOM     12  C   UNL     1       0.211   4.987   3.060  1.00  0.00     0.090 C 
ATOM     13  C   UNL     1       1.377   5.460   3.934  1.00  0.00     0.014 C 
ATOM     14  C   UNL     1       1.570   6.978   3.866  1.00  0.00     0.001 C 
ATOM     15  C   UNL     1      -0.851   7.267   3.133  1.00  0.00     0.016 C 
ATOM     16  C   UNL     1       0.289   7.802   3.998  1.00  0.00     0.001 C 
BRANCH  12  17
ATOM     17  C   UNL     1       0.113   3.482   3.055  1.00  0.00     0.199 A 
ATOM     18  C   UNL     1       0.828   0.485  -0.149  1.00  0.00     0.048 C 
ATOM     19  C   UNL     1       0.472   0.401   1.302  1.00  0.00    -0.006 A 
ATOM     20  C   UNL     1       0.372  -0.862   1.927  1.00  0.00     0.007 A 
ATOM     21  C   UNL     1       0.296   1.500   2.155  1.00  0.00     0.157 A 
ATOM     22  C   UNL     1       0.119  -0.996   3.295  1.00  0.00     0.003 A 
ATOM     23  C   UNL     1       0.071   1.402   3.520  1.00  0.00     0.110 A 
ATOM     24  O   UNL     1       0.318   2.841   1.847  1.00  0.00    -0.440 OA
ATOM     25  C   UNL     1      -0.021   0.134   4.111  1.00  0.00     0.032 A 
ATOM     26  N   UNL     1      -0.025   2.657   4.074  1.00  0.00    -0.213 NA
ENDBRANCH  12  17
ENDBRANCH   9  11
ENDBRANCH   8   9
ENDBRANCH   7   8
ENDBRANCH   6   7
ENDBRANCH   5   6
ENDBRANCH   4   5
ENDBRANCH   3   4
ENDBRANCH   2   3
ENDBRANCH   1   2
BRANCH   1  27
ATOM     27  C   UNL     1      -5.473   1.103   4.898  1.00  0.00     0.188 C 
BRANCH  27  28
ATOM     28  O   UNL     1      -4.184   0.563   4.661  1.00  0.00    -0.376 OA
BRANCH  28  29
ATOM     29  C   UNL     1      -3.830  -0.346   3.634  1.00  0.00     0.202 C 
BRANCH  29  30
ATOM     30  C   UNL     1      -4.171  -0.117   2.159  1.00  0.00     0.261 C 
BRANCH  30  31
ATOM     31  O   UNL     1      -5.393   0.548   1.958  1.00  0.00    -0.460 OA
BRANCH  31  32
ATOM     32  C   UNL     1      -6.439  -0.135   2.424  1.00  0.00     0.338 C 
ATOM     33  O   UNL     1      -6.441  -1.266   2.913  1.00  0.00    -0.246 OA
BRANCH  32  34
ATOM     34  C   UNL     1      -7.633   0.689   2.253  1.00  0.00     0.060 A 
ATOM     35  C   UNL     1      -8.750   0.173   2.906  1.00  0.00     0.016 A 
ATOM     36  C   UNL     1      -7.692   1.367   1.031  1.00  0.00     0.016 A 
ATOM     37  C   UNL     1      -9.819  -0.107   2.110  1.00  0.00     0.010 A 
ATOM     38  C   UNL     1      -8.743   1.054   0.223  1.00  0.00     0.010 A 
ATOM     39  C   UNL     1      -9.722   0.220   0.751  1.00  0.00    -0.014 A 
BRANCH  39  40
ATOM     40  C   UNL     1     -10.751  -0.292  -0.102  1.00  0.00     0.031 A 
ATOM     41  C   UNL     1     -11.983   0.494   0.033  1.00  0.00     0.074 A 
ATOM     42  C   UNL     1     -10.563  -1.355  -0.898  1.00  0.00     0.049 A 
ATOM     43  N   UNL     1     -13.071   0.137   0.625  1.00  0.00    -0.248 NA
ATOM     44  C   UNL     1     -11.912   1.919  -0.324  1.00  0.00     0.031 C 
ATOM     45  C   UNL     1      -9.322  -2.032  -1.275  1.00  0.00     0.029 A 
ATOM     46  N   UNL     1     -11.506  -2.017  -1.609  1.00  0.00    -0.354 N 
ATOM     47  C   UNL     1     -13.899   1.244   0.547  1.00  0.00     0.074 A 
ATOM     48  C   UNL     1     -13.078   2.356   0.147  1.00  0.00     0.031 C 
ATOM     49  C   UNL     1      -9.572  -2.859  -2.319  1.00  0.00     0.029 A 
ATOM     50  C   UNL     1     -11.002  -2.866  -2.579  1.00  0.00     0.049 A 
ATOM     51  H   UNL     1     -12.470  -1.904  -1.450  1.00  0.00     0.167 HD
ATOM     52  C   UNL     1     -15.247   1.093   0.543  1.00  0.00     0.037 A 
ATOM     53  C   UNL     1     -11.743  -3.426  -3.567  1.00  0.00     0.037 A 
ATOM     54  C   UNL     1     -15.635  -0.176   1.102  1.00  0.00     0.049 A 
ATOM     55  C   UNL     1     -13.166  -3.385  -3.121  1.00  0.00     0.074 A 
ATOM     56  C   UNL     1     -15.498  -0.763   2.345  1.00  0.00     0.029 A 
ATOM     57  N   UNL     1     -15.920  -1.201   0.233  1.00  0.00    -0.354 N 
ATOM     58  N   UNL     1     -13.636  -4.089  -2.127  1.00  0.00    -0.248 NA
ATOM     59  C   UNL     1     -13.958  -2.218  -3.485  1.00  0.00     0.031 C 
ATOM     60  C   UNL     1     -15.263  -2.145   2.085  1.00  0.00     0.029 A 
ATOM     61  C   UNL     1     -15.309  -2.336   0.704  1.00  0.00     0.049 A 
ATOM     62  H   UNL     1     -16.466  -1.133  -0.583  1.00  0.00     0.167 HD
ATOM     63  C   UNL     1     -14.532  -3.246  -1.483  1.00  0.00     0.074 A 
ATOM     64  C   UNL     1     -14.750  -2.141  -2.412  1.00  0.00     0.031 C 
ATOM     65  C   UNL     1     -14.785  -3.379  -0.148  1.00  0.00     0.037 A 
BRANCH  52  66
ATOM     66  C   UNL     1     -16.147   1.925  -0.327  1.00  0.00     0.064 A 
ATOM     67  C   UNL     1     -17.538   1.824  -0.159  1.00  0.00     0.173 A 
ATOM     68  C   UNL     1     -15.718   2.598  -1.495  1.00  0.00     0.173 A 
ATOM     69  F   UNL     1     -18.052   1.174   0.896  1.00  0.00    -0.203 F 
ATOM     70  C   UNL     1     -18.428   2.307  -1.119  1.00  0.00     0.198 A 
ATOM     71  C   UNL     1     -16.609   3.134  -2.418  1.00  0.00     0.198 A 
ATOM     72  F   UNL     1     -14.431   2.666  -1.856  1.00  0.00    -0.203 F 
ATOM     73  F   UNL     1     -19.741   2.079  -0.980  1.00  0.00    -0.200 F 
ATOM     74  C   UNL     1     -17.964   2.961  -2.247  1.00  0.00     0.200 A 
ATOM     75  F   UNL     1     -16.134   3.742  -3.514  1.00  0.00    -0.200 F 
ATOM     76  F   UNL     1     -18.814   3.377  -3.194  1.00  0.00    -0.200 F 
ENDBRANCH  52  66
BRANCH  53  77
ATOM     77  C   UNL     1     -11.371  -3.595  -4.992  1.00  0.00     0.064 A 
ATOM     78  C   UNL     1     -12.172  -4.371  -5.846  1.00  0.00     0.173 A 
ATOM     79  C   UNL     1     -10.411  -2.771  -5.611  1.00  0.00     0.173 A 
ATOM     80  F   UNL     1     -13.137  -5.152  -5.340  1.00  0.00    -0.203 F 
ATOM     81  C   UNL     1     -12.050  -4.293  -7.237  1.00  0.00     0.198 A 
ATOM     82  C   UNL     1     -10.286  -2.700  -6.999  1.00  0.00     0.198 A 
ATOM     83  F   UNL     1      -9.645  -1.939  -4.892  1.00  0.00    -0.203 F 
ATOM     84  F   UNL     1     -12.884  -4.992  -8.021  1.00  0.00    -0.200 F 
ATOM     85  C   UNL     1     -11.117  -3.448  -7.812  1.00  0.00     0.200 A 
ATOM     86  F   UNL     1      -9.402  -1.852  -7.544  1.00  0.00    -0.200 F 
ATOM     87  F   UNL     1     -11.047  -3.320  -9.145  1.00  0.00    -0.200 F 
ENDBRANCH  53  77
BRANCH  65  88
ATOM     88  C   UNL     1     -14.267  -4.615   0.536  1.00  0.00     0.064 A 
ATOM     89  C   UNL     1     -12.901  -4.913   0.687  1.00  0.00     0.173 A 
ATOM     90  C   UNL     1     -15.184  -5.448   1.189  1.00  0.00     0.173 A 
ATOM     91  F   UNL     1     -11.960  -4.110   0.174  1.00  0.00    -0.203 F 
ATOM     92  C   UNL     1     -12.479  -6.017   1.427  1.00  0.00     0.198 A 
ATOM     93  C   UNL     1     -14.759  -6.528   1.958  1.00  0.00     0.198 A 
ATOM     94  F   UNL     1     -16.498  -5.181   1.124  1.00  0.00    -0.203 F 
ATOM     95  F   UNL     1     -11.171  -6.287   1.549  1.00  0.00    -0.200 F 
ATOM     96  C   UNL     1     -13.409  -6.818   2.070  1.00  0.00     0.200 A 
ATOM     97  F   UNL     1     -15.660  -7.270   2.617  1.00  0.00    -0.200 F 
ATOM     98  F   UNL     1     -13.004  -7.853   2.820  1.00  0.00    -0.200 F 
ENDBRANCH  65  88
ENDBRANCH  39  40
ENDBRANCH  32  34
ENDBRANCH  31  32
ENDBRANCH  30  31
ENDBRANCH  29  30
ENDBRANCH  28  29
ENDBRANCH  27  28
ENDBRANCH   1  27
TORSDOF 21
