REMARK SMILES C#CCN(CC(=O)OCCOCCOCCOCCOC(=O)c1ccc(-c2c3nc(c(-c4c(F)c(F)c(F)c(F)c4F)c4ccc([nH]4)c(-c4c(F)c(F)c(F)c(F)c4F)c4nc(c(-c5c(F)c(F)c(F)c(F)c5F)c5ccc2[nH]5)C=C4)C=C3)cc1)C(=O)CCc1ccc(Cl)cc1Cl
REMARK SMILES IDX 12 1 11 2 10 3 9 4 8 5 6 6 7 7 5 8 4 9 3 10 2 11 1 12 86 13
REMARK SMILES IDX 87 14 88 15 89 16 90 17 91 18 96 19 92 20 95 21 97 22 93 23
REMARK SMILES IDX 94 24 13 25 14 26 15 27 16 28 17 29 18 30 19 31 20 32 21 33
REMARK SMILES IDX 22 34 23 35 24 36 85 37 25 38 84 39 26 40 27 41 28 42 78 43
REMARK SMILES IDX 29 44 83 45 77 46 79 47 30 48 82 49 76 50 75 51 31 53 63 54
REMARK SMILES IDX 43 55 62 56 44 57 47 58 61 59 80 60 45 61 46 62 60 64 81 65
REMARK SMILES IDX 48 66 32 67 33 68 41 69 34 70 35 71 39 72 42 73 36 74 37 75
REMARK SMILES IDX 40 76 38 77 64 78 65 79 73 80 66 81 67 82 71 83 74 84 68 85
REMARK SMILES IDX 69 86 72 87 70 88 49 89 50 90 58 91 51 92 52 93 56 94 59 95
REMARK SMILES IDX 53 96 54 97 57 98 55 99
REMARK H PARENT 79 52 47 63
REMARK Flexibility Score: inf
ROOT
ATOM      1  C   UNL     1      -5.474  -1.363   3.551  1.00  0.00     0.188 C 
ENDROOT
BRANCH   1   2
ATOM      2  O   UNL     1      -6.860  -1.332   3.245  1.00  0.00    -0.376 OA
BRANCH   2   3
ATOM      3  C   UNL     1      -7.301  -0.124   2.636  1.00  0.00     0.202 C 
BRANCH   3   4
ATOM      4  C   UNL     1      -6.769   0.069   1.210  1.00  0.00     0.261 C 
BRANCH   4   5
ATOM      5  O   UNL     1      -5.332   0.257   1.129  1.00  0.00    -0.462 OA
BRANCH   5   6
ATOM      6  C   UNL     1      -4.845   1.458   1.512  1.00  0.00     0.325 C 
ATOM      7  O   UNL     1      -5.557   2.404   1.833  1.00  0.00    -0.250 OA
BRANCH   6   8
ATOM      8  C   UNL     1      -3.307   1.573   1.450  1.00  0.00     0.243 C 
BRANCH   8   9
ATOM      9  N   UNL     1      -2.366   0.437   1.356  1.00  0.00    -0.320 N 
BRANCH   9  10
ATOM     10  C   UNL     1      -1.884   0.079   0.005  1.00  0.00     0.210 C 
BRANCH  10  11
ATOM     11  C   UNL     1      -0.364   0.079   0.005  1.00  0.00    -0.085 C 
ATOM     12  C   UNL     1       0.940   0.079   0.005  1.00  0.00     0.006 C 
ENDBRANCH  10  11
ENDBRANCH   9  10
BRANCH   9  13
ATOM     13  C   UNL     1      -1.845  -0.288   2.438  1.00  0.00     0.224 C 
ATOM     14  O   UNL     1      -1.062  -1.232   2.287  1.00  0.00    -0.275 OA
BRANCH  13  15
ATOM     15  C   UNL     1      -2.304  -0.011   3.860  1.00  0.00     0.105 C 
BRANCH  15  16
ATOM     16  C   UNL     1      -1.494   0.957   4.725  1.00  0.00     0.047 C 
BRANCH  16  17
ATOM     17  C   UNL     1      -1.946   2.395   4.581  1.00  0.00    -0.029 A 
ATOM     18  C   UNL     1      -1.041   3.321   4.040  1.00  0.00     0.007 A 
ATOM     19  C   UNL     1      -3.263   2.824   4.858  1.00  0.00     0.045 A 
ATOM     20  C   UNL     1      -1.471   4.595   3.667  1.00  0.00     0.021 A 
ATOM     21  C   UNL     1      -3.705   4.077   4.429  1.00  0.00     0.041 A 
ATOM     22  Cl  UNL     1      -4.412   1.826   5.680  1.00  0.00    -0.084 Cl
ATOM     23  C   UNL     1      -2.810   4.948   3.818  1.00  0.00     0.042 A 
ATOM     24  Cl  UNL     1      -3.364   6.462   3.224  1.00  0.00    -0.084 Cl
ENDBRANCH  16  17
ENDBRANCH  15  16
ENDBRANCH  13  15
ENDBRANCH   9  13
ENDBRANCH   8   9
ENDBRANCH   6   8
ENDBRANCH   5   6
ENDBRANCH   4   5
ENDBRANCH   3   4
ENDBRANCH   2   3
ENDBRANCH   1   2
BRANCH   1  25
ATOM     25  C   UNL     1      -4.602  -2.186   2.573  1.00  0.00     0.188 C 
BRANCH  25  26
ATOM     26  O   UNL     1      -5.177  -3.267   1.852  1.00  0.00    -0.377 OA
BRANCH  26  27
ATOM     27  C   UNL     1      -6.247  -3.957   2.468  1.00  0.00     0.188 C 
BRANCH  27  28
ATOM     28  C   UNL     1      -6.007  -4.561   3.861  1.00  0.00     0.188 C 
BRANCH  28  29
ATOM     29  O   UNL     1      -4.904  -4.000   4.567  1.00  0.00    -0.376 OA
BRANCH  29  30
ATOM     30  C   UNL     1      -3.882  -4.914   4.949  1.00  0.00     0.202 C 
BRANCH  30  31
ATOM     31  C   UNL     1      -2.866  -5.254   3.848  1.00  0.00     0.261 C 
BRANCH  31  32
ATOM     32  O   UNL     1      -3.433  -5.683   2.604  1.00  0.00    -0.460 OA
BRANCH  32  33
ATOM     33  C   UNL     1      -4.051  -6.880   2.582  1.00  0.00     0.338 C 
ATOM     34  O   UNL     1      -4.183  -7.667   3.504  1.00  0.00    -0.246 OA
BRANCH  33  35
ATOM     35  C   UNL     1      -4.727  -6.989   1.275  1.00  0.00     0.060 A 
ATOM     36  C   UNL     1      -6.114  -7.178   1.248  1.00  0.00     0.016 A 
ATOM     37  C   UNL     1      -4.003  -6.845   0.088  1.00  0.00     0.016 A 
ATOM     38  C   UNL     1      -6.790  -7.182   0.029  1.00  0.00     0.010 A 
ATOM     39  C   UNL     1      -4.671  -6.915  -1.134  1.00  0.00     0.010 A 
ATOM     40  C   UNL     1      -6.063  -7.098  -1.166  1.00  0.00    -0.014 A 
BRANCH  40  41
ATOM     41  C   UNL     1      -6.711  -7.499  -2.434  1.00  0.00     0.031 A 
ATOM     42  C   UNL     1      -6.777  -8.970  -2.725  1.00  0.00     0.074 A 
ATOM     43  C   UNL     1      -7.205  -6.599  -3.300  1.00  0.00     0.049 A 
ATOM     44  N   UNL     1      -7.240  -9.594  -3.776  1.00  0.00    -0.248 NA
ATOM     45  C   UNL     1      -6.247  -9.863  -1.679  1.00  0.00     0.031 C 
ATOM     46  C   UNL     1      -7.242  -5.153  -3.095  1.00  0.00     0.029 A 
ATOM     47  N   UNL     1      -7.766  -6.779  -4.540  1.00  0.00    -0.354 N 
ATOM     48  C   UNL     1      -7.062 -10.945  -3.512  1.00  0.00     0.074 A 
ATOM     49  C   UNL     1      -6.435 -11.056  -2.216  1.00  0.00     0.031 C 
ATOM     50  C   UNL     1      -7.785  -4.574  -4.182  1.00  0.00     0.029 A 
ATOM     51  C   UNL     1      -8.099  -5.606  -5.170  1.00  0.00     0.049 A 
ATOM     52  H   UNL     1      -7.915  -7.667  -4.939  1.00  0.00     0.167 HD
ATOM     53  C   UNL     1      -7.386 -12.004  -4.288  1.00  0.00     0.037 A 
ATOM     54  C   UNL     1      -8.578  -5.403  -6.413  1.00  0.00     0.037 A 
ATOM     55  C   UNL     1      -7.964 -11.885  -5.596  1.00  0.00     0.049 A 
ATOM     56  C   UNL     1      -8.821  -6.595  -7.308  1.00  0.00     0.074 A 
ATOM     57  C   UNL     1      -8.326 -12.888  -6.474  1.00  0.00     0.029 A 
ATOM     58  N   UNL     1      -8.238 -10.677  -6.222  1.00  0.00    -0.354 N 
ATOM     59  N   UNL     1      -8.687  -7.873  -7.043  1.00  0.00    -0.248 NA
ATOM     60  C   UNL     1      -9.273  -6.316  -8.679  1.00  0.00     0.031 C 
ATOM     61  C   UNL     1      -8.768 -12.286  -7.657  1.00  0.00     0.029 A 
ATOM     62  C   UNL     1      -8.736 -10.909  -7.492  1.00  0.00     0.049 A 
ATOM     63  H   UNL     1      -8.099  -9.788  -5.822  1.00  0.00     0.167 HD
ATOM     64  C   UNL     1      -9.072  -8.548  -8.194  1.00  0.00     0.074 A 
ATOM     65  C   UNL     1      -9.445  -7.538  -9.163  1.00  0.00     0.031 C 
ATOM     66  C   UNL     1      -9.121  -9.883  -8.428  1.00  0.00     0.037 A 
BRANCH  53  67
ATOM     67  C   UNL     1      -7.062 -13.365  -3.752  1.00  0.00     0.064 A 
ATOM     68  C   UNL     1      -7.770 -13.921  -2.675  1.00  0.00     0.173 A 
ATOM     69  C   UNL     1      -6.013 -14.112  -4.306  1.00  0.00     0.173 A 
ATOM     70  F   UNL     1      -8.764 -13.233  -2.093  1.00  0.00    -0.203 F 
ATOM     71  C   UNL     1      -7.417 -15.163  -2.153  1.00  0.00     0.198 A 
ATOM     72  C   UNL     1      -5.682 -15.365  -3.800  1.00  0.00     0.198 A 
ATOM     73  F   UNL     1      -5.300 -13.620  -5.331  1.00  0.00    -0.203 F 
ATOM     74  F   UNL     1      -8.067 -15.648  -1.087  1.00  0.00    -0.200 F 
ATOM     75  C   UNL     1      -6.378 -15.885  -2.719  1.00  0.00     0.200 A 
ATOM     76  F   UNL     1      -4.680 -16.065  -4.351  1.00  0.00    -0.200 F 
ATOM     77  F   UNL     1      -6.037 -17.079  -2.213  1.00  0.00    -0.200 F 
ENDBRANCH  53  67
BRANCH  54  78
ATOM     78  C   UNL     1      -8.852  -4.024  -6.898  1.00  0.00     0.064 A 
ATOM     79  C   UNL     1     -10.163  -3.598  -7.157  1.00  0.00     0.173 A 
ATOM     80  C   UNL     1      -7.814  -3.112  -7.141  1.00  0.00     0.173 A 
ATOM     81  F   UNL     1     -11.189  -4.441  -6.970  1.00  0.00    -0.203 F 
ATOM     82  C   UNL     1     -10.423  -2.320  -7.650  1.00  0.00     0.198 A 
ATOM     83  C   UNL     1      -8.077  -1.826  -7.610  1.00  0.00     0.198 A 
ATOM     84  F   UNL     1      -6.540  -3.470  -6.920  1.00  0.00    -0.203 F 
ATOM     85  F   UNL     1     -11.682  -1.955  -7.930  1.00  0.00    -0.200 F 
ATOM     86  C   UNL     1      -9.380  -1.433  -7.871  1.00  0.00     0.200 A 
ATOM     87  F   UNL     1      -7.066  -0.970  -7.815  1.00  0.00    -0.200 F 
ATOM     88  F   UNL     1      -9.631  -0.205  -8.344  1.00  0.00    -0.200 F 
ENDBRANCH  54  78
BRANCH  66  89
ATOM     89  C   UNL     1      -9.643 -10.340  -9.758  1.00  0.00     0.064 A 
ATOM     90  C   UNL     1      -8.880 -10.231 -10.928  1.00  0.00     0.173 A 
ATOM     91  C   UNL     1     -10.890 -10.980  -9.840  1.00  0.00     0.173 A 
ATOM     92  F   UNL     1      -7.687  -9.617 -10.901  1.00  0.00    -0.203 F 
ATOM     93  C   UNL     1      -9.350 -10.738 -12.136  1.00  0.00     0.198 A 
ATOM     94  C   UNL     1     -11.344 -11.511 -11.043  1.00  0.00     0.198 A 
ATOM     95  F   UNL     1     -11.653 -11.117  -8.745  1.00  0.00    -0.203 F 
ATOM     96  F   UNL     1      -8.618 -10.598 -13.249  1.00  0.00    -0.200 F 
ATOM     97  C   UNL     1     -10.575 -11.387 -12.190  1.00  0.00     0.200 A 
ATOM     98  F   UNL     1     -12.520 -12.153 -11.089  1.00  0.00    -0.200 F 
ATOM     99  F   UNL     1     -11.017 -11.893 -13.350  1.00  0.00    -0.200 F 
ENDBRANCH  66  89
ENDBRANCH  40  41
ENDBRANCH  33  35
ENDBRANCH  32  33
ENDBRANCH  31  32
ENDBRANCH  30  31
ENDBRANCH  29  30
ENDBRANCH  28  29
ENDBRANCH  27  28
ENDBRANCH  26  27
ENDBRANCH  25  26
ENDBRANCH   1  25
TORSDOF 27
