REMARK SMILES Cc1nc2cc(S(=O)(=O)N3CCC(C(=O)OCCOCCOCCOCCOC(=O)c4ccc(-c5c6nc(c(-c7c(F)c(F)c(F)c(F)c7F)c7ccc([nH]7)c(-c7c(F)c(F)c(F)c(F)c7F)c7nc(c(-c8c(F)c(F)c(F)c(F)c8F)c8ccc5[nH]8)C=C7)C=C6)cc4)CC3)ccc2n1C1CCCC1
REMARK SMILES IDX 21 1 20 2 19 3 18 4 17 5 16 6 14 7 15 8 13 9 10 10 11 11
REMARK SMILES IDX 95 12 12 13 94 14 7 15 8 16 9 17 6 18 1 19 2 20 3 21 99 22
REMARK SMILES IDX 4 23 98 24 5 25 97 26 96 27 100 28 101 29 104 30 102 31
REMARK SMILES IDX 103 32 22 33 23 34 24 35 25 36 26 37 27 38 28 39 29 40 30 41
REMARK SMILES IDX 31 42 32 43 93 44 33 45 92 46 34 47 35 48 36 49 86 50 37 51
REMARK SMILES IDX 91 52 85 53 87 54 38 55 90 56 84 57 83 58 39 60 71 61 51 62
REMARK SMILES IDX 70 63 52 64 55 65 69 66 88 67 53 68 54 69 68 71 89 72 56 73
REMARK SMILES IDX 40 74 41 75 49 76 42 77 43 78 47 79 50 80 44 81 45 82 48 83
REMARK SMILES IDX 46 84 72 85 73 86 81 87 74 88 75 89 79 90 82 91 76 92 77 93
REMARK SMILES IDX 80 94 78 95 57 96 58 97 66 98 59 99 60 100 64 101 67 102
REMARK SMILES IDX 61 103 62 104 65 105 63 106
REMARK H PARENT 87 59 55 70
REMARK Flexibility Score: inf
ROOT
ATOM      1  C   UNL     1      -4.582   2.308  -9.400  1.00  0.00     0.188 C 
ENDROOT
BRANCH   1   2
ATOM      2  C   UNL     1      -3.739   3.466  -9.937  1.00  0.00     0.188 C 
BRANCH   2   3
ATOM      3  O   UNL     1      -3.912   3.938 -11.258  1.00  0.00    -0.376 OA
BRANCH   3   4
ATOM      4  C   UNL     1      -3.643   3.159 -12.415  1.00  0.00     0.202 C 
BRANCH   4   5
ATOM      5  C   UNL     1      -2.582   2.058 -12.559  1.00  0.00     0.261 C 
BRANCH   5   6
ATOM      6  O   UNL     1      -2.555   1.046 -11.551  1.00  0.00    -0.463 OA
BRANCH   6   7
ATOM      7  C   UNL     1      -1.571   1.193 -10.641  1.00  0.00     0.309 C 
ATOM      8  O   UNL     1      -0.755   2.111 -10.635  1.00  0.00    -0.252 OA
BRANCH   7   9
ATOM      9  C   UNL     1      -1.529   0.124  -9.580  1.00  0.00     0.102 C 
ATOM     10  N   UNL     1      -1.110  -2.230  -8.014  1.00  0.00    -0.198 NA
ATOM     11  C   UNL     1      -2.493  -1.724  -8.195  1.00  0.00     0.103 C 
ATOM     12  C   UNL     1       0.053  -1.492  -8.563  1.00  0.00     0.103 C 
ATOM     13  C   UNL     1      -2.681  -0.859  -9.435  1.00  0.00     0.032 C 
ATOM     14  C   UNL     1      -0.274  -0.701  -9.810  1.00  0.00     0.032 C 
BRANCH  10  15
ATOM     15  S   UNL     1      -0.808  -3.025  -6.524  1.00  0.00     0.243 S 
ATOM     16  O   UNL     1       0.475  -3.680  -6.647  1.00  0.00    -0.207 OA
ATOM     17  O   UNL     1      -2.008  -3.756  -6.166  1.00  0.00    -0.207 OA
BRANCH  15  18
ATOM     18  C   UNL     1      -0.606  -1.751  -5.287  1.00  0.00     0.085 A 
ATOM     19  C   UNL     1       1.015   0.130   0.154  1.00  0.00     0.088 C 
ATOM     20  C   UNL     1       0.570  -0.145  -1.237  1.00  0.00     0.106 A 
ATOM     21  N   UNL     1       0.552  -1.349  -1.773  1.00  0.00    -0.233 NA
ATOM     22  N   UNL     1       0.139   0.807  -2.144  1.00  0.00    -0.325 N 
ATOM     23  C   UNL     1       0.091  -1.192  -3.049  1.00  0.00     0.090 A 
ATOM     24  C   UNL     1      -0.187   0.145  -3.312  1.00  0.00     0.068 A 
ATOM     25  C   UNL     1      -0.116  -2.162  -4.040  1.00  0.00     0.052 A 
ATOM     26  C   UNL     1      -0.686   0.568  -4.548  1.00  0.00     0.030 A 
ATOM     27  C   UNL     1      -0.883  -0.404  -5.530  1.00  0.00     0.024 A 
BRANCH  22  28
ATOM     28  C   UNL     1       0.020   2.234  -1.905  1.00  0.00     0.089 C 
ATOM     29  C   UNL     1       0.805   3.131  -2.866  1.00  0.00     0.025 C 
ATOM     30  C   UNL     1      -1.415   2.763  -1.979  1.00  0.00     0.025 C 
ATOM     31  C   UNL     1       0.164   4.501  -2.694  1.00  0.00     0.002 C 
ATOM     32  C   UNL     1      -1.290   4.249  -2.304  1.00  0.00     0.002 C 
ENDBRANCH  22  28
ENDBRANCH  15  18
ENDBRANCH  10  15
ENDBRANCH   7   9
ENDBRANCH   6   7
ENDBRANCH   5   6
ENDBRANCH   4   5
ENDBRANCH   3   4
ENDBRANCH   2   3
ENDBRANCH   1   2
BRANCH   1  33
ATOM     33  O   UNL     1      -4.816   1.279 -10.326  1.00  0.00    -0.377 OA
BRANCH  33  34
ATOM     34  C   UNL     1      -5.966   1.318 -11.150  1.00  0.00     0.188 C 
BRANCH  34  35
ATOM     35  C   UNL     1      -6.856   2.570 -11.175  1.00  0.00     0.188 C 
BRANCH  35  36
ATOM     36  O   UNL     1      -7.341   2.903  -9.883  1.00  0.00    -0.376 OA
BRANCH  36  37
ATOM     37  C   UNL     1      -8.655   2.481  -9.545  1.00  0.00     0.202 C 
BRANCH  37  38
ATOM     38  C   UNL     1      -8.937   0.968  -9.539  1.00  0.00     0.261 C 
BRANCH  38  39
ATOM     39  O   UNL     1      -8.711   0.311 -10.800  1.00  0.00    -0.460 OA
BRANCH  39  40
ATOM     40  C   UNL     1      -9.574   0.502 -11.824  1.00  0.00     0.338 C 
ATOM     41  O   UNL     1     -10.694   0.968 -11.755  1.00  0.00    -0.246 OA
BRANCH  40  42
ATOM     42  C   UNL     1      -8.752   0.392 -13.065  1.00  0.00     0.060 A 
ATOM     43  C   UNL     1      -7.730  -0.555 -13.188  1.00  0.00     0.016 A 
ATOM     44  C   UNL     1      -8.823   1.468 -13.964  1.00  0.00     0.016 A 
ATOM     45  C   UNL     1      -6.717  -0.345 -14.126  1.00  0.00     0.010 A 
ATOM     46  C   UNL     1      -7.797   1.683 -14.889  1.00  0.00     0.010 A 
ATOM     47  C   UNL     1      -6.715   0.804 -14.944  1.00  0.00    -0.014 A 
BRANCH  47  48
ATOM     48  C   UNL     1      -5.665   0.905 -15.973  1.00  0.00     0.031 A 
ATOM     49  C   UNL     1      -5.689  -0.237 -16.930  1.00  0.00     0.074 A 
ATOM     50  C   UNL     1      -4.822   1.933 -16.216  1.00  0.00     0.049 A 
ATOM     51  N   UNL     1      -4.747  -1.075 -17.213  1.00  0.00    -0.248 NA
ATOM     52  C   UNL     1      -6.980  -0.530 -17.574  1.00  0.00     0.031 C 
ATOM     53  C   UNL     1      -4.841   3.269 -15.627  1.00  0.00     0.029 A 
ATOM     54  N   UNL     1      -3.796   2.017 -17.130  1.00  0.00    -0.354 N 
ATOM     55  C   UNL     1      -5.280  -1.923 -18.180  1.00  0.00     0.074 A 
ATOM     56  C   UNL     1      -6.685  -1.625 -18.270  1.00  0.00     0.031 C 
ATOM     57  C   UNL     1      -3.989   4.073 -16.303  1.00  0.00     0.029 A 
ATOM     58  C   UNL     1      -3.327   3.309 -17.347  1.00  0.00     0.049 A 
ATOM     59  H   UNL     1      -3.426   1.230 -17.591  1.00  0.00     0.167 HD
ATOM     60  C   UNL     1      -4.495  -2.686 -18.986  1.00  0.00     0.037 A 
ATOM     61  C   UNL     1      -2.531   3.753 -18.358  1.00  0.00     0.037 A 
ATOM     62  C   UNL     1      -3.190  -2.895 -18.427  1.00  0.00     0.049 A 
ATOM     63  C   UNL     1      -1.835   2.584 -18.951  1.00  0.00     0.074 A 
ATOM     64  C   UNL     1      -2.725  -3.455 -17.252  1.00  0.00     0.029 A 
ATOM     65  N   UNL     1      -2.121  -2.218 -18.956  1.00  0.00    -0.354 N 
ATOM     66  N   UNL     1      -0.885   1.913 -18.363  1.00  0.00    -0.248 NA
ATOM     67  C   UNL     1      -2.494   1.901 -20.053  1.00  0.00     0.031 C 
ATOM     68  C   UNL     1      -1.591  -2.673 -16.894  1.00  0.00     0.029 A 
ATOM     69  C   UNL     1      -1.409  -1.720 -17.895  1.00  0.00     0.049 A 
ATOM     70  H   UNL     1      -1.906  -2.110 -19.911  1.00  0.00     0.167 HD
ATOM     71  C   UNL     1      -1.124   0.594 -18.714  1.00  0.00     0.074 A 
ATOM     72  C   UNL     1      -2.072   0.657 -19.822  1.00  0.00     0.031 C 
ATOM     73  C   UNL     1      -0.753  -0.436 -17.901  1.00  0.00     0.037 A 
BRANCH  60  74
ATOM     74  C   UNL     1      -4.827  -2.975 -20.424  1.00  0.00     0.064 A 
ATOM     75  C   UNL     1      -4.089  -3.942 -21.131  1.00  0.00     0.173 A 
ATOM     76  C   UNL     1      -5.650  -2.137 -21.210  1.00  0.00     0.173 A 
ATOM     77  F   UNL     1      -3.247  -4.763 -20.486  1.00  0.00    -0.203 F 
ATOM     78  C   UNL     1      -4.130  -4.024 -22.525  1.00  0.00     0.198 A 
ATOM     79  C   UNL     1      -5.734  -2.260 -22.594  1.00  0.00     0.198 A 
ATOM     80  F   UNL     1      -6.314  -1.099 -20.684  1.00  0.00    -0.203 F 
ATOM     81  F   UNL     1      -3.319  -4.877 -23.164  1.00  0.00    -0.200 F 
ATOM     82  C   UNL     1      -4.951  -3.183 -23.255  1.00  0.00     0.200 A 
ATOM     83  F   UNL     1      -6.518  -1.420 -23.283  1.00  0.00    -0.200 F 
ATOM     84  F   UNL     1      -4.950  -3.222 -24.593  1.00  0.00    -0.200 F 
ENDBRANCH  60  74
BRANCH  61  85
ATOM     85  C   UNL     1      -2.543   5.090 -19.018  1.00  0.00     0.064 A 
ATOM     86  C   UNL     1      -1.506   5.513 -19.871  1.00  0.00     0.173 A 
ATOM     87  C   UNL     1      -3.699   5.897 -19.015  1.00  0.00     0.173 A 
ATOM     88  F   UNL     1      -0.391   4.779 -19.998  1.00  0.00    -0.203 F 
ATOM     89  C   UNL     1      -1.624   6.665 -20.663  1.00  0.00     0.198 A 
ATOM     90  C   UNL     1      -3.807   7.055 -19.787  1.00  0.00     0.198 A 
ATOM     91  F   UNL     1      -4.794   5.533 -18.335  1.00  0.00    -0.203 F 
ATOM     92  F   UNL     1      -0.638   7.003 -21.506  1.00  0.00    -0.200 F 
ATOM     93  C   UNL     1      -2.774   7.435 -20.619  1.00  0.00     0.200 A 
ATOM     94  F   UNL     1      -4.944   7.764 -19.758  1.00  0.00    -0.200 F 
ATOM     95  F   UNL     1      -2.907   8.511 -21.406  1.00  0.00    -0.200 F 
ENDBRANCH  61  85
BRANCH  73  96
ATOM     96  C   UNL     1       0.182  -0.161 -16.758  1.00  0.00     0.064 A 
ATOM     97  C   UNL     1      -0.101   0.727 -15.706  1.00  0.00     0.173 A 
ATOM     98  C   UNL     1       1.319  -0.976 -16.627  1.00  0.00     0.173 A 
ATOM     99  F   UNL     1      -1.219   1.466 -15.701  1.00  0.00    -0.203 F 
ATOM    100  C   UNL     1       0.734   0.808 -14.592  1.00  0.00     0.198 A 
ATOM    101  C   UNL     1       2.122  -0.923 -15.491  1.00  0.00     0.198 A 
ATOM    102  F   UNL     1       1.613  -1.877 -17.578  1.00  0.00    -0.203 F 
ATOM    103  F   UNL     1       0.450   1.667 -13.604  1.00  0.00    -0.200 F 
ATOM    104  C   UNL     1       1.832  -0.028 -14.476  1.00  0.00     0.200 A 
ATOM    105  F   UNL     1       3.152  -1.770 -15.363  1.00  0.00    -0.200 F 
ATOM    106  F   UNL     1       2.589   0.006 -13.371  1.00  0.00    -0.200 F 
ENDBRANCH  73  96
ENDBRANCH  47  48
ENDBRANCH  40  42
ENDBRANCH  39  40
ENDBRANCH  38  39
ENDBRANCH  37  38
ENDBRANCH  36  37
ENDBRANCH  35  36
ENDBRANCH  34  35
ENDBRANCH  33  34
ENDBRANCH   1  33
TORSDOF 23
