REMARK SMILES C[NH+]1CCC(NC(=O)N[C@@H]2C=C[C@H](C(=O)OCCOCCOCCOCCOC(=O)c3ccc(-c4c5nc(c(-c6c(F)c(F)c(F)c(F)c6F)c6ccc([nH]6)c(-c6c(F)c(F)c(F)c(F)c6F)c6nc(c(-c7c(F)c(F)c(F)c(F)c7F)c7ccc4[nH]7)C=C6)C=C5)cc3)C2)CC1
REMARK SMILES IDX 22 1 21 2 20 3 19 4 18 5 17 6 16 7 14 8 15 9 13 10 10 11
REMARK SMILES IDX 11 12 94 13 12 14 9 15 6 16 7 17 8 19 5 21 1 22 2 23 3 24
REMARK SMILES IDX 96 25 4 27 95 28 23 29 24 30 25 31 26 32 27 33 28 34 29 35
REMARK SMILES IDX 30 36 31 37 32 38 93 39 33 40 92 41 34 42 35 43 36 44 86 45
REMARK SMILES IDX 37 46 91 47 85 48 87 49 38 50 90 51 84 52 83 53 39 55 71 56
REMARK SMILES IDX 51 57 70 58 52 59 55 60 69 61 88 62 53 63 54 64 68 66 89 67
REMARK SMILES IDX 56 68 40 69 41 70 49 71 42 72 43 73 47 74 50 75 44 76 45 77
REMARK SMILES IDX 48 78 46 79 72 80 73 81 81 82 74 83 75 84 79 85 82 86 76 87
REMARK SMILES IDX 77 88 80 89 78 90 57 91 58 92 66 93 59 94 60 95 64 96 67 97
REMARK SMILES IDX 61 98 62 99 65 100 63 101
REMARK H PARENT 6 18 9 20 2 26 87 54 55 65
REMARK Flexibility Score: inf
ROOT
ATOM      1  O   UNL     1      -1.394   4.124  -1.810  1.00  0.00    -0.377 OA
ENDROOT
BRANCH   1   2
ATOM      2  C   UNL     1      -0.579   3.139  -2.433  1.00  0.00     0.188 C 
BRANCH   2   3
ATOM      3  C   UNL     1      -0.836   2.595  -3.871  1.00  0.00     0.188 C 
BRANCH   3   4
ATOM      4  O   UNL     1      -2.201   2.575  -4.256  1.00  0.00    -0.376 OA
BRANCH   4   5
ATOM      5  C   UNL     1      -2.823   1.307  -4.355  1.00  0.00     0.202 C 
BRANCH   5   6
ATOM      6  C   UNL     1      -3.047   0.580  -3.026  1.00  0.00     0.261 C 
BRANCH   6   7
ATOM      7  O   UNL     1      -1.887   0.444  -2.191  1.00  0.00    -0.463 OA
BRANCH   7   8
ATOM      8  C   UNL     1      -0.913  -0.423  -2.581  1.00  0.00     0.312 C 
ATOM      9  O   UNL     1      -0.945  -1.084  -3.607  1.00  0.00    -0.252 OA
BRANCH   8  10
ATOM     10  C   UNL     1       0.237  -0.362  -1.578  1.00  0.00     0.124 C 
ATOM     11  C   UNL     1       2.573  -0.190  -2.368  1.00  0.00     0.107 C 
ATOM     12  C   UNL     1       2.220  -1.567  -1.916  1.00  0.00    -0.006 C 
ATOM     13  C   UNL     1       1.345   0.618  -1.986  1.00  0.00     0.048 C 
ATOM     14  C   UNL     1       0.961  -1.663  -1.480  1.00  0.00    -0.014 C 
BRANCH  11  15
ATOM     15  N   UNL     1       2.864  -0.217  -3.785  1.00  0.00    -0.332 N 
ATOM     16  N   UNL     1       5.190  -0.686  -3.922  1.00  0.00    -0.335 N 
ATOM     17  C   UNL     1       3.998  -0.409  -4.491  1.00  0.00     0.315 C 
ATOM     18  H   UNL     1       5.924  -0.831  -4.561  1.00  0.00     0.165 HD
ATOM     19  O   UNL     1       3.940  -0.333  -5.719  1.00  0.00    -0.249 OA
ATOM     20  H   UNL     1       2.073  -0.064  -4.351  1.00  0.00     0.165 HD
BRANCH  16  21
ATOM     21  C   UNL     1       5.571  -0.807  -2.534  1.00  0.00     0.095 C 
ATOM     22  C   UNL     1       6.653  -0.982   1.486  1.00  0.00     0.332 C 
ATOM     23  N   UNL     1       6.844  -0.923   0.032  1.00  0.00    -0.337 N 
ATOM     24  C   UNL     1       6.294   0.346  -0.475  1.00  0.00     0.264 C 
ATOM     25  C   UNL     1       6.267  -2.124  -0.599  1.00  0.00     0.264 C 
ATOM     26  H   UNL     1       7.835  -0.930  -0.210  1.00  0.00     0.347 HD
ATOM     27  C   UNL     1       6.286   0.424  -2.001  1.00  0.00     0.086 C 
ATOM     28  C   UNL     1       6.317  -2.067  -2.137  1.00  0.00     0.086 C 
ENDBRANCH  16  21
ENDBRANCH  11  15
ENDBRANCH   8  10
ENDBRANCH   7   8
ENDBRANCH   6   7
ENDBRANCH   5   6
ENDBRANCH   4   5
ENDBRANCH   3   4
ENDBRANCH   2   3
ENDBRANCH   1   2
BRANCH   1  29
ATOM     29  C   UNL     1      -2.532   4.578  -2.516  1.00  0.00     0.188 C 
BRANCH  29  30
ATOM     30  C   UNL     1      -2.200   5.397  -3.778  1.00  0.00     0.188 C 
BRANCH  30  31
ATOM     31  O   UNL     1      -0.825   5.331  -4.133  1.00  0.00    -0.376 OA
BRANCH  31  32
ATOM     32  C   UNL     1       0.018   6.421  -3.807  1.00  0.00     0.202 C 
BRANCH  32  33
ATOM     33  C   UNL     1       0.167   6.862  -2.341  1.00  0.00     0.261 C 
BRANCH  33  34
ATOM     34  O   UNL     1      -1.037   7.016  -1.577  1.00  0.00    -0.460 OA
BRANCH  34  35
ATOM     35  C   UNL     1      -1.888   7.999  -1.927  1.00  0.00     0.338 C 
ATOM     36  O   UNL     1      -1.756   8.811  -2.827  1.00  0.00    -0.246 OA
BRANCH  35  37
ATOM     37  C   UNL     1      -3.128   7.793  -1.148  1.00  0.00     0.060 A 
ATOM     38  C   UNL     1      -4.326   7.530  -1.828  1.00  0.00     0.016 A 
ATOM     39  C   UNL     1      -3.094   7.804   0.249  1.00  0.00     0.016 A 
ATOM     40  C   UNL     1      -5.496   7.288  -1.112  1.00  0.00     0.010 A 
ATOM     41  C   UNL     1      -4.276   7.604   0.965  1.00  0.00     0.010 A 
ATOM     42  C   UNL     1      -5.485   7.375   0.285  1.00  0.00    -0.014 A 
BRANCH  42  43
ATOM     43  C   UNL     1      -6.771   7.470   1.013  1.00  0.00     0.031 A 
ATOM     44  C   UNL     1      -7.300   8.844   1.317  1.00  0.00     0.074 A 
ATOM     45  C   UNL     1      -7.468   6.377   1.365  1.00  0.00     0.049 A 
ATOM     46  N   UNL     1      -8.375   9.199   1.970  1.00  0.00    -0.248 NA
ATOM     47  C   UNL     1      -6.500   9.973   0.813  1.00  0.00     0.031 C 
ATOM     48  C   UNL     1      -7.081   4.998   1.079  1.00  0.00     0.029 A 
ATOM     49  N   UNL     1      -8.652   6.262   2.049  1.00  0.00    -0.354 N 
ATOM     50  C   UNL     1      -8.378  10.587   1.957  1.00  0.00     0.074 A 
ATOM     51  C   UNL     1      -7.182  11.012   1.265  1.00  0.00     0.031 C 
ATOM     52  C   UNL     1      -8.007   4.171   1.596  1.00  0.00     0.029 A 
ATOM     53  C   UNL     1      -9.032   4.963   2.277  1.00  0.00     0.049 A 
ATOM     54  H   UNL     1      -9.179   7.038   2.348  1.00  0.00     0.167 HD
ATOM     55  C   UNL     1      -9.303  11.433   2.469  1.00  0.00     0.037 A 
ATOM     56  C   UNL     1     -10.076   4.478   2.976  1.00  0.00     0.037 A 
ATOM     57  C   UNL     1     -10.485  11.004   3.166  1.00  0.00     0.049 A 
ATOM     58  C   UNL     1     -11.045   5.442   3.616  1.00  0.00     0.074 A 
ATOM     59  C   UNL     1     -11.488  11.777   3.721  1.00  0.00     0.029 A 
ATOM     60  N   UNL     1     -10.816   9.679   3.414  1.00  0.00    -0.354 N 
ATOM     61  N   UNL     1     -11.057   6.753   3.584  1.00  0.00    -0.248 NA
ATOM     62  C   UNL     1     -12.150   4.855   4.388  1.00  0.00     0.031 C 
ATOM     63  C   UNL     1     -12.394  10.924   4.358  1.00  0.00     0.029 A 
ATOM     64  C   UNL     1     -11.994   9.615   4.140  1.00  0.00     0.049 A 
ATOM     65  H   UNL     1     -10.291   8.900   3.118  1.00  0.00     0.167 HD
ATOM     66  C   UNL     1     -12.184   7.146   4.298  1.00  0.00     0.074 A 
ATOM     67  C   UNL     1     -12.839   5.932   4.739  1.00  0.00     0.031 C 
ATOM     68  C   UNL     1     -12.638   8.396   4.562  1.00  0.00     0.037 A 
BRANCH  55  69
ATOM     69  C   UNL     1      -9.049  12.905   2.321  1.00  0.00     0.064 A 
ATOM     70  C   UNL     1      -9.112  13.546   1.075  1.00  0.00     0.173 A 
ATOM     71  C   UNL     1      -8.757  13.689   3.448  1.00  0.00     0.173 A 
ATOM     72  F   UNL     1      -9.368  12.839  -0.037  1.00  0.00    -0.203 F 
ATOM     73  C   UNL     1      -8.865  14.911   0.958  1.00  0.00     0.198 A 
ATOM     74  C   UNL     1      -8.545  15.059   3.332  1.00  0.00     0.198 A 
ATOM     75  F   UNL     1      -8.684  13.126   4.663  1.00  0.00    -0.203 F 
ATOM     76  F   UNL     1      -8.877  15.492  -0.250  1.00  0.00    -0.200 F 
ATOM     77  C   UNL     1      -8.590  15.668   2.087  1.00  0.00     0.200 A 
ATOM     78  F   UNL     1      -8.292  15.791   4.426  1.00  0.00    -0.200 F 
ATOM     79  F   UNL     1      -8.361  16.984   1.974  1.00  0.00    -0.200 F 
ENDBRANCH  55  69
BRANCH  56  80
ATOM     80  C   UNL     1     -10.261   3.009   3.123  1.00  0.00     0.064 A 
ATOM     81  C   UNL     1     -11.360   2.355   2.549  1.00  0.00     0.173 A 
ATOM     82  C   UNL     1      -9.359   2.233   3.868  1.00  0.00     0.173 A 
ATOM     83  F   UNL     1     -12.265   3.055   1.851  1.00  0.00    -0.203 F 
ATOM     84  C   UNL     1     -11.562   0.988   2.732  1.00  0.00     0.198 A 
ATOM     85  C   UNL     1      -9.545   0.861   4.023  1.00  0.00     0.198 A 
ATOM     86  F   UNL     1      -8.292   2.808   4.442  1.00  0.00    -0.203 F 
ATOM     87  F   UNL     1     -12.651   0.400   2.218  1.00  0.00    -0.200 F 
ATOM     88  C   UNL     1     -10.652   0.241   3.464  1.00  0.00     0.200 A 
ATOM     89  F   UNL     1      -8.655   0.141   4.720  1.00  0.00    -0.200 F 
ATOM     90  F   UNL     1     -10.845  -1.073   3.639  1.00  0.00    -0.200 F 
ENDBRANCH  56  80
BRANCH  68  91
ATOM     91  C   UNL     1     -13.928   8.519   5.324  1.00  0.00     0.064 A 
ATOM     92  C   UNL     1     -14.024   8.180   6.681  1.00  0.00     0.173 A 
ATOM     93  C   UNL     1     -15.076   9.024   4.692  1.00  0.00     0.173 A 
ATOM     94  F   UNL     1     -12.961   7.682   7.330  1.00  0.00    -0.203 F 
ATOM     95  C   UNL     1     -15.229   8.310   7.369  1.00  0.00     0.198 A 
ATOM     96  C   UNL     1     -16.268   9.188   5.392  1.00  0.00     0.198 A 
ATOM     97  F   UNL     1     -15.038   9.375   3.398  1.00  0.00    -0.203 F 
ATOM     98  F   UNL     1     -15.311   7.925   8.650  1.00  0.00    -0.200 F 
ATOM     99  C   UNL     1     -16.347   8.821   6.726  1.00  0.00     0.200 A 
ATOM    100  F   UNL     1     -17.342   9.700   4.774  1.00  0.00    -0.200 F 
ATOM    101  F   UNL     1     -17.502   8.953   7.392  1.00  0.00    -0.200 F 
ENDBRANCH  68  91
ENDBRANCH  42  43
ENDBRANCH  35  37
ENDBRANCH  34  35
ENDBRANCH  33  34
ENDBRANCH  32  33
ENDBRANCH  31  32
ENDBRANCH  30  31
ENDBRANCH  29  30
ENDBRANCH   1  29
TORSDOF 22
