REMARK SMILES COc1ccccc1[C@@H]1CN(C(=O)c2cnn3ccccc23)C[C@H]1C(=O)OCCOCCOCCOCCOC(=O)c1ccc(-c2c3nc(c(-c4c(F)c(F)c(F)c(F)c4F)c4ccc([nH]4)c(-c4c(F)c(F)c(F)c(F)c4F)c4nc(c(-c5c(F)c(F)c(F)c(F)c5F)c5ccc2[nH]5)C=C4)C=C3)cc1
REMARK SMILES IDX 33 1 32 2 31 3 30 4 29 5 28 6 27 7 25 8 26 9 24 10 9 11
REMARK SMILES IDX 10 12 11 13 23 14 8 15 3 16 4 17 5 18 7 19 6 20 2 21 1 22
REMARK SMILES IDX 12 23 13 24 14 25 15 26 22 27 16 28 17 29 21 30 18 31 20 32
REMARK SMILES IDX 19 33 34 34 35 35 36 36 37 37 38 38 39 39 40 40 41 41 42 42
REMARK SMILES IDX 43 43 104 44 44 45 103 46 45 47 46 48 47 49 97 50 48 51
REMARK SMILES IDX 102 52 96 53 98 54 49 55 101 56 95 57 94 58 50 60 82 61
REMARK SMILES IDX 62 62 81 63 63 64 66 65 80 66 99 67 64 68 65 69 79 71 100 72
REMARK SMILES IDX 67 73 51 74 52 75 60 76 53 77 54 78 58 79 61 80 55 81 56 82
REMARK SMILES IDX 59 83 57 84 83 85 84 86 92 87 85 88 86 89 90 90 93 91 87 92
REMARK SMILES IDX 88 93 91 94 89 95 68 96 69 97 77 98 70 99 71 100 75 101
REMARK SMILES IDX 78 102 72 103 73 104 76 105 74 106
REMARK H PARENT 98 59 66 70
REMARK Flexibility Score: inf
ROOT
ATOM      1  O   UNL     1       4.084   3.097  -3.441  1.00  0.00    -0.377 OA
ENDROOT
BRANCH   1   2
ATOM      2  C   UNL     1       2.749   2.694  -3.210  1.00  0.00     0.188 C 
BRANCH   2   3
ATOM      3  C   UNL     1       1.848   3.666  -2.424  1.00  0.00     0.188 C 
BRANCH   3   4
ATOM      4  O   UNL     1       2.326   4.942  -2.026  1.00  0.00    -0.376 OA
BRANCH   4   5
ATOM      5  C   UNL     1       3.696   5.126  -1.713  1.00  0.00     0.202 C 
BRANCH   5   6
ATOM      6  C   UNL     1       4.391   4.213  -0.682  1.00  0.00     0.261 C 
BRANCH   6   7
ATOM      7  O   UNL     1       4.145   2.788  -0.780  1.00  0.00    -0.463 OA
BRANCH   7   8
ATOM      8  C   UNL     1       3.237   2.306   0.092  1.00  0.00     0.311 C 
ATOM      9  O   UNL     1       2.700   2.994   0.960  1.00  0.00    -0.252 OA
BRANCH   8  10
ATOM     10  C   UNL     1       2.920   0.822   0.020  1.00  0.00     0.128 C 
ATOM     11  C   UNL     1       3.148  -0.179  -1.155  1.00  0.00     0.058 C 
ATOM     12  C   UNL     1       3.455  -1.487  -0.426  1.00  0.00     0.129 C 
ATOM     13  N   UNL     1       4.195  -1.054   0.734  1.00  0.00    -0.337 N 
ATOM     14  C   UNL     1       3.697   0.221   1.194  1.00  0.00     0.135 C 
BRANCH  11  15
ATOM     15  C   UNL     1       2.066  -0.483  -2.199  1.00  0.00    -0.000 A 
ATOM     16  C   UNL     1       0.714  -0.768  -1.933  1.00  0.00     0.122 A 
ATOM     17  C   UNL     1      -0.200  -0.969  -2.981  1.00  0.00     0.047 A 
ATOM     18  C   UNL     1       0.233  -0.999  -4.307  1.00  0.00     0.004 A 
ATOM     19  C   UNL     1       2.487  -0.606  -3.545  1.00  0.00     0.008 A 
ATOM     20  C   UNL     1       1.588  -0.873  -4.582  1.00  0.00     0.001 A 
BRANCH  16  21
ATOM     21  O   UNL     1       0.325  -1.241  -0.705  1.00  0.00    -0.496 OA
ATOM     22  C   UNL     1      -0.221  -0.284   0.190  1.00  0.00     0.278 C 
ENDBRANCH  16  21
ENDBRANCH  11  15
BRANCH  13  23
ATOM     23  C   UNL     1       5.120  -1.760   1.471  1.00  0.00     0.257 C 
ATOM     24  O   UNL     1       5.492  -1.381   2.578  1.00  0.00    -0.269 OA
BRANCH  23  25
ATOM     25  C   UNL     1       5.622  -2.987   0.898  1.00  0.00     0.085 A 
ATOM     26  C   UNL     1       5.657  -4.247   1.520  1.00  0.00     0.150 A 
ATOM     27  C   UNL     1       6.224  -3.198  -0.328  1.00  0.00     0.079 A 
ATOM     28  N   UNL     1       6.152  -5.205   0.737  1.00  0.00    -0.176 NA
ATOM     29  N   UNL     1       6.496  -4.567  -0.410  1.00  0.00    -0.240 N 
ATOM     30  C   UNL     1       6.580  -2.381  -1.446  1.00  0.00     0.029 A 
ATOM     31  C   UNL     1       7.040  -5.143  -1.559  1.00  0.00     0.113 A 
ATOM     32  C   UNL     1       7.095  -2.951  -2.551  1.00  0.00     0.004 A 
ATOM     33  C   UNL     1       7.333  -4.382  -2.626  1.00  0.00     0.020 A 
ENDBRANCH  23  25
ENDBRANCH  13  23
ENDBRANCH   8  10
ENDBRANCH   7   8
ENDBRANCH   6   7
ENDBRANCH   5   6
ENDBRANCH   4   5
ENDBRANCH   3   4
ENDBRANCH   2   3
ENDBRANCH   1   2
BRANCH   1  34
ATOM     34  C   UNL     1       4.372   3.686  -4.696  1.00  0.00     0.188 C 
BRANCH  34  35
ATOM     35  C   UNL     1       3.323   4.632  -5.320  1.00  0.00     0.188 C 
BRANCH  35  36
ATOM     36  O   UNL     1       1.973   4.205  -5.171  1.00  0.00    -0.376 OA
BRANCH  36  37
ATOM     37  C   UNL     1       1.253   3.653  -6.261  1.00  0.00     0.202 C 
BRANCH  37  38
ATOM     38  C   UNL     1       1.619   2.237  -6.703  1.00  0.00     0.261 C 
BRANCH  38  39
ATOM     39  O   UNL     1       3.010   1.988  -6.765  1.00  0.00    -0.460 OA
BRANCH  39  40
ATOM     40  C   UNL     1       3.657   2.710  -7.701  1.00  0.00     0.338 C 
ATOM     41  O   UNL     1       3.199   3.585  -8.405  1.00  0.00    -0.246 OA
BRANCH  40  42
ATOM     42  C   UNL     1       5.020   2.178  -7.828  1.00  0.00     0.060 A 
ATOM     43  C   UNL     1       5.795   2.812  -8.792  1.00  0.00     0.016 A 
ATOM     44  C   UNL     1       5.282   0.877  -7.366  1.00  0.00     0.016 A 
ATOM     45  C   UNL     1       6.573   2.006  -9.574  1.00  0.00     0.010 A 
ATOM     46  C   UNL     1       6.062   0.072  -8.149  1.00  0.00     0.010 A 
ATOM     47  C   UNL     1       6.578   0.629  -9.310  1.00  0.00    -0.014 A 
BRANCH  47  48
ATOM     48  C   UNL     1       7.177  -0.214 -10.308  1.00  0.00     0.031 A 
ATOM     49  C   UNL     1       8.640  -0.091 -10.319  1.00  0.00     0.074 A 
ATOM     50  C   UNL     1       6.455  -0.989 -11.133  1.00  0.00     0.049 A 
ATOM     51  N   UNL     1       9.358   0.542 -11.182  1.00  0.00    -0.248 NA
ATOM     52  C   UNL     1       9.357  -0.523  -9.113  1.00  0.00     0.031 C 
ATOM     53  C   UNL     1       5.041  -1.361 -11.066  1.00  0.00     0.029 A 
ATOM     54  N   UNL     1       6.904  -1.669 -12.216  1.00  0.00    -0.354 N 
ATOM     55  C   UNL     1      10.660   0.426 -10.722  1.00  0.00     0.074 A 
ATOM     56  C   UNL     1      10.578  -0.053  -9.367  1.00  0.00     0.031 C 
ATOM     57  C   UNL     1       4.809  -2.371 -11.939  1.00  0.00     0.029 A 
ATOM     58  C   UNL     1       6.017  -2.607 -12.713  1.00  0.00     0.049 A 
ATOM     59  H   UNL     1       7.789  -1.509 -12.617  1.00  0.00     0.167 HD
ATOM     60  C   UNL     1      11.701   0.473 -11.592  1.00  0.00     0.037 A 
ATOM     61  C   UNL     1       6.322  -3.553 -13.635  1.00  0.00     0.037 A 
ATOM     62  C   UNL     1      11.318   1.103 -12.832  1.00  0.00     0.049 A 
ATOM     63  C   UNL     1       7.528  -3.077 -14.369  1.00  0.00     0.074 A 
ATOM     64  C   UNL     1      10.872   2.365 -13.177  1.00  0.00     0.029 A 
ATOM     65  N   UNL     1      11.003   0.294 -13.896  1.00  0.00    -0.354 N 
ATOM     66  N   UNL     1       7.524  -2.040 -15.162  1.00  0.00    -0.248 NA
ATOM     67  C   UNL     1       8.837  -3.456 -13.851  1.00  0.00     0.031 C 
ATOM     68  C   UNL     1       9.913   2.154 -14.211  1.00  0.00     0.029 A 
ATOM     69  C   UNL     1       9.858   0.784 -14.472  1.00  0.00     0.049 A 
ATOM     70  H   UNL     1      11.508  -0.497 -14.192  1.00  0.00     0.167 HD
ATOM     71  C   UNL     1       8.729  -1.395 -14.916  1.00  0.00     0.074 A 
ATOM     72  C   UNL     1       9.529  -2.356 -14.161  1.00  0.00     0.031 C 
ATOM     73  C   UNL     1       8.853  -0.046 -15.094  1.00  0.00     0.037 A 
BRANCH  60  74
ATOM     74  C   UNL     1      12.914  -0.409 -11.461  1.00  0.00     0.064 A 
ATOM     75  C   UNL     1      13.988  -0.217 -12.348  1.00  0.00     0.173 A 
ATOM     76  C   UNL     1      12.945  -1.610 -10.715  1.00  0.00     0.173 A 
ATOM     77  F   UNL     1      14.052   0.881 -13.116  1.00  0.00    -0.203 F 
ATOM     78  C   UNL     1      14.967  -1.195 -12.538  1.00  0.00     0.198 A 
ATOM     79  C   UNL     1      13.954  -2.556 -10.866  1.00  0.00     0.198 A 
ATOM     80  F   UNL     1      11.953  -1.981  -9.899  1.00  0.00    -0.203 F 
ATOM     81  F   UNL     1      15.893  -1.028 -13.491  1.00  0.00    -0.200 F 
ATOM     82  C   UNL     1      14.944  -2.366 -11.803  1.00  0.00     0.200 A 
ATOM     83  F   UNL     1      13.900  -3.691 -10.155  1.00  0.00    -0.200 F 
ATOM     84  F   UNL     1      15.841  -3.333 -12.032  1.00  0.00    -0.200 F 
ENDBRANCH  60  74
BRANCH  61  85
ATOM     85  C   UNL     1       5.875  -4.965 -13.645  1.00  0.00     0.064 A 
ATOM     86  C   UNL     1       6.023  -5.767 -14.786  1.00  0.00     0.173 A 
ATOM     87  C   UNL     1       5.540  -5.633 -12.449  1.00  0.00     0.173 A 
ATOM     88  F   UNL     1       6.394  -5.217 -15.952  1.00  0.00    -0.203 F 
ATOM     89  C   UNL     1       5.860  -7.156 -14.732  1.00  0.00     0.198 A 
ATOM     90  C   UNL     1       5.371  -7.016 -12.398  1.00  0.00     0.198 A 
ATOM     91  F   UNL     1       5.463  -4.970 -11.287  1.00  0.00    -0.203 F 
ATOM     92  F   UNL     1       6.065  -7.897 -15.830  1.00  0.00    -0.200 F 
ATOM     93  C   UNL     1       5.542  -7.780 -13.536  1.00  0.00     0.200 A 
ATOM     94  F   UNL     1       5.103  -7.609 -11.225  1.00  0.00    -0.200 F 
ATOM     95  F   UNL     1       5.441  -9.115 -13.472  1.00  0.00    -0.200 F 
ENDBRANCH  61  85
BRANCH  73  96
ATOM     96  C   UNL     1       7.725   0.664 -15.791  1.00  0.00     0.064 A 
ATOM     97  C   UNL     1       6.432   0.787 -15.252  1.00  0.00     0.173 A 
ATOM     98  C   UNL     1       8.001   1.365 -16.971  1.00  0.00     0.173 A 
ATOM     99  F   UNL     1       6.122   0.229 -14.075  1.00  0.00    -0.203 F 
ATOM    100  C   UNL     1       5.450   1.543 -15.891  1.00  0.00     0.198 A 
ATOM    101  C   UNL     1       7.029   2.149 -17.588  1.00  0.00     0.198 A 
ATOM    102  F   UNL     1       9.234   1.332 -17.498  1.00  0.00    -0.203 F 
ATOM    103  F   UNL     1       4.222   1.637 -15.360  1.00  0.00    -0.200 F 
ATOM    104  C   UNL     1       5.752   2.229 -17.055  1.00  0.00     0.200 A 
ATOM    105  F   UNL     1       7.340   2.851 -18.686  1.00  0.00    -0.200 F 
ATOM    106  F   UNL     1       4.823   2.992 -17.647  1.00  0.00    -0.200 F 
ENDBRANCH  73  96
ENDBRANCH  47  48
ENDBRANCH  40  42
ENDBRANCH  39  40
ENDBRANCH  38  39
ENDBRANCH  37  38
ENDBRANCH  36  37
ENDBRANCH  35  36
ENDBRANCH  34  35
ENDBRANCH   1  34
TORSDOF 24
