REMARK SMILES O=C(C[C@@H]1C(=O)NCCN1C(=O)OCC1c2ccccc2-c2ccccc21)OCCOCCOCCOCCOC(=O)c1ccc(-c2c3nc(c(-c4c(F)c(F)c(F)c(F)c4F)c4ccc([nH]4)c(-c4c(F)c(F)c(F)c(F)c4F)c4nc(c(-c5c(F)c(F)c(F)c(F)c5F)c5ccc2[nH]5)C=C4)C=C3)cc1
REMARK SMILES IDX 32 1 31 2 30 3 29 4 28 5 2 6 1 7 3 8 4 9 5 10 10 11 6 12
REMARK SMILES IDX 7 13 9 14 8 15 11 17 12 18 13 19 14 20 15 21 16 22 27 23
REMARK SMILES IDX 17 24 21 25 22 26 26 27 18 28 20 29 23 30 25 31 19 32 24 33
REMARK SMILES IDX 33 34 34 35 35 36 36 37 37 38 38 39 39 40 40 41 41 42 42 43
REMARK SMILES IDX 43 44 44 45 105 46 45 47 104 48 46 49 47 50 48 51 98 52
REMARK SMILES IDX 49 53 103 54 97 55 99 56 50 57 102 58 96 59 95 60 51 62
REMARK SMILES IDX 83 63 63 64 82 65 64 66 67 67 81 68 100 69 65 70 66 71 80 73
REMARK SMILES IDX 101 74 68 75 52 76 53 77 61 78 54 79 55 80 59 81 62 82 56 83
REMARK SMILES IDX 57 84 60 85 58 86 84 87 85 88 93 89 86 90 87 91 91 92 94 93
REMARK SMILES IDX 88 94 89 95 92 96 90 97 69 98 70 99 78 100 71 101 72 102
REMARK SMILES IDX 76 103 79 104 73 105 74 106 77 107 75 108
REMARK H PARENT 7 16 99 61 67 72
REMARK Flexibility Score: inf
ROOT
ATOM      1  C   UNL     1       2.687   1.699  -1.109  1.00  0.00     0.188 C 
ENDROOT
BRANCH   1   2
ATOM      2  O   UNL     1       4.097   1.580  -1.017  1.00  0.00    -0.376 OA
BRANCH   2   3
ATOM      3  C   UNL     1       4.792   0.690  -0.180  1.00  0.00     0.202 C 
BRANCH   3   4
ATOM      4  C   UNL     1       4.541  -0.809  -0.312  1.00  0.00     0.261 C 
BRANCH   4   5
ATOM      5  O   UNL     1       3.181  -1.254  -0.213  1.00  0.00    -0.463 OA
BRANCH   5   6
ATOM      6  C   UNL     1       2.434  -1.260   0.907  1.00  0.00     0.308 C 
ATOM      7  O   UNL     1       1.461  -2.006   0.999  1.00  0.00    -0.252 OA
BRANCH   6   8
ATOM      8  C   UNL     1       2.664  -0.183   1.923  1.00  0.00     0.158 C 
BRANCH   8   9
ATOM      9  C   UNL     1       3.715  -0.306   3.002  1.00  0.00     0.189 C 
ATOM     10  C   UNL     1       3.982  -1.809   3.258  1.00  0.00     0.243 C 
ATOM     11  N   UNL     1       3.387   0.521   4.206  1.00  0.00    -0.294 N 
ATOM     12  O   UNL     1       4.476  -2.542   2.404  1.00  0.00    -0.273 OA
ATOM     13  N   UNL     1       3.576  -2.332   4.449  1.00  0.00    -0.353 N 
ATOM     14  C   UNL     1       3.625  -0.120   5.492  1.00  0.00     0.145 C 
ATOM     15  C   UNL     1       3.003  -1.515   5.493  1.00  0.00     0.137 C 
ATOM     16  H   UNL     1       3.676  -3.299   4.603  1.00  0.00     0.163 HD
BRANCH  11  17
ATOM     17  C   UNL     1       2.963   1.851   4.220  1.00  0.00     0.410 C 
ATOM     18  O   UNL     1       2.926   2.534   5.236  1.00  0.00    -0.224 OA
BRANCH  17  19
ATOM     19  O   UNL     1       2.538   2.307   3.012  1.00  0.00    -0.448 OA
BRANCH  19  20
ATOM     20  C   UNL     1       1.825   3.571   2.973  1.00  0.00     0.248 C 
BRANCH  20  21
ATOM     21  C   UNL     1       0.315   3.509   3.346  1.00  0.00     0.088 C 
ATOM     22  C   UNL     1      -0.222   2.112   3.620  1.00  0.00    -0.029 A 
ATOM     23  C   UNL     1       0.026   4.199   4.677  1.00  0.00    -0.029 A 
ATOM     24  C   UNL     1      -0.437   1.077   2.727  1.00  0.00     0.005 A 
ATOM     25  C   UNL     1      -0.496   1.958   4.996  1.00  0.00    -0.014 A 
ATOM     26  C   UNL     1      -0.393   3.252   5.636  1.00  0.00    -0.014 A 
ATOM     27  C   UNL     1       0.067   5.555   4.970  1.00  0.00     0.005 A 
ATOM     28  C   UNL     1      -0.798  -0.170   3.243  1.00  0.00     0.000 A 
ATOM     29  C   UNL     1      -0.843   0.720   5.509  1.00  0.00     0.009 A 
ATOM     30  C   UNL     1      -0.731   3.652   6.917  1.00  0.00     0.009 A 
ATOM     31  C   UNL     1      -0.295   5.959   6.256  1.00  0.00     0.000 A 
ATOM     32  C   UNL     1      -0.968  -0.355   4.625  1.00  0.00     0.001 A 
ATOM     33  C   UNL     1      -0.679   5.016   7.224  1.00  0.00     0.001 A 
ENDBRANCH  20  21
ENDBRANCH  19  20
ENDBRANCH  17  19
ENDBRANCH  11  17
ENDBRANCH   8   9
ENDBRANCH   6   8
ENDBRANCH   5   6
ENDBRANCH   4   5
ENDBRANCH   3   4
ENDBRANCH   2   3
ENDBRANCH   1   2
BRANCH   1  34
ATOM     34  C   UNL     1       2.048   0.855  -2.219  1.00  0.00     0.188 C 
BRANCH  34  35
ATOM     35  O   UNL     1       2.567   1.087  -3.527  1.00  0.00    -0.377 OA
BRANCH  35  36
ATOM     36  C   UNL     1       3.955   0.788  -3.661  1.00  0.00     0.188 C 
BRANCH  36  37
ATOM     37  C   UNL     1       4.871   2.026  -3.544  1.00  0.00     0.188 C 
BRANCH  37  38
ATOM     38  O   UNL     1       4.169   3.212  -3.191  1.00  0.00    -0.376 OA
BRANCH  38  39
ATOM     39  C   UNL     1       3.814   4.082  -4.256  1.00  0.00     0.202 C 
BRANCH  39  40
ATOM     40  C   UNL     1       2.912   3.521  -5.366  1.00  0.00     0.261 C 
BRANCH  40  41
ATOM     41  O   UNL     1       3.407   2.378  -6.092  1.00  0.00    -0.460 OA
BRANCH  41  42
ATOM     42  C   UNL     1       4.611   2.440  -6.701  1.00  0.00     0.338 C 
ATOM     43  O   UNL     1       5.338   3.412  -6.808  1.00  0.00    -0.246 OA
BRANCH  42  44
ATOM     44  C   UNL     1       5.014   1.040  -6.993  1.00  0.00     0.060 A 
ATOM     45  C   UNL     1       6.233   0.557  -6.490  1.00  0.00     0.016 A 
ATOM     46  C   UNL     1       4.139   0.173  -7.653  1.00  0.00     0.016 A 
ATOM     47  C   UNL     1       6.574  -0.791  -6.641  1.00  0.00     0.010 A 
ATOM     48  C   UNL     1       4.498  -1.165  -7.838  1.00  0.00     0.010 A 
ATOM     49  C   UNL     1       5.722  -1.651  -7.347  1.00  0.00    -0.014 A 
BRANCH  49  50
ATOM     50  C   UNL     1       6.190  -2.995  -7.770  1.00  0.00     0.031 A 
ATOM     51  C   UNL     1       6.866  -3.107  -9.108  1.00  0.00     0.074 A 
ATOM     52  C   UNL     1       5.992  -4.093  -7.018  1.00  0.00     0.049 A 
ATOM     53  N   UNL     1       7.251  -4.172  -9.761  1.00  0.00    -0.248 NA
ATOM     54  C   UNL     1       7.141  -1.840  -9.807  1.00  0.00     0.031 C 
ATOM     55  C   UNL     1       5.386  -4.115  -5.689  1.00  0.00     0.029 A 
ATOM     56  N   UNL     1       6.262  -5.414  -7.287  1.00  0.00    -0.354 N 
ATOM     57  C   UNL     1       7.800  -3.705 -10.948  1.00  0.00     0.074 A 
ATOM     58  C   UNL     1       7.691  -2.264 -10.934  1.00  0.00     0.031 C 
ATOM     59  C   UNL     1       5.301  -5.392  -5.271  1.00  0.00     0.029 A 
ATOM     60  C   UNL     1       5.810  -6.278  -6.318  1.00  0.00     0.049 A 
ATOM     61  H   UNL     1       6.735  -5.713  -8.097  1.00  0.00     0.167 HD
ATOM     62  C   UNL     1       8.343  -4.417 -11.961  1.00  0.00     0.037 A 
ATOM     63  C   UNL     1       5.774  -7.626  -6.303  1.00  0.00     0.037 A 
ATOM     64  C   UNL     1       8.450  -5.849 -11.979  1.00  0.00     0.049 A 
ATOM     65  C   UNL     1       6.309  -8.397  -7.489  1.00  0.00     0.074 A 
ATOM     66  C   UNL     1       9.026  -6.657 -12.944  1.00  0.00     0.029 A 
ATOM     67  N   UNL     1       7.956  -6.688 -10.993  1.00  0.00    -0.354 N 
ATOM     68  N   UNL     1       6.871  -7.949  -8.586  1.00  0.00    -0.248 NA
ATOM     69  C   UNL     1       6.195  -9.864  -7.436  1.00  0.00     0.031 C 
ATOM     70  C   UNL     1       8.828  -7.989 -12.570  1.00  0.00     0.029 A 
ATOM     71  C   UNL     1       8.177  -8.009 -11.347  1.00  0.00     0.049 A 
ATOM     72  H   UNL     1       7.514  -6.390 -10.166  1.00  0.00     0.167 HD
ATOM     73  C   UNL     1       7.194  -9.073  -9.339  1.00  0.00     0.074 A 
ATOM     74  C   UNL     1       6.786 -10.226  -8.566  1.00  0.00     0.031 C 
ATOM     75  C   UNL     1       7.770  -9.145 -10.564  1.00  0.00     0.037 A 
BRANCH  62  76
ATOM     76  C   UNL     1       8.839  -3.662 -13.155  1.00  0.00     0.064 A 
ATOM     77  C   UNL     1      10.027  -2.917 -13.115  1.00  0.00     0.173 A 
ATOM     78  C   UNL     1       8.149  -3.739 -14.374  1.00  0.00     0.173 A 
ATOM     79  F   UNL     1      10.711  -2.800 -11.967  1.00  0.00    -0.203 F 
ATOM     80  C   UNL     1      10.502  -2.272 -14.253  1.00  0.00     0.198 A 
ATOM     81  C   UNL     1       8.640  -3.112 -15.515  1.00  0.00     0.198 A 
ATOM     82  F   UNL     1       7.007  -4.437 -14.461  1.00  0.00    -0.203 F 
ATOM     83  F   UNL     1      11.625  -1.543 -14.187  1.00  0.00    -0.200 F 
ATOM     84  C   UNL     1       9.815  -2.378 -15.453  1.00  0.00     0.200 A 
ATOM     85  F   UNL     1       7.981  -3.225 -16.676  1.00  0.00    -0.200 F 
ATOM     86  F   UNL     1      10.285  -1.772 -16.552  1.00  0.00    -0.200 F 
ENDBRANCH  62  76
BRANCH  63  87
ATOM     87  C   UNL     1       5.160  -8.356  -5.159  1.00  0.00     0.064 A 
ATOM     88  C   UNL     1       5.926  -9.190  -4.333  1.00  0.00     0.173 A 
ATOM     89  C   UNL     1       3.779  -8.292  -4.916  1.00  0.00     0.173 A 
ATOM     90  F   UNL     1       7.244  -9.316  -4.547  1.00  0.00    -0.203 F 
ATOM     91  C   UNL     1       5.332  -9.954  -3.329  1.00  0.00     0.198 A 
ATOM     92  C   UNL     1       3.192  -9.032  -3.891  1.00  0.00     0.198 A 
ATOM     93  F   UNL     1       2.996  -7.522  -5.685  1.00  0.00    -0.203 F 
ATOM     94  F   UNL     1       6.079 -10.796  -2.601  1.00  0.00    -0.200 F 
ATOM     95  C   UNL     1       3.966  -9.871  -3.106  1.00  0.00     0.200 A 
ATOM     96  F   UNL     1       1.871  -8.947  -3.678  1.00  0.00    -0.200 F 
ATOM     97  F   UNL     1       3.395 -10.615  -2.149  1.00  0.00    -0.200 F 
ENDBRANCH  63  87
BRANCH  75  98
ATOM     98  C   UNL     1       8.015 -10.510 -11.140  1.00  0.00     0.064 A 
ATOM     99  C   UNL     1       6.962 -11.305 -11.614  1.00  0.00     0.173 A 
ATOM    100  C   UNL     1       9.322 -11.002 -11.276  1.00  0.00     0.173 A 
ATOM    101  F   UNL     1       5.693 -10.886 -11.495  1.00  0.00    -0.203 F 
ATOM    102  C   UNL     1       7.207 -12.551 -12.185  1.00  0.00     0.198 A 
ATOM    103  C   UNL     1       9.566 -12.234 -11.876  1.00  0.00     0.198 A 
ATOM    104  F   UNL     1      10.366 -10.276 -10.848  1.00  0.00    -0.203 F 
ATOM    105  F   UNL     1       6.182 -13.312 -12.595  1.00  0.00    -0.200 F 
ATOM    106  C   UNL     1       8.508 -13.010 -12.324  1.00  0.00     0.200 A 
ATOM    107  F   UNL     1      10.825 -12.668 -12.025  1.00  0.00    -0.200 F 
ATOM    108  F   UNL     1       8.743 -14.204 -12.886  1.00  0.00    -0.200 F 
ENDBRANCH  75  98
ENDBRANCH  49  50
ENDBRANCH  42  44
ENDBRANCH  41  42
ENDBRANCH  40  41
ENDBRANCH  39  40
ENDBRANCH  38  39
ENDBRANCH  37  38
ENDBRANCH  36  37
ENDBRANCH  35  36
ENDBRANCH  34  35
ENDBRANCH   1  34
TORSDOF 25
