REMARK SMILES C[C@H](Oc1cc2oc(=O)cc(-c3ccccc3)c2cc1Cl)C(=O)OCCOCCOCCOCCOC(=O)c1ccc(-c2c3nc(c(-c4c(F)c(F)c(F)c(F)c4F)c4ccc([nH]4)c(-c4c(F)c(F)c(F)c(F)c4F)c4nc(c(-c5c(F)c(F)c(F)c(F)c5F)c5ccc2[nH]5)C=C4)C=C3)cc1
REMARK SMILES IDX 29 1 28 2 27 3 26 4 25 5 24 6 22 7 23 8 2 9 1 10 3 11 4 12
REMARK SMILES IDX 5 13 20 14 6 15 19 16 21 17 7 18 18 19 8 20 11 21 9 22 10 23
REMARK SMILES IDX 12 24 13 25 17 26 14 27 16 28 15 29 30 30 31 31 32 32 33 33
REMARK SMILES IDX 34 34 35 35 36 36 37 37 38 38 39 39 40 40 101 41 41 42
REMARK SMILES IDX 100 43 42 44 43 45 44 46 94 47 45 48 99 49 93 50 95 51 46 52
REMARK SMILES IDX 98 53 92 54 91 55 47 57 79 58 59 59 78 60 60 61 63 62 77 63
REMARK SMILES IDX 96 64 61 65 62 66 76 68 97 69 64 70 48 71 49 72 57 73 50 74
REMARK SMILES IDX 51 75 55 76 58 77 52 78 53 79 56 80 54 81 80 82 81 83 89 84
REMARK SMILES IDX 82 85 83 86 87 87 90 88 84 89 85 90 88 91 86 92 65 93 66 94
REMARK SMILES IDX 74 95 67 96 68 97 72 98 75 99 69 100 70 101 73 102 71 103
REMARK H PARENT 95 56 63 67
REMARK Flexibility Score: inf
ROOT
ATOM      1  C   UNL     1      -1.301   0.011  -1.111  1.00  0.00     0.188 C 
ENDROOT
BRANCH   1   2
ATOM      2  C   UNL     1      -1.832  -1.372  -1.530  1.00  0.00     0.188 C 
BRANCH   2   3
ATOM      3  O   UNL     1      -3.138  -1.817  -1.182  1.00  0.00    -0.376 OA
BRANCH   3   4
ATOM      4  C   UNL     1      -3.729  -1.526   0.074  1.00  0.00     0.202 C 
BRANCH   4   5
ATOM      5  C   UNL     1      -3.009  -1.795   1.401  1.00  0.00     0.261 C 
BRANCH   5   6
ATOM      6  O   UNL     1      -1.624  -1.450   1.453  1.00  0.00    -0.461 OA
BRANCH   6   7
ATOM      7  C   UNL     1      -0.762  -2.471   1.224  1.00  0.00     0.347 C 
ATOM      8  O   UNL     1      -1.093  -3.626   0.976  1.00  0.00    -0.248 OA
BRANCH   7   9
ATOM      9  C   UNL     1       0.699  -2.054   1.412  1.00  0.00     0.279 C 
ATOM     10  C   UNL     1       0.977  -2.357   2.887  1.00  0.00     0.066 C 
BRANCH   9  11
ATOM     11  O   UNL     1       0.997  -0.701   1.049  1.00  0.00    -0.477 OA
BRANCH  11  12
ATOM     12  C   UNL     1       2.309  -0.291   1.029  1.00  0.00     0.142 A 
ATOM     13  C   UNL     1       3.367  -1.141   1.328  1.00  0.00     0.096 A 
ATOM     14  C   UNL     1       2.597   1.068   0.812  1.00  0.00     0.084 A 
ATOM     15  C   UNL     1       4.594  -0.603   1.695  1.00  0.00     0.142 A 
ATOM     16  C   UNL     1       3.881   1.583   1.073  1.00  0.00     0.037 A 
ATOM     17  Cl  UNL     1       1.388   2.179   0.270  1.00  0.00    -0.080 Cl
ATOM     18  O   UNL     1       5.484  -1.517   2.277  1.00  0.00    -0.423 OA
ATOM     19  C   UNL     1       4.869   0.758   1.619  1.00  0.00     0.027 A 
ATOM     20  C   UNL     1       6.505  -1.044   3.073  1.00  0.00     0.336 A 
ATOM     21  C   UNL     1       6.139   1.246   2.184  1.00  0.00    -0.000 A 
ATOM     22  O   UNL     1       7.131  -1.771   3.834  1.00  0.00    -0.246 OA
ATOM     23  C   UNL     1       6.855   0.373   2.916  1.00  0.00     0.103 A 
BRANCH  21  24
ATOM     24  C   UNL     1       6.684   2.618   2.120  1.00  0.00    -0.017 A 
ATOM     25  C   UNL     1       7.928   2.843   1.510  1.00  0.00     0.009 A 
ATOM     26  C   UNL     1       6.001   3.699   2.690  1.00  0.00     0.009 A 
ATOM     27  C   UNL     1       8.478   4.124   1.472  1.00  0.00     0.001 A 
ATOM     28  C   UNL     1       6.547   4.984   2.639  1.00  0.00     0.001 A 
ATOM     29  C   UNL     1       7.785   5.195   2.032  1.00  0.00     0.000 A 
ENDBRANCH  21  24
ENDBRANCH  11  12
ENDBRANCH   9  11
ENDBRANCH   7   9
ENDBRANCH   6   7
ENDBRANCH   5   6
ENDBRANCH   4   5
ENDBRANCH   3   4
ENDBRANCH   2   3
ENDBRANCH   1   2
BRANCH   1  30
ATOM     30  O   UNL     1      -2.093   0.674  -0.144  1.00  0.00    -0.377 OA
BRANCH  30  31
ATOM     31  C   UNL     1      -2.949   1.697  -0.637  1.00  0.00     0.188 C 
BRANCH  31  32
ATOM     32  C   UNL     1      -3.736   1.397  -1.931  1.00  0.00     0.188 C 
BRANCH  32  33
ATOM     33  O   UNL     1      -2.921   0.957  -3.010  1.00  0.00    -0.376 OA
BRANCH  33  34
ATOM     34  C   UNL     1      -2.551   1.899  -4.005  1.00  0.00     0.202 C 
BRANCH  34  35
ATOM     35  C   UNL     1      -1.614   3.042  -3.580  1.00  0.00     0.261 C 
BRANCH  35  36
ATOM     36  O   UNL     1      -2.088   3.887  -2.518  1.00  0.00    -0.460 OA
BRANCH  36  37
ATOM     37  C   UNL     1      -3.238   4.556  -2.725  1.00  0.00     0.338 C 
ATOM     38  O   UNL     1      -3.895   4.588  -3.756  1.00  0.00    -0.246 OA
BRANCH  37  39
ATOM     39  C   UNL     1      -3.709   5.095  -1.433  1.00  0.00     0.060 A 
ATOM     40  C   UNL     1      -4.987   4.736  -0.991  1.00  0.00     0.016 A 
ATOM     41  C   UNL     1      -2.920   5.966  -0.676  1.00  0.00     0.016 A 
ATOM     42  C   UNL     1      -5.505   5.293   0.176  1.00  0.00     0.010 A 
ATOM     43  C   UNL     1      -3.448   6.540   0.487  1.00  0.00     0.010 A 
ATOM     44  C   UNL     1      -4.761   6.239   0.892  1.00  0.00    -0.014 A 
BRANCH  44  45
ATOM     45  C   UNL     1      -5.447   7.032   1.944  1.00  0.00     0.031 A 
ATOM     46  C   UNL     1      -5.943   8.412   1.603  1.00  0.00     0.074 A 
ATOM     47  C   UNL     1      -5.714   6.499   3.149  1.00  0.00     0.049 A 
ATOM     48  N   UNL     1      -6.625   9.257   2.334  1.00  0.00    -0.248 NA
ATOM     49  C   UNL     1      -5.631   8.905   0.252  1.00  0.00     0.031 C 
ATOM     50  C   UNL     1      -5.315   5.163   3.587  1.00  0.00     0.029 A 
ATOM     51  N   UNL     1      -6.394   7.019   4.223  1.00  0.00    -0.354 N 
ATOM     52  C   UNL     1      -6.835  10.370   1.529  1.00  0.00     0.074 A 
ATOM     53  C   UNL     1      -6.164  10.117   0.273  1.00  0.00     0.031 C 
ATOM     54  C   UNL     1      -5.756   4.968   4.842  1.00  0.00     0.029 A 
ATOM     55  C   UNL     1      -6.446   6.172   5.303  1.00  0.00     0.049 A 
ATOM     56  H   UNL     1      -6.805   7.913   4.219  1.00  0.00     0.167 HD
ATOM     57  C   UNL     1      -7.541  11.493   1.803  1.00  0.00     0.037 A 
ATOM     58  C   UNL     1      -6.977   6.357   6.527  1.00  0.00     0.037 A 
ATOM     59  C   UNL     1      -8.197  11.752   3.058  1.00  0.00     0.049 A 
ATOM     60  C   UNL     1      -7.697   7.647   6.831  1.00  0.00     0.074 A 
ATOM     61  C   UNL     1      -8.931  12.862   3.438  1.00  0.00     0.029 A 
ATOM     62  N   UNL     1      -8.193  10.888   4.144  1.00  0.00    -0.354 N 
ATOM     63  N   UNL     1      -7.911   8.683   6.056  1.00  0.00    -0.248 NA
ATOM     64  C   UNL     1      -8.262   7.786   8.181  1.00  0.00     0.031 C 
ATOM     65  C   UNL     1      -9.322  12.695   4.771  1.00  0.00     0.029 A 
ATOM     66  C   UNL     1      -8.892  11.451   5.201  1.00  0.00     0.049 A 
ATOM     67  H   UNL     1      -7.758  10.005   4.161  1.00  0.00     0.167 HD
ATOM     68  C   UNL     1      -8.654   9.582   6.812  1.00  0.00     0.074 A 
ATOM     69  C   UNL     1      -8.880   8.954   8.097  1.00  0.00     0.031 C 
ATOM     70  C   UNL     1      -9.104  10.818   6.478  1.00  0.00     0.037 A 
BRANCH  57  71
ATOM     71  C   UNL     1      -7.626  12.539   0.727  1.00  0.00     0.064 A 
ATOM     72  C   UNL     1      -8.367  12.330  -0.447  1.00  0.00     0.173 A 
ATOM     73  C   UNL     1      -6.992  13.781   0.887  1.00  0.00     0.173 A 
ATOM     74  F   UNL     1      -8.980  11.155  -0.658  1.00  0.00    -0.203 F 
ATOM     75  C   UNL     1      -8.450  13.314  -1.428  1.00  0.00     0.198 A 
ATOM     76  C   UNL     1      -7.105  14.775  -0.081  1.00  0.00     0.198 A 
ATOM     77  F   UNL     1      -6.273  14.035   1.990  1.00  0.00    -0.203 F 
ATOM     78  F   UNL     1      -9.124  13.073  -2.561  1.00  0.00    -0.200 F 
ATOM     79  C   UNL     1      -7.827  14.539  -1.241  1.00  0.00     0.200 A 
ATOM     80  F   UNL     1      -6.514  15.963   0.109  1.00  0.00    -0.200 F 
ATOM     81  F   UNL     1      -7.918  15.490  -2.181  1.00  0.00    -0.200 F 
ENDBRANCH  57  71
BRANCH  58  82
ATOM     82  C   UNL     1      -6.835   5.304   7.569  1.00  0.00     0.064 A 
ATOM     83  C   UNL     1      -7.947   4.622   8.081  1.00  0.00     0.173 A 
ATOM     84  C   UNL     1      -5.576   4.987   8.104  1.00  0.00     0.173 A 
ATOM     85  F   UNL     1      -9.176   4.906   7.623  1.00  0.00    -0.203 F 
ATOM     86  C   UNL     1      -7.812   3.688   9.107  1.00  0.00     0.198 A 
ATOM     87  C   UNL     1      -5.438   4.027   9.103  1.00  0.00     0.198 A 
ATOM     88  F   UNL     1      -4.478   5.610   7.653  1.00  0.00    -0.203 F 
ATOM     89  F   UNL     1      -8.900   3.099   9.622  1.00  0.00    -0.200 F 
ATOM     90  C   UNL     1      -6.556   3.387   9.613  1.00  0.00     0.200 A 
ATOM     91  F   UNL     1      -4.221   3.729   9.579  1.00  0.00    -0.200 F 
ATOM     92  F   UNL     1      -6.427   2.490  10.600  1.00  0.00    -0.200 F 
ENDBRANCH  58  82
BRANCH  70  93
ATOM     93  C   UNL     1      -9.912  11.555   7.511  1.00  0.00     0.064 A 
ATOM     94  C   UNL     1      -9.340  12.019   8.706  1.00  0.00     0.173 A 
ATOM     95  C   UNL     1     -11.279  11.803   7.303  1.00  0.00     0.173 A 
ATOM     96  F   UNL     1      -8.041  11.803   8.961  1.00  0.00    -0.203 F 
ATOM     97  C   UNL     1     -10.115  12.654   9.674  1.00  0.00     0.198 A 
ATOM     98  C   UNL     1     -12.041  12.474   8.255  1.00  0.00     0.198 A 
ATOM     99  F   UNL     1     -11.877  11.395   6.174  1.00  0.00    -0.203 F 
ATOM    100  F   UNL     1      -9.561  13.018  10.839  1.00  0.00    -0.200 F 
ATOM    101  C   UNL     1     -11.463  12.885   9.446  1.00  0.00     0.200 A 
ATOM    102  F   UNL     1     -13.340  12.713   8.025  1.00  0.00    -0.200 F 
ATOM    103  F   UNL     1     -12.208  13.492  10.380  1.00  0.00    -0.200 F 
ENDBRANCH  70  93
ENDBRANCH  44  45
ENDBRANCH  37  39
ENDBRANCH  36  37
ENDBRANCH  35  36
ENDBRANCH  34  35
ENDBRANCH  33  34
ENDBRANCH  32  33
ENDBRANCH  31  32
ENDBRANCH  30  31
ENDBRANCH   1  30
TORSDOF 23
