REMARK SMILES O=C(OCCOCCOCCOCCOC(=O)[C@H]1C[C@H](O)CN1C(=O)CS[C@H]1CCS(=O)(=O)C1)c1ccc(-c2c3nc(c(-c4c(F)c(F)c(F)c(F)c4F)c4ccc([nH]4)c(-c4c(F)c(F)c(F)c(F)c4F)c4nc(c(-c5c(F)c(F)c(F)c(F)c5F)c5ccc2[nH]5)C=C4)C=C3)cc1
REMARK SMILES IDX 10 1 9 2 8 3 7 4 6 5 5 6 4 7 3 8 2 9 1 10 35 11 36 12 97 13
REMARK SMILES IDX 37 14 96 15 38 16 39 17 40 18 90 19 41 20 95 21 89 22 91 23
REMARK SMILES IDX 42 24 94 25 88 26 87 27 43 29 75 30 55 31 74 32 56 33 59 34
REMARK SMILES IDX 73 35 92 36 57 37 58 38 72 40 93 41 60 42 44 43 45 44 53 45
REMARK SMILES IDX 46 46 47 47 51 48 54 49 48 50 49 51 52 52 50 53 76 54 77 55
REMARK SMILES IDX 85 56 78 57 79 58 83 59 86 60 80 61 81 62 84 63 82 64 61 65
REMARK SMILES IDX 62 66 70 67 63 68 64 69 68 70 71 71 65 72 66 73 69 74 67 75
REMARK SMILES IDX 11 76 12 77 13 78 14 79 15 80 16 81 17 82 18 83 19 84 23 85
REMARK SMILES IDX 20 86 22 87 24 88 25 89 26 90 27 91 28 92 29 93 34 94 30 95
REMARK SMILES IDX 31 96 32 97 33 98 21 99
REMARK H PARENT 91 28 59 39 21 100
REMARK Flexibility Score: inf
ROOT
ATOM      1  C   UNL     1       9.041 -10.605   0.245  1.00  0.00     0.188 C 
ENDROOT
BRANCH   1   2
ATOM      2  O   UNL     1       9.556 -11.824  -0.270  1.00  0.00    -0.377 OA
BRANCH   2   3
ATOM      3  C   UNL     1       9.098 -12.998   0.406  1.00  0.00     0.188 C 
BRANCH   3   4
ATOM      4  C   UNL     1       9.058 -12.925   1.942  1.00  0.00     0.188 C 
BRANCH   4   5
ATOM      5  O   UNL     1       8.142 -11.942   2.433  1.00  0.00    -0.376 OA
BRANCH   5   6
ATOM      6  C   UNL     1       8.608 -11.031   3.433  1.00  0.00     0.202 C 
BRANCH   6   7
ATOM      7  C   UNL     1       8.769 -11.617   4.827  1.00  0.00     0.261 C 
BRANCH   7   8
ATOM      8  O   UNL     1       8.904 -13.042   4.848  1.00  0.00    -0.460 OA
BRANCH   8   9
ATOM      9  C   UNL     1       7.966 -13.996   4.663  1.00  0.00     0.338 C 
ATOM     10  O   UNL     1       8.342 -15.168   4.619  1.00  0.00    -0.246 OA
BRANCH   9  11
ATOM     11  C   UNL     1       6.497 -13.748   4.528  1.00  0.00     0.060 A 
ATOM     12  C   UNL     1       5.889 -12.589   4.041  1.00  0.00     0.016 A 
ATOM     13  C   UNL     1       5.663 -14.828   4.863  1.00  0.00     0.016 A 
ATOM     14  C   UNL     1       4.516 -12.477   3.909  1.00  0.00     0.010 A 
ATOM     15  C   UNL     1       4.277 -14.725   4.762  1.00  0.00     0.010 A 
ATOM     16  C   UNL     1       3.710 -13.528   4.316  1.00  0.00    -0.014 A 
BRANCH  16  17
ATOM     17  C   UNL     1       2.297 -13.222   4.549  1.00  0.00     0.031 A 
ATOM     18  C   UNL     1       1.906 -12.928   5.961  1.00  0.00     0.074 A 
ATOM     19  C   UNL     1       1.459 -13.060   3.516  1.00  0.00     0.049 A 
ATOM     20  N   UNL     1       0.723 -12.775   6.484  1.00  0.00    -0.248 NA
ATOM     21  C   UNL     1       3.015 -12.777   6.922  1.00  0.00     0.031 C 
ATOM     22  C   UNL     1       1.836 -13.131   2.103  1.00  0.00     0.029 A 
ATOM     23  N   UNL     1       0.122 -12.786   3.497  1.00  0.00    -0.354 N 
ATOM     24  C   UNL     1       0.945 -12.571   7.839  1.00  0.00     0.074 A 
ATOM     25  C   UNL     1       2.369 -12.606   8.062  1.00  0.00     0.031 C 
ATOM     26  C   UNL     1       0.744 -12.922   1.351  1.00  0.00     0.029 A 
ATOM     27  C   UNL     1      -0.410 -12.791   2.234  1.00  0.00     0.049 A 
ATOM     28  H   UNL     1      -0.406 -12.603   4.308  1.00  0.00     0.167 HD
ATOM     29  C   UNL     1       0.016 -12.395   8.804  1.00  0.00     0.037 A 
ATOM     30  C   UNL     1      -1.702 -12.763   1.861  1.00  0.00     0.037 A 
ATOM     31  C   UNL     1      -1.390 -12.370   8.512  1.00  0.00     0.049 A 
ATOM     32  C   UNL     1      -2.732 -12.687   2.957  1.00  0.00     0.074 A 
ATOM     33  C   UNL     1      -2.459 -12.276   9.378  1.00  0.00     0.029 A 
ATOM     34  N   UNL     1      -1.913 -12.446   7.224  1.00  0.00    -0.354 N 
ATOM     35  N   UNL     1      -2.551 -12.609   4.256  1.00  0.00    -0.248 NA
ATOM     36  C   UNL     1      -4.139 -12.712   2.547  1.00  0.00     0.031 C 
ATOM     37  C   UNL     1      -3.631 -12.356   8.617  1.00  0.00     0.029 A 
ATOM     38  C   UNL     1      -3.293 -12.422   7.271  1.00  0.00     0.049 A 
ATOM     39  H   UNL     1      -1.378 -12.508   6.400  1.00  0.00     0.167 HD
ATOM     40  C   UNL     1      -3.815 -12.545   4.821  1.00  0.00     0.074 A 
ATOM     41  C   UNL     1      -4.756 -12.592   3.715  1.00  0.00     0.031 C 
ATOM     42  C   UNL     1      -4.174 -12.452   6.126  1.00  0.00     0.037 A 
BRANCH  29  43
ATOM     43  C   UNL     1       0.508 -12.344  10.221  1.00  0.00     0.064 A 
ATOM     44  C   UNL     1       1.291 -11.288  10.712  1.00  0.00     0.173 A 
ATOM     45  C   UNL     1       0.264 -13.427  11.081  1.00  0.00     0.173 A 
ATOM     46  F   UNL     1       1.589 -10.244   9.923  1.00  0.00    -0.203 F 
ATOM     47  C   UNL     1       1.851 -11.340  11.988  1.00  0.00     0.198 A 
ATOM     48  C   UNL     1       0.794 -13.460  12.368  1.00  0.00     0.198 A 
ATOM     49  F   UNL     1      -0.467 -14.472  10.663  1.00  0.00    -0.203 F 
ATOM     50  F   UNL     1       2.669 -10.361  12.400  1.00  0.00    -0.200 F 
ATOM     51  C   UNL     1       1.600 -12.425  12.815  1.00  0.00     0.200 A 
ATOM     52  F   UNL     1       0.548 -14.508  13.165  1.00  0.00    -0.200 F 
ATOM     53  F   UNL     1       2.153 -12.482  14.034  1.00  0.00    -0.200 F 
ENDBRANCH  29  43
BRANCH  30  54
ATOM     54  C   UNL     1      -2.064 -12.876   0.424  1.00  0.00     0.064 A 
ATOM     55  C   UNL     1      -2.678 -11.819  -0.259  1.00  0.00     0.173 A 
ATOM     56  C   UNL     1      -1.774 -14.039  -0.308  1.00  0.00     0.173 A 
ATOM     57  F   UNL     1      -2.991 -10.691   0.395  1.00  0.00    -0.203 F 
ATOM     58  C   UNL     1      -2.994 -11.922  -1.614  1.00  0.00     0.198 A 
ATOM     59  C   UNL     1      -2.062 -14.130  -1.669  1.00  0.00     0.198 A 
ATOM     60  F   UNL     1      -1.185 -15.084   0.293  1.00  0.00    -0.203 F 
ATOM     61  F   UNL     1      -3.609 -10.907  -2.235  1.00  0.00    -0.200 F 
ATOM     62  C   UNL     1      -2.677 -13.074  -2.319  1.00  0.00     0.200 A 
ATOM     63  F   UNL     1      -1.736 -15.239  -2.348  1.00  0.00    -0.200 F 
ATOM     64  F   UNL     1      -2.969 -13.166  -3.624  1.00  0.00    -0.200 F 
ENDBRANCH  30  54
BRANCH  42  65
ATOM     65  C   UNL     1      -5.638 -12.326   6.417  1.00  0.00     0.064 A 
ATOM     66  C   UNL     1      -6.512 -13.414   6.298  1.00  0.00     0.173 A 
ATOM     67  C   UNL     1      -6.146 -11.114   6.908  1.00  0.00     0.173 A 
ATOM     68  F   UNL     1      -6.071 -14.588   5.821  1.00  0.00    -0.203 F 
ATOM     69  C   UNL     1      -7.853 -13.287   6.647  1.00  0.00     0.198 A 
ATOM     70  C   UNL     1      -7.477 -11.002   7.289  1.00  0.00     0.198 A 
ATOM     71  F   UNL     1      -5.341 -10.049   7.047  1.00  0.00    -0.203 F 
ATOM     72  F   UNL     1      -8.684 -14.326   6.490  1.00  0.00    -0.200 F 
ATOM     73  C   UNL     1      -8.330 -12.086   7.154  1.00  0.00     0.200 A 
ATOM     74  F   UNL     1      -7.931  -9.848   7.798  1.00  0.00    -0.200 F 
ATOM     75  F   UNL     1      -9.617 -11.974   7.511  1.00  0.00    -0.200 F 
ENDBRANCH  42  65
ENDBRANCH  16  17
ENDBRANCH   9  11
ENDBRANCH   8   9
ENDBRANCH   7   8
ENDBRANCH   6   7
ENDBRANCH   5   6
ENDBRANCH   4   5
ENDBRANCH   3   4
ENDBRANCH   2   3
ENDBRANCH   1   2
BRANCH   1  76
ATOM     76  C   UNL     1       7.514 -10.348   0.129  1.00  0.00     0.188 C 
BRANCH  76  77
ATOM     77  O   UNL     1       6.727 -11.535   0.054  1.00  0.00    -0.376 OA
BRANCH  77  78
ATOM     78  C   UNL     1       6.033 -11.764  -1.171  1.00  0.00     0.202 C 
BRANCH  78  79
ATOM     79  C   UNL     1       6.875 -11.995  -2.442  1.00  0.00     0.261 C 
BRANCH  79  80
ATOM     80  O   UNL     1       8.003 -11.119  -2.563  1.00  0.00    -0.462 OA
BRANCH  80  81
ATOM     81  C   UNL     1       7.800  -9.890  -3.099  1.00  0.00     0.329 C 
ATOM     82  O   UNL     1       6.794  -9.542  -3.704  1.00  0.00    -0.250 OA
BRANCH  81  83
ATOM     83  C   UNL     1       8.975  -8.973  -2.724  1.00  0.00     0.197 C 
ATOM     84  C   UNL     1      10.258  -9.253  -3.460  1.00  0.00     0.070 C 
ATOM     85  N   UNL     1       8.675  -7.580  -2.981  1.00  0.00    -0.325 N 
ATOM     86  C   UNL     1      10.096  -8.408  -4.715  1.00  0.00     0.136 C 
ATOM     87  C   UNL     1       9.183  -7.230  -4.299  1.00  0.00     0.152 C 
BRANCH  85  88
ATOM     88  C   UNL     1       7.987  -6.856  -2.027  1.00  0.00     0.233 C 
ATOM     89  O   UNL     1       7.802  -7.319  -0.895  1.00  0.00    -0.274 OA
BRANCH  88  90
ATOM     90  C   UNL     1       7.483  -5.466  -2.357  1.00  0.00     0.169 C 
BRANCH  90  91
ATOM     91  S   UNL     1       8.372  -4.175  -1.395  1.00  0.00    -0.148 SA
BRANCH  91  92
ATOM     92  C   UNL     1      10.041  -4.459  -2.020  1.00  0.00     0.063 C 
ATOM     93  C   UNL     1      10.903  -3.205  -2.157  1.00  0.00     0.031 C 
ATOM     94  C   UNL     1      10.865  -5.415  -1.168  1.00  0.00     0.151 C 
ATOM     95  C   UNL     1      12.239  -3.727  -2.700  1.00  0.00     0.138 C 
ATOM     96  S   UNL     1      12.450  -5.357  -1.978  1.00  0.00     0.151 S 
ATOM     97  O   UNL     1      12.431  -6.346  -3.037  1.00  0.00    -0.229 OA
ATOM     98  O   UNL     1      13.493  -5.311  -0.972  1.00  0.00    -0.229 OA
ENDBRANCH  91  92
ENDBRANCH  90  91
ENDBRANCH  88  90
ENDBRANCH  85  88
BRANCH  86  99
ATOM     99  O   UNL     1      11.365  -7.971  -5.176  1.00  0.00    -0.391 OA
ATOM    100  H   UNL     1      11.809  -7.469  -4.475  1.00  0.00     0.211 HD
ENDBRANCH  86  99
ENDBRANCH  81  83
ENDBRANCH  80  81
ENDBRANCH  79  80
ENDBRANCH  78  79
ENDBRANCH  77  78
ENDBRANCH  76  77
ENDBRANCH   1  76
TORSDOF 25
