REMARK SMILES Cc1nsc(NC(=O)[C@@H]2C=C[C@@H]([NH3+])C2)c1C(=O)OCCOCCOCCOCCOC(=O)c1ccc(-c2c3nc(c(-c4c(F)c(F)c(F)c(F)c4F)c4ccc([nH]4)c(-c4c(F)c(F)c(F)c(F)c4F)c4nc(c(-c5c(F)c(F)c(F)c(F)c5F)c5ccc2[nH]5)C=C4)C=C3)cc1
REMARK SMILES IDX 23 1 22 2 21 3 20 4 19 5 18 6 16 7 17 8 15 9 1 10 2 11 3 12
REMARK SMILES IDX 4 13 5 14 6 15 7 16 8 18 9 19 10 20 14 21 11 22 12 23 13 24
REMARK SMILES IDX 24 28 25 29 26 30 27 31 28 32 29 33 30 34 31 35 32 36 33 37
REMARK SMILES IDX 34 38 95 39 35 40 94 41 36 42 37 43 38 44 88 45 39 46 93 47
REMARK SMILES IDX 87 48 89 49 40 50 92 51 86 52 85 53 41 55 73 56 53 57 72 58
REMARK SMILES IDX 54 59 57 60 71 61 90 62 55 63 56 64 70 66 91 67 58 68 42 69
REMARK SMILES IDX 43 70 51 71 44 72 45 73 49 74 52 75 46 76 47 77 50 78 48 79
REMARK SMILES IDX 74 80 75 81 83 82 76 83 77 84 81 85 84 86 78 87 79 88 82 89
REMARK SMILES IDX 80 90 59 91 60 92 68 93 61 94 62 95 66 96 69 97 63 98 64 99
REMARK SMILES IDX 67 100 65 101
REMARK H PARENT 6 17 13 25 13 26 13 27 89 54 57 65
REMARK Flexibility Score: inf
ROOT
ATOM      1  C   UNL     1       3.856  -0.713   9.724  1.00  0.00     0.188 C 
ENDROOT
BRANCH   1   2
ATOM      2  C   UNL     1       2.630  -1.255  10.487  1.00  0.00     0.188 C 
BRANCH   2   3
ATOM      3  O   UNL     1       2.756  -1.763  11.799  1.00  0.00    -0.376 OA
BRANCH   3   4
ATOM      4  C   UNL     1       3.461  -2.941  12.134  1.00  0.00     0.202 C 
BRANCH   4   5
ATOM      5  C   UNL     1       3.829  -4.087  11.176  1.00  0.00     0.261 C 
BRANCH   5   6
ATOM      6  O   UNL     1       3.914  -3.785   9.787  1.00  0.00    -0.460 OA
BRANCH   6   7
ATOM      7  C   UNL     1       2.817  -4.043   9.029  1.00  0.00     0.343 C 
ATOM      8  O   UNL     1       1.787  -4.573   9.447  1.00  0.00    -0.246 OA
BRANCH   7   9
ATOM      9  C   UNL     1       2.904  -3.390   7.733  1.00  0.00     0.117 A 
ATOM     10  C   UNL     1       5.475  -3.727   7.264  1.00  0.00     0.069 C 
ATOM     11  C   UNL     1       4.110  -3.216   6.949  1.00  0.00     0.068 A 
ATOM     12  N   UNL     1       3.980  -2.458   5.863  1.00  0.00    -0.195 NA
ATOM     13  S   UNL     1       2.476  -1.809   5.852  1.00  0.00    -0.017 S 
ATOM     14  C   UNL     1       1.857  -2.646   7.181  1.00  0.00     0.131 A 
BRANCH  14  15
ATOM     15  N   UNL     1       0.610  -2.415   7.742  1.00  0.00    -0.315 N 
ATOM     16  C   UNL     1      -0.425  -1.569   7.492  1.00  0.00     0.232 C 
ATOM     17  H   UNL     1       0.429  -3.009   8.506  1.00  0.00     0.170 HD
ATOM     18  O   UNL     1      -1.002  -1.161   8.518  1.00  0.00    -0.274 OA
BRANCH  16  19
ATOM     19  C   UNL     1      -1.111  -1.262   6.149  1.00  0.00     0.107 C 
ATOM     20  C   UNL     1      -2.280  -2.227   6.053  1.00  0.00    -0.012 C 
ATOM     21  C   UNL     1      -0.516  -1.511   4.777  1.00  0.00     0.087 C 
ATOM     22  C   UNL     1      -2.025  -3.209   5.175  1.00  0.00     0.033 C 
ATOM     23  C   UNL     1      -0.669  -3.019   4.575  1.00  0.00     0.205 C 
BRANCH  23  24
ATOM     24  N   UNL     1      -0.555  -3.390   3.186  1.00  0.00    -0.352 N 
ATOM     25  H   UNL     1      -1.231  -2.860   2.636  1.00  0.00     0.345 HD
ATOM     26  H   UNL     1      -0.742  -4.388   3.084  1.00  0.00     0.345 HD
ATOM     27  H   UNL     1       0.388  -3.186   2.856  1.00  0.00     0.345 HD
ENDBRANCH  23  24
ENDBRANCH  16  19
ENDBRANCH  14  15
ENDBRANCH   7   9
ENDBRANCH   6   7
ENDBRANCH   5   6
ENDBRANCH   4   5
ENDBRANCH   3   4
ENDBRANCH   2   3
ENDBRANCH   1   2
BRANCH   1  28
ATOM     28  O   UNL     1       5.113  -1.180  10.161  1.00  0.00    -0.377 OA
BRANCH  28  29
ATOM     29  C   UNL     1       5.695  -0.585  11.318  1.00  0.00     0.188 C 
BRANCH  29  30
ATOM     30  C   UNL     1       4.899   0.296  12.321  1.00  0.00     0.188 C 
BRANCH  30  31
ATOM     31  O   UNL     1       3.662   0.801  11.865  1.00  0.00    -0.376 OA
BRANCH  31  32
ATOM     32  C   UNL     1       3.427   2.139  11.478  1.00  0.00     0.202 C 
BRANCH  32  33
ATOM     33  C   UNL     1       4.335   2.832  10.470  1.00  0.00     0.261 C 
BRANCH  33  34
ATOM     34  O   UNL     1       5.649   2.321  10.415  1.00  0.00    -0.460 OA
BRANCH  34  35
ATOM     35  C   UNL     1       6.450   2.793  11.386  1.00  0.00     0.338 C 
ATOM     36  O   UNL     1       6.113   3.339  12.424  1.00  0.00    -0.246 OA
BRANCH  35  37
ATOM     37  C   UNL     1       7.830   2.702  10.914  1.00  0.00     0.060 A 
ATOM     38  C   UNL     1       8.815   3.037  11.839  1.00  0.00     0.016 A 
ATOM     39  C   UNL     1       8.071   2.667   9.530  1.00  0.00     0.016 A 
ATOM     40  C   UNL     1       9.967   3.603  11.355  1.00  0.00     0.010 A 
ATOM     41  C   UNL     1       9.222   3.238   9.050  1.00  0.00     0.010 A 
ATOM     42  C   UNL     1      10.101   3.792   9.970  1.00  0.00    -0.014 A 
BRANCH  42  43
ATOM     43  C   UNL     1      11.268   4.503   9.506  1.00  0.00     0.031 A 
ATOM     44  C   UNL     1      12.496   3.720   9.731  1.00  0.00     0.074 A 
ATOM     45  C   UNL     1      11.221   5.720   8.933  1.00  0.00     0.049 A 
ATOM     46  N   UNL     1      13.387   3.942  10.635  1.00  0.00    -0.248 NA
ATOM     47  C   UNL     1      12.636   2.430   9.040  1.00  0.00     0.031 C 
ATOM     48  C   UNL     1      10.057   6.477   8.470  1.00  0.00     0.029 A 
ATOM     49  N   UNL     1      12.262   6.524   8.591  1.00  0.00    -0.354 N 
ATOM     50  C   UNL     1      14.318   2.925  10.494  1.00  0.00     0.074 A 
ATOM     51  C   UNL     1      13.720   1.934   9.638  1.00  0.00     0.031 C 
ATOM     52  C   UNL     1      10.474   7.519   7.710  1.00  0.00     0.029 A 
ATOM     53  C   UNL     1      11.925   7.585   7.759  1.00  0.00     0.049 A 
ATOM     54  H   UNL     1      13.181   6.368   8.907  1.00  0.00     0.167 HD
ATOM     55  C   UNL     1      15.605   3.127  10.879  1.00  0.00     0.037 A 
ATOM     56  C   UNL     1      12.801   8.411   7.131  1.00  0.00     0.037 A 
ATOM     57  C   UNL     1      15.707   4.252  11.774  1.00  0.00     0.049 A 
ATOM     58  C   UNL     1      14.083   8.334   7.875  1.00  0.00     0.074 A 
ATOM     59  C   UNL     1      15.236   4.537  13.041  1.00  0.00     0.029 A 
ATOM     60  N   UNL     1      16.054   5.458  11.218  1.00  0.00    -0.354 N 
ATOM     61  N   UNL     1      14.243   8.797   9.084  1.00  0.00    -0.248 NA
ATOM     62  C   UNL     1      15.050   7.331   7.459  1.00  0.00     0.031 C 
ATOM     63  C   UNL     1      14.922   5.929  13.021  1.00  0.00     0.029 A 
ATOM     64  C   UNL     1      15.274   6.438  11.771  1.00  0.00     0.049 A 
ATOM     65  H   UNL     1      16.750   5.595  10.535  1.00  0.00     0.167 HD
ATOM     66  C   UNL     1      15.018   7.843   9.725  1.00  0.00     0.074 A 
ATOM     67  C   UNL     1      15.563   7.015   8.651  1.00  0.00     0.031 C 
ATOM     68  C   UNL     1      14.901   7.646  11.071  1.00  0.00     0.037 A 
BRANCH  55  69
ATOM     69  C   UNL     1      16.786   2.606  10.104  1.00  0.00     0.064 A 
ATOM     70  C   UNL     1      18.076   2.766  10.645  1.00  0.00     0.173 A 
ATOM     71  C   UNL     1      16.735   2.255   8.737  1.00  0.00     0.173 A 
ATOM     72  F   UNL     1      18.237   3.126  11.927  1.00  0.00    -0.203 F 
ATOM     73  C   UNL     1      19.222   2.657   9.855  1.00  0.00     0.198 A 
ATOM     74  C   UNL     1      17.883   2.094   7.966  1.00  0.00     0.198 A 
ATOM     75  F   UNL     1      15.585   2.172   8.059  1.00  0.00    -0.203 F 
ATOM     76  F   UNL     1      20.420   2.945  10.380  1.00  0.00    -0.200 F 
ATOM     77  C   UNL     1      19.124   2.326   8.515  1.00  0.00     0.200 A 
ATOM     78  F   UNL     1      17.763   1.798   6.663  1.00  0.00    -0.200 F 
ATOM     79  F   UNL     1      20.216   2.283   7.742  1.00  0.00    -0.200 F 
ENDBRANCH  55  69
BRANCH  56  80
ATOM     80  C   UNL     1      12.729   8.962   5.754  1.00  0.00     0.064 A 
ATOM     81  C   UNL     1      13.601   9.985   5.338  1.00  0.00     0.173 A 
ATOM     82  C   UNL     1      12.026   8.291   4.736  1.00  0.00     0.173 A 
ATOM     83  F   UNL     1      14.348  10.642   6.238  1.00  0.00    -0.203 F 
ATOM     84  C   UNL     1      13.781  10.293   3.985  1.00  0.00     0.198 A 
ATOM     85  C   UNL     1      12.204   8.602   3.387  1.00  0.00     0.198 A 
ATOM     86  F   UNL     1      11.229   7.252   5.023  1.00  0.00    -0.203 F 
ATOM     87  F   UNL     1      14.672  11.228   3.624  1.00  0.00    -0.200 F 
ATOM     88  C   UNL     1      13.092   9.593   3.010  1.00  0.00     0.200 A 
ATOM     89  F   UNL     1      11.562   7.888   2.450  1.00  0.00    -0.200 F 
ATOM     90  F   UNL     1      13.314   9.840   1.711  1.00  0.00    -0.200 F 
ENDBRANCH  56  80
BRANCH  68  91
ATOM     91  C   UNL     1      14.151   8.688  11.857  1.00  0.00     0.064 A 
ATOM     92  C   UNL     1      12.786   8.983  11.692  1.00  0.00     0.173 A 
ATOM     93  C   UNL     1      14.826   9.332  12.903  1.00  0.00     0.173 A 
ATOM     94  F   UNL     1      12.046   8.342  10.778  1.00  0.00    -0.203 F 
ATOM     95  C   UNL     1      12.145   9.916  12.507  1.00  0.00     0.198 A 
ATOM     96  C   UNL     1      14.174  10.232  13.740  1.00  0.00     0.198 A 
ATOM     97  F   UNL     1      16.117   9.052  13.141  1.00  0.00    -0.203 F 
ATOM     98  F   UNL     1      10.846  10.196  12.319  1.00  0.00    -0.200 F 
ATOM     99  C   UNL     1      12.838  10.534  13.535  1.00  0.00     0.200 A 
ATOM    100  F   UNL     1      14.838  10.789  14.762  1.00  0.00    -0.200 F 
ATOM    101  F   UNL     1      12.214  11.402  14.344  1.00  0.00    -0.200 F 
ENDBRANCH  68  91
ENDBRANCH  42  43
ENDBRANCH  35  37
ENDBRANCH  34  35
ENDBRANCH  33  34
ENDBRANCH  32  33
ENDBRANCH  31  32
ENDBRANCH  30  31
ENDBRANCH  29  30
ENDBRANCH  28  29
ENDBRANCH   1  28
TORSDOF 23
