REMARK SMILES C[C@@H]1Oc2c(C(=O)OCCOCCOCCOCCOC(=O)c3ccc(-c4c5nc(c(-c6c(F)c(F)c(F)c(F)c6F)c6ccc([nH]6)c(-c6c(F)c(F)c(F)c(F)c6F)c6nc(c(-c7c(F)c(F)c(F)c(F)c7F)c7ccc4[nH]7)C=C6)C=C5)cc3)cccc2[C@@H]1C
REMARK SMILES IDX 15 1 14 2 13 3 12 4 11 5 10 6 9 7 8 8 6 9 7 10 5 11 1 12
REMARK SMILES IDX 2 13 3 14 90 15 4 16 89 17 91 18 88 19 86 20 87 21 16 22
REMARK SMILES IDX 17 23 18 24 19 25 20 26 21 27 22 28 23 29 24 30 85 31 25 32
REMARK SMILES IDX 84 33 26 34 27 35 28 36 78 37 29 38 83 39 77 40 79 41 30 42
REMARK SMILES IDX 82 43 76 44 75 45 31 47 63 48 43 49 62 50 44 51 47 52 61 53
REMARK SMILES IDX 80 54 45 55 46 56 60 58 81 59 48 60 32 61 33 62 41 63 34 64
REMARK SMILES IDX 35 65 39 66 42 67 36 68 37 69 40 70 38 71 64 72 65 73 73 74
REMARK SMILES IDX 66 75 67 76 71 77 74 78 68 79 69 80 72 81 70 82 49 83 50 84
REMARK SMILES IDX 58 85 51 86 52 87 56 88 59 89 53 90 54 91 57 92 55 93
REMARK H PARENT 79 46 47 57
REMARK Flexibility Score: inf
ROOT
ATOM      1  C   UNL     1      -5.764   4.412   3.090  1.00  0.00     0.188 C 
ENDROOT
BRANCH   1   2
ATOM      2  O   UNL     1      -4.477   4.702   2.564  1.00  0.00    -0.377 OA
BRANCH   2   3
ATOM      3  C   UNL     1      -3.758   3.699   1.859  1.00  0.00     0.188 C 
BRANCH   3   4
ATOM      4  C   UNL     1      -3.794   2.236   2.343  1.00  0.00     0.188 C 
BRANCH   4   5
ATOM      5  O   UNL     1      -4.495   2.036   3.566  1.00  0.00    -0.376 OA
BRANCH   5   6
ATOM      6  C   UNL     1      -3.703   1.626   4.672  1.00  0.00     0.202 C 
BRANCH   6   7
ATOM      7  C   UNL     1      -2.914   2.770   5.312  1.00  0.00     0.261 C 
BRANCH   7   8
ATOM      8  O   UNL     1      -2.009   3.438   4.421  1.00  0.00    -0.460 OA
BRANCH   8   9
ATOM      9  C   UNL     1      -0.956   2.728   3.951  1.00  0.00     0.342 C 
ATOM     10  O   UNL     1      -0.677   1.575   4.234  1.00  0.00    -0.246 OA
BRANCH   9  11
ATOM     11  C   UNL     1      -0.245   3.582   2.975  1.00  0.00     0.102 A 
ATOM     12  C   UNL     1      -0.138   1.047  -1.027  1.00  0.00     0.053 C 
ATOM     13  C   UNL     1       0.720   1.738   0.027  1.00  0.00     0.177 C 
ATOM     14  O   UNL     1      -0.040   1.832   1.264  1.00  0.00    -0.489 OA
ATOM     15  C   UNL     1       1.268   3.135  -0.354  1.00  0.00     0.060 C 
ATOM     16  C   UNL     1       0.195   3.089   1.753  1.00  0.00     0.137 A 
ATOM     17  C   UNL     1       0.874   3.905   0.858  1.00  0.00     0.002 A 
ATOM     18  C   UNL     1       0.756   3.753  -1.649  1.00  0.00     0.017 C 
ATOM     19  C   UNL     1       1.109   5.243   1.144  1.00  0.00     0.008 A 
ATOM     20  C   UNL     1      -0.027   4.939   3.264  1.00  0.00     0.019 A 
ATOM     21  C   UNL     1       0.640   5.764   2.350  1.00  0.00     0.001 A 
ENDBRANCH   9  11
ENDBRANCH   8   9
ENDBRANCH   7   8
ENDBRANCH   6   7
ENDBRANCH   5   6
ENDBRANCH   4   5
ENDBRANCH   3   4
ENDBRANCH   2   3
ENDBRANCH   1   2
BRANCH   1  22
ATOM     22  C   UNL     1      -6.713   3.442   2.356  1.00  0.00     0.188 C 
BRANCH  22  23
ATOM     23  O   UNL     1      -6.288   3.069   1.052  1.00  0.00    -0.376 OA
BRANCH  23  24
ATOM     24  C   UNL     1      -7.044   3.584  -0.033  1.00  0.00     0.202 C 
BRANCH  24  25
ATOM     25  C   UNL     1      -6.797   5.069  -0.317  1.00  0.00     0.261 C 
BRANCH  25  26
ATOM     26  O   UNL     1      -7.154   5.957   0.754  1.00  0.00    -0.460 OA
BRANCH  26  27
ATOM     27  C   UNL     1      -8.448   5.975   1.144  1.00  0.00     0.338 C 
ATOM     28  O   UNL     1      -9.376   5.352   0.664  1.00  0.00    -0.246 OA
BRANCH  27  29
ATOM     29  C   UNL     1      -8.518   6.756   2.396  1.00  0.00     0.060 A 
ATOM     30  C   UNL     1      -7.919   8.015   2.473  1.00  0.00     0.016 A 
ATOM     31  C   UNL     1      -9.166   6.207   3.509  1.00  0.00     0.016 A 
ATOM     32  C   UNL     1      -8.006   8.746   3.657  1.00  0.00     0.010 A 
ATOM     33  C   UNL     1      -9.249   6.938   4.697  1.00  0.00     0.010 A 
ATOM     34  C   UNL     1      -8.697   8.225   4.766  1.00  0.00    -0.014 A 
BRANCH  34  35
ATOM     35  C   UNL     1      -9.028   9.129   5.893  1.00  0.00     0.031 A 
ATOM     36  C   UNL     1      -8.280   9.111   7.188  1.00  0.00     0.074 A 
ATOM     37  C   UNL     1     -10.041   9.996   5.705  1.00  0.00     0.049 A 
ATOM     38  N   UNL     1      -8.372   9.944   8.194  1.00  0.00    -0.248 NA
ATOM     39  C   UNL     1      -7.318   8.021   7.393  1.00  0.00     0.031 C 
ATOM     40  C   UNL     1     -10.872  10.057   4.501  1.00  0.00     0.029 A 
ATOM     41  N   UNL     1     -10.536  10.993   6.505  1.00  0.00    -0.354 N 
ATOM     42  C   UNL     1      -7.465   9.498   9.143  1.00  0.00     0.074 A 
ATOM     43  C   UNL     1      -6.866   8.289   8.614  1.00  0.00     0.031 C 
ATOM     44  C   UNL     1     -11.750  11.062   4.625  1.00  0.00     0.029 A 
ATOM     45  C   UNL     1     -11.554  11.705   5.921  1.00  0.00     0.049 A 
ATOM     46  H   UNL     1     -10.194  11.181   7.409  1.00  0.00     0.167 HD
ATOM     47  C   UNL     1      -7.153  10.066  10.333  1.00  0.00     0.037 A 
ATOM     48  C   UNL     1     -12.244  12.771   6.369  1.00  0.00     0.037 A 
ATOM     49  C   UNL     1      -7.764  11.267  10.848  1.00  0.00     0.049 A 
ATOM     50  C   UNL     1     -11.885  13.368   7.699  1.00  0.00     0.074 A 
ATOM     51  C   UNL     1      -7.462  11.956  12.010  1.00  0.00     0.029 A 
ATOM     52  N   UNL     1      -8.812  11.947  10.243  1.00  0.00    -0.354 N 
ATOM     53  N   UNL     1     -10.941  13.011   8.534  1.00  0.00    -0.248 NA
ATOM     54  C   UNL     1     -12.678  14.522   8.146  1.00  0.00     0.031 C 
ATOM     55  C   UNL     1      -8.360  13.019  12.137  1.00  0.00     0.029 A 
ATOM     56  C   UNL     1      -9.190  13.026  11.028  1.00  0.00     0.049 A 
ATOM     57  H   UNL     1      -9.225  11.701   9.384  1.00  0.00     0.167 HD
ATOM     58  C   UNL     1     -11.011  13.903   9.593  1.00  0.00     0.074 A 
ATOM     59  C   UNL     1     -12.081  14.831   9.289  1.00  0.00     0.031 C 
ATOM     60  C   UNL     1     -10.255  13.945  10.716  1.00  0.00     0.037 A 
BRANCH  47  61
ATOM     61  C   UNL     1      -6.083   9.427  11.169  1.00  0.00     0.064 A 
ATOM     62  C   UNL     1      -4.730   9.522  10.810  1.00  0.00     0.173 A 
ATOM     63  C   UNL     1      -6.395   8.835  12.403  1.00  0.00     0.173 A 
ATOM     64  F   UNL     1      -4.379  10.082   9.643  1.00  0.00    -0.203 F 
ATOM     65  C   UNL     1      -3.730   9.043  11.653  1.00  0.00     0.198 A 
ATOM     66  C   UNL     1      -5.390   8.379  13.254  1.00  0.00     0.198 A 
ATOM     67  F   UNL     1      -7.672   8.734  12.801  1.00  0.00    -0.203 F 
ATOM     68  F   UNL     1      -2.445   9.134  11.283  1.00  0.00    -0.200 F 
ATOM     69  C   UNL     1      -4.060   8.484  12.878  1.00  0.00     0.200 A 
ATOM     70  F   UNL     1      -5.709   7.857  14.446  1.00  0.00    -0.200 F 
ATOM     71  F   UNL     1      -3.094   8.050  13.700  1.00  0.00    -0.200 F 
ENDBRANCH  47  61
BRANCH  48  72
ATOM     72  C   UNL     1     -13.302  13.364   5.514  1.00  0.00     0.064 A 
ATOM     73  C   UNL     1     -13.114  14.609   4.900  1.00  0.00     0.173 A 
ATOM     74  C   UNL     1     -14.500  12.681   5.259  1.00  0.00     0.173 A 
ATOM     75  F   UNL     1     -11.989  15.303   5.125  1.00  0.00    -0.203 F 
ATOM     76  C   UNL     1     -14.091  15.155   4.071  1.00  0.00     0.198 A 
ATOM     77  C   UNL     1     -15.464  13.216   4.408  1.00  0.00     0.198 A 
ATOM     78  F   UNL     1     -14.721  11.481   5.815  1.00  0.00    -0.203 F 
ATOM     79  F   UNL     1     -13.900  16.361   3.519  1.00  0.00    -0.200 F 
ATOM     80  C   UNL     1     -15.261  14.454   3.819  1.00  0.00     0.200 A 
ATOM     81  F   UNL     1     -16.585  12.527   4.153  1.00  0.00    -0.200 F 
ATOM     82  F   UNL     1     -16.194  14.974   3.010  1.00  0.00    -0.200 F 
ENDBRANCH  48  72
BRANCH  60  83
ATOM     83  C   UNL     1     -10.544  15.029  11.712  1.00  0.00     0.064 A 
ATOM     84  C   UNL     1     -11.674  14.974  12.540  1.00  0.00     0.173 A 
ATOM     85  C   UNL     1      -9.633  16.077  11.909  1.00  0.00     0.173 A 
ATOM     86  F   UNL     1     -12.581  13.999  12.380  1.00  0.00    -0.203 F 
ATOM     87  C   UNL     1     -11.881  15.931  13.530  1.00  0.00     0.198 A 
ATOM     88  C   UNL     1      -9.830  17.017  12.916  1.00  0.00     0.198 A 
ATOM     89  F   UNL     1      -8.533  16.170  11.145  1.00  0.00    -0.203 F 
ATOM     90  F   UNL     1     -12.978  15.871  14.298  1.00  0.00    -0.200 F 
ATOM     91  C   UNL     1     -10.953  16.943  13.726  1.00  0.00     0.200 A 
ATOM     92  F   UNL     1      -8.925  17.986  13.114  1.00  0.00    -0.200 F 
ATOM     93  F   UNL     1     -11.142  17.848  14.697  1.00  0.00    -0.200 F 
ENDBRANCH  60  83
ENDBRANCH  34  35
ENDBRANCH  27  29
ENDBRANCH  26  27
ENDBRANCH  25  26
ENDBRANCH  24  25
ENDBRANCH  23  24
ENDBRANCH  22  23
ENDBRANCH   1  22
TORSDOF 20
