REMARK SMILES O=C(OCCOCCOCCOCCOC(=O)c1ccnc(-c2ccnc(COc3ccccc3)n2)c1)c1ccc(-c2c3nc(c(-c4c(F)c(F)c(F)c(F)c4F)c4ccc([nH]4)c(-c4c(F)c(F)c(F)c(F)c4F)c4nc(c(-c5c(F)c(F)c(F)c(F)c5F)c5ccc2[nH]5)C=C4)C=C3)cc1
REMARK SMILES IDX 10 1 9 2 8 3 7 4 6 5 5 6 4 7 3 8 2 9 1 10 38 11 39 12 100 13
REMARK SMILES IDX 40 14 99 15 41 16 42 17 43 18 93 19 44 20 98 21 92 22 94 23
REMARK SMILES IDX 45 24 97 25 91 26 90 27 46 29 78 30 58 31 77 32 59 33 62 34
REMARK SMILES IDX 76 35 95 36 60 37 61 38 75 40 96 41 63 42 47 43 48 44 56 45
REMARK SMILES IDX 49 46 50 47 54 48 57 49 51 50 52 51 55 52 53 53 79 54 80 55
REMARK SMILES IDX 88 56 81 57 82 58 86 59 89 60 83 61 84 62 87 63 85 64 64 65
REMARK SMILES IDX 65 66 73 67 66 68 67 69 71 70 74 71 68 72 69 73 72 74 70 75
REMARK SMILES IDX 11 76 12 77 13 78 14 79 15 80 16 81 17 82 18 83 19 84 37 85
REMARK SMILES IDX 20 86 22 87 21 88 23 89 24 90 36 91 25 92 27 93 26 94 28 95
REMARK SMILES IDX 29 96 30 97 31 98 35 99 32 100 34 101 33 102
REMARK H PARENT 94 28 62 39
REMARK Flexibility Score: inf
ROOT
ATOM      1  C   UNL     1       3.799   3.456  -1.764  1.00  0.00     0.188 C 
ENDROOT
BRANCH   1   2
ATOM      2  O   UNL     1       2.379   3.487  -1.733  1.00  0.00    -0.377 OA
BRANCH   2   3
ATOM      3  C   UNL     1       1.732   2.521  -0.910  1.00  0.00     0.188 C 
BRANCH   3   4
ATOM      4  C   UNL     1       2.157   1.077  -1.171  1.00  0.00     0.188 C 
BRANCH   4   5
ATOM      5  O   UNL     1       3.504   0.867  -0.731  1.00  0.00    -0.376 OA
BRANCH   5   6
ATOM      6  C   UNL     1       4.275  -0.014  -1.547  1.00  0.00     0.202 C 
BRANCH   6   7
ATOM      7  C   UNL     1       4.125  -1.492  -1.182  1.00  0.00     0.261 C 
BRANCH   7   8
ATOM      8  O   UNL     1       2.773  -1.825  -0.837  1.00  0.00    -0.460 OA
BRANCH   8   9
ATOM      9  C   UNL     1       2.201  -1.826   0.393  1.00  0.00     0.338 C 
ATOM     10  O   UNL     1       1.022  -2.164   0.481  1.00  0.00    -0.246 OA
BRANCH   9  11
ATOM     11  C   UNL     1       2.914  -1.466   1.663  1.00  0.00     0.060 A 
ATOM     12  C   UNL     1       4.061  -0.675   1.768  1.00  0.00     0.016 A 
ATOM     13  C   UNL     1       2.339  -1.937   2.858  1.00  0.00     0.016 A 
ATOM     14  C   UNL     1       4.674  -0.434   2.991  1.00  0.00     0.010 A 
ATOM     15  C   UNL     1       2.931  -1.679   4.099  1.00  0.00     0.010 A 
ATOM     16  C   UNL     1       4.127  -0.959   4.157  1.00  0.00    -0.014 A 
BRANCH  16  17
ATOM     17  C   UNL     1       4.944  -0.908   5.382  1.00  0.00     0.031 A 
ATOM     18  C   UNL     1       5.706  -2.142   5.759  1.00  0.00     0.074 A 
ATOM     19  C   UNL     1       5.114   0.254   6.036  1.00  0.00     0.049 A 
ATOM     20  N   UNL     1       6.466  -2.369   6.795  1.00  0.00    -0.248 NA
ATOM     21  C   UNL     1       5.614  -3.276   4.821  1.00  0.00     0.031 C 
ATOM     22  C   UNL     1       4.522   1.534   5.646  1.00  0.00     0.029 A 
ATOM     23  N   UNL     1       5.857   0.551   7.146  1.00  0.00    -0.354 N 
ATOM     24  C   UNL     1       6.920  -3.672   6.646  1.00  0.00     0.074 A 
ATOM     25  C   UNL     1       6.351  -4.193   5.425  1.00  0.00     0.031 C 
ATOM     26  C   UNL     1       4.938   2.485   6.499  1.00  0.00     0.029 A 
ATOM     27  C   UNL     1       5.770   1.867   7.527  1.00  0.00     0.049 A 
ATOM     28  H   UNL     1       6.402  -0.115   7.625  1.00  0.00     0.167 HD
ATOM     29  C   UNL     1       7.738  -4.369   7.467  1.00  0.00     0.037 A 
ATOM     30  C   UNL     1       6.282   2.481   8.610  1.00  0.00     0.037 A 
ATOM     31  C   UNL     1       8.281  -3.824   8.680  1.00  0.00     0.049 A 
ATOM     32  C   UNL     1       7.097   1.652   9.570  1.00  0.00     0.074 A 
ATOM     33  C   UNL     1       9.046  -4.446   9.648  1.00  0.00     0.029 A 
ATOM     34  N   UNL     1       8.107  -2.506   9.085  1.00  0.00    -0.354 N 
ATOM     35  N   UNL     1       7.457   0.393   9.476  1.00  0.00    -0.248 NA
ATOM     36  C   UNL     1       7.562   2.319  10.792  1.00  0.00     0.031 C 
ATOM     37  C   UNL     1       9.302  -3.512  10.659  1.00  0.00     0.029 A 
ATOM     38  C   UNL     1       8.739  -2.297  10.297  1.00  0.00     0.049 A 
ATOM     39  H   UNL     1       7.607  -1.823   8.583  1.00  0.00     0.167 HD
ATOM     40  C   UNL     1       8.201   0.119  10.614  1.00  0.00     0.074 A 
ATOM     41  C   UNL     1       8.259   1.353  11.374  1.00  0.00     0.031 C 
ATOM     42  C   UNL     1       8.778  -1.043  11.008  1.00  0.00     0.037 A 
BRANCH  29  43
ATOM     43  C   UNL     1       8.010  -5.798   7.104  1.00  0.00     0.064 A 
ATOM     44  C   UNL     1       8.825  -6.145   6.015  1.00  0.00     0.173 A 
ATOM     45  C   UNL     1       7.401  -6.837   7.824  1.00  0.00     0.173 A 
ATOM     46  F   UNL     1       9.403  -5.189   5.272  1.00  0.00    -0.203 F 
ATOM     47  C   UNL     1       8.992  -7.478   5.642  1.00  0.00     0.198 A 
ATOM     48  C   UNL     1       7.591  -8.168   7.464  1.00  0.00     0.198 A 
ATOM     49  F   UNL     1       6.603  -6.559   8.866  1.00  0.00    -0.203 F 
ATOM     50  F   UNL     1       9.721  -7.782   4.559  1.00  0.00    -0.200 F 
ATOM     51  C   UNL     1       8.378  -8.487   6.367  1.00  0.00     0.200 A 
ATOM     52  F   UNL     1       6.996  -9.142   8.166  1.00  0.00    -0.200 F 
ATOM     53  F   UNL     1       8.528  -9.767   5.999  1.00  0.00    -0.200 F 
ENDBRANCH  29  43
BRANCH  30  54
ATOM     54  C   UNL     1       5.998   3.919   8.870  1.00  0.00     0.064 A 
ATOM     55  C   UNL     1       7.022   4.875   8.887  1.00  0.00     0.173 A 
ATOM     56  C   UNL     1       4.692   4.366   9.129  1.00  0.00     0.173 A 
ATOM     57  F   UNL     1       8.292   4.501   8.671  1.00  0.00    -0.203 F 
ATOM     58  C   UNL     1       6.755   6.215   9.170  1.00  0.00     0.198 A 
ATOM     59  C   UNL     1       4.421   5.710   9.379  1.00  0.00     0.198 A 
ATOM     60  F   UNL     1       3.672   3.495   9.133  1.00  0.00    -0.203 F 
ATOM     61  F   UNL     1       7.761   7.099   9.229  1.00  0.00    -0.200 F 
ATOM     62  C   UNL     1       5.455   6.632   9.409  1.00  0.00     0.200 A 
ATOM     63  F   UNL     1       3.160   6.108   9.597  1.00  0.00    -0.200 F 
ATOM     64  F   UNL     1       5.198   7.920   9.679  1.00  0.00    -0.200 F 
ENDBRANCH  30  54
BRANCH  42  65
ATOM     65  C   UNL     1       9.544  -1.016  12.295  1.00  0.00     0.064 A 
ATOM     66  C   UNL     1       8.892  -0.967  13.534  1.00  0.00     0.173 A 
ATOM     67  C   UNL     1      10.944  -1.097  12.284  1.00  0.00     0.173 A 
ATOM     68  F   UNL     1       7.555  -0.875  13.591  1.00  0.00    -0.203 F 
ATOM     69  C   UNL     1       9.618  -0.978  14.721  1.00  0.00     0.198 A 
ATOM     70  C   UNL     1      11.665  -1.137  13.473  1.00  0.00     0.198 A 
ATOM     71  F   UNL     1      11.610  -1.155  11.121  1.00  0.00    -0.203 F 
ATOM     72  F   UNL     1       8.979  -0.887  15.895  1.00  0.00    -0.200 F 
ATOM     73  C   UNL     1      11.002  -1.071  14.690  1.00  0.00     0.200 A 
ATOM     74  F   UNL     1      13.000  -1.242  13.442  1.00  0.00    -0.200 F 
ATOM     75  F   UNL     1      11.698  -1.093  15.834  1.00  0.00    -0.200 F 
ENDBRANCH  42  65
ENDBRANCH  16  17
ENDBRANCH   9  11
ENDBRANCH   8   9
ENDBRANCH   7   8
ENDBRANCH   6   7
ENDBRANCH   5   6
ENDBRANCH   4   5
ENDBRANCH   3   4
ENDBRANCH   2   3
ENDBRANCH   1   2
BRANCH   1  76
ATOM     76  C   UNL     1       4.573   3.622  -0.439  1.00  0.00     0.188 C 
BRANCH  76  77
ATOM     77  O   UNL     1       3.768   3.940   0.688  1.00  0.00    -0.376 OA
BRANCH  77  78
ATOM     78  C   UNL     1       3.819   5.298   1.115  1.00  0.00     0.202 C 
BRANCH  78  79
ATOM     79  C   UNL     1       3.056   6.276   0.215  1.00  0.00     0.261 C 
BRANCH  79  80
ATOM     80  O   UNL     1       3.587   6.430  -1.114  1.00  0.00    -0.460 OA
BRANCH  80  81
ATOM     81  C   UNL     1       4.854   6.879  -1.278  1.00  0.00     0.338 C 
ATOM     82  O   UNL     1       5.628   7.242  -0.412  1.00  0.00    -0.246 OA
BRANCH  81  83
ATOM     83  C   UNL     1       5.214   6.572  -2.683  1.00  0.00     0.063 A 
ATOM     84  C   UNL     1       4.319   6.868  -3.710  1.00  0.00     0.036 A 
ATOM     85  C   UNL     1       6.326   5.758  -2.922  1.00  0.00     0.046 A 
ATOM     86  C   UNL     1       4.541   6.281  -4.937  1.00  0.00     0.112 A 
ATOM     87  C   UNL     1       6.437   5.169  -4.175  1.00  0.00     0.090 A 
ATOM     88  N   UNL     1       5.550   5.417  -5.175  1.00  0.00    -0.255 NA
BRANCH  87  89
ATOM     89  C   UNL     1       7.417   4.116  -4.463  1.00  0.00     0.092 A 
ATOM     90  C   UNL     1       7.077   2.778  -4.362  1.00  0.00     0.051 A 
ATOM     91  N   UNL     1       8.614   4.524  -4.929  1.00  0.00    -0.228 NA
ATOM     92  C   UNL     1       8.034   1.876  -4.756  1.00  0.00     0.115 A 
ATOM     93  C   UNL     1       9.452   3.567  -5.375  1.00  0.00     0.166 A 
ATOM     94  N   UNL     1       9.223   2.240  -5.263  1.00  0.00    -0.238 NA
BRANCH  93  95
ATOM     95  C   UNL     1      10.625   3.997  -6.231  1.00  0.00     0.306 C 
BRANCH  95  96
ATOM     96  O   UNL     1      10.269   4.909  -7.289  1.00  0.00    -0.486 OA
BRANCH  96  97
ATOM     97  C   UNL     1       9.778   4.313  -8.420  1.00  0.00     0.119 A 
ATOM     98  C   UNL     1      10.408   4.632  -9.621  1.00  0.00     0.046 A 
ATOM     99  C   UNL     1       8.630   3.519  -8.437  1.00  0.00     0.046 A 
ATOM    100  C   UNL     1       9.924   4.119 -10.827  1.00  0.00     0.004 A 
ATOM    101  C   UNL     1       8.150   2.998  -9.640  1.00  0.00     0.004 A 
ATOM    102  C   UNL     1       8.799   3.295 -10.836  1.00  0.00     0.000 A 
ENDBRANCH  96  97
ENDBRANCH  95  96
ENDBRANCH  93  95
ENDBRANCH  87  89
ENDBRANCH  81  83
ENDBRANCH  80  81
ENDBRANCH  79  80
ENDBRANCH  78  79
ENDBRANCH  77  78
ENDBRANCH  76  77
ENDBRANCH   1  76
TORSDOF 24
