REMARK SMILES CC[C@@H](Oc1ccc(/C=C2\SC(=S)N(NC(=O)c3ccccc3O)C2=O)cc1)C(=O)OCCOCCOCCOCCOC(=O)c1ccc(-c2c3nc(c(-c4c(F)c(F)c(F)c(F)c4F)c4ccc([nH]4)c(-c4c(F)c(F)c(F)c(F)c4F)c4nc(c(-c5c(F)c(F)c(F)c(F)c5F)c5ccc2[nH]5)C=C4)C=C3)cc1
REMARK SMILES IDX 35 1 34 2 33 3 32 4 31 5 29 6 30 7 3 8 2 9 1 10 4 11 5 12
REMARK SMILES IDX 6 13 28 14 7 15 27 16 8 17 9 18 10 19 11 20 25 21 12 22
REMARK SMILES IDX 14 23 26 24 13 25 15 26 16 27 17 29 18 30 19 31 23 32 20 33
REMARK SMILES IDX 22 34 21 35 24 36 36 38 37 39 38 40 39 41 40 42 41 43 42 44
REMARK SMILES IDX 43 45 44 46 45 47 46 48 47 49 108 50 48 51 107 52 49 53
REMARK SMILES IDX 50 54 51 55 101 56 52 57 106 58 100 59 102 60 53 61 105 62
REMARK SMILES IDX 99 63 98 64 54 66 86 67 66 68 85 69 67 70 70 71 84 72 103 73
REMARK SMILES IDX 68 74 69 75 83 77 104 78 71 79 55 80 56 81 64 82 57 83 58 84
REMARK SMILES IDX 62 85 65 86 59 87 60 88 63 89 61 90 87 91 88 92 96 93 89 94
REMARK SMILES IDX 90 95 94 96 97 97 91 98 92 99 95 100 93 101 72 102 73 103
REMARK SMILES IDX 81 104 74 105 75 106 79 107 82 108 76 109 77 110 80 111
REMARK SMILES IDX 78 112
REMARK H PARENT 15 28 24 37 102 65 70 76
REMARK Flexibility Score: inf
ROOT
ATOM      1  C   UNL     1       1.641   1.907   5.037  1.00  0.00     0.188 C 
ENDROOT
BRANCH   1   2
ATOM      2  O   UNL     1       0.850   2.707   5.902  1.00  0.00    -0.376 OA
BRANCH   2   3
ATOM      3  C   UNL     1      -0.433   3.174   5.495  1.00  0.00     0.202 C 
BRANCH   3   4
ATOM      4  C   UNL     1      -0.649   3.811   4.114  1.00  0.00     0.261 C 
BRANCH   4   5
ATOM      5  O   UNL     1      -0.498   2.920   2.994  1.00  0.00    -0.461 OA
BRANCH   5   6
ATOM      6  C   UNL     1       0.558   3.162   2.178  1.00  0.00     0.347 C 
ATOM      7  O   UNL     1       1.387   4.050   2.367  1.00  0.00    -0.248 OA
BRANCH   6   8
ATOM      8  C   UNL     1       0.610   2.270   0.942  1.00  0.00     0.282 C 
BRANCH   8   9
ATOM      9  C   UNL     1       0.115   0.817   1.063  1.00  0.00     0.054 C 
ATOM     10  C   UNL     1       1.185  -0.178   0.598  1.00  0.00     0.008 C 
ENDBRANCH   8   9
BRANCH   8  11
ATOM     11  O   UNL     1      -0.175   2.993  -0.025  1.00  0.00    -0.479 OA
BRANCH  11  12
ATOM     12  C   UNL     1       0.317   2.777  -1.278  1.00  0.00     0.120 A 
ATOM     13  C   UNL     1       1.161   3.715  -1.859  1.00  0.00     0.047 A 
ATOM     14  C   UNL     1      -0.049   1.627  -1.962  1.00  0.00     0.047 A 
ATOM     15  C   UNL     1       1.590   3.517  -3.171  1.00  0.00     0.012 A 
ATOM     16  C   UNL     1       0.473   1.381  -3.216  1.00  0.00     0.012 A 
ATOM     17  C   UNL     1       1.189   2.375  -3.881  1.00  0.00    -0.024 A 
BRANCH  17  18
ATOM     18  C   UNL     1       1.449   2.300  -5.322  1.00  0.00     0.029 C 
ATOM     19  C   UNL     1       0.625   1.781  -6.246  1.00  0.00     0.082 C 
ATOM     20  S   UNL     1      -0.861   0.921  -6.060  1.00  0.00    -0.052 SA
ATOM     21  C   UNL     1       0.966   1.825  -7.687  1.00  0.00     0.285 C 
ATOM     22  C   UNL     1      -0.689   0.142  -7.618  1.00  0.00     0.168 C 
ATOM     23  N   UNL     1       0.345   0.750  -8.304  1.00  0.00    -0.198 N 
ATOM     24  O   UNL     1       1.629   2.716  -8.197  1.00  0.00    -0.266 OA
ATOM     25  S   UNL     1      -1.663  -1.108  -8.135  1.00  0.00    -0.050 S 
BRANCH  23  26
ATOM     26  N   UNL     1       0.615   0.397  -9.629  1.00  0.00    -0.254 N 
ATOM     27  C   UNL     1       1.858   0.216 -10.194  1.00  0.00     0.274 C 
ATOM     28  H   UNL     1      -0.163   0.264 -10.219  1.00  0.00     0.192 HD
ATOM     29  O   UNL     1       1.951  -0.190 -11.350  1.00  0.00    -0.267 OA
BRANCH  27  30
ATOM     30  C   UNL     1       3.094   0.544  -9.457  1.00  0.00     0.083 A 
ATOM     31  C   UNL     1       3.889   1.560 -10.007  1.00  0.00     0.018 A 
ATOM     32  C   UNL     1       3.458  -0.042  -8.241  1.00  0.00     0.128 A 
ATOM     33  C   UNL     1       5.013   2.018  -9.321  1.00  0.00     0.001 A 
ATOM     34  C   UNL     1       4.581   0.421  -7.554  1.00  0.00     0.047 A 
ATOM     35  C   UNL     1       5.355   1.453  -8.092  1.00  0.00     0.004 A 
BRANCH  32  36
ATOM     36  O   UNL     1       2.748  -1.048  -7.647  1.00  0.00    -0.507 OA
ATOM     37  H   UNL     1       1.986  -1.394  -8.067  1.00  0.00     0.293 HD
ENDBRANCH  32  36
ENDBRANCH  27  30
ENDBRANCH  23  26
ENDBRANCH  17  18
ENDBRANCH  11  12
ENDBRANCH   8  11
ENDBRANCH   6   8
ENDBRANCH   5   6
ENDBRANCH   4   5
ENDBRANCH   3   4
ENDBRANCH   2   3
ENDBRANCH   1   2
BRANCH   1  38
ATOM     38  C   UNL     1       1.044   0.648   4.401  1.00  0.00     0.188 C 
BRANCH  38  39
ATOM     39  O   UNL     1      -0.370   0.634   4.374  1.00  0.00    -0.377 OA
BRANCH  39  40
ATOM     40  C   UNL     1      -1.051  -0.167   5.332  1.00  0.00     0.188 C 
BRANCH  40  41
ATOM     41  C   UNL     1      -0.416  -0.311   6.723  1.00  0.00     0.188 C 
BRANCH  41  42
ATOM     42  O   UNL     1       0.880  -0.899   6.692  1.00  0.00    -0.376 OA
BRANCH  42  43
ATOM     43  C   UNL     1       0.976  -2.310   6.856  1.00  0.00     0.202 C 
BRANCH  43  44
ATOM     44  C   UNL     1       0.367  -3.179   5.743  1.00  0.00     0.261 C 
BRANCH  44  45
ATOM     45  O   UNL     1      -1.069  -3.156   5.627  1.00  0.00    -0.460 OA
BRANCH  45  46
ATOM     46  C   UNL     1      -1.811  -3.380   6.725  1.00  0.00     0.338 C 
ATOM     47  O   UNL     1      -1.419  -3.724   7.833  1.00  0.00    -0.246 OA
BRANCH  46  48
ATOM     48  C   UNL     1      -3.193  -2.953   6.440  1.00  0.00     0.060 A 
ATOM     49  C   UNL     1      -3.780  -1.981   7.261  1.00  0.00     0.016 A 
ATOM     50  C   UNL     1      -3.917  -3.530   5.394  1.00  0.00     0.016 A 
ATOM     51  C   UNL     1      -5.114  -1.621   7.071  1.00  0.00     0.010 A 
ATOM     52  C   UNL     1      -5.259  -3.182   5.216  1.00  0.00     0.010 A 
ATOM     53  C   UNL     1      -5.873  -2.257   6.080  1.00  0.00    -0.014 A 
BRANCH  53  54
ATOM     54  C   UNL     1      -7.349  -2.117   6.086  1.00  0.00     0.031 A 
ATOM     55  C   UNL     1      -8.162  -3.182   6.770  1.00  0.00     0.074 A 
ATOM     56  C   UNL     1      -7.958  -1.061   5.519  1.00  0.00     0.049 A 
ATOM     57  N   UNL     1      -9.461  -3.306   6.868  1.00  0.00    -0.248 NA
ATOM     58  C   UNL     1      -7.403  -4.254   7.434  1.00  0.00     0.031 C 
ATOM     59  C   UNL     1      -7.280   0.054   4.865  1.00  0.00     0.029 A 
ATOM     60  N   UNL     1      -9.293  -0.765   5.399  1.00  0.00    -0.354 N 
ATOM     61  C   UNL     1      -9.672  -4.468   7.600  1.00  0.00     0.074 A 
ATOM     62  C   UNL     1      -8.372  -5.030   7.892  1.00  0.00     0.031 C 
ATOM     63  C   UNL     1      -8.206   0.909   4.395  1.00  0.00     0.029 A 
ATOM     64  C   UNL     1      -9.539   0.383   4.689  1.00  0.00     0.049 A 
ATOM     65  H   UNL     1     -10.006  -1.324   5.785  1.00  0.00     0.167 HD
ATOM     66  C   UNL     1     -10.845  -5.011   8.003  1.00  0.00     0.037 A 
ATOM     67  C   UNL     1     -10.709   0.930   4.301  1.00  0.00     0.037 A 
ATOM     68  C   UNL     1     -12.138  -4.455   7.705  1.00  0.00     0.049 A 
ATOM     69  C   UNL     1     -12.004   0.263   4.692  1.00  0.00     0.074 A 
ATOM     70  C   UNL     1     -13.386  -4.927   8.072  1.00  0.00     0.029 A 
ATOM     71  N   UNL     1     -12.348  -3.306   6.957  1.00  0.00    -0.354 N 
ATOM     72  N   UNL     1     -12.198  -0.823   5.403  1.00  0.00    -0.248 NA
ATOM     73  C   UNL     1     -13.245   0.901   4.229  1.00  0.00     0.031 C 
ATOM     74  C   UNL     1     -14.353  -4.093   7.501  1.00  0.00     0.029 A 
ATOM     75  C   UNL     1     -13.707  -3.067   6.829  1.00  0.00     0.049 A 
ATOM     76  H   UNL     1     -11.637  -2.743   6.574  1.00  0.00     0.167 HD
ATOM     77  C   UNL     1     -13.575  -0.980   5.497  1.00  0.00     0.074 A 
ATOM     78  C   UNL     1     -14.171   0.129   4.781  1.00  0.00     0.031 C 
ATOM     79  C   UNL     1     -14.284  -1.953   6.121  1.00  0.00     0.037 A 
BRANCH  66  80
ATOM     80  C   UNL     1     -10.780  -6.289   8.786  1.00  0.00     0.064 A 
ATOM     81  C   UNL     1     -10.300  -6.323  10.104  1.00  0.00     0.173 A 
ATOM     82  C   UNL     1     -11.223  -7.493   8.218  1.00  0.00     0.173 A 
ATOM     83  F   UNL     1      -9.847  -5.203  10.687  1.00  0.00    -0.203 F 
ATOM     84  C   UNL     1     -10.240  -7.520  10.814  1.00  0.00     0.198 A 
ATOM     85  C   UNL     1     -11.191  -8.682   8.942  1.00  0.00     0.198 A 
ATOM     86  F   UNL     1     -11.693  -7.516   6.962  1.00  0.00    -0.203 F 
ATOM     87  F   UNL     1      -9.729  -7.537  12.053  1.00  0.00    -0.200 F 
ATOM     88  C   UNL     1     -10.692  -8.696  10.235  1.00  0.00     0.200 A 
ATOM     89  F   UNL     1     -11.638  -9.816   8.385  1.00  0.00    -0.200 F 
ATOM     90  F   UNL     1     -10.638  -9.846  10.921  1.00  0.00    -0.200 F 
ENDBRANCH  66  80
BRANCH  67  91
ATOM     91  C   UNL     1     -10.713   2.169   3.480  1.00  0.00     0.064 A 
ATOM     92  C   UNL     1     -11.202   3.378   3.992  1.00  0.00     0.173 A 
ATOM     93  C   UNL     1     -10.253   2.162   2.155  1.00  0.00     0.173 A 
ATOM     94  F   UNL     1     -11.681   3.430   5.244  1.00  0.00    -0.203 F 
ATOM     95  C   UNL     1     -11.248   4.528   3.206  1.00  0.00     0.198 A 
ATOM     96  C   UNL     1     -10.271   3.319   1.379  1.00  0.00     0.198 A 
ATOM     97  F   UNL     1      -9.780   1.030   1.614  1.00  0.00    -0.203 F 
ATOM     98  F   UNL     1     -11.767   5.658   3.705  1.00  0.00    -0.200 F 
ATOM     99  C   UNL     1     -10.776   4.499   1.902  1.00  0.00     0.200 A 
ATOM    100  F   UNL     1      -9.805   3.288   0.123  1.00  0.00    -0.200 F 
ATOM    101  F   UNL     1     -10.819   5.606   1.147  1.00  0.00    -0.200 F 
ENDBRANCH  67  91
BRANCH  79 102
ATOM    102  C   UNL     1     -15.783  -1.846   6.095  1.00  0.00     0.064 A 
ATOM    103  C   UNL     1     -16.520  -2.074   4.924  1.00  0.00     0.173 A 
ATOM    104  C   UNL     1     -16.493  -1.559   7.272  1.00  0.00     0.173 A 
ATOM    105  F   UNL     1     -15.890  -2.340   3.770  1.00  0.00    -0.203 F 
ATOM    106  C   UNL     1     -17.911  -1.993   4.926  1.00  0.00     0.198 A 
ATOM    107  C   UNL     1     -17.884  -1.511   7.277  1.00  0.00     0.198 A 
ATOM    108  F   UNL     1     -15.836  -1.342   8.421  1.00  0.00    -0.203 F 
ATOM    109  F   UNL     1     -18.592  -2.168   3.786  1.00  0.00    -0.200 F 
ATOM    110  C   UNL     1     -18.591  -1.720   6.104  1.00  0.00     0.200 A 
ATOM    111  F   UNL     1     -18.540  -1.263   8.420  1.00  0.00    -0.200 F 
ATOM    112  F   UNL     1     -19.930  -1.652   6.106  1.00  0.00    -0.200 F 
ENDBRANCH  79 102
ENDBRANCH  53  54
ENDBRANCH  46  48
ENDBRANCH  45  46
ENDBRANCH  44  45
ENDBRANCH  43  44
ENDBRANCH  42  43
ENDBRANCH  41  42
ENDBRANCH  40  41
ENDBRANCH  39  40
ENDBRANCH  38  39
ENDBRANCH   1  38
TORSDOF 27
