REMARK SMILES CCn1ccc2cc(S(=O)(=O)N3CCC[C@@H](C(=O)OCCOCCOCCOCCOC(=O)c4ccc(-c5c6nc(c(-c7c(F)c(F)c(F)c(F)c7F)c7ccc([nH]7)c(-c7c(F)c(F)c(F)c(F)c7F)c7nc(c(-c8c(F)c(F)c(F)c(F)c8F)c8ccc5[nH]8)C=C7)C=C6)cc4)C3)ccc21
REMARK SMILES IDX 24 1 23 2 22 3 21 4 20 5 19 6 17 7 18 8 16 9 12 10 13 11
REMARK SMILES IDX 97 12 14 13 15 14 9 15 10 16 11 17 8 18 3 19 4 20 100 21
REMARK SMILES IDX 5 22 6 23 99 24 7 25 98 26 2 27 1 28 25 29 26 30 27 31 28 32
REMARK SMILES IDX 29 33 30 34 31 35 32 36 33 37 34 38 35 39 96 40 36 41 95 42
REMARK SMILES IDX 37 43 38 44 39 45 89 46 40 47 94 48 88 49 90 50 41 51 93 52
REMARK SMILES IDX 87 53 86 54 42 56 74 57 54 58 73 59 55 60 58 61 72 62 91 63
REMARK SMILES IDX 56 64 57 65 71 67 92 68 59 69 43 70 44 71 52 72 45 73 46 74
REMARK SMILES IDX 50 75 53 76 47 77 48 78 51 79 49 80 75 81 76 82 84 83 77 84
REMARK SMILES IDX 78 85 82 86 85 87 79 88 80 89 83 90 81 91 60 92 61 93 69 94
REMARK SMILES IDX 62 95 63 96 67 97 70 98 64 99 65 100 68 101 66 102
REMARK H PARENT 90 55 58 66
REMARK Flexibility Score: inf
ROOT
ATOM      1  C   UNL     1       7.322  -4.116   8.747  1.00  0.00     0.188 C 
ENDROOT
BRANCH   1   2
ATOM      2  C   UNL     1       6.664  -5.013   7.686  1.00  0.00     0.188 C 
BRANCH   2   3
ATOM      3  O   UNL     1       7.323  -5.365   6.476  1.00  0.00    -0.376 OA
BRANCH   3   4
ATOM      4  C   UNL     1       7.939  -4.397   5.633  1.00  0.00     0.202 C 
BRANCH   4   5
ATOM      5  C   UNL     1       7.212  -3.146   5.124  1.00  0.00     0.261 C 
BRANCH   5   6
ATOM      6  O   UNL     1       6.636  -2.374   6.177  1.00  0.00    -0.463 OA
BRANCH   6   7
ATOM      7  C   UNL     1       5.288  -2.433   6.280  1.00  0.00     0.310 C 
ATOM      8  O   UNL     1       4.529  -2.912   5.449  1.00  0.00    -0.252 OA
BRANCH   7   9
ATOM      9  C   UNL     1       4.846  -1.885   7.620  1.00  0.00     0.114 C 
ATOM     10  N   UNL     1       3.425   0.148   8.189  1.00  0.00    -0.197 NA
ATOM     11  C   UNL     1       2.398  -0.743   8.764  1.00  0.00     0.102 C 
ATOM     12  C   UNL     1       4.612  -0.394   7.482  1.00  0.00     0.117 C 
ATOM     13  C   UNL     1       3.001  -2.026   9.291  1.00  0.00     0.018 C 
ATOM     14  C   UNL     1       3.693  -2.734   8.152  1.00  0.00     0.018 C 
BRANCH  10  15
ATOM     15  S   UNL     1       2.854   1.632   7.573  1.00  0.00     0.243 S 
ATOM     16  O   UNL     1       4.012   2.481   7.379  1.00  0.00    -0.207 OA
ATOM     17  O   UNL     1       1.735   2.050   8.390  1.00  0.00    -0.207 OA
BRANCH  15  18
ATOM     18  C   UNL     1       2.207   1.280   5.949  1.00  0.00     0.083 A 
ATOM     19  N   UNL     1       0.660   0.986   2.126  1.00  0.00    -0.348 N 
ATOM     20  C   UNL     1       0.363   2.297   1.849  1.00  0.00     0.087 A 
ATOM     21  C   UNL     1       1.217   0.887   3.385  1.00  0.00     0.048 A 
ATOM     22  C   UNL     1       0.758   3.061   2.920  1.00  0.00     0.028 A 
ATOM     23  C   UNL     1       1.280   2.184   3.905  1.00  0.00     0.001 A 
ATOM     24  C   UNL     1       1.660  -0.223   4.117  1.00  0.00     0.028 A 
ATOM     25  C   UNL     1       1.794   2.387   5.199  1.00  0.00     0.032 A 
ATOM     26  C   UNL     1       2.138  -0.006   5.412  1.00  0.00     0.024 A 
BRANCH  19  27
ATOM     27  C   UNL     1       0.334  -0.125   1.246  1.00  0.00     0.119 C 
ATOM     28  C   UNL     1       1.003  -0.036  -0.115  1.00  0.00     0.027 C 
ENDBRANCH  19  27
ENDBRANCH  15  18
ENDBRANCH  10  15
ENDBRANCH   7   9
ENDBRANCH   6   7
ENDBRANCH   5   6
ENDBRANCH   4   5
ENDBRANCH   3   4
ENDBRANCH   2   3
ENDBRANCH   1   2
BRANCH   1  29
ATOM     29  O   UNL     1       8.214  -3.169   8.207  1.00  0.00    -0.377 OA
BRANCH  29  30
ATOM     30  C   UNL     1       9.600  -3.411   8.427  1.00  0.00     0.188 C 
BRANCH  30  31
ATOM     31  C   UNL     1      10.079  -4.875   8.475  1.00  0.00     0.188 C 
BRANCH  31  32
ATOM     32  O   UNL     1       9.697  -5.539   9.679  1.00  0.00    -0.376 OA
BRANCH  32  33
ATOM     33  C   UNL     1      10.691  -5.638  10.698  1.00  0.00     0.202 C 
BRANCH  33  34
ATOM     34  C   UNL     1      10.999  -4.322  11.428  1.00  0.00     0.261 C 
BRANCH  34  35
ATOM     35  O   UNL     1      11.706  -3.385  10.598  1.00  0.00    -0.460 OA
BRANCH  35  36
ATOM     36  C   UNL     1      12.974  -3.707  10.251  1.00  0.00     0.338 C 
ATOM     37  O   UNL     1      13.693  -4.530  10.790  1.00  0.00    -0.246 OA
BRANCH  36  38
ATOM     38  C   UNL     1      13.154  -3.187   8.875  1.00  0.00     0.060 A 
ATOM     39  C   UNL     1      12.639  -1.943   8.490  1.00  0.00     0.016 A 
ATOM     40  C   UNL     1      13.586  -4.108   7.912  1.00  0.00     0.016 A 
ATOM     41  C   UNL     1      12.456  -1.670   7.136  1.00  0.00     0.010 A 
ATOM     42  C   UNL     1      13.381  -3.840   6.562  1.00  0.00     0.010 A 
ATOM     43  C   UNL     1      12.773  -2.641   6.173  1.00  0.00    -0.014 A 
BRANCH  43  44
ATOM     44  C   UNL     1      12.574  -2.313   4.753  1.00  0.00     0.031 A 
ATOM     45  C   UNL     1      13.497  -1.276   4.201  1.00  0.00     0.074 A 
ATOM     46  C   UNL     1      11.791  -3.022   3.912  1.00  0.00     0.049 A 
ATOM     47  N   UNL     1      13.248  -0.286   3.402  1.00  0.00    -0.248 NA
ATOM     48  C   UNL     1      14.906  -1.371   4.625  1.00  0.00     0.031 C 
ATOM     49  C   UNL     1      11.101  -4.278   4.206  1.00  0.00     0.029 A 
ATOM     50  N   UNL     1      11.545  -2.837   2.574  1.00  0.00    -0.354 N 
ATOM     51  C   UNL     1      14.486   0.282   3.116  1.00  0.00     0.074 A 
ATOM     52  C   UNL     1      15.462  -0.371   3.949  1.00  0.00     0.031 C 
ATOM     53  C   UNL     1      10.666  -4.830   3.054  1.00  0.00     0.029 A 
ATOM     54  C   UNL     1      10.994  -3.947   1.947  1.00  0.00     0.049 A 
ATOM     55  H   UNL     1      11.741  -1.995   2.103  1.00  0.00     0.167 HD
ATOM     56  C   UNL     1      14.705   1.156   2.099  1.00  0.00     0.037 A 
ATOM     57  C   UNL     1      10.899  -4.190   0.616  1.00  0.00     0.037 A 
ATOM     58  C   UNL     1      13.523   1.819   1.649  1.00  0.00     0.049 A 
ATOM     59  C   UNL     1      11.113  -2.920  -0.116  1.00  0.00     0.074 A 
ATOM     60  C   UNL     1      12.640   2.713   2.220  1.00  0.00     0.029 A 
ATOM     61  N   UNL     1      12.929   1.394   0.491  1.00  0.00    -0.354 N 
ATOM     62  N   UNL     1      10.272  -1.927  -0.165  1.00  0.00    -0.248 NA
ATOM     63  C   UNL     1      12.456  -2.624  -0.591  1.00  0.00     0.031 C 
ATOM     64  C   UNL     1      11.384   2.459   1.601  1.00  0.00     0.029 A 
ATOM     65  C   UNL     1      11.572   1.415   0.695  1.00  0.00     0.049 A 
ATOM     66  H   UNL     1      13.391   1.124  -0.336  1.00  0.00     0.167 HD
ATOM     67  C   UNL     1      11.066  -0.800  -0.298  1.00  0.00     0.074 A 
ATOM     68  C   UNL     1      12.374  -1.297  -0.695  1.00  0.00     0.031 C 
ATOM     69  C   UNL     1      10.665   0.406   0.197  1.00  0.00     0.037 A 
BRANCH  56  70
ATOM     70  C   UNL     1      16.017   1.216   1.381  1.00  0.00     0.064 A 
ATOM     71  C   UNL     1      16.445   2.384   0.735  1.00  0.00     0.173 A 
ATOM     72  C   UNL     1      16.785   0.053   1.147  1.00  0.00     0.173 A 
ATOM     73  F   UNL     1      15.741   3.519   0.845  1.00  0.00    -0.203 F 
ATOM     74  C   UNL     1      17.584   2.391  -0.076  1.00  0.00     0.198 A 
ATOM     75  C   UNL     1      17.945   0.073   0.379  1.00  0.00     0.198 A 
ATOM     76  F   UNL     1      16.384  -1.145   1.599  1.00  0.00    -0.203 F 
ATOM     77  F   UNL     1      17.931   3.509  -0.728  1.00  0.00    -0.200 F 
ATOM     78  C   UNL     1      18.339   1.240  -0.242  1.00  0.00     0.200 A 
ATOM     79  F   UNL     1      18.647  -1.056   0.210  1.00  0.00    -0.200 F 
ATOM     80  F   UNL     1      19.421   1.245  -1.032  1.00  0.00    -0.200 F 
ENDBRANCH  56  70
BRANCH  57  81
ATOM     81  C   UNL     1      10.879  -5.503  -0.079  1.00  0.00     0.064 A 
ATOM     82  C   UNL     1      10.417  -5.628  -1.401  1.00  0.00     0.173 A 
ATOM     83  C   UNL     1      11.525  -6.634   0.460  1.00  0.00     0.173 A 
ATOM     84  F   UNL     1       9.844  -4.585  -2.019  1.00  0.00    -0.203 F 
ATOM     85  C   UNL     1      10.590  -6.810  -2.132  1.00  0.00     0.198 A 
ATOM     86  C   UNL     1      11.675  -7.819  -0.260  1.00  0.00     0.198 A 
ATOM     87  F   UNL     1      12.106  -6.587   1.667  1.00  0.00    -0.203 F 
ATOM     88  F   UNL     1      10.188  -6.872  -3.409  1.00  0.00    -0.200 F 
ATOM     89  C   UNL     1      11.217  -7.904  -1.560  1.00  0.00     0.200 A 
ATOM     90  F   UNL     1      12.315  -8.856   0.298  1.00  0.00    -0.200 F 
ATOM     91  F   UNL     1      11.418  -9.022  -2.271  1.00  0.00    -0.200 F 
ENDBRANCH  57  81
BRANCH  69  92
ATOM     92  C   UNL     1       9.210   0.574   0.524  1.00  0.00     0.064 A 
ATOM     93  C   UNL     1       8.541  -0.166   1.514  1.00  0.00     0.173 A 
ATOM     94  C   UNL     1       8.500   1.610  -0.101  1.00  0.00     0.173 A 
ATOM     95  F   UNL     1       9.182  -1.106   2.224  1.00  0.00    -0.203 F 
ATOM     96  C   UNL     1       7.206   0.088   1.824  1.00  0.00     0.198 A 
ATOM     97  C   UNL     1       7.178   1.887   0.239  1.00  0.00     0.198 A 
ATOM     98  F   UNL     1       9.106   2.387  -1.013  1.00  0.00    -0.203 F 
ATOM     99  F   UNL     1       6.585  -0.646   2.759  1.00  0.00    -0.200 F 
ATOM    100  C   UNL     1       6.528   1.118   1.191  1.00  0.00     0.200 A 
ATOM    101  F   UNL     1       6.541   2.913  -0.343  1.00  0.00    -0.200 F 
ATOM    102  F   UNL     1       5.255   1.383   1.513  1.00  0.00    -0.200 F 
ENDBRANCH  69  92
ENDBRANCH  43  44
ENDBRANCH  36  38
ENDBRANCH  35  36
ENDBRANCH  34  35
ENDBRANCH  33  34
ENDBRANCH  32  33
ENDBRANCH  31  32
ENDBRANCH  30  31
ENDBRANCH  29  30
ENDBRANCH   1  29
TORSDOF 23
