REMARK SMILES O=C(OCCOCCOCCOCCOC(=O)c1ccccc1C[N@H+]1CCCC[C@@H]1CCn1cccn1)c1ccc(-c2c3nc(c(-c4c(F)c(F)c(F)c(F)c4F)c4ccc([nH]4)c(-c4c(F)c(F)c(F)c(F)c4F)c4nc(c(-c5c(F)c(F)c(F)c(F)c5F)c5ccc2[nH]5)C=C4)C=C3)cc1
REMARK SMILES IDX 10 1 9 2 8 3 7 4 6 5 5 6 4 7 3 8 2 9 1 10 38 11 39 12 100 13
REMARK SMILES IDX 40 14 99 15 41 16 42 17 43 18 93 19 44 20 98 21 92 22 94 23
REMARK SMILES IDX 45 24 97 25 91 26 90 27 46 29 78 30 58 31 77 32 59 33 62 34
REMARK SMILES IDX 76 35 95 36 60 37 61 38 75 40 96 41 63 42 47 43 48 44 56 45
REMARK SMILES IDX 49 46 50 47 54 48 57 49 51 50 52 51 55 52 53 53 79 54 80 55
REMARK SMILES IDX 88 56 81 57 82 58 86 59 89 60 83 61 84 62 87 63 85 64 64 65
REMARK SMILES IDX 65 66 73 67 66 68 67 69 71 70 74 71 68 72 69 73 72 74 70 75
REMARK SMILES IDX 11 76 12 77 13 78 14 79 15 80 16 81 17 82 18 83 19 84 23 85
REMARK SMILES IDX 20 86 22 87 21 88 24 89 25 90 26 91 30 92 27 94 29 95 28 96
REMARK SMILES IDX 31 97 32 98 33 99 34 100 37 101 35 102 36 103
REMARK H PARENT 94 28 62 39 25 93
REMARK Flexibility Score: inf
ROOT
ATOM      1  C   UNL     1       4.183  -3.075  -0.440  1.00  0.00     0.188 C 
ENDROOT
BRANCH   1   2
ATOM      2  O   UNL     1       2.820  -3.091  -0.800  1.00  0.00    -0.377 OA
BRANCH   2   3
ATOM      3  C   UNL     1       2.190  -1.823  -0.765  1.00  0.00     0.188 C 
BRANCH   3   4
ATOM      4  C   UNL     1       2.845  -0.577  -1.409  1.00  0.00     0.188 C 
BRANCH   4   5
ATOM      5  O   UNL     1       4.130  -0.007  -1.183  1.00  0.00    -0.376 OA
BRANCH   5   6
ATOM      6  C   UNL     1       4.983  -0.008  -0.058  1.00  0.00     0.202 C 
BRANCH   6   7
ATOM      7  C   UNL     1       4.521   0.365   1.345  1.00  0.00     0.261 C 
BRANCH   7   8
ATOM      8  O   UNL     1       3.160   0.077   1.609  1.00  0.00    -0.460 OA
BRANCH   8   9
ATOM      9  C   UNL     1       2.093   0.821   1.263  1.00  0.00     0.338 C 
ATOM     10  O   UNL     1       0.981   0.421   1.607  1.00  0.00    -0.246 OA
BRANCH   9  11
ATOM     11  C   UNL     1       2.152   2.073   0.451  1.00  0.00     0.060 A 
ATOM     12  C   UNL     1       3.283   2.833   0.140  1.00  0.00     0.016 A 
ATOM     13  C   UNL     1       0.895   2.526   0.003  1.00  0.00     0.016 A 
ATOM     14  C   UNL     1       3.140   4.113  -0.353  1.00  0.00     0.010 A 
ATOM     15  C   UNL     1       0.744   3.791  -0.521  1.00  0.00     0.010 A 
ATOM     16  C   UNL     1       1.860   4.606  -0.581  1.00  0.00    -0.014 A 
BRANCH  16  17
ATOM     17  C   UNL     1       1.741   6.007  -0.905  1.00  0.00     0.031 A 
ATOM     18  C   UNL     1       2.314   6.352  -2.222  1.00  0.00     0.074 A 
ATOM     19  C   UNL     1       1.170   6.867  -0.042  1.00  0.00     0.049 A 
ATOM     20  N   UNL     1       3.393   7.024  -2.447  1.00  0.00    -0.248 NA
ATOM     21  C   UNL     1       1.736   5.720  -3.417  1.00  0.00     0.031 C 
ATOM     22  C   UNL     1       0.415   6.568   1.177  1.00  0.00     0.029 A 
ATOM     23  N   UNL     1       1.091   8.222  -0.121  1.00  0.00    -0.354 N 
ATOM     24  C   UNL     1       3.516   7.082  -3.830  1.00  0.00     0.074 A 
ATOM     25  C   UNL     1       2.588   6.120  -4.363  1.00  0.00     0.031 C 
ATOM     26  C   UNL     1      -0.241   7.680   1.583  1.00  0.00     0.029 A 
ATOM     27  C   UNL     1       0.164   8.792   0.744  1.00  0.00     0.049 A 
ATOM     28  H   UNL     1       1.643   8.754  -0.739  1.00  0.00     0.167 HD
ATOM     29  C   UNL     1       4.177   8.117  -4.413  1.00  0.00     0.037 A 
ATOM     30  C   UNL     1      -0.276  10.075   0.691  1.00  0.00     0.037 A 
ATOM     31  C   UNL     1       5.045   8.773  -3.468  1.00  0.00     0.049 A 
ATOM     32  C   UNL     1       0.741  10.855  -0.066  1.00  0.00     0.074 A 
ATOM     33  C   UNL     1       6.142   8.380  -2.726  1.00  0.00     0.029 A 
ATOM     34  N   UNL     1       4.587   9.927  -2.881  1.00  0.00    -0.354 N 
ATOM     35  N   UNL     1       1.939  11.100   0.389  1.00  0.00    -0.248 NA
ATOM     36  C   UNL     1       0.596  10.919  -1.514  1.00  0.00     0.031 C 
ATOM     37  C   UNL     1       5.999   9.043  -1.472  1.00  0.00     0.029 A 
ATOM     38  C   UNL     1       4.872   9.863  -1.542  1.00  0.00     0.049 A 
ATOM     39  H   UNL     1       4.134  10.670  -3.341  1.00  0.00     0.167 HD
ATOM     40  C   UNL     1       2.774  10.906  -0.702  1.00  0.00     0.074 A 
ATOM     41  C   UNL     1       1.885  10.862  -1.861  1.00  0.00     0.031 C 
ATOM     42  C   UNL     1       4.066  10.500  -0.529  1.00  0.00     0.037 A 
BRANCH  29  43
ATOM     43  C   UNL     1       3.717   8.792  -5.682  1.00  0.00     0.064 A 
ATOM     44  C   UNL     1       4.520   9.806  -6.241  1.00  0.00     0.173 A 
ATOM     45  C   UNL     1       2.396   8.720  -6.177  1.00  0.00     0.173 A 
ATOM     46  F   UNL     1       5.787   9.978  -5.832  1.00  0.00    -0.203 F 
ATOM     47  C   UNL     1       4.009  10.732  -7.153  1.00  0.00     0.198 A 
ATOM     48  C   UNL     1       1.906   9.613  -7.126  1.00  0.00     0.198 A 
ATOM     49  F   UNL     1       1.490   7.869  -5.685  1.00  0.00    -0.203 F 
ATOM     50  F   UNL     1       4.768  11.761  -7.552  1.00  0.00    -0.200 F 
ATOM     51  C   UNL     1       2.700  10.640  -7.588  1.00  0.00     0.200 A 
ATOM     52  F   UNL     1       0.627   9.519  -7.517  1.00  0.00    -0.200 F 
ATOM     53  F   UNL     1       2.187  11.565  -8.409  1.00  0.00    -0.200 F 
ENDBRANCH  29  43
BRANCH  30  54
ATOM     54  C   UNL     1      -1.654  10.578   0.914  1.00  0.00     0.064 A 
ATOM     55  C   UNL     1      -1.908  11.953   1.056  1.00  0.00     0.173 A 
ATOM     56  C   UNL     1      -2.779   9.757   0.700  1.00  0.00     0.173 A 
ATOM     57  F   UNL     1      -0.891  12.813   1.216  1.00  0.00    -0.203 F 
ATOM     58  C   UNL     1      -3.203  12.476   0.962  1.00  0.00     0.198 A 
ATOM     59  C   UNL     1      -4.070  10.278   0.611  1.00  0.00     0.198 A 
ATOM     60  F   UNL     1      -2.639   8.443   0.473  1.00  0.00    -0.203 F 
ATOM     61  F   UNL     1      -3.397  13.800   1.038  1.00  0.00    -0.200 F 
ATOM     62  C   UNL     1      -4.281  11.639   0.727  1.00  0.00     0.200 A 
ATOM     63  F   UNL     1      -5.099   9.462   0.344  1.00  0.00    -0.200 F 
ATOM     64  F   UNL     1      -5.512  12.145   0.571  1.00  0.00    -0.200 F 
ENDBRANCH  30  54
BRANCH  42  65
ATOM     65  C   UNL     1       4.629  10.529   0.864  1.00  0.00     0.064 A 
ATOM     66  C   UNL     1       4.149   9.746   1.929  1.00  0.00     0.173 A 
ATOM     67  C   UNL     1       5.792  11.277   1.086  1.00  0.00     0.173 A 
ATOM     68  F   UNL     1       3.103   8.925   1.766  1.00  0.00    -0.203 F 
ATOM     69  C   UNL     1       4.785   9.751   3.171  1.00  0.00     0.198 A 
ATOM     70  C   UNL     1       6.446  11.251   2.314  1.00  0.00     0.198 A 
ATOM     71  F   UNL     1       6.327  11.998   0.088  1.00  0.00    -0.203 F 
ATOM     72  F   UNL     1       4.305   9.004   4.177  1.00  0.00    -0.200 F 
ATOM     73  C   UNL     1       5.936  10.498   3.359  1.00  0.00     0.200 A 
ATOM     74  F   UNL     1       7.588  11.932   2.473  1.00  0.00    -0.200 F 
ATOM     75  F   UNL     1       6.573  10.470   4.539  1.00  0.00    -0.200 F 
ENDBRANCH  42  65
ENDBRANCH  16  17
ENDBRANCH   9  11
ENDBRANCH   8   9
ENDBRANCH   7   8
ENDBRANCH   6   7
ENDBRANCH   5   6
ENDBRANCH   4   5
ENDBRANCH   3   4
ENDBRANCH   2   3
ENDBRANCH   1   2
BRANCH   1  76
ATOM     76  C   UNL     1       5.097  -2.916  -1.673  1.00  0.00     0.188 C 
BRANCH  76  77
ATOM     77  O   UNL     1       4.471  -2.472  -2.859  1.00  0.00    -0.376 OA
BRANCH  77  78
ATOM     78  C   UNL     1       3.635  -3.322  -3.632  1.00  0.00     0.202 C 
BRANCH  78  79
ATOM     79  C   UNL     1       3.195  -4.753  -3.267  1.00  0.00     0.261 C 
BRANCH  79  80
ATOM     80  O   UNL     1       3.733  -5.328  -2.083  1.00  0.00    -0.460 OA
BRANCH  80  81
ATOM     81  C   UNL     1       4.914  -5.966  -2.159  1.00  0.00     0.338 C 
ATOM     82  O   UNL     1       5.612  -6.104  -3.154  1.00  0.00    -0.246 OA
BRANCH  81  83
ATOM     83  C   UNL     1       5.327  -6.296  -0.771  1.00  0.00     0.068 A 
ATOM     84  C   UNL     1       6.596  -5.845  -0.362  1.00  0.00     0.016 A 
ATOM     85  C   UNL     1       4.487  -6.982   0.127  1.00  0.00     0.021 A 
ATOM     86  C   UNL     1       7.039  -6.064   0.939  1.00  0.00     0.001 A 
ATOM     87  C   UNL     1       4.964  -7.191   1.431  1.00  0.00     0.010 A 
ATOM     88  C   UNL     1       6.227  -6.752   1.831  1.00  0.00     0.001 A 
BRANCH  85  89
ATOM     89  C   UNL     1       3.145  -7.576  -0.272  1.00  0.00     0.300 C 
BRANCH  89  90
ATOM     90  N   UNL     1       3.199  -8.936  -0.862  1.00  0.00    -0.329 N 
ATOM     91  C   UNL     1       3.996  -8.906  -2.104  1.00  0.00     0.262 C 
ATOM     92  C   UNL     1       3.629 -10.002   0.080  1.00  0.00     0.186 C 
ATOM     93  H   UNL     1       2.241  -9.202  -1.092  1.00  0.00     0.348 HD
ATOM     94  C   UNL     1       4.108 -10.230  -2.835  1.00  0.00     0.062 C 
ATOM     95  C   UNL     1       3.714 -11.356  -0.663  1.00  0.00     0.065 C 
ATOM     96  C   UNL     1       4.623 -11.290  -1.883  1.00  0.00     0.012 C 
BRANCH  92  97
ATOM     97  C   UNL     1       2.638 -10.134   1.271  1.00  0.00     0.088 C 
BRANCH  97  98
ATOM     98  C   UNL     1       3.081 -11.070   2.400  1.00  0.00     0.150 C 
BRANCH  98  99
ATOM     99  N   UNL     1       4.270 -10.622   3.100  1.00  0.00    -0.273 N 
ATOM    100  C   UNL     1       4.361  -9.591   3.994  1.00  0.00     0.108 A 
ATOM    101  N   UNL     1       5.439 -11.262   2.914  1.00  0.00    -0.182 NA
ATOM    102  C   UNL     1       5.679  -9.534   4.380  1.00  0.00     0.042 A 
ATOM    103  C   UNL     1       6.293 -10.599   3.697  1.00  0.00     0.135 A 
ENDBRANCH  98  99
ENDBRANCH  97  98
ENDBRANCH  92  97
ENDBRANCH  89  90
ENDBRANCH  85  89
ENDBRANCH  81  83
ENDBRANCH  80  81
ENDBRANCH  79  80
ENDBRANCH  78  79
ENDBRANCH  77  78
ENDBRANCH  76  77
ENDBRANCH   1  76
TORSDOF 25
