REMARK SMILES O=C(C[N@@H+]1CCC[C@@H]1c1ccccc1Cl)OCCOCCOCCOCCOC(=O)c1ccc(-c2c3nc(c(-c4c(F)c(F)c(F)c(F)c4F)c4ccc([nH]4)c(-c4c(F)c(F)c(F)c(F)c4F)c4nc(c(-c5c(F)c(F)c(F)c(F)c5F)c5ccc2[nH]5)C=C4)C=C3)cc1
REMARK SMILES IDX 22 1 21 2 20 3 19 4 18 5 17 6 16 7 2 8 1 9 3 10 4 11 5 12
REMARK SMILES IDX 8 13 6 15 7 16 9 17 10 18 14 19 11 20 13 21 15 22 12 23
REMARK SMILES IDX 23 24 24 25 25 26 26 27 27 28 28 29 29 30 30 31 31 32 32 33
REMARK SMILES IDX 93 34 33 35 92 36 34 37 35 38 36 39 86 40 37 41 91 42 85 43
REMARK SMILES IDX 87 44 38 45 90 46 84 47 83 48 39 50 71 51 51 52 70 53 52 54
REMARK SMILES IDX 55 55 69 56 88 57 53 58 54 59 68 61 89 62 56 63 40 64 41 65
REMARK SMILES IDX 49 66 42 67 43 68 47 69 50 70 44 71 45 72 48 73 46 74 72 75
REMARK SMILES IDX 73 76 81 77 74 78 75 79 79 80 82 81 76 82 77 83 80 84 78 85
REMARK SMILES IDX 57 86 58 87 66 88 59 89 60 90 64 91 67 92 61 93 62 94 65 95
REMARK SMILES IDX 63 96
REMARK H PARENT 4 14 87 49 55 60
REMARK Flexibility Score: inf
ROOT
ATOM      1  O   UNL     1       2.327   3.495   1.288  1.00  0.00    -0.377 OA
ENDROOT
BRANCH   1   2
ATOM      2  C   UNL     1       1.839   2.454   0.456  1.00  0.00     0.188 C 
BRANCH   2   3
ATOM      3  C   UNL     1       2.203   1.082   0.987  1.00  0.00     0.188 C 
BRANCH   3   4
ATOM      4  O   UNL     1       3.575   0.715   0.933  1.00  0.00    -0.376 OA
BRANCH   4   5
ATOM      5  C   UNL     1       4.309   0.740  -0.277  1.00  0.00     0.202 C 
BRANCH   5   6
ATOM      6  C   UNL     1       3.954  -0.251  -1.379  1.00  0.00     0.261 C 
BRANCH   6   7
ATOM      7  O   UNL     1       2.600  -0.706  -1.392  1.00  0.00    -0.459 OA
BRANCH   7   8
ATOM      8  C   UNL     1       2.218  -1.830  -0.727  1.00  0.00     0.361 C 
ATOM      9  O   UNL     1       1.215  -2.440  -1.094  1.00  0.00    -0.245 OA
BRANCH   8  10
ATOM     10  C   UNL     1       2.960  -2.216   0.560  1.00  0.00     0.387 C 
BRANCH  10  11
ATOM     11  N   UNL     1       4.271  -2.804   0.287  1.00  0.00    -0.319 N 
ATOM     12  C   UNL     1       4.096  -4.241  -0.005  1.00  0.00     0.263 C 
ATOM     13  C   UNL     1       5.339  -2.756   1.333  1.00  0.00     0.217 C 
ATOM     14  H   UNL     1       4.603  -2.209  -0.472  1.00  0.00     0.349 HD
ATOM     15  C   UNL     1       4.245  -4.903   1.352  1.00  0.00     0.068 C 
ATOM     16  C   UNL     1       5.410  -4.154   1.962  1.00  0.00     0.076 C 
BRANCH  13  17
ATOM     17  C   UNL     1       5.437  -1.662   2.391  1.00  0.00     0.028 A 
ATOM     18  C   UNL     1       4.380  -1.407   3.288  1.00  0.00     0.011 A 
ATOM     19  C   UNL     1       6.644  -0.962   2.627  1.00  0.00     0.050 A 
ATOM     20  C   UNL     1       4.482  -0.441   4.298  1.00  0.00     0.001 A 
ATOM     21  C   UNL     1       6.757  -0.022   3.663  1.00  0.00     0.021 A 
ATOM     22  Cl  UNL     1       8.087  -1.241   1.708  1.00  0.00    -0.084 Cl
ATOM     23  C   UNL     1       5.671   0.251   4.487  1.00  0.00     0.002 A 
ENDBRANCH  13  17
ENDBRANCH  10  11
ENDBRANCH   8  10
ENDBRANCH   7   8
ENDBRANCH   6   7
ENDBRANCH   5   6
ENDBRANCH   4   5
ENDBRANCH   3   4
ENDBRANCH   2   3
ENDBRANCH   1   2
BRANCH   1  24
ATOM     24  C   UNL     1       3.706   3.794   1.138  1.00  0.00     0.188 C 
BRANCH  24  25
ATOM     25  C   UNL     1       4.683   3.193   2.176  1.00  0.00     0.188 C 
BRANCH  25  26
ATOM     26  O   UNL     1       4.481   3.312   3.582  1.00  0.00    -0.376 OA
BRANCH  26  27
ATOM     27  C   UNL     1       3.163   3.439   4.083  1.00  0.00     0.202 C 
BRANCH  27  28
ATOM     28  C   UNL     1       2.867   4.895   4.457  1.00  0.00     0.261 C 
BRANCH  28  29
ATOM     29  O   UNL     1       3.253   5.815   3.425  1.00  0.00    -0.460 OA
BRANCH  29  30
ATOM     30  C   UNL     1       4.553   6.230   3.453  1.00  0.00     0.338 C 
ATOM     31  O   UNL     1       5.376   6.055   4.316  1.00  0.00    -0.246 OA
BRANCH  30  32
ATOM     32  C   UNL     1       4.862   6.815   2.122  1.00  0.00     0.060 A 
ATOM     33  C   UNL     1       6.071   6.469   1.495  1.00  0.00     0.016 A 
ATOM     34  C   UNL     1       3.918   7.600   1.454  1.00  0.00     0.016 A 
ATOM     35  C   UNL     1       6.348   6.929   0.205  1.00  0.00     0.010 A 
ATOM     36  C   UNL     1       4.201   8.075   0.177  1.00  0.00     0.010 A 
ATOM     37  C   UNL     1       5.431   7.774  -0.433  1.00  0.00    -0.014 A 
BRANCH  37  38
ATOM     38  C   UNL     1       5.844   8.614  -1.577  1.00  0.00     0.031 A 
ATOM     39  C   UNL     1       6.385   9.974  -1.245  1.00  0.00     0.074 A 
ATOM     40  C   UNL     1       5.636   8.238  -2.849  1.00  0.00     0.049 A 
ATOM     41  N   UNL     1       6.602  11.001  -2.021  1.00  0.00    -0.248 NA
ATOM     42  C   UNL     1       6.689  10.213   0.176  1.00  0.00     0.031 C 
ATOM     43  C   UNL     1       5.136   6.935  -3.276  1.00  0.00     0.029 A 
ATOM     44  N   UNL     1       5.780   8.949  -4.014  1.00  0.00    -0.354 N 
ATOM     45  C   UNL     1       7.038  12.014  -1.177  1.00  0.00     0.074 A 
ATOM     46  C   UNL     1       7.038  11.487   0.168  1.00  0.00     0.031 C 
ATOM     47  C   UNL     1       4.972   6.952  -4.612  1.00  0.00     0.029 A 
ATOM     48  C   UNL     1       5.315   8.281  -5.119  1.00  0.00     0.049 A 
ATOM     49  H   UNL     1       6.177   9.849  -4.053  1.00  0.00     0.167 HD
ATOM     50  C   UNL     1       7.398  13.277  -1.498  1.00  0.00     0.037 A 
ATOM     51  C   UNL     1       5.144   8.718  -6.382  1.00  0.00     0.037 A 
ATOM     52  C   UNL     1       7.371  13.790  -2.839  1.00  0.00     0.049 A 
ATOM     53  C   UNL     1       5.513  10.141  -6.720  1.00  0.00     0.074 A 
ATOM     54  C   UNL     1       7.737  15.041  -3.295  1.00  0.00     0.029 A 
ATOM     55  N   UNL     1       6.931  13.069  -3.942  1.00  0.00    -0.354 N 
ATOM     56  N   UNL     1       5.961  11.089  -5.931  1.00  0.00    -0.248 NA
ATOM     57  C   UNL     1       5.354  10.555  -8.121  1.00  0.00     0.031 C 
ATOM     58  C   UNL     1       7.468  15.096  -4.667  1.00  0.00     0.029 A 
ATOM     59  C   UNL     1       6.993  13.858  -5.076  1.00  0.00     0.049 A 
ATOM     60  H   UNL     1       6.620  12.135  -3.920  1.00  0.00     0.167 HD
ATOM     61  C   UNL     1       6.164  12.200  -6.739  1.00  0.00     0.074 A 
ATOM     62  C   UNL     1       5.791  11.808  -8.084  1.00  0.00     0.031 C 
ATOM     63  C   UNL     1       6.624  13.432  -6.404  1.00  0.00     0.037 A 
BRANCH  50  64
ATOM     64  C   UNL     1       7.788  14.183  -0.368  1.00  0.00     0.064 A 
ATOM     65  C   UNL     1       8.959  13.975   0.380  1.00  0.00     0.173 A 
ATOM     66  C   UNL     1       6.955  15.248   0.004  1.00  0.00     0.173 A 
ATOM     67  F   UNL     1       9.778  12.954   0.083  1.00  0.00    -0.203 F 
ATOM     68  C   UNL     1       9.255  14.771   1.483  1.00  0.00     0.198 A 
ATOM     69  C   UNL     1       7.273  16.064   1.086  1.00  0.00     0.198 A 
ATOM     70  F   UNL     1       5.822  15.489  -0.673  1.00  0.00    -0.203 F 
ATOM     71  F   UNL     1      10.338  14.505   2.227  1.00  0.00    -0.200 F 
ATOM     72  C   UNL     1       8.415  15.817   1.833  1.00  0.00     0.200 A 
ATOM     73  F   UNL     1       6.463  17.079   1.418  1.00  0.00    -0.200 F 
ATOM     74  F   UNL     1       8.697  16.577   2.900  1.00  0.00    -0.200 F 
ENDBRANCH  50  64
BRANCH  51  75
ATOM     75  C   UNL     1       4.579   7.801  -7.406  1.00  0.00     0.064 A 
ATOM     76  C   UNL     1       5.379   7.280  -8.431  1.00  0.00     0.173 A 
ATOM     77  C   UNL     1       3.235   7.397  -7.360  1.00  0.00     0.173 A 
ATOM     78  F   UNL     1       6.663   7.654  -8.532  1.00  0.00    -0.203 F 
ATOM     79  C   UNL     1       4.859   6.392  -9.371  1.00  0.00     0.198 A 
ATOM     80  C   UNL     1       2.722   6.491  -8.285  1.00  0.00     0.198 A 
ATOM     81  F   UNL     1       2.426   7.867  -6.399  1.00  0.00    -0.203 F 
ATOM     82  F   UNL     1       5.640   5.927 -10.356  1.00  0.00    -0.200 F 
ATOM     83  C   UNL     1       3.534   5.990  -9.292  1.00  0.00     0.200 A 
ATOM     84  F   UNL     1       1.445   6.095  -8.196  1.00  0.00    -0.200 F 
ATOM     85  F   UNL     1       3.039   5.122 -10.185  1.00  0.00    -0.200 F 
ENDBRANCH  51  75
BRANCH  63  86
ATOM     86  C   UNL     1       6.800  14.433  -7.508  1.00  0.00     0.064 A 
ATOM     87  C   UNL     1       5.706  15.075  -8.104  1.00  0.00     0.173 A 
ATOM     88  C   UNL     1       8.089  14.817  -7.908  1.00  0.00     0.173 A 
ATOM     89  F   UNL     1       4.454  14.734  -7.762  1.00  0.00    -0.203 F 
ATOM     90  C   UNL     1       5.897  16.059  -9.071  1.00  0.00     0.198 A 
ATOM     91  C   UNL     1       8.276  15.821  -8.853  1.00  0.00     0.198 A 
ATOM     92  F   UNL     1       9.168  14.239  -7.359  1.00  0.00    -0.203 F 
ATOM     93  F   UNL     1       4.838  16.640  -9.651  1.00  0.00    -0.200 F 
ATOM     94  C   UNL     1       7.181  16.438  -9.436  1.00  0.00     0.200 A 
ATOM     95  F   UNL     1       9.517  16.198  -9.191  1.00  0.00    -0.200 F 
ATOM     96  F   UNL     1       7.362  17.399 -10.352  1.00  0.00    -0.200 F 
ENDBRANCH  63  86
ENDBRANCH  37  38
ENDBRANCH  30  32
ENDBRANCH  29  30
ENDBRANCH  28  29
ENDBRANCH  27  28
ENDBRANCH  26  27
ENDBRANCH  25  26
ENDBRANCH  24  25
ENDBRANCH   1  24
TORSDOF 22
