REMARK SMILES CC[C@@](C)(NC(=O)N1CCC[C@H]1C1CCCC1)C(=O)OCCOCCOCCOCCOC(=O)c1ccc(-c2c3nc(c(-c4c(F)c(F)c(F)c(F)c4F)c4ccc([nH]4)c(-c4c(F)c(F)c(F)c(F)c4F)c4nc(c(-c5c(F)c(F)c(F)c(F)c5F)c5ccc2[nH]5)C=C4)C=C3)cc1
REMARK SMILES IDX 25 1 24 2 23 3 22 4 21 5 20 6 18 7 19 8 3 9 4 10 2 11 1 12
REMARK SMILES IDX 5 13 6 14 7 16 8 17 9 18 12 19 10 20 11 21 13 22 14 23 17 24
REMARK SMILES IDX 15 25 16 26 26 27 27 28 28 29 29 30 30 31 31 32 32 33 33 34
REMARK SMILES IDX 34 35 35 36 36 37 97 38 37 39 96 40 38 41 39 42 40 43 90 44
REMARK SMILES IDX 41 45 95 46 89 47 91 48 42 49 94 50 88 51 87 52 43 54 75 55
REMARK SMILES IDX 55 56 74 57 56 58 59 59 73 60 92 61 57 62 58 63 72 65 93 66
REMARK SMILES IDX 60 67 44 68 45 69 53 70 46 71 47 72 51 73 54 74 48 75 49 76
REMARK SMILES IDX 52 77 50 78 76 79 77 80 85 81 78 82 79 83 83 84 86 85 80 86
REMARK SMILES IDX 81 87 84 88 82 89 61 90 62 91 70 92 63 93 64 94 68 95 71 96
REMARK SMILES IDX 65 97 66 98 69 99 67 100
REMARK H PARENT 5 15 91 53 59 64
REMARK Flexibility Score: inf
ROOT
ATOM      1  C   UNL     1       1.930   1.079   4.316  1.00  0.00     0.188 C 
ENDROOT
BRANCH   1   2
ATOM      2  C   UNL     1       2.295  -0.169   2.964  1.00  0.00     0.188 C 
BRANCH   2   3
ATOM      3  O   UNL     1       2.580   0.199   1.591  1.00  0.00    -0.376 OA
BRANCH   3   4
ATOM      4  C   UNL     1       3.805  -0.129   0.903  1.00  0.00     0.202 C 
BRANCH   4   5
ATOM      5  C   UNL     1       4.283   0.988  -0.088  1.00  0.00     0.261 C 
BRANCH   5   6
ATOM      6  O   UNL     1       3.438   2.130  -0.067  1.00  0.00    -0.462 OA
BRANCH   6   7
ATOM      7  C   UNL     1       2.241   1.831  -0.612  1.00  0.00     0.331 C 
ATOM      8  O   UNL     1       2.141   1.377  -1.748  1.00  0.00    -0.249 OA
BRANCH   7   9
ATOM      9  C   UNL     1       1.072   2.057   0.367  1.00  0.00     0.136 C 
ATOM     10  C   UNL     1       0.180   3.087  -0.382  1.00  0.00     0.047 C 
BRANCH   9  11
ATOM     11  C   UNL     1       0.163   0.804   0.598  1.00  0.00     0.037 C 
ATOM     12  C   UNL     1       0.226  -0.283  -0.474  1.00  0.00     0.007 C 
ENDBRANCH   9  11
BRANCH   9  13
ATOM     13  N   UNL     1       1.453   2.754   1.642  1.00  0.00    -0.322 N 
ATOM     14  C   UNL     1       2.273   2.840   2.706  1.00  0.00     0.318 C 
ATOM     15  H   UNL     1       0.802   3.485   1.748  1.00  0.00     0.166 HD
ATOM     16  O   UNL     1       1.872   3.779   3.419  1.00  0.00    -0.249 OA
BRANCH  14  17
ATOM     17  N   UNL     1       3.477   2.003   2.950  1.00  0.00    -0.322 N 
ATOM     18  C   UNL     1       4.544   2.892   2.592  1.00  0.00     0.122 C 
ATOM     19  C   UNL     1       4.031   0.934   4.430  1.00  0.00     0.090 C 
ATOM     20  C   UNL     1       5.819   2.139   2.783  1.00  0.00     0.024 C 
ATOM     21  C   UNL     1       5.570   0.946   3.721  1.00  0.00     0.027 C 
BRANCH  19  22
ATOM     22  C   UNL     1       3.233   1.163   6.340  1.00  0.00     0.012 C 
ATOM     23  C   UNL     1       2.609   2.804   6.934  1.00  0.00     0.006 C 
ATOM     24  C   UNL     1       1.939   0.608   7.200  1.00  0.00     0.006 C 
ATOM     25  C   UNL     1       2.542   2.743   8.409  1.00  0.00     0.000 C 
ATOM     26  C   UNL     1       1.859   1.416   8.581  1.00  0.00     0.000 C 
ENDBRANCH  19  22
ENDBRANCH  14  17
ENDBRANCH   9  13
ENDBRANCH   7   9
ENDBRANCH   6   7
ENDBRANCH   5   6
ENDBRANCH   4   5
ENDBRANCH   3   4
ENDBRANCH   2   3
ENDBRANCH   1   2
BRANCH   1  27
ATOM     27  O   UNL     1       3.004   2.505   4.911  1.00  0.00    -0.377 OA
BRANCH  27  28
ATOM     28  C   UNL     1       4.730   2.598   5.578  1.00  0.00     0.188 C 
BRANCH  28  29
ATOM     29  C   UNL     1       5.737   1.260   6.354  1.00  0.00     0.188 C 
BRANCH  29  30
ATOM     30  O   UNL     1       5.601  -0.115   5.880  1.00  0.00    -0.376 OA
BRANCH  30  31
ATOM     31  C   UNL     1       5.408  -1.414   6.436  1.00  0.00     0.202 C 
BRANCH  31  32
ATOM     32  C   UNL     1       4.478  -1.699   7.619  1.00  0.00     0.261 C 
BRANCH  32  33
ATOM     33  O   UNL     1       4.722  -0.855   8.732  1.00  0.00    -0.460 OA
BRANCH  33  34
ATOM     34  C   UNL     1       6.016  -0.888   9.169  1.00  0.00     0.338 C 
ATOM     35  O   UNL     1       6.819  -1.752   9.001  1.00  0.00    -0.246 OA
BRANCH  34  36
ATOM     36  C   UNL     1       6.316   0.517   9.549  1.00  0.00     0.060 A 
ATOM     37  C   UNL     1       7.493   1.084   9.036  1.00  0.00     0.016 A 
ATOM     38  C   UNL     1       5.340   1.319  10.143  1.00  0.00     0.016 A 
ATOM     39  C   UNL     1       7.690   2.465   9.117  1.00  0.00     0.010 A 
ATOM     40  C   UNL     1       5.536   2.698  10.218  1.00  0.00     0.010 A 
ATOM     41  C   UNL     1       6.731   3.272   9.746  1.00  0.00    -0.014 A 
BRANCH  41  42
ATOM     42  C   UNL     1       7.165   4.562  10.331  1.00  0.00     0.031 A 
ATOM     43  C   UNL     1       7.550   4.494  11.787  1.00  0.00     0.074 A 
ATOM     44  C   UNL     1       7.252   5.721   9.654  1.00  0.00     0.049 A 
ATOM     45  N   UNL     1       7.992   5.426  12.586  1.00  0.00    -0.248 NA
ATOM     46  C   UNL     1       7.363   3.186  12.447  1.00  0.00     0.031 C 
ATOM     47  C   UNL     1       6.879   5.946   8.259  1.00  0.00     0.029 A 
ATOM     48  N   UNL     1       7.705   6.947  10.080  1.00  0.00    -0.354 N 
ATOM     49  C   UNL     1       8.113   4.809  13.824  1.00  0.00     0.074 A 
ATOM     50  C   UNL     1       7.569   3.482  13.712  1.00  0.00     0.031 C 
ATOM     51  C   UNL     1       7.144   7.229   7.938  1.00  0.00     0.029 A 
ATOM     52  C   UNL     1       7.703   7.915   9.104  1.00  0.00     0.049 A 
ATOM     53  H   UNL     1       8.004   7.117  11.002  1.00  0.00     0.167 HD
ATOM     54  C   UNL     1       8.703   5.265  14.948  1.00  0.00     0.037 A 
ATOM     55  C   UNL     1       8.130   9.194   9.161  1.00  0.00     0.037 A 
ATOM     56  C   UNL     1       9.281   6.566  15.060  1.00  0.00     0.049 A 
ATOM     57  C   UNL     1       8.742   9.713  10.448  1.00  0.00     0.074 A 
ATOM     58  C   UNL     1       9.930   7.130  16.138  1.00  0.00     0.029 A 
ATOM     59  N   UNL     1       9.269   7.508  14.044  1.00  0.00    -0.354 N 
ATOM     60  N   UNL     1       8.955   9.091  11.584  1.00  0.00    -0.248 NA
ATOM     61  C   UNL     1       9.196  11.113  10.446  1.00  0.00     0.031 C 
ATOM     62  C   UNL     1      10.265   8.443  15.793  1.00  0.00     0.029 A 
ATOM     63  C   UNL     1       9.886   8.665  14.478  1.00  0.00     0.049 A 
ATOM     64  H   UNL     1       8.880   7.374  13.150  1.00  0.00     0.167 HD
ATOM     65  C   UNL     1       9.621  10.000  12.402  1.00  0.00     0.074 A 
ATOM     66  C   UNL     1       9.775  11.216  11.633  1.00  0.00     0.031 C 
ATOM     67  C   UNL     1      10.072   9.844  13.672  1.00  0.00     0.037 A 
BRANCH  54  68
ATOM     68  C   UNL     1       8.732   4.324  16.113  1.00  0.00     0.064 A 
ATOM     69  C   UNL     1       9.478   3.132  16.079  1.00  0.00     0.173 A 
ATOM     70  C   UNL     1       7.933   4.570  17.236  1.00  0.00     0.173 A 
ATOM     71  F   UNL     1      10.225   2.832  15.005  1.00  0.00    -0.203 F 
ATOM     72  C   UNL     1       9.372   2.195  17.102  1.00  0.00     0.198 A 
ATOM     73  C   UNL     1       7.865   3.650  18.276  1.00  0.00     0.198 A 
ATOM     74  F   UNL     1       7.193   5.686  17.308  1.00  0.00    -0.203 F 
ATOM     75  F   UNL     1      10.008   1.020  16.999  1.00  0.00    -0.200 F 
ATOM     76  C   UNL     1       8.570   2.457  18.201  1.00  0.00     0.200 A 
ATOM     77  F   UNL     1       7.092   3.904  19.341  1.00  0.00    -0.200 F 
ATOM     78  F   UNL     1       8.457   1.548  19.179  1.00  0.00    -0.200 F 
ENDBRANCH  54  68
BRANCH  55  79
ATOM     79  C   UNL     1       8.067  10.083   7.965  1.00  0.00     0.064 A 
ATOM     80  C   UNL     1       9.242  10.531   7.340  1.00  0.00     0.173 A 
ATOM     81  C   UNL     1       6.849  10.579   7.481  1.00  0.00     0.173 A 
ATOM     82  F   UNL     1      10.437  10.111   7.784  1.00  0.00    -0.203 F 
ATOM     83  C   UNL     1       9.204  11.469   6.310  1.00  0.00     0.198 A 
ATOM     84  C   UNL     1       6.810  11.498   6.431  1.00  0.00     0.198 A 
ATOM     85  F   UNL     1       5.695  10.194   8.045  1.00  0.00    -0.203 F 
ATOM     86  F   UNL     1      10.347  11.934   5.786  1.00  0.00    -0.200 F 
ATOM     87  C   UNL     1       7.987  11.952   5.855  1.00  0.00     0.200 A 
ATOM     88  F   UNL     1       5.632  11.963   5.993  1.00  0.00    -0.200 F 
ATOM     89  F   UNL     1       7.950  12.869   4.878  1.00  0.00    -0.200 F 
ENDBRANCH  55  79
BRANCH  67  90
ATOM     90  C   UNL     1      10.862  10.964  14.286  1.00  0.00     0.064 A 
ATOM     91  C   UNL     1      10.273  12.181  14.656  1.00  0.00     0.173 A 
ATOM     92  C   UNL     1      12.223  10.776  14.583  1.00  0.00     0.173 A 
ATOM     93  F   UNL     1       8.978  12.412  14.394  1.00  0.00    -0.203 F 
ATOM     94  C   UNL     1      11.024  13.179  15.273  1.00  0.00     0.198 A 
ATOM     95  C   UNL     1      12.959  11.759  15.235  1.00  0.00     0.198 A 
ATOM     96  F   UNL     1      12.831   9.623  14.266  1.00  0.00    -0.203 F 
ATOM     97  F   UNL     1      10.452  14.353  15.575  1.00  0.00    -0.200 F 
ATOM     98  C   UNL     1      12.361  12.964  15.571  1.00  0.00     0.200 A 
ATOM     99  F   UNL     1      14.244  11.538  15.544  1.00  0.00    -0.200 F 
ATOM    100  F   UNL     1      13.076  13.919  16.181  1.00  0.00    -0.200 F 
ENDBRANCH  67  90
ENDBRANCH  41  42
ENDBRANCH  34  36
ENDBRANCH  33  34
ENDBRANCH  32  33
ENDBRANCH  31  32
ENDBRANCH  30  31
ENDBRANCH  29  30
ENDBRANCH  28  29
ENDBRANCH  27  28
ENDBRANCH   1  27
TORSDOF 24
