REMARK SMILES Cc1ccc(-c2cc(C(=O)OCCOCCOCCOCCOC(=O)c3ccc(-c4c5nc(c(-c6c(F)c(F)c(F)c(F)c6F)c6ccc([nH]6)c(-c6c(F)c(F)c(F)c(F)c6F)c6nc(c(-c7c(F)c(F)c(F)c(F)c7F)c7ccc4[nH]7)C=C6)C=C5)cc3)c3cc(C)ccc3n2)c(C)c1
REMARK SMILES IDX 18 1 17 2 16 3 15 4 14 5 13 6 12 7 11 8 9 9 10 10 8 11 6 12
REMARK SMILES IDX 7 13 96 14 95 15 89 16 94 17 90 18 93 19 91 20 92 21 5 22
REMARK SMILES IDX 1 23 2 24 3 25 99 26 4 27 97 28 98 29 19 30 20 31 21 32
REMARK SMILES IDX 22 33 23 34 24 35 25 36 26 37 27 38 88 39 28 40 87 41 29 42
REMARK SMILES IDX 30 43 31 44 81 45 32 46 86 47 80 48 82 49 33 50 85 51 79 52
REMARK SMILES IDX 78 53 34 55 66 56 46 57 65 58 47 59 50 60 64 61 83 62 48 63
REMARK SMILES IDX 49 64 63 66 84 67 51 68 35 69 36 70 44 71 37 72 38 73 42 74
REMARK SMILES IDX 45 75 39 76 40 77 43 78 41 79 67 80 68 81 76 82 69 83 70 84
REMARK SMILES IDX 74 85 77 86 71 87 72 88 75 89 73 90 52 91 53 92 61 93 54 94
REMARK SMILES IDX 55 95 59 96 62 97 56 98 57 99 60 100 58 101
REMARK H PARENT 82 54 50 65
REMARK Flexibility Score: inf
ROOT
ATOM      1  C   UNL     1      -4.651  -7.912   1.527  1.00  0.00     0.188 C 
ENDROOT
BRANCH   1   2
ATOM      2  O   UNL     1      -4.508  -6.593   1.005  1.00  0.00    -0.377 OA
BRANCH   2   3
ATOM      3  C   UNL     1      -3.290  -5.889   1.192  1.00  0.00     0.188 C 
BRANCH   3   4
ATOM      4  C   UNL     1      -2.884  -5.565   2.647  1.00  0.00     0.188 C 
BRANCH   4   5
ATOM      5  O   UNL     1      -3.520  -6.381   3.611  1.00  0.00    -0.376 OA
BRANCH   5   6
ATOM      6  C   UNL     1      -4.633  -5.917   4.349  1.00  0.00     0.202 C 
BRANCH   6   7
ATOM      7  C   UNL     1      -5.748  -5.052   3.739  1.00  0.00     0.261 C 
BRANCH   7   8
ATOM      8  O   UNL     1      -5.421  -4.348   2.544  1.00  0.00    -0.460 OA
BRANCH   8   9
ATOM      9  C   UNL     1      -4.986  -3.077   2.664  1.00  0.00     0.338 C 
ATOM     10  O   UNL     1      -4.822  -2.462   3.703  1.00  0.00    -0.246 OA
BRANCH   9  11
ATOM     11  C   UNL     1      -4.508  -2.611   1.340  1.00  0.00     0.071 A 
ATOM     12  C   UNL     1      -2.709  -1.615   0.133  1.00  0.00     0.072 A 
ATOM     13  C   UNL     1      -3.229  -2.049   1.335  1.00  0.00     0.045 A 
ATOM     14  N   UNL     1      -3.406  -1.684  -1.022  1.00  0.00    -0.248 NA
ATOM     15  C   UNL     1      -4.638  -2.222  -1.018  1.00  0.00     0.072 A 
ATOM     16  C   UNL     1      -5.248  -2.744   0.139  1.00  0.00     0.015 A 
ATOM     17  C   UNL     1      -5.335  -2.254  -2.217  1.00  0.00     0.029 A 
ATOM     18  C   UNL     1      -6.524  -3.355   0.013  1.00  0.00     0.014 A 
ATOM     19  C   UNL     1      -6.597  -2.841  -2.328  1.00  0.00     0.005 A 
ATOM     20  C   UNL     1      -7.194  -3.420  -1.214  1.00  0.00    -0.050 A 
ATOM     21  C   UNL     1      -8.491  -4.164  -1.325  1.00  0.00     0.044 C 
BRANCH  12  22
ATOM     22  C   UNL     1      -1.403  -0.951   0.060  1.00  0.00     0.003 A 
ATOM     23  C   UNL     1       2.474   0.983  -0.012  1.00  0.00     0.044 C 
ATOM     24  C   UNL     1       1.141   0.294   0.004  1.00  0.00    -0.051 A 
ATOM     25  C   UNL     1       1.038  -1.098   0.020  1.00  0.00     0.004 A 
ATOM     26  C   UNL     1      -0.031   1.059   0.005  1.00  0.00     0.007 A 
ATOM     27  C   UNL     1      -0.219  -1.712   0.046  1.00  0.00     0.011 A 
ATOM     28  C   UNL     1      -1.300   0.456   0.036  1.00  0.00    -0.041 A 
ATOM     29  C   UNL     1      -2.507   1.357   0.026  1.00  0.00     0.045 C 
ENDBRANCH  12  22
ENDBRANCH   9  11
ENDBRANCH   8   9
ENDBRANCH   7   8
ENDBRANCH   6   7
ENDBRANCH   5   6
ENDBRANCH   4   5
ENDBRANCH   3   4
ENDBRANCH   2   3
ENDBRANCH   1   2
BRANCH   1  30
ATOM     30  C   UNL     1      -3.477  -8.707   2.155  1.00  0.00     0.188 C 
BRANCH  30  31
ATOM     31  O   UNL     1      -2.185  -8.216   1.847  1.00  0.00    -0.376 OA
BRANCH  31  32
ATOM     32  C   UNL     1      -1.378  -8.954   0.948  1.00  0.00     0.202 C 
BRANCH  32  33
ATOM     33  C   UNL     1      -1.883  -9.079  -0.495  1.00  0.00     0.261 C 
BRANCH  33  34
ATOM     34  O   UNL     1      -3.221  -9.574  -0.652  1.00  0.00    -0.460 OA
BRANCH  34  35
ATOM     35  C   UNL     1      -3.451 -10.853  -0.292  1.00  0.00     0.338 C 
ATOM     36  O   UNL     1      -2.647 -11.654   0.158  1.00  0.00    -0.246 OA
BRANCH  35  37
ATOM     37  C   UNL     1      -4.907 -11.081  -0.370  1.00  0.00     0.060 A 
ATOM     38  C   UNL     1      -5.611 -11.419   0.794  1.00  0.00     0.016 A 
ATOM     39  C   UNL     1      -5.573 -10.949  -1.590  1.00  0.00     0.016 A 
ATOM     40  C   UNL     1      -6.983 -11.661   0.732  1.00  0.00     0.010 A 
ATOM     41  C   UNL     1      -6.943 -11.212  -1.655  1.00  0.00     0.010 A 
ATOM     42  C   UNL     1      -7.647 -11.602  -0.501  1.00  0.00    -0.014 A 
BRANCH  42  43
ATOM     43  C   UNL     1      -9.021 -12.146  -0.629  1.00  0.00     0.031 A 
ATOM     44  C   UNL     1      -9.181 -13.545  -1.158  1.00  0.00     0.074 A 
ATOM     45  C   UNL     1     -10.099 -11.428  -0.271  1.00  0.00     0.049 A 
ATOM     46  N   UNL     1     -10.271 -14.215  -1.431  1.00  0.00    -0.248 NA
ATOM     47  C   UNL     1      -7.937 -14.289  -1.416  1.00  0.00     0.031 C 
ATOM     48  C   UNL     1     -10.070 -10.085   0.303  1.00  0.00     0.029 A 
ATOM     49  N   UNL     1     -11.436 -11.734  -0.349  1.00  0.00    -0.354 N 
ATOM     50  C   UNL     1      -9.845 -15.454  -1.891  1.00  0.00     0.074 A 
ATOM     51  C   UNL     1      -8.399 -15.431  -1.901  1.00  0.00     0.031 C 
ATOM     52  C   UNL     1     -11.334  -9.676   0.515  1.00  0.00     0.029 A 
ATOM     53  C   UNL     1     -12.259 -10.712   0.056  1.00  0.00     0.049 A 
ATOM     54  H   UNL     1     -11.772 -12.604  -0.665  1.00  0.00     0.167 HD
ATOM     55  C   UNL     1     -10.592 -16.521  -2.258  1.00  0.00     0.037 A 
ATOM     56  C   UNL     1     -13.603 -10.620   0.029  1.00  0.00     0.037 A 
ATOM     57  C   UNL     1     -12.031 -16.537  -2.259  1.00  0.00     0.049 A 
ATOM     58  C   UNL     1     -14.412 -11.786  -0.491  1.00  0.00     0.074 A 
ATOM     59  C   UNL     1     -12.883 -17.564  -2.624  1.00  0.00     0.029 A 
ATOM     60  N   UNL     1     -12.830 -15.468  -1.881  1.00  0.00    -0.354 N 
ATOM     61  N   UNL     1     -14.005 -12.960  -0.910  1.00  0.00    -0.248 NA
ATOM     62  C   UNL     1     -15.871 -11.611  -0.538  1.00  0.00     0.031 C 
ATOM     63  C   UNL     1     -14.197 -17.098  -2.521  1.00  0.00     0.029 A 
ATOM     64  C   UNL     1     -14.166 -15.804  -2.026  1.00  0.00     0.049 A 
ATOM     65  H   UNL     1     -12.497 -14.600  -1.558  1.00  0.00     0.167 HD
ATOM     66  C   UNL     1     -15.155 -13.674  -1.228  1.00  0.00     0.074 A 
ATOM     67  C   UNL     1     -16.276 -12.806  -0.941  1.00  0.00     0.031 C 
ATOM     68  C   UNL     1     -15.273 -14.935  -1.713  1.00  0.00     0.037 A 
BRANCH  55  69
ATOM     69  C   UNL     1      -9.864 -17.754  -2.712  1.00  0.00     0.064 A 
ATOM     70  C   UNL     1      -9.126 -18.544  -1.817  1.00  0.00     0.173 A 
ATOM     71  C   UNL     1      -9.931 -18.169  -4.050  1.00  0.00     0.173 A 
ATOM     72  F   UNL     1      -9.016 -18.183  -0.529  1.00  0.00    -0.203 F 
ATOM     73  C   UNL     1      -8.460 -19.688  -2.251  1.00  0.00     0.198 A 
ATOM     74  C   UNL     1      -9.293 -19.332  -4.473  1.00  0.00     0.198 A 
ATOM     75  F   UNL     1     -10.625 -17.452  -4.947  1.00  0.00    -0.203 F 
ATOM     76  F   UNL     1      -7.720 -20.398  -1.389  1.00  0.00    -0.200 F 
ATOM     77  C   UNL     1      -8.552 -20.085  -3.576  1.00  0.00     0.200 A 
ATOM     78  F   UNL     1      -9.395 -19.722  -5.752  1.00  0.00    -0.200 F 
ATOM     79  F   UNL     1      -7.920 -21.192  -3.990  1.00  0.00    -0.200 F 
ENDBRANCH  55  69
BRANCH  56  80
ATOM     80  C   UNL     1     -14.286  -9.380   0.489  1.00  0.00     0.064 A 
ATOM     81  C   UNL     1     -15.133  -9.393   1.607  1.00  0.00     0.173 A 
ATOM     82  C   UNL     1     -14.154  -8.171  -0.211  1.00  0.00     0.173 A 
ATOM     83  F   UNL     1     -15.315 -10.529   2.295  1.00  0.00    -0.203 F 
ATOM     84  C   UNL     1     -15.848  -8.257   1.984  1.00  0.00     0.198 A 
ATOM     85  C   UNL     1     -14.841  -7.026   0.189  1.00  0.00     0.198 A 
ATOM     86  F   UNL     1     -13.359  -8.101  -1.289  1.00  0.00    -0.203 F 
ATOM     87  F   UNL     1     -16.702  -8.318   3.014  1.00  0.00    -0.200 F 
ATOM     88  C   UNL     1     -15.698  -7.074   1.278  1.00  0.00     0.200 A 
ATOM     89  F   UNL     1     -14.682  -5.882  -0.489  1.00  0.00    -0.200 F 
ATOM     90  F   UNL     1     -16.389  -5.983   1.637  1.00  0.00    -0.200 F 
ENDBRANCH  56  80
BRANCH  68  91
ATOM     91  C   UNL     1     -16.661 -15.480  -1.905  1.00  0.00     0.064 A 
ATOM     92  C   UNL     1     -17.516 -15.002  -2.909  1.00  0.00     0.173 A 
ATOM     93  C   UNL     1     -17.126 -16.529  -1.095  1.00  0.00     0.173 A 
ATOM     94  F   UNL     1     -17.127 -13.992  -3.702  1.00  0.00    -0.203 F 
ATOM     95  C   UNL     1     -18.794 -15.530  -3.074  1.00  0.00     0.198 A 
ATOM     96  C   UNL     1     -18.389 -17.081  -1.287  1.00  0.00     0.198 A 
ATOM     97  F   UNL     1     -16.346 -17.032  -0.126  1.00  0.00    -0.203 F 
ATOM     98  F   UNL     1     -19.613 -15.019  -4.003  1.00  0.00    -0.200 F 
ATOM     99  C   UNL     1     -19.226 -16.575  -2.270  1.00  0.00     0.200 A 
ATOM    100  F   UNL     1     -18.797 -18.102  -0.521  1.00  0.00    -0.200 F 
ATOM    101  F   UNL     1     -20.452 -17.088  -2.437  1.00  0.00    -0.200 F 
ENDBRANCH  68  91
ENDBRANCH  42  43
ENDBRANCH  35  37
ENDBRANCH  34  35
ENDBRANCH  33  34
ENDBRANCH  32  33
ENDBRANCH  31  32
ENDBRANCH  30  31
ENDBRANCH   1  30
TORSDOF 21
