REMARK SMILES O=C(C[NH+]1CCOCC1)Nc1nnc(SCC(=O)OCCOCCOCCOCCOC(=O)c2ccc(-c3c4nc(c(-c5c(F)c(F)c(F)c(F)c5F)c5ccc([nH]5)c(-c5c(F)c(F)c(F)c(F)c5F)c5nc(c(-c6c(F)c(F)c(F)c(F)c6F)c6ccc3[nH]6)C=C5)C=C4)cc2)s1
REMARK SMILES IDX 23 1 22 2 21 3 20 4 19 5 17 6 18 7 16 8 15 9 14 10 11 11
REMARK SMILES IDX 12 12 97 13 13 14 10 15 1 16 2 17 3 19 4 20 5 21 9 22 6 24
REMARK SMILES IDX 8 25 7 26 24 27 25 28 26 29 27 30 28 31 29 32 30 33 31 34
REMARK SMILES IDX 32 35 33 36 34 37 35 38 96 39 36 40 95 41 37 42 38 43 39 44
REMARK SMILES IDX 89 45 40 46 94 47 88 48 90 49 41 50 93 51 87 52 86 53 42 55
REMARK SMILES IDX 74 56 54 57 73 58 55 59 58 60 72 61 91 62 56 63 57 64 71 66
REMARK SMILES IDX 92 67 59 68 43 69 44 70 52 71 45 72 46 73 50 74 53 75 47 76
REMARK SMILES IDX 48 77 51 78 49 79 75 80 76 81 84 82 77 83 78 84 82 85 85 86
REMARK SMILES IDX 79 87 80 88 83 89 81 90 60 91 61 92 69 93 62 94 63 95 67 96
REMARK SMILES IDX 70 97 64 98 65 99 68 100 66 101
REMARK H PARENT 10 18 4 23 90 54 58 65
REMARK Flexibility Score: inf
ROOT
ATOM      1  C   UNL     1      -1.692   0.036   1.960  1.00  0.00     0.188 C 
ENDROOT
BRANCH   1   2
ATOM      2  O   UNL     1      -2.987  -0.327   1.540  1.00  0.00    -0.376 OA
BRANCH   2   3
ATOM      3  C   UNL     1      -3.985   0.681   1.546  1.00  0.00     0.202 C 
BRANCH   3   4
ATOM      4  C   UNL     1      -4.177   1.572   2.799  1.00  0.00     0.261 C 
BRANCH   4   5
ATOM      5  O   UNL     1      -3.024   2.320   3.293  1.00  0.00    -0.463 OA
BRANCH   5   6
ATOM      6  C   UNL     1      -2.530   1.977   4.511  1.00  0.00     0.316 C 
ATOM      7  O   UNL     1      -3.038   1.096   5.205  1.00  0.00    -0.251 OA
BRANCH   6   8
ATOM      8  C   UNL     1      -1.324   2.747   5.047  1.00  0.00     0.200 C 
BRANCH   8   9
ATOM      9  S   UNL     1      -0.351   3.840   3.996  1.00  0.00    -0.082 SA
BRANCH   9  10
ATOM     10  C   UNL     1       1.186   3.048   3.579  1.00  0.00     0.176 A 
ATOM     11  C   UNL     1       2.843   1.739   2.451  1.00  0.00     0.213 A 
ATOM     12  N   UNL     1       3.166   3.014   2.483  1.00  0.00    -0.119 NA
ATOM     13  S   UNL     1       1.558   1.358   3.527  1.00  0.00    -0.068 S 
ATOM     14  N   UNL     1       2.166   3.779   3.076  1.00  0.00    -0.130 NA
BRANCH  11  15
ATOM     15  N   UNL     1       3.460   0.827   1.601  1.00  0.00    -0.296 N 
ATOM     16  O   UNL     1       1.647  -0.550   1.238  1.00  0.00    -0.268 OA
ATOM     17  C   UNL     1       2.821  -0.251   1.009  1.00  0.00     0.281 C 
ATOM     18  H   UNL     1       4.417   0.955   1.408  1.00  0.00     0.172 HD
BRANCH  17  19
ATOM     19  C   UNL     1       3.681  -1.169   0.101  1.00  0.00     0.364 C 
BRANCH  19  20
ATOM     20  N   UNL     1       4.125  -0.703  -1.210  1.00  0.00    -0.323 N 
ATOM     21  C   UNL     1       4.820   0.544  -1.472  1.00  0.00     0.291 C 
ATOM     22  C   UNL     1       3.546  -1.290  -2.429  1.00  0.00     0.291 C 
ATOM     23  H   UNL     1       4.913  -1.213  -0.811  1.00  0.00     0.348 HD
ATOM     24  C   UNL     1       3.920   1.475  -2.284  1.00  0.00     0.221 C 
ATOM     25  C   UNL     1       2.719  -0.279  -3.237  1.00  0.00     0.221 C 
ATOM     26  O   UNL     1       3.528   0.872  -3.520  1.00  0.00    -0.370 OA
ENDBRANCH  19  20
ENDBRANCH  17  19
ENDBRANCH  11  15
ENDBRANCH   9  10
ENDBRANCH   8   9
ENDBRANCH   6   8
ENDBRANCH   5   6
ENDBRANCH   4   5
ENDBRANCH   3   4
ENDBRANCH   2   3
ENDBRANCH   1   2
BRANCH   1  27
ATOM     27  C   UNL     1      -1.106   1.363   1.486  1.00  0.00     0.188 C 
BRANCH  27  28
ATOM     28  O   UNL     1      -1.921   2.337   0.856  1.00  0.00    -0.377 OA
BRANCH  28  29
ATOM     29  C   UNL     1      -1.819   2.511  -0.553  1.00  0.00     0.188 C 
BRANCH  29  30
ATOM     30  C   UNL     1      -0.878   1.549  -1.261  1.00  0.00     0.188 C 
BRANCH  30  31
ATOM     31  O   UNL     1       0.516   1.865  -1.230  1.00  0.00    -0.376 OA
BRANCH  31  32
ATOM     32  C   UNL     1       1.031   2.810  -0.295  1.00  0.00     0.202 C 
BRANCH  32  33
ATOM     33  C   UNL     1       1.867   3.912  -0.929  1.00  0.00     0.261 C 
BRANCH  33  34
ATOM     34  O   UNL     1       1.108   4.579  -1.920  1.00  0.00    -0.460 OA
BRANCH  34  35
ATOM     35  C   UNL     1       0.884   3.906  -3.072  1.00  0.00     0.338 C 
ATOM     36  O   UNL     1       1.413   2.908  -3.521  1.00  0.00    -0.246 OA
BRANCH  35  37
ATOM     37  C   UNL     1      -0.316   4.527  -3.613  1.00  0.00     0.060 A 
ATOM     38  C   UNL     1      -1.367   3.727  -4.074  1.00  0.00     0.016 A 
ATOM     39  C   UNL     1      -0.407   5.919  -3.546  1.00  0.00     0.016 A 
ATOM     40  C   UNL     1      -2.545   4.336  -4.461  1.00  0.00     0.010 A 
ATOM     41  C   UNL     1      -1.575   6.528  -3.932  1.00  0.00     0.010 A 
ATOM     42  C   UNL     1      -2.623   5.733  -4.412  1.00  0.00    -0.014 A 
BRANCH  42  43
ATOM     43  C   UNL     1      -3.722   6.423  -5.074  1.00  0.00     0.031 A 
ATOM     44  C   UNL     1      -3.465   6.916  -6.459  1.00  0.00     0.074 A 
ATOM     45  C   UNL     1      -4.853   6.644  -4.394  1.00  0.00     0.049 A 
ATOM     46  N   UNL     1      -4.204   7.680  -7.211  1.00  0.00    -0.248 NA
ATOM     47  C   UNL     1      -2.187   6.508  -7.073  1.00  0.00     0.031 C 
ATOM     48  C   UNL     1      -5.131   6.164  -3.040  1.00  0.00     0.029 A 
ATOM     49  N   UNL     1      -5.962   7.354  -4.743  1.00  0.00    -0.354 N 
ATOM     50  C   UNL     1      -3.480   7.847  -8.382  1.00  0.00     0.074 A 
ATOM     51  C   UNL     1      -2.229   7.143  -8.232  1.00  0.00     0.031 C 
ATOM     52  C   UNL     1      -6.341   6.610  -2.665  1.00  0.00     0.029 A 
ATOM     53  C   UNL     1      -6.886   7.439  -3.736  1.00  0.00     0.049 A 
ATOM     54  H   UNL     1      -6.087   7.763  -5.630  1.00  0.00     0.167 HD
ATOM     55  C   UNL     1      -3.853   8.532  -9.483  1.00  0.00     0.037 A 
ATOM     56  C   UNL     1      -8.025   8.150  -3.697  1.00  0.00     0.037 A 
ATOM     57  C   UNL     1      -5.103   9.235  -9.569  1.00  0.00     0.049 A 
ATOM     58  C   UNL     1      -8.382   8.960  -4.915  1.00  0.00     0.074 A 
ATOM     59  C   UNL     1      -5.619   9.957 -10.624  1.00  0.00     0.029 A 
ATOM     60  N   UNL     1      -6.028   9.310  -8.532  1.00  0.00    -0.354 N 
ATOM     61  N   UNL     1      -7.726   9.090  -6.046  1.00  0.00    -0.248 NA
ATOM     62  C   UNL     1      -9.633   9.722  -4.854  1.00  0.00     0.031 C 
ATOM     63  C   UNL     1      -6.828  10.521 -10.205  1.00  0.00     0.029 A 
ATOM     64  C   UNL     1      -7.100  10.095  -8.912  1.00  0.00     0.049 A 
ATOM     65  H   UNL     1      -5.933   8.868  -7.657  1.00  0.00     0.167 HD
ATOM     66  C   UNL     1      -8.492   9.928  -6.841  1.00  0.00     0.074 A 
ATOM     67  C   UNL     1      -9.675  10.257  -6.066  1.00  0.00     0.031 C 
ATOM     68  C   UNL     1      -8.251  10.392  -8.094  1.00  0.00     0.037 A 
BRANCH  55  69
ATOM     69  C   UNL     1      -2.891   8.575 -10.632  1.00  0.00     0.064 A 
ATOM     70  C   UNL     1      -2.580   7.431 -11.383  1.00  0.00     0.173 A 
ATOM     71  C   UNL     1      -2.265   9.780 -10.986  1.00  0.00     0.173 A 
ATOM     72  F   UNL     1      -3.127   6.246 -11.069  1.00  0.00    -0.203 F 
ATOM     73  C   UNL     1      -1.662   7.486 -12.429  1.00  0.00     0.198 A 
ATOM     74  C   UNL     1      -1.373   9.838 -12.053  1.00  0.00     0.198 A 
ATOM     75  F   UNL     1      -2.515  10.901 -10.293  1.00  0.00    -0.203 F 
ATOM     76  F   UNL     1      -1.340   6.369 -13.096  1.00  0.00    -0.200 F 
ATOM     77  C   UNL     1      -1.067   8.691 -12.769  1.00  0.00     0.200 A 
ATOM     78  F   UNL     1      -0.804  11.006 -12.384  1.00  0.00    -0.200 F 
ATOM     79  F   UNL     1      -0.191   8.745 -13.781  1.00  0.00    -0.200 F 
ENDBRANCH  55  69
BRANCH  56  80
ATOM     80  C   UNL     1      -8.877   8.125  -2.483  1.00  0.00     0.064 A 
ATOM     81  C   UNL     1     -10.149   7.539  -2.509  1.00  0.00     0.173 A 
ATOM     82  C   UNL     1      -8.436   8.670  -1.267  1.00  0.00     0.173 A 
ATOM     83  F   UNL     1     -10.620   7.011  -3.648  1.00  0.00    -0.203 F 
ATOM     84  C   UNL     1     -10.957   7.520  -1.373  1.00  0.00     0.198 A 
ATOM     85  C   UNL     1      -9.231   8.623  -0.124  1.00  0.00     0.198 A 
ATOM     86  F   UNL     1      -7.221   9.233  -1.184  1.00  0.00    -0.203 F 
ATOM     87  F   UNL     1     -12.187   6.993  -1.439  1.00  0.00    -0.200 F 
ATOM     88  C   UNL     1     -10.495   8.057  -0.181  1.00  0.00     0.200 A 
ATOM     89  F   UNL     1      -8.772   9.123   1.030  1.00  0.00    -0.200 F 
ATOM     90  F   UNL     1     -11.270   8.033   0.912  1.00  0.00    -0.200 F 
ENDBRANCH  56  80
BRANCH  68  91
ATOM     91  C   UNL     1      -9.299  11.280  -8.696  1.00  0.00     0.064 A 
ATOM     92  C   UNL     1      -9.503  12.588  -8.237  1.00  0.00     0.173 A 
ATOM     93  C   UNL     1     -10.069  10.829  -9.779  1.00  0.00     0.173 A 
ATOM     94  F   UNL     1      -8.800  13.057  -7.194  1.00  0.00    -0.203 F 
ATOM     95  C   UNL     1     -10.465  13.405  -8.822  1.00  0.00     0.198 A 
ATOM     96  C   UNL     1     -11.000  11.663 -10.387  1.00  0.00     0.198 A 
ATOM     97  F   UNL     1      -9.900   9.589 -10.261  1.00  0.00    -0.203 F 
ATOM     98  F   UNL     1     -10.684  14.633  -8.332  1.00  0.00    -0.200 F 
ATOM     99  C   UNL     1     -11.204  12.946  -9.902  1.00  0.00     0.200 A 
ATOM    100  F   UNL     1     -11.699  11.225 -11.443  1.00  0.00    -0.200 F 
ATOM    101  F   UNL     1     -12.121  13.740 -10.473  1.00  0.00    -0.200 F 
ENDBRANCH  68  91
ENDBRANCH  42  43
ENDBRANCH  35  37
ENDBRANCH  34  35
ENDBRANCH  33  34
ENDBRANCH  32  33
ENDBRANCH  31  32
ENDBRANCH  30  31
ENDBRANCH  29  30
ENDBRANCH  28  29
ENDBRANCH  27  28
ENDBRANCH   1  27
TORSDOF 25
