REMARK SMILES C[C@@H](Oc1ccc(-c2ccccc2)cc1)C(=O)N1CCC[C@H](C(=O)OCCOCCOCCOCCOC(=O)c2ccc(-c3c4nc(c(-c5c(F)c(F)c(F)c(F)c5F)c5ccc([nH]5)c(-c5c(F)c(F)c(F)c(F)c5F)c5nc(c(-c6c(F)c(F)c(F)c(F)c6F)c6ccc3[nH]6)C=C5)C=C4)cc2)C1
REMARK SMILES IDX 29 1 28 2 27 3 26 4 25 5 23 6 24 7 22 8 18 9 19 10 103 11
REMARK SMILES IDX 20 12 21 13 16 14 17 15 2 16 1 17 3 18 4 19 5 20 15 21 6 22
REMARK SMILES IDX 14 23 7 24 8 25 9 26 13 27 10 28 12 29 11 30 30 31 31 32
REMARK SMILES IDX 32 33 33 34 34 35 35 36 36 37 37 38 38 39 39 40 40 41 41 42
REMARK SMILES IDX 102 43 42 44 101 45 43 46 44 47 45 48 95 49 46 50 100 51
REMARK SMILES IDX 94 52 96 53 47 54 99 55 93 56 92 57 48 59 80 60 60 61 79 62
REMARK SMILES IDX 61 63 64 64 78 65 97 66 62 67 63 68 77 70 98 71 65 72 49 73
REMARK SMILES IDX 50 74 58 75 51 76 52 77 56 78 59 79 53 80 54 81 57 82 55 83
REMARK SMILES IDX 81 84 82 85 90 86 83 87 84 88 88 89 91 90 85 91 86 92 89 93
REMARK SMILES IDX 87 94 66 95 67 96 75 97 68 98 69 99 73 100 76 101 70 102
REMARK SMILES IDX 71 103 74 104 72 105
REMARK H PARENT 96 58 64 69
REMARK Flexibility Score: inf
ROOT
ATOM      1  C   UNL     1      -3.790  -0.906  -3.751  1.00  0.00     0.188 C 
ENDROOT
BRANCH   1   2
ATOM      2  O   UNL     1      -3.910  -2.250  -3.350  1.00  0.00    -0.376 OA
BRANCH   2   3
ATOM      3  C   UNL     1      -3.237  -2.745  -2.209  1.00  0.00     0.202 C 
BRANCH   3   4
ATOM      4  C   UNL     1      -2.451  -1.906  -1.186  1.00  0.00     0.261 C 
BRANCH   4   5
ATOM      5  O   UNL     1      -2.791  -0.528  -0.999  1.00  0.00    -0.463 OA
BRANCH   5   6
ATOM      6  C   UNL     1      -1.911   0.381  -1.483  1.00  0.00     0.310 C 
ATOM      7  O   UNL     1      -0.956   0.094  -2.201  1.00  0.00    -0.252 OA
BRANCH   6   8
ATOM      8  C   UNL     1      -2.122   1.806  -0.988  1.00  0.00     0.119 C 
ATOM      9  N   UNL     1      -1.518   1.310   1.319  1.00  0.00    -0.339 N 
ATOM     10  C   UNL     1      -2.794   1.738   1.875  1.00  0.00     0.119 C 
ATOM     11  C   UNL     1      -1.096   2.038   0.118  1.00  0.00     0.134 C 
ATOM     12  C   UNL     1      -3.913   1.644   0.847  1.00  0.00     0.022 C 
ATOM     13  C   UNL     1      -3.503   2.257  -0.491  1.00  0.00     0.019 C 
BRANCH   9  14
ATOM     14  C   UNL     1      -0.893   0.173   1.821  1.00  0.00     0.263 C 
ATOM     15  O   UNL     1      -1.517  -0.678   2.463  1.00  0.00    -0.271 OA
BRANCH  14  16
ATOM     16  C   UNL     1       0.623   0.010   1.606  1.00  0.00     0.259 C 
ATOM     17  C   UNL     1       0.961  -0.694   0.295  1.00  0.00     0.064 C 
BRANCH  16  18
ATOM     18  O   UNL     1       1.158   1.335   1.701  1.00  0.00    -0.481 OA
BRANCH  18  19
ATOM     19  C   UNL     1       2.486   1.384   1.973  1.00  0.00     0.120 A 
ATOM     20  C   UNL     1       2.899   1.641   3.275  1.00  0.00     0.047 A 
ATOM     21  C   UNL     1       3.390   1.367   0.921  1.00  0.00     0.047 A 
ATOM     22  C   UNL     1       4.250   1.876   3.527  1.00  0.00     0.012 A 
ATOM     23  C   UNL     1       4.736   1.586   1.177  1.00  0.00     0.012 A 
ATOM     24  C   UNL     1       5.187   1.865   2.478  1.00  0.00    -0.018 A 
BRANCH  24  25
ATOM     25  C   UNL     1       6.602   2.181   2.706  1.00  0.00    -0.018 A 
ATOM     26  C   UNL     1       7.352   1.513   3.684  1.00  0.00     0.009 A 
ATOM     27  C   UNL     1       7.245   3.155   1.921  1.00  0.00     0.009 A 
ATOM     28  C   UNL     1       8.709   1.796   3.856  1.00  0.00     0.001 A 
ATOM     29  C   UNL     1       8.600   3.436   2.091  1.00  0.00     0.001 A 
ATOM     30  C   UNL     1       9.332   2.753   3.057  1.00  0.00     0.000 A 
ENDBRANCH  24  25
ENDBRANCH  18  19
ENDBRANCH  16  18
ENDBRANCH  14  16
ENDBRANCH   9  14
ENDBRANCH   6   8
ENDBRANCH   5   6
ENDBRANCH   4   5
ENDBRANCH   3   4
ENDBRANCH   2   3
ENDBRANCH   1   2
BRANCH   1  31
ATOM     31  C   UNL     1      -4.739   0.099  -3.083  1.00  0.00     0.188 C 
BRANCH  31  32
ATOM     32  O   UNL     1      -5.313  -0.225  -1.828  1.00  0.00    -0.377 OA
BRANCH  32  33
ATOM     33  C   UNL     1      -6.181  -1.347  -1.701  1.00  0.00     0.188 C 
BRANCH  33  34
ATOM     34  C   UNL     1      -6.782  -2.033  -2.943  1.00  0.00     0.188 C 
BRANCH  34  35
ATOM     35  O   UNL     1      -6.840  -1.223  -4.104  1.00  0.00    -0.376 OA
BRANCH  35  36
ATOM     36  C   UNL     1      -8.045  -0.522  -4.372  1.00  0.00     0.202 C 
BRANCH  36  37
ATOM     37  C   UNL     1      -8.530   0.482  -3.314  1.00  0.00     0.261 C 
BRANCH  37  38
ATOM     38  O   UNL     1      -8.870  -0.073  -2.031  1.00  0.00    -0.460 OA
BRANCH  38  39
ATOM     39  C   UNL     1      -9.800  -1.045  -2.001  1.00  0.00     0.338 C 
ATOM     40  O   UNL     1     -10.461  -1.474  -2.937  1.00  0.00    -0.246 OA
BRANCH  39  41
ATOM     41  C   UNL     1      -9.784  -1.661  -0.663  1.00  0.00     0.060 A 
ATOM     42  C   UNL     1      -9.507  -3.029  -0.558  1.00  0.00     0.016 A 
ATOM     43  C   UNL     1     -10.096  -0.907   0.471  1.00  0.00     0.016 A 
ATOM     44  C   UNL     1      -9.615  -3.666   0.675  1.00  0.00     0.010 A 
ATOM     45  C   UNL     1     -10.222  -1.550   1.705  1.00  0.00     0.010 A 
ATOM     46  C   UNL     1     -10.039  -2.942   1.797  1.00  0.00    -0.014 A 
BRANCH  46  47
ATOM     47  C   UNL     1     -10.535  -3.692   2.976  1.00  0.00     0.031 A 
ATOM     48  C   UNL     1     -12.019  -3.917   3.097  1.00  0.00     0.074 A 
ATOM     49  C   UNL     1      -9.692  -4.229   3.873  1.00  0.00     0.049 A 
ATOM     50  N   UNL     1     -12.695  -4.564   4.012  1.00  0.00    -0.248 NA
ATOM     51  C   UNL     1     -12.857  -3.333   2.036  1.00  0.00     0.031 C 
ATOM     52  C   UNL     1      -8.236  -4.120   3.836  1.00  0.00     0.029 A 
ATOM     53  N   UNL     1      -9.948  -4.982   4.991  1.00  0.00    -0.354 N 
ATOM     54  C   UNL     1     -14.029  -4.462   3.638  1.00  0.00     0.074 A 
ATOM     55  C   UNL     1     -14.075  -3.658   2.438  1.00  0.00     0.031 C 
ATOM     56  C   UNL     1      -7.724  -4.783   4.888  1.00  0.00     0.029 A 
ATOM     57  C   UNL     1      -8.818  -5.339   5.684  1.00  0.00     0.049 A 
ATOM     58  H   UNL     1     -10.856  -5.242   5.270  1.00  0.00     0.167 HD
ATOM     59  C   UNL     1     -15.118  -5.003   4.233  1.00  0.00     0.037 A 
ATOM     60  C   UNL     1      -8.690  -6.027   6.835  1.00  0.00     0.037 A 
ATOM     61  C   UNL     1     -15.070  -5.802   5.428  1.00  0.00     0.049 A 
ATOM     62  C   UNL     1      -9.925  -6.562   7.516  1.00  0.00     0.074 A 
ATOM     63  C   UNL     1     -16.115  -6.396   6.113  1.00  0.00     0.029 A 
ATOM     64  N   UNL     1     -13.909  -6.112   6.122  1.00  0.00    -0.354 N 
ATOM     65  N   UNL     1     -11.181  -6.477   7.148  1.00  0.00    -0.248 NA
ATOM     66  C   UNL     1      -9.720  -7.303   8.768  1.00  0.00     0.031 C 
ATOM     67  C   UNL     1     -15.593  -7.017   7.253  1.00  0.00     0.029 A 
ATOM     68  C   UNL     1     -14.215  -6.873   7.239  1.00  0.00     0.049 A 
ATOM     69  H   UNL     1     -13.003  -5.833   5.859  1.00  0.00     0.167 HD
ATOM     70  C   UNL     1     -11.909  -7.187   8.097  1.00  0.00     0.074 A 
ATOM     71  C   UNL     1     -10.950  -7.706   9.050  1.00  0.00     0.031 C 
ATOM     72  C   UNL     1     -13.248  -7.395   8.171  1.00  0.00     0.037 A 
BRANCH  59  73
ATOM     73  C   UNL     1     -16.457  -4.719   3.614  1.00  0.00     0.064 A 
ATOM     74  C   UNL     1     -16.832  -5.260   2.373  1.00  0.00     0.173 A 
ATOM     75  C   UNL     1     -17.387  -3.906   4.280  1.00  0.00     0.173 A 
ATOM     76  F   UNL     1     -15.974  -6.028   1.685  1.00  0.00    -0.203 F 
ATOM     77  C   UNL     1     -18.074  -4.973   1.812  1.00  0.00     0.198 A 
ATOM     78  C   UNL     1     -18.641  -3.650   3.732  1.00  0.00     0.198 A 
ATOM     79  F   UNL     1     -17.082  -3.363   5.468  1.00  0.00    -0.203 F 
ATOM     80  F   UNL     1     -18.387  -5.455   0.601  1.00  0.00    -0.200 F 
ATOM     81  C   UNL     1     -18.980  -4.176   2.494  1.00  0.00     0.200 A 
ATOM     82  F   UNL     1     -19.520  -2.890   4.399  1.00  0.00    -0.200 F 
ATOM     83  F   UNL     1     -20.177  -3.907   1.956  1.00  0.00    -0.200 F 
ENDBRANCH  59  73
BRANCH  60  84
ATOM     84  C   UNL     1      -7.342  -6.253   7.423  1.00  0.00     0.064 A 
ATOM     85  C   UNL     1      -6.794  -7.541   7.513  1.00  0.00     0.173 A 
ATOM     86  C   UNL     1      -6.590  -5.189   7.942  1.00  0.00     0.173 A 
ATOM     87  F   UNL     1      -7.485  -8.596   7.057  1.00  0.00    -0.203 F 
ATOM     88  C   UNL     1      -5.559  -7.758   8.122  1.00  0.00     0.198 A 
ATOM     89  C   UNL     1      -5.341  -5.403   8.521  1.00  0.00     0.198 A 
ATOM     90  F   UNL     1      -7.070  -3.938   7.887  1.00  0.00    -0.203 F 
ATOM     91  F   UNL     1      -5.088  -9.006   8.248  1.00  0.00    -0.200 F 
ATOM     92  C   UNL     1      -4.831  -6.688   8.621  1.00  0.00     0.200 A 
ATOM     93  F   UNL     1      -4.637  -4.365   8.993  1.00  0.00    -0.200 F 
ATOM     94  F   UNL     1      -3.646  -6.898   9.209  1.00  0.00    -0.200 F 
ENDBRANCH  60  84
BRANCH  72  95
ATOM     95  C   UNL     1     -13.749  -8.275   9.283  1.00  0.00     0.064 A 
ATOM     96  C   UNL     1     -13.700  -7.879  10.628  1.00  0.00     0.173 A 
ATOM     97  C   UNL     1     -14.304  -9.531   8.992  1.00  0.00     0.173 A 
ATOM     98  F   UNL     1     -13.173  -6.692  10.964  1.00  0.00    -0.203 F 
ATOM     99  C   UNL     1     -14.145  -8.726  11.641  1.00  0.00     0.198 A 
ATOM    100  C   UNL     1     -14.784 -10.358  10.003  1.00  0.00     0.198 A 
ATOM    101  F   UNL     1     -14.389  -9.956   7.722  1.00  0.00    -0.203 F 
ATOM    102  F   UNL     1     -14.023  -8.354  12.923  1.00  0.00    -0.200 F 
ATOM    103  C   UNL     1     -14.690  -9.961  11.328  1.00  0.00     0.200 A 
ATOM    104  F   UNL     1     -15.329 -11.543   9.696  1.00  0.00    -0.200 F 
ATOM    105  F   UNL     1     -15.117 -10.774  12.304  1.00  0.00    -0.200 F 
ENDBRANCH  72  95
ENDBRANCH  46  47
ENDBRANCH  39  41
ENDBRANCH  38  39
ENDBRANCH  37  38
ENDBRANCH  36  37
ENDBRANCH  35  36
ENDBRANCH  34  35
ENDBRANCH  33  34
ENDBRANCH  32  33
ENDBRANCH  31  32
ENDBRANCH   1  31
TORSDOF 25
