REMARK SMILES CC(C)(CC(=O)OCCOCCOCCOCCOC(=O)c1ccc(-c2c3nc(c(-c4c(F)c(F)c(F)c(F)c4F)c4ccc([nH]4)c(-c4c(F)c(F)c(F)c(F)c4F)c4nc(c(-c5c(F)c(F)c(F)c(F)c5F)c5ccc2[nH]5)C=C4)C=C3)cc1)Cc1nc([C@@]2(C)CCCO2)no1
REMARK SMILES IDX 12 1 11 2 10 3 9 4 8 5 7 6 5 7 6 8 4 9 2 10 1 11 3 12 85 13
REMARK SMILES IDX 86 14 87 15 96 16 88 17 95 18 89 19 90 20 91 21 94 22 92 23
REMARK SMILES IDX 93 24 13 25 14 26 15 27 16 28 17 29 18 30 19 31 20 32 21 33
REMARK SMILES IDX 22 34 23 35 84 36 24 37 83 38 25 39 26 40 27 41 77 42 28 43
REMARK SMILES IDX 82 44 76 45 78 46 29 47 81 48 75 49 74 50 30 52 62 53 42 54
REMARK SMILES IDX 61 55 43 56 46 57 60 58 79 59 44 60 45 61 59 63 80 64 47 65
REMARK SMILES IDX 31 66 32 67 40 68 33 69 34 70 38 71 41 72 35 73 36 74 39 75
REMARK SMILES IDX 37 76 63 77 64 78 72 79 65 80 66 81 70 82 73 83 67 84 68 85
REMARK SMILES IDX 71 86 69 87 48 88 49 89 57 90 50 91 51 92 55 93 58 94 52 95
REMARK SMILES IDX 53 96 56 97 54 98
REMARK H PARENT 78 51 46 62
REMARK Flexibility Score: inf
ROOT
ATOM      1  C   UNL     1      -1.363   3.477   1.060  1.00  0.00     0.188 C 
ENDROOT
BRANCH   1   2
ATOM      2  C   UNL     1      -2.895   2.876   1.178  1.00  0.00     0.188 C 
BRANCH   2   3
ATOM      3  O   UNL     1      -3.544   2.260   2.263  1.00  0.00    -0.376 OA
BRANCH   3   4
ATOM      4  C   UNL     1      -3.304   0.901   2.593  1.00  0.00     0.202 C 
BRANCH   4   5
ATOM      5  C   UNL     1      -3.295  -0.191   1.533  1.00  0.00     0.261 C 
BRANCH   5   6
ATOM      6  O   UNL     1      -2.112  -0.131   0.715  1.00  0.00    -0.463 OA
BRANCH   6   7
ATOM      7  C   UNL     1      -2.314   0.146  -0.583  1.00  0.00     0.306 C 
ATOM      8  O   UNL     1      -3.416   0.305  -1.100  1.00  0.00    -0.252 OA
BRANCH   7   9
ATOM      9  C   UNL     1      -1.063   0.226  -1.417  1.00  0.00     0.129 C 
BRANCH   9  10
ATOM     10  C   UNL     1       0.391   0.226  -0.876  1.00  0.00    -0.016 C 
ATOM     11  C   UNL     1       0.692  -0.939   0.078  1.00  0.00     0.012 C 
ATOM     12  C   UNL     1       1.243  -0.045  -2.165  1.00  0.00     0.012 C 
BRANCH  10  13
ATOM     13  C   UNL     1       0.909   1.581  -0.302  1.00  0.00     0.107 C 
BRANCH  13  14
ATOM     14  C   UNL     1       0.232   2.236   0.858  1.00  0.00     0.227 A 
ATOM     15  N   UNL     1      -0.674   1.814   2.074  1.00  0.00    -0.193 NA
ATOM     16  O   UNL     1       0.277   4.119   0.817  1.00  0.00    -0.339 OA
ATOM     17  C   UNL     1      -1.257   3.241   3.106  1.00  0.00     0.203 A 
ATOM     18  N   UNL     1      -0.794   4.719   2.400  1.00  0.00    -0.059 NA
BRANCH  17  19
ATOM     19  C   UNL     1      -1.468   3.148   4.620  1.00  0.00     0.128 C 
ATOM     20  C   UNL     1      -1.374   1.720   5.185  1.00  0.00     0.051 C 
ATOM     21  C   UNL     1      -0.464   4.013   5.410  1.00  0.00     0.046 C 
ATOM     22  O   UNL     1      -2.778   3.663   4.997  1.00  0.00    -0.367 OA
ATOM     23  C   UNL     1      -1.275   4.512   6.581  1.00  0.00     0.032 C 
ATOM     24  C   UNL     1      -2.604   4.752   5.911  1.00  0.00     0.161 C 
ENDBRANCH  17  19
ENDBRANCH  13  14
ENDBRANCH  10  13
ENDBRANCH   9  10
ENDBRANCH   7   9
ENDBRANCH   6   7
ENDBRANCH   5   6
ENDBRANCH   4   5
ENDBRANCH   3   4
ENDBRANCH   2   3
ENDBRANCH   1   2
BRANCH   1  25
ATOM     25  O   UNL     1       0.327   3.333   2.291  1.00  0.00    -0.377 OA
BRANCH  25  26
ATOM     26  C   UNL     1       1.592   4.131   2.552  1.00  0.00     0.188 C 
BRANCH  26  27
ATOM     27  C   UNL     1       1.580   5.674   2.726  1.00  0.00     0.188 C 
BRANCH  27  28
ATOM     28  O   UNL     1       2.894   6.234   2.711  1.00  0.00    -0.376 OA
BRANCH  28  29
ATOM     29  C   UNL     1       3.454   6.264   1.400  1.00  0.00     0.202 C 
BRANCH  29  30
ATOM     30  C   UNL     1       4.638   5.299   1.239  1.00  0.00     0.261 C 
BRANCH  30  31
ATOM     31  O   UNL     1       4.637   4.227   2.195  1.00  0.00    -0.460 OA
BRANCH  31  32
ATOM     32  C   UNL     1       5.082   4.585   3.424  1.00  0.00     0.338 C 
ATOM     33  O   UNL     1       5.608   5.635   3.751  1.00  0.00    -0.246 OA
BRANCH  32  34
ATOM     34  C   UNL     1       4.804   3.501   4.381  1.00  0.00     0.060 A 
ATOM     35  C   UNL     1       3.884   3.725   5.412  1.00  0.00     0.016 A 
ATOM     36  C   UNL     1       5.575   2.337   4.352  1.00  0.00     0.016 A 
ATOM     37  C   UNL     1       3.779   2.810   6.460  1.00  0.00     0.010 A 
ATOM     38  C   UNL     1       5.487   1.433   5.414  1.00  0.00     0.010 A 
ATOM     39  C   UNL     1       4.634   1.699   6.501  1.00  0.00    -0.014 A 
BRANCH  39  40
ATOM     40  C   UNL     1       4.855   1.004   7.796  1.00  0.00     0.031 A 
ATOM     41  C   UNL     1       5.998   1.476   8.659  1.00  0.00     0.074 A 
ATOM     42  C   UNL     1       4.054   0.014   8.225  1.00  0.00     0.049 A 
ATOM     43  N   UNL     1       6.424   1.020   9.809  1.00  0.00    -0.248 NA
ATOM     44  C   UNL     1       6.764   2.627   8.149  1.00  0.00     0.031 C 
ATOM     45  C   UNL     1       2.883  -0.495   7.518  1.00  0.00     0.029 A 
ATOM     46  N   UNL     1       4.113  -0.740   9.373  1.00  0.00    -0.354 N 
ATOM     47  C   UNL     1       7.505   1.823  10.156  1.00  0.00     0.074 A 
ATOM     48  C   UNL     1       7.689   2.775   9.083  1.00  0.00     0.031 C 
ATOM     49  C   UNL     1       2.335  -1.486   8.245  1.00  0.00     0.029 A 
ATOM     50  C   UNL     1       3.136  -1.701   9.451  1.00  0.00     0.049 A 
ATOM     51  H   UNL     1       4.792  -0.603  10.072  1.00  0.00     0.167 HD
ATOM     52  C   UNL     1       8.272   1.780  11.271  1.00  0.00     0.037 A 
ATOM     53  C   UNL     1       2.929  -2.654  10.382  1.00  0.00     0.037 A 
ATOM     54  C   UNL     1       8.098   0.827  12.335  1.00  0.00     0.049 A 
ATOM     55  C   UNL     1       3.848  -2.734  11.578  1.00  0.00     0.074 A 
ATOM     56  C   UNL     1       8.832   0.689  13.500  1.00  0.00     0.029 A 
ATOM     57  N   UNL     1       7.121  -0.157  12.359  1.00  0.00    -0.354 N 
ATOM     58  N   UNL     1       4.866  -1.972  11.900  1.00  0.00    -0.248 NA
ATOM     59  C   UNL     1       3.581  -3.810  12.545  1.00  0.00     0.031 C 
ATOM     60  C   UNL     1       8.333  -0.413  14.203  1.00  0.00     0.029 A 
ATOM     61  C   UNL     1       7.246  -0.921  13.508  1.00  0.00     0.049 A 
ATOM     62  H   UNL     1       6.439  -0.293  11.662  1.00  0.00     0.167 HD
ATOM     63  C   UNL     1       5.337  -2.453  13.117  1.00  0.00     0.074 A 
ATOM     64  C   UNL     1       4.482  -3.561  13.484  1.00  0.00     0.031 C 
ATOM     65  C   UNL     1       6.382  -2.017  13.865  1.00  0.00     0.037 A 
BRANCH  52  66
ATOM     66  C   UNL     1       9.398   2.769  11.370  1.00  0.00     0.064 A 
ATOM     67  C   UNL     1       9.165   4.139  11.566  1.00  0.00     0.173 A 
ATOM     68  C   UNL     1      10.729   2.338  11.273  1.00  0.00     0.173 A 
ATOM     69  F   UNL     1       7.910   4.606  11.647  1.00  0.00    -0.203 F 
ATOM     70  C   UNL     1      10.222   5.044  11.630  1.00  0.00     0.198 A 
ATOM     71  C   UNL     1      11.785   3.241  11.369  1.00  0.00     0.198 A 
ATOM     72  F   UNL     1      11.008   1.039  11.087  1.00  0.00    -0.203 F 
ATOM     73  F   UNL     1       9.974   6.354  11.761  1.00  0.00    -0.200 F 
ATOM     74  C   UNL     1      11.531   4.593  11.538  1.00  0.00     0.200 A 
ATOM     75  F   UNL     1      13.049   2.801  11.293  1.00  0.00    -0.200 F 
ATOM     76  F   UNL     1      12.547   5.464  11.602  1.00  0.00    -0.200 F 
ENDBRANCH  52  66
BRANCH  53  77
ATOM     77  C   UNL     1       1.814  -3.627  10.224  1.00  0.00     0.064 A 
ATOM     78  C   UNL     1       0.734  -3.647  11.119  1.00  0.00     0.173 A 
ATOM     79  C   UNL     1       1.827  -4.587   9.201  1.00  0.00     0.173 A 
ATOM     80  F   UNL     1       0.689  -2.772  12.134  1.00  0.00    -0.203 F 
ATOM     81  C   UNL     1      -0.274  -4.604  11.011  1.00  0.00     0.198 A 
ATOM     82  C   UNL     1       0.802  -5.521   9.074  1.00  0.00     0.198 A 
ATOM     83  F   UNL     1       2.840  -4.618   8.322  1.00  0.00    -0.203 F 
ATOM     84  F   UNL     1      -1.262  -4.638  11.916  1.00  0.00    -0.200 F 
ATOM     85  C   UNL     1      -0.243  -5.536   9.985  1.00  0.00     0.200 A 
ATOM     86  F   UNL     1       0.832  -6.415   8.076  1.00  0.00    -0.200 F 
ATOM     87  F   UNL     1      -1.211  -6.457   9.883  1.00  0.00    -0.200 F 
ENDBRANCH  53  77
BRANCH  65  88
ATOM     88  C   UNL     1       6.628  -2.709  15.178  1.00  0.00     0.064 A 
ATOM     89  C   UNL     1       7.093  -4.031  15.246  1.00  0.00     0.173 A 
ATOM     90  C   UNL     1       6.411  -2.029  16.387  1.00  0.00     0.173 A 
ATOM     91  F   UNL     1       7.308  -4.730  14.121  1.00  0.00    -0.203 F 
ATOM     92  C   UNL     1       7.288  -4.660  16.473  1.00  0.00     0.198 A 
ATOM     93  C   UNL     1       6.643  -2.649  17.612  1.00  0.00     0.198 A 
ATOM     94  F   UNL     1       5.979  -0.759  16.382  1.00  0.00    -0.203 F 
ATOM     95  F   UNL     1       7.669  -5.945  16.512  1.00  0.00    -0.200 F 
ATOM     96  C   UNL     1       7.068  -3.968  17.655  1.00  0.00     0.200 A 
ATOM     97  F   UNL     1       6.446  -1.972  18.752  1.00  0.00    -0.200 F 
ATOM     98  F   UNL     1       7.256  -4.575  18.834  1.00  0.00    -0.200 F 
ENDBRANCH  65  88
ENDBRANCH  39  40
ENDBRANCH  32  34
ENDBRANCH  31  32
ENDBRANCH  30  31
ENDBRANCH  29  30
ENDBRANCH  28  29
ENDBRANCH  27  28
ENDBRANCH  26  27
ENDBRANCH  25  26
ENDBRANCH   1  25
TORSDOF 24
