REMARK SMILES COc1cccc(CC2(CO)CCN(c3nc(C)ccc3C(=O)OCCOCCOCCOCCOC(=O)c3ccc(-c4c5nc(c(-c6c(F)c(F)c(F)c(F)c6F)c6ccc([nH]6)c(-c6c(F)c(F)c(F)c(F)c6F)c6nc(c(-c7c(F)c(F)c(F)c(F)c7F)c7ccc4[nH]7)C=C6)C=C5)cc3)CC2)c1
REMARK SMILES IDX 29 1 28 2 27 3 26 4 25 5 24 6 22 7 23 8 21 9 15 10 16 11
REMARK SMILES IDX 17 12 20 13 18 14 19 15 14 16 9 17 12 18 103 19 13 20 102 21
REMARK SMILES IDX 8 22 7 23 3 24 4 25 104 26 5 27 6 28 2 29 1 30 10 31 11 32
REMARK SMILES IDX 30 34 31 35 32 36 33 37 34 38 35 39 36 40 37 41 38 42 39 43
REMARK SMILES IDX 40 44 101 45 41 46 100 47 42 48 43 49 44 50 94 51 45 52
REMARK SMILES IDX 99 53 93 54 95 55 46 56 98 57 92 58 91 59 47 61 79 62 59 63
REMARK SMILES IDX 78 64 60 65 63 66 77 67 96 68 61 69 62 70 76 72 97 73 64 74
REMARK SMILES IDX 48 75 49 76 57 77 50 78 51 79 55 80 58 81 52 82 53 83 56 84
REMARK SMILES IDX 54 85 80 86 81 87 89 88 82 89 83 90 87 91 90 92 84 93 85 94
REMARK SMILES IDX 88 95 86 96 65 97 66 98 74 99 67 100 68 101 72 102 75 103
REMARK SMILES IDX 69 104 70 105 73 106 71 107
REMARK H PARENT 11 33 95 60 63 71
REMARK Flexibility Score: inf
ROOT
ATOM      1  C   UNL     1       0.250   4.626   1.985  1.00  0.00     0.188 C 
ENDROOT
BRANCH   1   2
ATOM      2  C   UNL     1       0.201   3.088   2.078  1.00  0.00     0.188 C 
BRANCH   2   3
ATOM      3  O   UNL     1      -0.952   2.566   1.447  1.00  0.00    -0.376 OA
BRANCH   3   4
ATOM      4  C   UNL     1      -2.077   2.161   2.191  1.00  0.00     0.202 C 
BRANCH   4   5
ATOM      5  C   UNL     1      -2.571   2.914   3.433  1.00  0.00     0.261 C 
BRANCH   5   6
ATOM      6  O   UNL     1      -1.670   3.858   4.018  1.00  0.00    -0.460 OA
BRANCH   6   7
ATOM      7  C   UNL     1      -0.897   3.474   5.065  1.00  0.00     0.341 C 
ATOM      8  O   UNL     1      -0.912   2.376   5.603  1.00  0.00    -0.246 OA
BRANCH   7   9
ATOM      9  C   UNL     1      -0.057   4.629   5.458  1.00  0.00     0.102 A 
ATOM     10  C   UNL     1       1.305   4.547   5.781  1.00  0.00     0.143 A 
ATOM     11  N   UNL     1       1.942   5.619   6.315  1.00  0.00    -0.235 NA
ATOM     12  C   UNL     1       1.275   6.783   6.499  1.00  0.00     0.040 A 
ATOM     13  C   UNL     1      -0.709   5.871   5.573  1.00  0.00     0.021 A 
ATOM     14  C   UNL     1       1.997   7.848   7.264  1.00  0.00     0.067 C 
ATOM     15  C   UNL     1      -0.035   6.964   6.094  1.00  0.00     0.024 A 
BRANCH  10  16
ATOM     16  N   UNL     1       2.136   3.472   5.571  1.00  0.00    -0.356 N 
ATOM     17  C   UNL     1       4.346   1.546   5.275  1.00  0.00     0.001 C 
ATOM     18  C   UNL     1       3.666   1.850   6.642  1.00  0.00     0.031 C 
ATOM     19  C   UNL     1       4.135   2.752   4.337  1.00  0.00     0.031 C 
ATOM     20  C   UNL     1       2.269   2.491   6.624  1.00  0.00     0.119 C 
ATOM     21  C   UNL     1       2.693   3.220   4.260  1.00  0.00     0.119 C 
BRANCH  17  22
ATOM     22  C   UNL     1       3.943   0.170   4.628  1.00  0.00     0.045 C 
BRANCH  22  23
ATOM     23  C   UNL     1       2.522  -0.114   4.201  1.00  0.00    -0.044 A 
ATOM     24  C   UNL     1       0.834  -0.406   2.464  1.00  0.00     0.119 A 
ATOM     25  C   UNL     1      -0.124  -0.612   3.459  1.00  0.00     0.046 A 
ATOM     26  C   UNL     1       2.159  -0.162   2.838  1.00  0.00     0.050 A 
ATOM     27  C   UNL     1       0.225  -0.600   4.803  1.00  0.00     0.004 A 
ATOM     28  C   UNL     1       1.550  -0.392   5.166  1.00  0.00     0.004 A 
BRANCH  24  29
ATOM     29  O   UNL     1       0.320  -0.426   1.200  1.00  0.00    -0.497 OA
ATOM     30  C   UNL     1       1.208  -0.384   0.093  1.00  0.00     0.278 C 
ENDBRANCH  24  29
ENDBRANCH  22  23
ENDBRANCH  17  22
BRANCH  17  31
ATOM     31  C   UNL     1       5.889   1.457   5.509  1.00  0.00     0.163 C 
BRANCH  31  32
ATOM     32  O   UNL     1       6.242   0.374   6.360  1.00  0.00    -0.396 OA
ATOM     33  H   UNL     1       5.830   0.499   7.230  1.00  0.00     0.210 HD
ENDBRANCH  31  32
ENDBRANCH  17  31
ENDBRANCH  10  16
ENDBRANCH   7   9
ENDBRANCH   6   7
ENDBRANCH   5   6
ENDBRANCH   4   5
ENDBRANCH   3   4
ENDBRANCH   2   3
ENDBRANCH   1   2
BRANCH   1  34
ATOM     34  O   UNL     1       0.277   5.183   0.675  1.00  0.00    -0.377 OA
BRANCH  34  35
ATOM     35  C   UNL     1      -0.594   4.559  -0.251  1.00  0.00     0.188 C 
BRANCH  35  36
ATOM     36  C   UNL     1       0.080   3.425  -1.055  1.00  0.00     0.188 C 
BRANCH  36  37
ATOM     37  O   UNL     1       1.459   3.122  -0.902  1.00  0.00    -0.376 OA
BRANCH  37  38
ATOM     38  C   UNL     1       2.439   4.129  -0.718  1.00  0.00     0.202 C 
BRANCH  38  39
ATOM     39  C   UNL     1       2.435   5.486  -1.453  1.00  0.00     0.261 C 
BRANCH  39  40
ATOM     40  O   UNL     1       1.191   5.981  -1.948  1.00  0.00    -0.460 OA
BRANCH  40  41
ATOM     41  C   UNL     1       0.850   5.622  -3.207  1.00  0.00     0.338 C 
ATOM     42  O   UNL     1       1.498   4.950  -3.988  1.00  0.00    -0.246 OA
BRANCH  41  43
ATOM     43  C   UNL     1      -0.568   6.006  -3.402  1.00  0.00     0.060 A 
ATOM     44  C   UNL     1      -1.495   5.005  -3.731  1.00  0.00     0.016 A 
ATOM     45  C   UNL     1      -0.998   7.314  -3.167  1.00  0.00     0.016 A 
ATOM     46  C   UNL     1      -2.851   5.306  -3.824  1.00  0.00     0.010 A 
ATOM     47  C   UNL     1      -2.351   7.628  -3.311  1.00  0.00     0.010 A 
ATOM     48  C   UNL     1      -3.276   6.630  -3.666  1.00  0.00    -0.014 A 
BRANCH  48  49
ATOM     49  C   UNL     1      -4.628   7.010  -4.133  1.00  0.00     0.031 A 
ATOM     50  C   UNL     1      -4.755   7.496  -5.549  1.00  0.00     0.074 A 
ATOM     51  C   UNL     1      -5.710   6.907  -3.344  1.00  0.00     0.049 A 
ATOM     52  N   UNL     1      -5.804   7.949  -6.185  1.00  0.00    -0.248 NA
ATOM     53  C   UNL     1      -3.524   7.470  -6.358  1.00  0.00     0.031 C 
ATOM     54  C   UNL     1      -5.718   6.396  -1.975  1.00  0.00     0.029 A 
ATOM     55  N   UNL     1      -7.019   7.242  -3.588  1.00  0.00    -0.354 N 
ATOM     56  C   UNL     1      -5.357   8.266  -7.460  1.00  0.00     0.074 A 
ATOM     57  C   UNL     1      -3.940   7.983  -7.504  1.00  0.00     0.031 C 
ATOM     58  C   UNL     1      -6.972   6.473  -1.491  1.00  0.00     0.029 A 
ATOM     59  C   UNL     1      -7.843   7.068  -2.504  1.00  0.00     0.049 A 
ATOM     60  H   UNL     1      -7.337   7.575  -4.459  1.00  0.00     0.167 HD
ATOM     61  C   UNL     1      -6.069   8.746  -8.505  1.00  0.00     0.037 A 
ATOM     62  C   UNL     1      -9.144   7.386  -2.347  1.00  0.00     0.037 A 
ATOM     63  C   UNL     1      -7.476   9.032  -8.454  1.00  0.00     0.049 A 
ATOM     64  C   UNL     1      -9.895   8.005  -3.502  1.00  0.00     0.074 A 
ATOM     65  C   UNL     1      -8.294   9.511  -9.461  1.00  0.00     0.029 A 
ATOM     66  N   UNL     1      -8.271   8.877  -7.329  1.00  0.00    -0.354 N 
ATOM     67  N   UNL     1      -9.477   8.280  -4.714  1.00  0.00    -0.248 NA
ATOM     68  C   UNL     1     -11.303   8.356  -3.265  1.00  0.00     0.031 C 
ATOM     69  C   UNL     1      -9.572   9.703  -8.927  1.00  0.00     0.029 A 
ATOM     70  C   UNL     1      -9.566   9.280  -7.607  1.00  0.00     0.049 A 
ATOM     71  H   UNL     1      -7.960   8.531  -6.461  1.00  0.00     0.167 HD
ATOM     72  C   UNL     1     -10.573   8.803  -5.391  1.00  0.00     0.074 A 
ATOM     73  C   UNL     1     -11.680   8.793  -4.458  1.00  0.00     0.031 C 
ATOM     74  C   UNL     1     -10.658   9.250  -6.668  1.00  0.00     0.037 A 
BRANCH  61  75
ATOM     75  C   UNL     1      -5.327   9.026  -9.778  1.00  0.00     0.064 A 
ATOM     76  C   UNL     1      -4.824   7.994 -10.585  1.00  0.00     0.173 A 
ATOM     77  C   UNL     1      -5.143  10.348 -10.212  1.00  0.00     0.173 A 
ATOM     78  F   UNL     1      -4.955   6.714 -10.204  1.00  0.00    -0.203 F 
ATOM     79  C   UNL     1      -4.148   8.276 -11.769  1.00  0.00     0.198 A 
ATOM     80  C   UNL     1      -4.495  10.624 -11.412  1.00  0.00     0.198 A 
ATOM     81  F   UNL     1      -5.602  11.371  -9.476  1.00  0.00    -0.203 F 
ATOM     82  F   UNL     1      -3.636   7.277 -12.500  1.00  0.00    -0.200 F 
ATOM     83  C   UNL     1      -3.993   9.590 -12.186  1.00  0.00     0.200 A 
ATOM     84  F   UNL     1      -4.357  11.894 -11.819  1.00  0.00    -0.200 F 
ATOM     85  F   UNL     1      -3.353   9.859 -13.332  1.00  0.00    -0.200 F 
ENDBRANCH  61  75
BRANCH  62  86
ATOM     86  C   UNL     1      -9.822   7.155  -1.043  1.00  0.00     0.064 A 
ATOM     87  C   UNL     1     -10.870   6.231  -0.922  1.00  0.00     0.173 A 
ATOM     88  C   UNL     1      -9.468   7.887   0.100  1.00  0.00     0.173 A 
ATOM     89  F   UNL     1     -11.267   5.526  -1.992  1.00  0.00    -0.203 F 
ATOM     90  C   UNL     1     -11.554   6.069   0.281  1.00  0.00     0.198 A 
ATOM     91  C   UNL     1     -10.130   7.700   1.312  1.00  0.00     0.198 A 
ATOM     92  F   UNL     1      -8.476   8.788   0.042  1.00  0.00    -0.203 F 
ATOM     93  F   UNL     1     -12.591   5.223   0.351  1.00  0.00    -0.200 F 
ATOM     94  C   UNL     1     -11.181   6.799   1.399  1.00  0.00     0.200 A 
ATOM     95  F   UNL     1      -9.757   8.399   2.392  1.00  0.00    -0.200 F 
ATOM     96  F   UNL     1     -11.839   6.644   2.555  1.00  0.00    -0.200 F 
ENDBRANCH  62  86
BRANCH  74  97
ATOM     97  C   UNL     1     -12.000   9.724  -7.152  1.00  0.00     0.064 A 
ATOM     98  C   UNL     1     -12.573  10.918  -6.693  1.00  0.00     0.173 A 
ATOM     99  C   UNL     1     -12.697   8.996  -8.130  1.00  0.00     0.173 A 
ATOM    100  F   UNL     1     -11.955  11.646  -5.750  1.00  0.00    -0.203 F 
ATOM    101  C   UNL     1     -13.806  11.352  -7.174  1.00  0.00     0.198 A 
ATOM    102  C   UNL     1     -13.911   9.450  -8.634  1.00  0.00     0.198 A 
ATOM    103  F   UNL     1     -12.188   7.852  -8.612  1.00  0.00    -0.203 F 
ATOM    104  F   UNL     1     -14.359  12.470  -6.683  1.00  0.00    -0.200 F 
ATOM    105  C   UNL     1     -14.470  10.623  -8.150  1.00  0.00     0.200 A 
ATOM    106  F   UNL     1     -14.540   8.754  -9.591  1.00  0.00    -0.200 F 
ATOM    107  F   UNL     1     -15.651  11.048  -8.619  1.00  0.00    -0.200 F 
ENDBRANCH  74  97
ENDBRANCH  48  49
ENDBRANCH  41  43
ENDBRANCH  40  41
ENDBRANCH  39  40
ENDBRANCH  38  39
ENDBRANCH  37  38
ENDBRANCH  36  37
ENDBRANCH  35  36
ENDBRANCH  34  35
ENDBRANCH   1  34
TORSDOF 26
