REMARK SMILES CC1(C)[C@@]2(C(=O)OCCOCCOCCOCCOC(=O)c3ccc(-c4c5nc(c(-c6c(F)c(F)c(F)c(F)c6F)c6ccc([nH]6)c(-c6c(F)c(F)c(F)c(F)c6F)c6nc(c(-c7c(F)c(F)c(F)c(F)c7F)c7ccc4[nH]7)C=C6)C=C5)cc3)CC[C@]1(C)/C(=N/NC(=O)c1ccc(Cl)cc1)C2
REMARK SMILES IDX 13 1 12 2 11 3 10 4 9 5 8 6 7 7 5 8 6 9 4 10 1 11 2 12 3 13
REMARK SMILES IDX 87 14 85 15 101 16 86 17 88 18 89 19 90 20 91 21 92 22 93 24
REMARK SMILES IDX 94 25 95 26 100 27 96 28 99 29 97 30 98 31 14 32 15 33 16 34
REMARK SMILES IDX 17 35 18 36 19 37 20 38 21 39 22 40 23 41 84 42 24 43 83 44
REMARK SMILES IDX 25 45 26 46 27 47 77 48 28 49 82 50 76 51 78 52 29 53 81 54
REMARK SMILES IDX 75 55 74 56 30 58 62 59 42 60 61 61 43 62 46 63 60 64 79 65
REMARK SMILES IDX 44 66 45 67 59 69 80 70 47 71 31 72 32 73 40 74 33 75 34 76
REMARK SMILES IDX 38 77 41 78 35 79 36 80 39 81 37 82 63 83 64 84 72 85 65 86
REMARK SMILES IDX 66 87 70 88 73 89 67 90 68 91 71 92 69 93 48 94 49 95 57 96
REMARK SMILES IDX 50 97 51 98 55 99 58 100 52 101 53 102 56 103 54 104
REMARK H PARENT 91 23 78 57 46 68
REMARK Flexibility Score: inf
ROOT
ATOM      1  O   UNL     1       2.772  -1.691   4.736  1.00  0.00    -0.377 OA
ENDROOT
BRANCH   1   2
ATOM      2  C   UNL     1       3.476  -1.619   3.511  1.00  0.00     0.188 C 
BRANCH   2   3
ATOM      3  C   UNL     1       4.387  -0.420   3.254  1.00  0.00     0.188 C 
BRANCH   3   4
ATOM      4  O   UNL     1       4.568   0.540   4.277  1.00  0.00    -0.376 OA
BRANCH   4   5
ATOM      5  C   UNL     1       3.436   1.185   4.849  1.00  0.00     0.202 C 
BRANCH   5   6
ATOM      6  C   UNL     1       2.333   1.732   3.941  1.00  0.00     0.261 C 
BRANCH   6   7
ATOM      7  O   UNL     1       1.493   0.702   3.380  1.00  0.00    -0.463 OA
BRANCH   7   8
ATOM      8  C   UNL     1       1.425   0.665   2.024  1.00  0.00     0.313 C 
ATOM      9  O   UNL     1       2.090   1.379   1.286  1.00  0.00    -0.252 OA
BRANCH   8  10
ATOM     10  C   UNL     1       0.350  -0.281   1.517  1.00  0.00     0.079 C 
ATOM     11  C   UNL     1       0.972  -0.002  -1.000  1.00  0.00     0.013 C 
ATOM     12  C   UNL     1       0.608  -0.971   0.145  1.00  0.00    -0.008 C 
ATOM     13  C   UNL     1       1.695  -2.070   0.144  1.00  0.00     0.013 C 
ATOM     14  C   UNL     1      -0.849  -1.536   0.087  1.00  0.00     0.014 C 
ATOM     15  C   UNL     1      -0.952   0.552   1.259  1.00  0.00     0.021 C 
ATOM     16  C   UNL     1      -0.045  -1.470   2.425  1.00  0.00     0.073 C 
ATOM     17  C   UNL     1      -1.731  -0.285   0.229  1.00  0.00     0.014 C 
ATOM     18  C   UNL     1      -1.180  -2.421  -1.096  1.00  0.00     0.018 C 
ATOM     19  C   UNL     1      -0.956  -2.208   1.479  1.00  0.00     0.046 C 
ATOM     20  N   UNL     1      -1.715  -3.244   1.636  1.00  0.00    -0.181 NA
BRANCH  20  21
ATOM     21  N   UNL     1      -1.848  -4.021   2.742  1.00  0.00    -0.243 N 
ATOM     22  C   UNL     1      -1.803  -3.839   4.105  1.00  0.00     0.271 C 
ATOM     23  H   UNL     1      -2.022  -4.961   2.506  1.00  0.00     0.194 HD
ATOM     24  O   UNL     1      -1.787  -4.820   4.852  1.00  0.00    -0.267 OA
BRANCH  22  25
ATOM     25  C   UNL     1      -1.807  -2.514   4.733  1.00  0.00     0.041 A 
ATOM     26  C   UNL     1      -0.801  -2.239   5.672  1.00  0.00     0.015 A 
ATOM     27  C   UNL     1      -2.743  -1.534   4.380  1.00  0.00     0.015 A 
ATOM     28  C   UNL     1      -0.656  -0.944   6.170  1.00  0.00     0.021 A 
ATOM     29  C   UNL     1      -2.601  -0.241   4.895  1.00  0.00     0.021 A 
ATOM     30  C   UNL     1      -1.542   0.054   5.761  1.00  0.00     0.041 A 
ATOM     31  Cl  UNL     1      -1.285   1.675   6.276  1.00  0.00    -0.084 Cl
ENDBRANCH  22  25
ENDBRANCH  20  21
ENDBRANCH   8  10
ENDBRANCH   7   8
ENDBRANCH   6   7
ENDBRANCH   5   6
ENDBRANCH   4   5
ENDBRANCH   3   4
ENDBRANCH   2   3
ENDBRANCH   1   2
BRANCH   1  32
ATOM     32  C   UNL     1       3.483  -2.105   5.897  1.00  0.00     0.188 C 
BRANCH  32  33
ATOM     33  C   UNL     1       4.770  -2.918   5.731  1.00  0.00     0.188 C 
BRANCH  33  34
ATOM     34  O   UNL     1       4.752  -4.065   4.886  1.00  0.00    -0.376 OA
BRANCH  34  35
ATOM     35  C   UNL     1       3.549  -4.815   4.738  1.00  0.00     0.202 C 
BRANCH  35  36
ATOM     36  C   UNL     1       3.248  -5.789   5.872  1.00  0.00     0.261 C 
BRANCH  36  37
ATOM     37  O   UNL     1       2.635  -5.111   6.982  1.00  0.00    -0.460 OA
BRANCH  37  38
ATOM     38  C   UNL     1       3.441  -4.904   8.046  1.00  0.00     0.338 C 
ATOM     39  O   UNL     1       4.599  -5.250   8.183  1.00  0.00    -0.246 OA
BRANCH  38  40
ATOM     40  C   UNL     1       2.752  -4.037   9.018  1.00  0.00     0.060 A 
ATOM     41  C   UNL     1       3.465  -2.950   9.536  1.00  0.00     0.016 A 
ATOM     42  C   UNL     1       1.473  -4.346   9.489  1.00  0.00     0.016 A 
ATOM     43  C   UNL     1       2.941  -2.223  10.599  1.00  0.00     0.010 A 
ATOM     44  C   UNL     1       0.950  -3.619  10.560  1.00  0.00     0.010 A 
ATOM     45  C   UNL     1       1.710  -2.598  11.156  1.00  0.00    -0.014 A 
BRANCH  45  46
ATOM     46  C   UNL     1       1.335  -2.069  12.487  1.00  0.00     0.031 A 
ATOM     47  C   UNL     1       1.607  -2.919  13.699  1.00  0.00     0.074 A 
ATOM     48  C   UNL     1       0.819  -0.837  12.619  1.00  0.00     0.049 A 
ATOM     49  N   UNL     1       1.381  -2.667  14.963  1.00  0.00    -0.248 NA
ATOM     50  C   UNL     1       2.216  -4.235  13.448  1.00  0.00     0.031 C 
ATOM     51  C   UNL     1       0.563   0.092  11.521  1.00  0.00     0.029 A 
ATOM     52  N   UNL     1       0.425  -0.156  13.741  1.00  0.00    -0.354 N 
ATOM     53  C   UNL     1       1.819  -3.790  15.655  1.00  0.00     0.074 A 
ATOM     54  C   UNL     1       2.280  -4.742  14.668  1.00  0.00     0.031 C 
ATOM     55  C   UNL     1       0.058   1.230  12.026  1.00  0.00     0.029 A 
ATOM     56  C   UNL     1      -0.072   1.094  13.475  1.00  0.00     0.049 A 
ATOM     57  H   UNL     1       0.492  -0.529  14.650  1.00  0.00     0.167 HD
ATOM     58  C   UNL     1       1.848  -4.003  16.992  1.00  0.00     0.037 A 
ATOM     59  C   UNL     1      -0.583   2.015  14.314  1.00  0.00     0.037 A 
ATOM     60  C   UNL     1       1.371  -3.056  17.966  1.00  0.00     0.049 A 
ATOM     61  C   UNL     1      -0.629   1.717  15.791  1.00  0.00     0.074 A 
ATOM     62  C   UNL     1       1.349  -3.167  19.345  1.00  0.00     0.029 A 
ATOM     63  N   UNL     1       0.816  -1.821  17.657  1.00  0.00    -0.354 N 
ATOM     64  N   UNL     1      -0.196   0.664  16.442  1.00  0.00    -0.248 NA
ATOM     65  C   UNL     1      -1.233   2.745  16.649  1.00  0.00     0.031 C 
ATOM     66  C   UNL     1       0.725  -2.027  19.865  1.00  0.00     0.029 A 
ATOM     67  C   UNL     1       0.422  -1.172  18.817  1.00  0.00     0.049 A 
ATOM     68  H   UNL     1       0.717  -1.459  16.746  1.00  0.00     0.167 HD
ATOM     69  C   UNL     1      -0.438   0.918  17.787  1.00  0.00     0.074 A 
ATOM     70  C   UNL     1      -1.044   2.232  17.856  1.00  0.00     0.031 C 
ATOM     71  C   UNL     1      -0.179   0.138  18.867  1.00  0.00     0.037 A 
BRANCH  58  72
ATOM     72  C   UNL     1       2.377  -5.328  17.467  1.00  0.00     0.064 A 
ATOM     73  C   UNL     1       3.728  -5.684  17.318  1.00  0.00     0.173 A 
ATOM     74  C   UNL     1       1.520  -6.262  18.069  1.00  0.00     0.173 A 
ATOM     75  F   UNL     1       4.590  -4.836  16.736  1.00  0.00    -0.203 F 
ATOM     76  C   UNL     1       4.189  -6.939  17.712  1.00  0.00     0.198 A 
ATOM     77  C   UNL     1       1.992  -7.502  18.495  1.00  0.00     0.198 A 
ATOM     78  F   UNL     1       0.221  -5.976  18.242  1.00  0.00    -0.203 F 
ATOM     79  F   UNL     1       5.466  -7.281  17.494  1.00  0.00    -0.200 F 
ATOM     80  C   UNL     1       3.322  -7.844  18.304  1.00  0.00     0.200 A 
ATOM     81  F   UNL     1       1.156  -8.370  19.081  1.00  0.00    -0.200 F 
ATOM     82  F   UNL     1       3.765  -9.052  18.680  1.00  0.00    -0.200 F 
ENDBRANCH  58  72
BRANCH  59  83
ATOM     83  C   UNL     1      -1.071   3.314  13.782  1.00  0.00     0.064 A 
ATOM     84  C   UNL     1      -0.408   4.510  14.087  1.00  0.00     0.173 A 
ATOM     85  C   UNL     1      -2.212   3.389  12.970  1.00  0.00     0.173 A 
ATOM     86  F   UNL     1       0.673   4.493  14.880  1.00  0.00    -0.203 F 
ATOM     87  C   UNL     1      -0.876   5.734  13.615  1.00  0.00     0.198 A 
ATOM     88  C   UNL     1      -2.662   4.610  12.472  1.00  0.00     0.198 A 
ATOM     89  F   UNL     1      -2.884   2.274  12.649  1.00  0.00    -0.203 F 
ATOM     90  F   UNL     1      -0.250   6.867  13.960  1.00  0.00    -0.200 F 
ATOM     91  C   UNL     1      -1.999   5.783  12.802  1.00  0.00     0.200 A 
ATOM     92  F   UNL     1      -3.739   4.651  11.677  1.00  0.00    -0.200 F 
ATOM     93  F   UNL     1      -2.446   6.960  12.343  1.00  0.00    -0.200 F 
ENDBRANCH  59  83
BRANCH  71  94
ATOM     94  C   UNL     1      -0.506   0.711  20.219  1.00  0.00     0.064 A 
ATOM     95  C   UNL     1      -1.829   0.925  20.636  1.00  0.00     0.173 A 
ATOM     96  C   UNL     1       0.523   1.042  21.115  1.00  0.00     0.173 A 
ATOM     97  F   UNL     1      -2.851   0.638  19.816  1.00  0.00    -0.203 F 
ATOM     98  C   UNL     1      -2.106   1.492  21.878  1.00  0.00     0.198 A 
ATOM     99  C   UNL     1       0.240   1.572  22.371  1.00  0.00     0.198 A 
ATOM    100  F   UNL     1       1.806   0.849  20.774  1.00  0.00    -0.203 F 
ATOM    101  F   UNL     1      -3.374   1.754  22.224  1.00  0.00    -0.200 F 
ATOM    102  C   UNL     1      -1.073   1.810  22.746  1.00  0.00     0.200 A 
ATOM    103  F   UNL     1       1.240   1.861  23.215  1.00  0.00    -0.200 F 
ATOM    104  F   UNL     1      -1.342   2.356  23.940  1.00  0.00    -0.200 F 
ENDBRANCH  71  94
ENDBRANCH  45  46
ENDBRANCH  38  40
ENDBRANCH  37  38
ENDBRANCH  36  37
ENDBRANCH  35  36
ENDBRANCH  34  35
ENDBRANCH  33  34
ENDBRANCH  32  33
ENDBRANCH   1  32
TORSDOF 22
