REMARK SMILES O=C(OCCOCCOCCOCCOC(=O)[C@@H]1CCn2c(C(=O)c3ccccc3)ccc21)c1ccc(-c2c3nc(c(-c4c(F)c(F)c(F)c(F)c4F)c4ccc([nH]4)c(-c4c(F)c(F)c(F)c(F)c4F)c4nc(c(-c5c(F)c(F)c(F)c(F)c5F)c5ccc2[nH]5)C=C4)C=C3)cc1
REMARK SMILES IDX 9 1 8 2 7 3 6 4 5 5 4 6 3 7 2 8 1 9 34 10 35 11 96 12 36 13
REMARK SMILES IDX 95 14 37 15 38 16 39 17 89 18 40 19 94 20 88 21 90 22 41 23
REMARK SMILES IDX 93 24 87 25 86 26 42 28 74 29 54 30 73 31 55 32 58 33 72 34
REMARK SMILES IDX 91 35 56 36 57 37 71 39 92 40 59 41 43 42 44 43 52 44 45 45
REMARK SMILES IDX 46 46 50 47 53 48 47 49 48 50 51 51 49 52 75 53 76 54 84 55
REMARK SMILES IDX 77 56 78 57 82 58 85 59 79 60 80 61 83 62 81 63 60 64 61 65
REMARK SMILES IDX 69 66 62 67 63 68 67 69 70 70 64 71 65 72 68 73 66 74 10 75
REMARK SMILES IDX 11 76 12 77 13 78 14 79 15 80 16 81 17 82 18 83 19 84 33 85
REMARK SMILES IDX 20 86 21 87 32 88 22 89 31 90 23 91 24 92 25 93 26 94 30 95
REMARK SMILES IDX 27 96 29 97 28 98
REMARK H PARENT 90 27 58 38
REMARK Flexibility Score: inf
ROOT
ATOM      1  O   UNL     1       3.105  -3.079  -1.972  1.00  0.00    -0.377 OA
ENDROOT
BRANCH   1   2
ATOM      2  C   UNL     1       2.260  -2.040  -1.500  1.00  0.00     0.188 C 
BRANCH   2   3
ATOM      3  C   UNL     1       2.626  -1.452  -0.151  1.00  0.00     0.188 C 
BRANCH   3   4
ATOM      4  O   UNL     1       3.862  -0.755  -0.294  1.00  0.00    -0.376 OA
BRANCH   4   5
ATOM      5  C   UNL     1       4.731  -0.863   0.830  1.00  0.00     0.202 C 
BRANCH   5   6
ATOM      6  C   UNL     1       4.505   0.253   1.844  1.00  0.00     0.261 C 
BRANCH   6   7
ATOM      7  O   UNL     1       3.128   0.649   1.929  1.00  0.00    -0.460 OA
BRANCH   7   8
ATOM      8  C   UNL     1       2.459   1.563   1.184  1.00  0.00     0.338 C 
ATOM      9  O   UNL     1       1.288   1.795   1.487  1.00  0.00    -0.246 OA
BRANCH   8  10
ATOM     10  C   UNL     1       3.023   2.314   0.008  1.00  0.00     0.060 A 
ATOM     11  C   UNL     1       4.200   2.015  -0.685  1.00  0.00     0.016 A 
ATOM     12  C   UNL     1       2.262   3.404  -0.459  1.00  0.00     0.016 A 
ATOM     13  C   UNL     1       4.623   2.755  -1.782  1.00  0.00     0.010 A 
ATOM     14  C   UNL     1       2.699   4.190  -1.529  1.00  0.00     0.010 A 
ATOM     15  C   UNL     1       3.904   3.878  -2.164  1.00  0.00    -0.014 A 
BRANCH  15  16
ATOM     16  C   UNL     1       4.603   4.871  -2.991  1.00  0.00     0.031 A 
ATOM     17  C   UNL     1       5.351   5.942  -2.258  1.00  0.00     0.074 A 
ATOM     18  C   UNL     1       4.674   4.734  -4.322  1.00  0.00     0.049 A 
ATOM     19  N   UNL     1       5.949   7.006  -2.716  1.00  0.00    -0.248 NA
ATOM     20  C   UNL     1       5.450   5.777  -0.796  1.00  0.00     0.031 C 
ATOM     21  C   UNL     1       4.126   3.614  -5.085  1.00  0.00     0.029 A 
ATOM     22  N   UNL     1       5.247   5.542  -5.265  1.00  0.00    -0.354 N 
ATOM     23  C   UNL     1       6.454   7.655  -1.596  1.00  0.00     0.074 A 
ATOM     24  C   UNL     1       6.118   6.860  -0.441  1.00  0.00     0.031 C 
ATOM     25  C   UNL     1       4.372   3.818  -6.390  1.00  0.00     0.029 A 
ATOM     26  C   UNL     1       5.031   5.112  -6.549  1.00  0.00     0.049 A 
ATOM     27  H   UNL     1       5.763   6.351  -5.044  1.00  0.00     0.167 HD
ATOM     28  C   UNL     1       7.115   8.833  -1.550  1.00  0.00     0.037 A 
ATOM     29  C   UNL     1       5.292   5.739  -7.711  1.00  0.00     0.037 A 
ATOM     30  C   UNL     1       7.407   9.598  -2.729  1.00  0.00     0.049 A 
ATOM     31  C   UNL     1       5.935   7.100  -7.642  1.00  0.00     0.074 A 
ATOM     32  C   UNL     1       7.981  10.848  -2.838  1.00  0.00     0.029 A 
ATOM     33  N   UNL     1       7.127   9.163  -4.020  1.00  0.00    -0.354 N 
ATOM     34  N   UNL     1       6.322   7.777  -6.584  1.00  0.00    -0.248 NA
ATOM     35  C   UNL     1       6.161   7.796  -8.914  1.00  0.00     0.031 C 
ATOM     36  C   UNL     1       8.009  11.187  -4.196  1.00  0.00     0.029 A 
ATOM     37  C   UNL     1       7.504  10.125  -4.936  1.00  0.00     0.049 A 
ATOM     38  H   UNL     1       6.720   8.296  -4.248  1.00  0.00     0.167 HD
ATOM     39  C   UNL     1       6.854   8.966  -7.058  1.00  0.00     0.074 A 
ATOM     40  C   UNL     1       6.744   8.916  -8.504  1.00  0.00     0.031 C 
ATOM     41  C   UNL     1       7.386  10.008  -6.369  1.00  0.00     0.037 A 
BRANCH  28  42
ATOM     42  C   UNL     1       7.432   9.376  -0.188  1.00  0.00     0.064 A 
ATOM     43  C   UNL     1       8.391   8.784   0.649  1.00  0.00     0.173 A 
ATOM     44  C   UNL     1       6.687  10.448   0.326  1.00  0.00     0.173 A 
ATOM     45  F   UNL     1       9.103   7.730   0.222  1.00  0.00    -0.203 F 
ATOM     46  C   UNL     1       8.559   9.217   1.964  1.00  0.00     0.198 A 
ATOM     47  C   UNL     1       6.879  10.897   1.631  1.00  0.00     0.198 A 
ATOM     48  F   UNL     1       5.747  11.040  -0.425  1.00  0.00    -0.203 F 
ATOM     49  F   UNL     1       9.421   8.582   2.771  1.00  0.00    -0.200 F 
ATOM     50  C   UNL     1       7.803  10.272   2.453  1.00  0.00     0.200 A 
ATOM     51  F   UNL     1       6.146  11.915   2.101  1.00  0.00    -0.200 F 
ATOM     52  F   UNL     1       7.949  10.671   3.724  1.00  0.00    -0.200 F 
ENDBRANCH  28  42
BRANCH  29  53
ATOM     53  C   UNL     1       4.883   5.114  -8.996  1.00  0.00     0.064 A 
ATOM     54  C   UNL     1       5.828   4.662  -9.925  1.00  0.00     0.173 A 
ATOM     55  C   UNL     1       3.526   4.916  -9.304  1.00  0.00     0.173 A 
ATOM     56  F   UNL     1       7.136   4.845  -9.693  1.00  0.00    -0.203 F 
ATOM     57  C   UNL     1       5.434   4.035 -11.108  1.00  0.00     0.198 A 
ATOM     58  C   UNL     1       3.134   4.265 -10.472  1.00  0.00     0.198 A 
ATOM     59  F   UNL     1       2.576   5.333  -8.453  1.00  0.00    -0.203 F 
ATOM     60  F   UNL     1       6.359   3.633 -11.991  1.00  0.00    -0.200 F 
ATOM     61  C   UNL     1       4.089   3.827 -11.375  1.00  0.00     0.200 A 
ATOM     62  F   UNL     1       1.834   4.055 -10.716  1.00  0.00    -0.200 F 
ATOM     63  F   UNL     1       3.713   3.208 -12.503  1.00  0.00    -0.200 F 
ENDBRANCH  29  53
BRANCH  41  64
ATOM     64  C   UNL     1       7.931  11.148  -7.171  1.00  0.00     0.064 A 
ATOM     65  C   UNL     1       7.089  12.097  -7.764  1.00  0.00     0.173 A 
ATOM     66  C   UNL     1       9.318  11.342  -7.254  1.00  0.00     0.173 A 
ATOM     67  F   UNL     1       5.757  11.943  -7.716  1.00  0.00    -0.203 F 
ATOM     68  C   UNL     1       7.619  13.203  -8.420  1.00  0.00     0.198 A 
ATOM     69  C   UNL     1       9.842  12.462  -7.888  1.00  0.00     0.198 A 
ATOM     70  F   UNL     1      10.159  10.461  -6.691  1.00  0.00    -0.203 F 
ATOM     71  F   UNL     1       6.800  14.091  -9.001  1.00  0.00    -0.200 F 
ATOM     72  C   UNL     1       8.993  13.390  -8.471  1.00  0.00     0.200 A 
ATOM     73  F   UNL     1      11.169  12.650  -7.922  1.00  0.00    -0.200 F 
ATOM     74  F   UNL     1       9.500  14.469  -9.083  1.00  0.00    -0.200 F 
ENDBRANCH  41  64
ENDBRANCH  15  16
ENDBRANCH   8  10
ENDBRANCH   7   8
ENDBRANCH   6   7
ENDBRANCH   5   6
ENDBRANCH   4   5
ENDBRANCH   3   4
ENDBRANCH   2   3
ENDBRANCH   1   2
BRANCH   1  75
ATOM     75  C   UNL     1       4.513  -2.932  -1.972  1.00  0.00     0.188 C 
BRANCH  75  76
ATOM     76  C   UNL     1       5.190  -2.438  -3.253  1.00  0.00     0.188 C 
BRANCH  76  77
ATOM     77  O   UNL     1       4.466  -1.607  -4.139  1.00  0.00    -0.376 OA
BRANCH  77  78
ATOM     78  C   UNL     1       3.275  -2.114  -4.737  1.00  0.00     0.202 C 
BRANCH  78  79
ATOM     79  C   UNL     1       3.179  -3.582  -5.184  1.00  0.00     0.261 C 
BRANCH  79  80
ATOM     80  O   UNL     1       3.309  -4.539  -4.108  1.00  0.00    -0.463 OA
BRANCH  80  81
ATOM     81  C   UNL     1       4.247  -5.495  -4.277  1.00  0.00     0.315 C 
ATOM     82  O   UNL     1       4.889  -5.625  -5.321  1.00  0.00    -0.251 OA
BRANCH  81  83
ATOM     83  C   UNL     1       4.605  -6.326  -3.058  1.00  0.00     0.148 C 
ATOM     84  C   UNL     1       4.883  -7.763  -3.567  1.00  0.00     0.043 C 
ATOM     85  C   UNL     1       3.649  -6.574  -1.928  1.00  0.00     0.033 A 
ATOM     86  C   UNL     1       4.443  -8.716  -2.466  1.00  0.00     0.124 C 
ATOM     87  N   UNL     1       3.570  -7.913  -1.632  1.00  0.00    -0.341 N 
ATOM     88  C   UNL     1       2.991  -5.918  -0.917  1.00  0.00     0.025 A 
ATOM     89  C   UNL     1       2.883  -8.154  -0.473  1.00  0.00     0.090 A 
ATOM     90  C   UNL     1       2.495  -6.901  -0.021  1.00  0.00     0.032 A 
BRANCH  89  91
ATOM     91  C   UNL     1       2.614  -9.415   0.197  1.00  0.00     0.209 C 
ATOM     92  O   UNL     1       2.041  -9.514   1.282  1.00  0.00    -0.287 OA
BRANCH  91  93
ATOM     93  C   UNL     1       3.019 -10.659  -0.467  1.00  0.00     0.024 A 
ATOM     94  C   UNL     1       2.104 -11.300  -1.305  1.00  0.00     0.012 A 
ATOM     95  C   UNL     1       4.342 -11.098  -0.359  1.00  0.00     0.012 A 
ATOM     96  C   UNL     1       2.539 -12.363  -2.092  1.00  0.00     0.001 A 
ATOM     97  C   UNL     1       4.772 -12.150  -1.164  1.00  0.00     0.001 A 
ATOM     98  C   UNL     1       3.874 -12.772  -2.035  1.00  0.00     0.000 A 
ENDBRANCH  91  93
ENDBRANCH  89  91
ENDBRANCH  81  83
ENDBRANCH  80  81
ENDBRANCH  79  80
ENDBRANCH  78  79
ENDBRANCH  77  78
ENDBRANCH  76  77
ENDBRANCH  75  76
ENDBRANCH   1  75
TORSDOF 22
