REMARK SMILES C/C(=C(/F)C(=O)OCCOCCOCCOCCOC(=O)c1ccc(-c2c3nc(c(-c4c(F)c(F)c(F)c(F)c4F)c4ccc([nH]4)c(-c4c(F)c(F)c(F)c(F)c4F)c4nc(c(-c5c(F)c(F)c(F)c(F)c5F)c5ccc2[nH]5)C=C4)C=C3)cc1)c1cccc(-n2cnnn2)c1
REMARK SMILES IDX 13 1 12 2 11 3 10 4 9 5 8 6 7 7 5 8 6 9 3 10 1 11 2 12 4 13
REMARK SMILES IDX 85 14 86 15 95 16 87 17 89 18 88 19 90 20 91 21 94 22 92 23
REMARK SMILES IDX 93 24 14 25 15 26 16 27 17 28 18 29 19 30 20 31 21 32 22 33
REMARK SMILES IDX 23 34 84 35 24 36 83 37 25 38 26 39 27 40 77 41 28 42 82 43
REMARK SMILES IDX 76 44 78 45 29 46 81 47 75 48 74 49 30 51 62 52 42 53 61 54
REMARK SMILES IDX 43 55 46 56 60 57 79 58 44 59 45 60 59 62 80 63 47 64 31 65
REMARK SMILES IDX 32 66 40 67 33 68 34 69 38 70 41 71 35 72 36 73 39 74 37 75
REMARK SMILES IDX 63 76 64 77 72 78 65 79 66 80 70 81 73 82 67 83 68 84 71 85
REMARK SMILES IDX 69 86 48 87 49 88 57 89 50 90 51 91 55 92 58 93 52 94 53 95
REMARK SMILES IDX 56 96 54 97
REMARK H PARENT 78 50 46 61
REMARK Flexibility Score: inf
ROOT
ATOM      1  O   UNL     1       0.768  -1.072   4.948  1.00  0.00    -0.377 OA
ENDROOT
BRANCH   1   2
ATOM      2  C   UNL     1       0.946  -0.644   3.600  1.00  0.00     0.188 C 
BRANCH   2   3
ATOM      3  C   UNL     1       0.622   0.795   3.123  1.00  0.00     0.188 C 
BRANCH   3   4
ATOM      4  O   UNL     1      -0.199   1.548   3.997  1.00  0.00    -0.376 OA
BRANCH   4   5
ATOM      5  C   UNL     1      -1.527   1.841   3.611  1.00  0.00     0.202 C 
BRANCH   5   6
ATOM      6  C   UNL     1      -2.481   0.646   3.505  1.00  0.00     0.261 C 
BRANCH   6   7
ATOM      7  O   UNL     1      -2.000  -0.453   2.719  1.00  0.00    -0.458 OA
BRANCH   7   8
ATOM      8  C   UNL     1      -1.867  -0.246   1.386  1.00  0.00     0.367 C 
ATOM      9  O   UNL     1      -2.168   0.771   0.784  1.00  0.00    -0.243 OA
BRANCH   8  10
ATOM     10  C   UNL     1      -1.175  -1.427   0.806  1.00  0.00     0.211 C 
ATOM     11  C   UNL     1       0.580  -0.135  -0.482  1.00  0.00     0.048 C 
ATOM     12  C   UNL     1      -0.116  -1.396  -0.031  1.00  0.00    -0.000 C 
ATOM     13  F   UNL     1      -1.651  -2.606   1.273  1.00  0.00    -0.199 F 
BRANCH  12  14
ATOM     14  C   UNL     1       0.406  -2.658  -0.632  1.00  0.00    -0.017 A 
ATOM     15  C   UNL     1      -0.516  -3.589  -1.140  1.00  0.00     0.008 A 
ATOM     16  C   UNL     1       1.779  -2.888  -0.859  1.00  0.00     0.037 A 
ATOM     17  C   UNL     1      -0.105  -4.675  -1.908  1.00  0.00     0.003 A 
ATOM     18  C   UNL     1       2.190  -3.972  -1.660  1.00  0.00     0.069 A 
ATOM     19  C   UNL     1       1.241  -4.846  -2.203  1.00  0.00     0.028 A 
BRANCH  18  20
ATOM     20  N   UNL     1       3.552  -4.183  -1.972  1.00  0.00    -0.201 N 
ATOM     21  C   UNL     1       4.677  -3.792  -1.294  1.00  0.00     0.252 A 
ATOM     22  N   UNL     1       3.946  -4.861  -3.075  1.00  0.00    -0.040 NA
ATOM     23  N   UNL     1       5.741  -4.151  -1.976  1.00  0.00    -0.117 NA
ATOM     24  N   UNL     1       5.269  -4.796  -3.089  1.00  0.00    -0.024 NA
ENDBRANCH  18  20
ENDBRANCH  12  14
ENDBRANCH   8  10
ENDBRANCH   7   8
ENDBRANCH   6   7
ENDBRANCH   5   6
ENDBRANCH   4   5
ENDBRANCH   3   4
ENDBRANCH   2   3
ENDBRANCH   1   2
BRANCH   1  25
ATOM     25  C   UNL     1       0.466  -0.118   5.954  1.00  0.00     0.188 C 
BRANCH  25  26
ATOM     26  C   UNL     1       1.472   1.037   6.137  1.00  0.00     0.188 C 
BRANCH  26  27
ATOM     27  O   UNL     1       2.476   1.065   5.135  1.00  0.00    -0.376 OA
BRANCH  27  28
ATOM     28  C   UNL     1       3.762   0.566   5.447  1.00  0.00     0.202 C 
BRANCH  28  29
ATOM     29  C   UNL     1       3.915  -0.864   5.991  1.00  0.00     0.261 C 
BRANCH  29  30
ATOM     30  O   UNL     1       3.023  -1.264   7.040  1.00  0.00    -0.460 OA
BRANCH  30  31
ATOM     31  C   UNL     1       3.167  -0.674   8.242  1.00  0.00     0.338 C 
ATOM     32  O   UNL     1       3.985   0.176   8.558  1.00  0.00    -0.246 OA
BRANCH  31  33
ATOM     33  C   UNL     1       2.023  -1.091   9.079  1.00  0.00     0.060 A 
ATOM     34  C   UNL     1       1.143  -0.116   9.567  1.00  0.00     0.016 A 
ATOM     35  C   UNL     1       1.813  -2.443   9.364  1.00  0.00     0.016 A 
ATOM     36  C   UNL     1       0.073  -0.487  10.380  1.00  0.00     0.010 A 
ATOM     37  C   UNL     1       0.758  -2.811  10.201  1.00  0.00     0.010 A 
ATOM     38  C   UNL     1      -0.089  -1.829  10.746  1.00  0.00    -0.014 A 
BRANCH  38  39
ATOM     39  C   UNL     1      -0.983  -2.166  11.878  1.00  0.00     0.031 A 
ATOM     40  C   UNL     1      -0.363  -2.334  13.239  1.00  0.00     0.074 A 
ATOM     41  C   UNL     1      -2.313  -2.279  11.719  1.00  0.00     0.049 A 
ATOM     42  N   UNL     1      -0.922  -2.650  14.378  1.00  0.00    -0.248 NA
ATOM     43  C   UNL     1       1.091  -2.117  13.321  1.00  0.00     0.031 C 
ATOM     44  C   UNL     1      -3.032  -2.094  10.461  1.00  0.00     0.029 A 
ATOM     45  N   UNL     1      -3.293  -2.583  12.630  1.00  0.00    -0.354 N 
ATOM     46  C   UNL     1       0.111  -2.676  15.307  1.00  0.00     0.074 A 
ATOM     47  C   UNL     1       1.334  -2.382  14.595  1.00  0.00     0.031 C 
ATOM     48  C   UNL     1      -4.344  -2.298  10.678  1.00  0.00     0.029 A 
ATOM     49  C   UNL     1      -4.549  -2.659  12.080  1.00  0.00     0.049 A 
ATOM     50  H   UNL     1      -3.113  -2.731  13.586  1.00  0.00     0.167 HD
ATOM     51  C   UNL     1       0.043  -2.912  16.638  1.00  0.00     0.037 A 
ATOM     52  C   UNL     1      -5.722  -3.003  12.647  1.00  0.00     0.037 A 
ATOM     53  C   UNL     1      -1.177  -3.207  17.342  1.00  0.00     0.049 A 
ATOM     54  C   UNL     1      -5.760  -3.338  14.118  1.00  0.00     0.074 A 
ATOM     55  C   UNL     1      -1.357  -3.451  18.691  1.00  0.00     0.029 A 
ATOM     56  N   UNL     1      -2.425  -3.311  16.745  1.00  0.00    -0.354 N 
ATOM     57  N   UNL     1      -4.786  -3.336  14.997  1.00  0.00    -0.248 NA
ATOM     58  C   UNL     1      -7.065  -3.718  14.677  1.00  0.00     0.031 C 
ATOM     59  C   UNL     1      -2.703  -3.764  18.901  1.00  0.00     0.029 A 
ATOM     60  C   UNL     1      -3.377  -3.643  17.696  1.00  0.00     0.049 A 
ATOM     61  H   UNL     1      -2.608  -3.169  15.788  1.00  0.00     0.167 HD
ATOM     62  C   UNL     1      -5.366  -3.675  16.214  1.00  0.00     0.074 A 
ATOM     63  C   UNL     1      -6.779  -3.862  15.962  1.00  0.00     0.031 C 
ATOM     64  C   UNL     1      -4.783  -3.815  17.431  1.00  0.00     0.037 A 
BRANCH  51  65
ATOM     65  C   UNL     1       1.330  -2.894  17.412  1.00  0.00     0.064 A 
ATOM     66  C   UNL     1       2.051  -1.709  17.626  1.00  0.00     0.173 A 
ATOM     67  C   UNL     1       1.839  -4.079  17.965  1.00  0.00     0.173 A 
ATOM     68  F   UNL     1       1.619  -0.551  17.103  1.00  0.00    -0.203 F 
ATOM     69  C   UNL     1       3.247  -1.717  18.340  1.00  0.00     0.198 A 
ATOM     70  C   UNL     1       3.016  -4.076  18.709  1.00  0.00     0.198 A 
ATOM     71  F   UNL     1       1.190  -5.240  17.792  1.00  0.00    -0.203 F 
ATOM     72  F   UNL     1       3.947  -0.582  18.484  1.00  0.00    -0.200 F 
ATOM     73  C   UNL     1       3.724  -2.898  18.888  1.00  0.00     0.200 A 
ATOM     74  F   UNL     1       3.467  -5.217  19.249  1.00  0.00    -0.200 F 
ATOM     75  F   UNL     1       4.870  -2.902  19.582  1.00  0.00    -0.200 F 
ENDBRANCH  51  65
BRANCH  52  76
ATOM     76  C   UNL     1      -6.961  -3.058  11.825  1.00  0.00     0.064 A 
ATOM     77  C   UNL     1      -8.022  -2.169  12.049  1.00  0.00     0.173 A 
ATOM     78  C   UNL     1      -7.123  -4.023  10.820  1.00  0.00     0.173 A 
ATOM     79  F   UNL     1      -7.927  -1.244  13.016  1.00  0.00    -0.203 F 
ATOM     80  C   UNL     1      -9.204  -2.258  11.317  1.00  0.00     0.198 A 
ATOM     81  C   UNL     1      -8.293  -4.090  10.066  1.00  0.00     0.198 A 
ATOM     82  F   UNL     1      -6.142  -4.901  10.565  1.00  0.00    -0.203 F 
ATOM     83  F   UNL     1     -10.223  -1.432  11.592  1.00  0.00    -0.200 F 
ATOM     84  C   UNL     1      -9.337  -3.215  10.322  1.00  0.00     0.200 A 
ATOM     85  F   UNL     1      -8.411  -5.007   9.096  1.00  0.00    -0.200 F 
ATOM     86  F   UNL     1     -10.474  -3.299   9.618  1.00  0.00    -0.200 F 
ENDBRANCH  52  76
BRANCH  64  87
ATOM     87  C   UNL     1      -5.678  -4.136  18.597  1.00  0.00     0.064 A 
ATOM     88  C   UNL     1      -6.311  -5.381  18.729  1.00  0.00     0.173 A 
ATOM     89  C   UNL     1      -5.876  -3.190  19.616  1.00  0.00     0.173 A 
ATOM     90  F   UNL     1      -6.165  -6.317  17.779  1.00  0.00    -0.203 F 
ATOM     91  C   UNL     1      -7.137  -5.653  19.817  1.00  0.00     0.198 A 
ATOM     92  C   UNL     1      -6.670  -3.480  20.721  1.00  0.00     0.198 A 
ATOM     93  F   UNL     1      -5.285  -1.988  19.548  1.00  0.00    -0.203 F 
ATOM     94  F   UNL     1      -7.780  -6.827  19.890  1.00  0.00    -0.200 F 
ATOM     95  C   UNL     1      -7.310  -4.706  20.815  1.00  0.00     0.200 A 
ATOM     96  F   UNL     1      -6.819  -2.571  21.695  1.00  0.00    -0.200 F 
ATOM     97  F   UNL     1      -8.100  -4.973  21.865  1.00  0.00    -0.200 F 
ENDBRANCH  64  87
ENDBRANCH  38  39
ENDBRANCH  31  33
ENDBRANCH  30  31
ENDBRANCH  29  30
ENDBRANCH  28  29
ENDBRANCH  27  28
ENDBRANCH  26  27
ENDBRANCH  25  26
ENDBRANCH   1  25
TORSDOF 22
