REMARK SMILES Cc1cccc(CN(C)c2nc(C)c(C(=O)OCCOCCOCCOCCOC(=O)c3ccc(-c4c5nc(c(-c6c(F)c(F)c(F)c(F)c6F)c6ccc([nH]6)c(-c6c(F)c(F)c(F)c(F)c6F)c6nc(c(-c7c(F)c(F)c(F)c(F)c7F)c7ccc4[nH]7)C=C6)C=C5)cc3)s2)n1
REMARK SMILES IDX 22 1 21 2 20 3 19 4 18 5 17 6 15 7 16 8 14 9 10 10 11 11
REMARK SMILES IDX 95 12 12 13 13 14 8 15 9 16 7 17 6 18 1 19 2 20 3 21 96 22
REMARK SMILES IDX 4 23 5 24 23 25 24 26 25 27 26 28 27 29 28 30 29 31 30 32
REMARK SMILES IDX 31 33 32 34 33 35 94 36 34 37 93 38 35 39 36 40 37 41 87 42
REMARK SMILES IDX 38 43 92 44 86 45 88 46 39 47 91 48 85 49 84 50 40 52 72 53
REMARK SMILES IDX 52 54 71 55 53 56 56 57 70 58 89 59 54 60 55 61 69 63 90 64
REMARK SMILES IDX 57 65 41 66 42 67 50 68 43 69 44 70 48 71 51 72 45 73 46 74
REMARK SMILES IDX 49 75 47 76 73 77 74 78 82 79 75 80 76 81 80 82 83 83 77 84
REMARK SMILES IDX 78 85 81 86 79 87 58 88 59 89 67 90 60 91 61 92 65 93 68 94
REMARK SMILES IDX 62 95 63 96 66 97 64 98
REMARK H PARENT 88 51 56 62
REMARK Flexibility Score: inf
ROOT
ATOM      1  C   UNL     1      -3.401  -0.175   5.404  1.00  0.00     0.188 C 
ENDROOT
BRANCH   1   2
ATOM      2  C   UNL     1      -2.336  -1.284   5.388  1.00  0.00     0.188 C 
BRANCH   2   3
ATOM      3  O   UNL     1      -2.086  -1.843   6.679  1.00  0.00    -0.376 OA
BRANCH   3   4
ATOM      4  C   UNL     1      -0.864  -1.457   7.301  1.00  0.00     0.202 C 
BRANCH   4   5
ATOM      5  C   UNL     1      -0.849  -0.035   7.881  1.00  0.00     0.261 C 
BRANCH   5   6
ATOM      6  O   UNL     1      -0.997   1.006   6.902  1.00  0.00    -0.459 OA
BRANCH   6   7
ATOM      7  C   UNL     1      -0.005   1.147   5.986  1.00  0.00     0.350 C 
ATOM      8  O   UNL     1       1.054   0.531   6.034  1.00  0.00    -0.245 OA
BRANCH   7   9
ATOM      9  C   UNL     1      -0.455   2.006   4.916  1.00  0.00     0.137 A 
ATOM     10  C   UNL     1      -0.844   2.972   2.705  1.00  0.00     0.186 A 
ATOM     11  N   UNL     1      -1.573   3.588   3.609  1.00  0.00    -0.225 NA
ATOM     12  S   UNL     1       0.160   1.728   3.342  1.00  0.00    -0.089 S 
ATOM     13  C   UNL     1      -1.382   3.038   4.872  1.00  0.00     0.065 A 
ATOM     14  C   UNL     1      -2.164   3.635   5.989  1.00  0.00     0.069 C 
BRANCH  10  15
ATOM     15  N   UNL     1      -0.799   3.334   1.395  1.00  0.00    -0.345 N 
ATOM     16  C   UNL     1      -0.624   4.746   1.117  1.00  0.00     0.146 C 
BRANCH  15  17
ATOM     17  C   UNL     1      -1.529   2.538   0.402  1.00  0.00     0.174 C 
BRANCH  17  18
ATOM     18  C   UNL     1      -0.929   1.162   0.160  1.00  0.00     0.060 A 
ATOM     19  C   UNL     1       2.479  -0.176  -0.160  1.00  0.00     0.067 C 
ATOM     20  C   UNL     1       0.982  -0.142  -0.115  1.00  0.00     0.038 A 
ATOM     21  C   UNL     1       0.230  -1.308  -0.145  1.00  0.00     0.023 A 
ATOM     22  N   UNL     1       0.418   1.081  -0.003  1.00  0.00    -0.256 NA
ATOM     23  C   UNL     1      -1.155  -1.214  -0.045  1.00  0.00     0.004 A 
ATOM     24  C   UNL     1      -1.746   0.035   0.115  1.00  0.00     0.026 A 
ENDBRANCH  17  18
ENDBRANCH  15  17
ENDBRANCH  10  15
ENDBRANCH   7   9
ENDBRANCH   6   7
ENDBRANCH   5   6
ENDBRANCH   4   5
ENDBRANCH   3   4
ENDBRANCH   2   3
ENDBRANCH   1   2
BRANCH   1  25
ATOM     25  O   UNL     1      -3.787   0.209   6.714  1.00  0.00    -0.377 OA
BRANCH  25  26
ATOM     26  C   UNL     1      -4.766  -0.584   7.381  1.00  0.00     0.188 C 
BRANCH  26  27
ATOM     27  C   UNL     1      -5.035  -2.050   6.978  1.00  0.00     0.188 C 
BRANCH  27  28
ATOM     28  O   UNL     1      -5.239  -2.244   5.579  1.00  0.00    -0.376 OA
BRANCH  28  29
ATOM     29  C   UNL     1      -6.575  -2.506   5.162  1.00  0.00     0.202 C 
BRANCH  29  30
ATOM     30  C   UNL     1      -7.433  -1.240   5.055  1.00  0.00     0.261 C 
BRANCH  30  31
ATOM     31  O   UNL     1      -7.705  -0.606   6.315  1.00  0.00    -0.460 OA
BRANCH  31  32
ATOM     32  C   UNL     1      -8.395  -1.338   7.216  1.00  0.00     0.338 C 
ATOM     33  O   UNL     1      -8.884  -2.441   7.054  1.00  0.00    -0.246 OA
BRANCH  32  34
ATOM     34  C   UNL     1      -8.319  -0.657   8.521  1.00  0.00     0.060 A 
ATOM     35  C   UNL     1      -7.886  -1.394   9.629  1.00  0.00     0.016 A 
ATOM     36  C   UNL     1      -8.706   0.679   8.658  1.00  0.00     0.016 A 
ATOM     37  C   UNL     1      -7.900  -0.811  10.894  1.00  0.00     0.010 A 
ATOM     38  C   UNL     1      -8.731   1.258   9.928  1.00  0.00     0.010 A 
ATOM     39  C   UNL     1      -8.371   0.500  11.055  1.00  0.00    -0.014 A 
BRANCH  39  40
ATOM     40  C   UNL     1      -8.678   0.993  12.417  1.00  0.00     0.031 A 
ATOM     41  C   UNL     1     -10.080   0.834  12.935  1.00  0.00     0.074 A 
ATOM     42  C   UNL     1      -7.723   1.533  13.193  1.00  0.00     0.049 A 
ATOM     43  N   UNL     1     -10.574   1.137  14.108  1.00  0.00    -0.248 NA
ATOM     44  C   UNL     1     -11.060   0.254  12.002  1.00  0.00     0.031 C 
ATOM     45  C   UNL     1      -6.329   1.727  12.808  1.00  0.00     0.029 A 
ATOM     46  N   UNL     1      -7.792   2.015  14.476  1.00  0.00    -0.354 N 
ATOM     47  C   UNL     1     -11.913   0.774  14.057  1.00  0.00     0.074 A 
ATOM     48  C   UNL     1     -12.168   0.267  12.726  1.00  0.00     0.031 C 
ATOM     49  C   UNL     1      -5.670   2.293  13.834  1.00  0.00     0.029 A 
ATOM     50  C   UNL     1      -6.600   2.510  14.941  1.00  0.00     0.049 A 
ATOM     51  H   UNL     1      -8.618   2.008  15.011  1.00  0.00     0.167 HD
ATOM     52  C   UNL     1     -12.844   0.842  15.037  1.00  0.00     0.037 A 
ATOM     53  C   UNL     1      -6.302   3.074  16.128  1.00  0.00     0.037 A 
ATOM     54  C   UNL     1     -12.597   1.356  16.356  1.00  0.00     0.049 A 
ATOM     55  C   UNL     1      -7.370   3.185  17.185  1.00  0.00     0.074 A 
ATOM     56  C   UNL     1     -13.471   1.455  17.424  1.00  0.00     0.029 A 
ATOM     57  N   UNL     1     -11.382   1.870  16.784  1.00  0.00    -0.354 N 
ATOM     58  N   UNL     1      -8.620   2.792  17.147  1.00  0.00    -0.248 NA
ATOM     59  C   UNL     1      -6.979   3.809  18.457  1.00  0.00     0.031 C 
ATOM     60  C   UNL     1     -12.796   2.067  18.485  1.00  0.00     0.029 A 
ATOM     61  C   UNL     1     -11.489   2.308  18.093  1.00  0.00     0.049 A 
ATOM     62  H   UNL     1     -10.564   1.917  16.237  1.00  0.00     0.167 HD
ATOM     63  C   UNL     1      -9.155   3.093  18.393  1.00  0.00     0.074 A 
ATOM     64  C   UNL     1      -8.090   3.691  19.170  1.00  0.00     0.031 C 
ATOM     65  C   UNL     1     -10.415   2.893  18.853  1.00  0.00     0.037 A 
BRANCH  52  66
ATOM     66  C   UNL     1     -14.224   0.358  14.706  1.00  0.00     0.064 A 
ATOM     67  C   UNL     1     -14.505  -1.009  14.556  1.00  0.00     0.173 A 
ATOM     68  C   UNL     1     -15.281   1.268  14.555  1.00  0.00     0.173 A 
ATOM     69  F   UNL     1     -13.524  -1.916  14.672  1.00  0.00    -0.203 F 
ATOM     70  C   UNL     1     -15.790  -1.445  14.245  1.00  0.00     0.198 A 
ATOM     71  C   UNL     1     -16.569   0.826  14.269  1.00  0.00     0.198 A 
ATOM     72  F   UNL     1     -15.063   2.584  14.688  1.00  0.00    -0.203 F 
ATOM     73  F   UNL     1     -16.027  -2.752  14.062  1.00  0.00    -0.200 F 
ATOM     74  C   UNL     1     -16.822  -0.528  14.108  1.00  0.00     0.200 A 
ATOM     75  F   UNL     1     -17.567   1.712  14.144  1.00  0.00    -0.200 F 
ATOM     76  F   UNL     1     -18.059  -0.950  13.812  1.00  0.00    -0.200 F 
ENDBRANCH  52  66
BRANCH  53  77
ATOM     77  C   UNL     1      -4.926   3.567  16.390  1.00  0.00     0.064 A 
ATOM     78  C   UNL     1      -4.089   2.922  17.310  1.00  0.00     0.173 A 
ATOM     79  C   UNL     1      -4.429   4.708  15.743  1.00  0.00     0.173 A 
ATOM     80  F   UNL     1      -4.529   1.842  17.973  1.00  0.00    -0.203 F 
ATOM     81  C   UNL     1      -2.814   3.412  17.589  1.00  0.00     0.198 A 
ATOM     82  C   UNL     1      -3.146   5.182  16.004  1.00  0.00     0.198 A 
ATOM     83  F   UNL     1      -5.193   5.363  14.856  1.00  0.00    -0.203 F 
ATOM     84  F   UNL     1      -2.052   2.804  18.509  1.00  0.00    -0.200 F 
ATOM     85  C   UNL     1      -2.342   4.538  16.933  1.00  0.00     0.200 A 
ATOM     86  F   UNL     1      -2.691   6.267  15.362  1.00  0.00    -0.200 F 
ATOM     87  F   UNL     1      -1.117   5.009  17.203  1.00  0.00    -0.200 F 
ENDBRANCH  53  77
BRANCH  65  88
ATOM     88  C   UNL     1     -10.701   3.294  20.272  1.00  0.00     0.064 A 
ATOM     89  C   UNL     1     -10.797   4.640  20.651  1.00  0.00     0.173 A 
ATOM     90  C   UNL     1     -10.914   2.316  21.256  1.00  0.00     0.173 A 
ATOM     91  F   UNL     1     -10.589   5.612  19.750  1.00  0.00    -0.203 F 
ATOM     92  C   UNL     1     -11.069   4.994  21.970  1.00  0.00     0.198 A 
ATOM     93  C   UNL     1     -11.213   2.673  22.567  1.00  0.00     0.198 A 
ATOM     94  F   UNL     1     -10.841   1.014  20.942  1.00  0.00    -0.203 F 
ATOM     95  F   UNL     1     -11.109   6.287  22.320  1.00  0.00    -0.200 F 
ATOM     96  C   UNL     1     -11.282   4.011  22.925  1.00  0.00     0.200 A 
ATOM     97  F   UNL     1     -11.431   1.722  23.486  1.00  0.00    -0.200 F 
ATOM     98  F   UNL     1     -11.546   4.353  24.194  1.00  0.00    -0.200 F 
ENDBRANCH  65  88
ENDBRANCH  39  40
ENDBRANCH  32  34
ENDBRANCH  31  32
ENDBRANCH  30  31
ENDBRANCH  29  30
ENDBRANCH  28  29
ENDBRANCH  27  28
ENDBRANCH  26  27
ENDBRANCH  25  26
ENDBRANCH   1  25
TORSDOF 23
