REMARK SMILES Cc1nccn1C1(C(=O)OCCOCCOCCOCCOC(=O)c2ccc(-c3c4nc(c(-c5c(F)c(F)c(F)c(F)c5F)c5ccc([nH]5)c(-c5c(F)c(F)c(F)c(F)c5F)c5nc(c(-c6c(F)c(F)c(F)c(F)c6F)c6ccc3[nH]6)C=C5)C=C4)cc2)CCN(c2nccc3occc23)CC1
REMARK SMILES IDX 17 1 16 2 15 3 14 4 13 5 12 6 11 7 10 8 8 9 9 10 7 11 88 12
REMARK SMILES IDX 101 13 89 14 100 15 90 16 6 17 1 18 2 19 3 20 4 21 5 22
REMARK SMILES IDX 91 23 92 24 99 25 93 26 95 27 98 28 94 29 96 30 97 31 18 32
REMARK SMILES IDX 19 33 20 34 21 35 22 36 23 37 24 38 25 39 26 40 87 41 27 42
REMARK SMILES IDX 86 43 28 44 29 45 30 46 80 47 31 48 85 49 79 50 81 51 32 52
REMARK SMILES IDX 84 53 78 54 77 55 33 57 65 58 45 59 64 60 46 61 49 62 63 63
REMARK SMILES IDX 82 64 47 65 48 66 62 68 83 69 50 70 34 71 35 72 43 73 36 74
REMARK SMILES IDX 37 75 41 76 44 77 38 78 39 79 42 80 40 81 66 82 67 83 75 84
REMARK SMILES IDX 68 85 69 86 73 87 76 88 70 89 71 90 74 91 72 92 51 93 52 94
REMARK SMILES IDX 60 95 53 96 54 97 58 98 61 99 55 100 56 101 59 102 57 103
REMARK H PARENT 81 56 49 67
REMARK Flexibility Score: inf
ROOT
ATOM      1  C   UNL     1       3.323   5.436  -4.464  1.00  0.00     0.188 C 
ENDROOT
BRANCH   1   2
ATOM      2  O   UNL     1       3.166   4.352  -3.553  1.00  0.00    -0.377 OA
BRANCH   2   3
ATOM      3  C   UNL     1       1.940   4.225  -2.857  1.00  0.00     0.188 C 
BRANCH   3   4
ATOM      4  C   UNL     1       1.724   5.185  -1.677  1.00  0.00     0.188 C 
BRANCH   4   5
ATOM      5  O   UNL     1       2.546   6.330  -1.616  1.00  0.00    -0.376 OA
BRANCH   5   6
ATOM      6  C   UNL     1       3.917   6.206  -1.293  1.00  0.00     0.202 C 
BRANCH   6   7
ATOM      7  C   UNL     1       4.633   4.899  -0.877  1.00  0.00     0.261 C 
BRANCH   7   8
ATOM      8  O   UNL     1       3.956   3.633  -1.035  1.00  0.00    -0.461 OA
BRANCH   8   9
ATOM      9  C   UNL     1       3.704   2.937   0.103  1.00  0.00     0.332 C 
ATOM     10  O   UNL     1       3.990   3.386   1.214  1.00  0.00    -0.249 OA
BRANCH   9  11
ATOM     11  C   UNL     1       2.985   1.530  -0.071  1.00  0.00     0.146 C 
ATOM     12  C   UNL     1       3.071   0.973  -1.522  1.00  0.00     0.062 C 
ATOM     13  C   UNL     1       3.894   0.691   0.859  1.00  0.00     0.062 C 
ATOM     14  C   UNL     1       3.241  -0.549  -1.729  1.00  0.00     0.121 C 
ATOM     15  C   UNL     1       3.894  -0.811   0.704  1.00  0.00     0.121 C 
ATOM     16  N   UNL     1       3.975  -1.253  -0.675  1.00  0.00    -0.356 N 
BRANCH  11  17
ATOM     17  N   UNL     1       1.571   1.683   0.401  1.00  0.00    -0.318 N 
ATOM     18  C   UNL     1       0.460  -0.652   0.168  1.00  0.00     0.087 C 
ATOM     19  C   UNL     1       0.486   0.811   0.368  1.00  0.00     0.106 A 
ATOM     20  N   UNL     1      -0.648   1.444   0.615  1.00  0.00    -0.242 NA
ATOM     21  C   UNL     1      -0.321   2.706   0.966  1.00  0.00     0.131 A 
ATOM     22  C   UNL     1       1.035   2.861   0.905  1.00  0.00     0.108 A 
ENDBRANCH  11  17
BRANCH  16  23
ATOM     23  C   UNL     1       5.160  -1.875  -1.059  1.00  0.00     0.139 A 
ATOM     24  N   UNL     1       6.317  -1.202  -0.834  1.00  0.00    -0.238 NA
ATOM     25  C   UNL     1       5.290  -2.987  -1.927  1.00  0.00     0.063 A 
ATOM     26  C   UNL     1       7.259  -1.227  -1.792  1.00  0.00     0.117 A 
ATOM     27  C   UNL     1       6.200  -2.836  -2.963  1.00  0.00     0.139 A 
ATOM     28  C   UNL     1       4.962  -4.374  -1.941  1.00  0.00     0.054 A 
ATOM     29  C   UNL     1       7.044  -1.752  -3.049  1.00  0.00     0.068 A 
ATOM     30  O   UNL     1       6.268  -3.955  -3.731  1.00  0.00    -0.464 OA
ATOM     31  C   UNL     1       5.613  -4.922  -3.031  1.00  0.00     0.196 A 
ENDBRANCH  16  23
ENDBRANCH   9  11
ENDBRANCH   8   9
ENDBRANCH   7   8
ENDBRANCH   6   7
ENDBRANCH   5   6
ENDBRANCH   4   5
ENDBRANCH   3   4
ENDBRANCH   2   3
ENDBRANCH   1   2
BRANCH   1  32
ATOM     32  C   UNL     1       2.319   6.617  -4.551  1.00  0.00     0.188 C 
BRANCH  32  33
ATOM     33  O   UNL     1       1.023   6.379  -4.024  1.00  0.00    -0.376 OA
BRANCH  33  34
ATOM     34  C   UNL     1      -0.106   6.176  -4.856  1.00  0.00     0.202 C 
BRANCH  34  35
ATOM     35  C   UNL     1      -0.155   4.899  -5.693  1.00  0.00     0.261 C 
BRANCH  35  36
ATOM     36  O   UNL     1       1.083   4.566  -6.290  1.00  0.00    -0.460 OA
BRANCH  36  37
ATOM     37  C   UNL     1       1.489   5.415  -7.240  1.00  0.00     0.338 C 
ATOM     38  O   UNL     1       0.975   6.497  -7.543  1.00  0.00    -0.246 OA
BRANCH  37  39
ATOM     39  C   UNL     1       2.584   4.799  -7.979  1.00  0.00     0.060 A 
ATOM     40  C   UNL     1       3.106   5.564  -9.018  1.00  0.00     0.016 A 
ATOM     41  C   UNL     1       2.748   3.405  -7.902  1.00  0.00     0.016 A 
ATOM     42  C   UNL     1       3.468   4.894 -10.153  1.00  0.00     0.010 A 
ATOM     43  C   UNL     1       3.111   2.736  -9.040  1.00  0.00     0.010 A 
ATOM     44  C   UNL     1       3.336   3.497 -10.177  1.00  0.00    -0.014 A 
BRANCH  44  45
ATOM     45  C   UNL     1       3.476   2.855 -11.456  1.00  0.00     0.031 A 
ATOM     46  C   UNL     1       4.865   2.879 -11.932  1.00  0.00     0.074 A 
ATOM     47  C   UNL     1       2.440   2.330 -12.131  1.00  0.00     0.049 A 
ATOM     48  N   UNL     1       5.351   3.646 -12.847  1.00  0.00    -0.248 NA
ATOM     49  C   UNL     1       5.864   2.132 -11.158  1.00  0.00     0.031 C 
ATOM     50  C   UNL     1       1.076   2.049 -11.679  1.00  0.00     0.029 A 
ATOM     51  N   UNL     1       2.439   1.877 -13.410  1.00  0.00    -0.354 N 
ATOM     52  C   UNL     1       6.702   3.346 -12.897  1.00  0.00     0.074 A 
ATOM     53  C   UNL     1       6.993   2.554 -11.729  1.00  0.00     0.031 C 
ATOM     54  C   UNL     1       0.457   1.271 -12.601  1.00  0.00     0.029 A 
ATOM     55  C   UNL     1       1.326   1.131 -13.757  1.00  0.00     0.049 A 
ATOM     56  H   UNL     1       3.172   2.065 -14.040  1.00  0.00     0.167 HD
ATOM     57  C   UNL     1       7.410   3.562 -14.034  1.00  0.00     0.037 A 
ATOM     58  C   UNL     1       1.199   0.402 -14.894  1.00  0.00     0.037 A 
ATOM     59  C   UNL     1       6.729   4.481 -14.912  1.00  0.00     0.049 A 
ATOM     60  C   UNL     1       2.164   0.958 -15.882  1.00  0.00     0.074 A 
ATOM     61  C   UNL     1       6.352   5.807 -14.822  1.00  0.00     0.029 A 
ATOM     62  N   UNL     1       5.992   3.952 -15.943  1.00  0.00    -0.354 N 
ATOM     63  N   UNL     1       2.040   2.140 -16.420  1.00  0.00    -0.248 NA
ATOM     64  C   UNL     1       3.511   0.403 -15.906  1.00  0.00     0.031 C 
ATOM     65  C   UNL     1       5.090   5.883 -15.484  1.00  0.00     0.029 A 
ATOM     66  C   UNL     1       4.792   4.615 -15.984  1.00  0.00     0.049 A 
ATOM     67  H   UNL     1       6.274   3.226 -16.545  1.00  0.00     0.167 HD
ATOM     68  C   UNL     1       3.330   2.653 -16.453  1.00  0.00     0.074 A 
ATOM     69  C   UNL     1       4.202   1.508 -16.199  1.00  0.00     0.031 C 
ATOM     70  C   UNL     1       3.552   3.999 -16.395  1.00  0.00     0.037 A 
BRANCH  57  71
ATOM     71  C   UNL     1       8.496   2.639 -14.509  1.00  0.00     0.064 A 
ATOM     72  C   UNL     1       9.286   3.026 -15.606  1.00  0.00     0.173 A 
ATOM     73  C   UNL     1       8.586   1.280 -14.133  1.00  0.00     0.173 A 
ATOM     74  F   UNL     1       9.255   4.289 -16.057  1.00  0.00    -0.203 F 
ATOM     75  C   UNL     1      10.048   2.100 -16.320  1.00  0.00     0.198 A 
ATOM     76  C   UNL     1       9.392   0.373 -14.813  1.00  0.00     0.198 A 
ATOM     77  F   UNL     1       7.816   0.747 -13.178  1.00  0.00    -0.203 F 
ATOM     78  F   UNL     1      10.681   2.484 -17.436  1.00  0.00    -0.200 F 
ATOM     79  C   UNL     1      10.096   0.775 -15.927  1.00  0.00     0.200 A 
ATOM     80  F   UNL     1       9.407  -0.910 -14.427  1.00  0.00    -0.200 F 
ATOM     81  F   UNL     1      10.774  -0.126 -16.648  1.00  0.00    -0.200 F 
ENDBRANCH  57  71
BRANCH  58  82
ATOM     82  C   UNL     1       0.601  -0.946 -15.040  1.00  0.00     0.064 A 
ATOM     83  C   UNL     1       0.312  -1.475 -16.308  1.00  0.00     0.173 A 
ATOM     84  C   UNL     1       0.572  -1.854 -13.962  1.00  0.00     0.173 A 
ATOM     85  F   UNL     1       0.366  -0.690 -17.394  1.00  0.00    -0.203 F 
ATOM     86  C   UNL     1       0.036  -2.835 -16.491  1.00  0.00     0.198 A 
ATOM     87  C   UNL     1       0.292  -3.208 -14.145  1.00  0.00     0.198 A 
ATOM     88  F   UNL     1       0.913  -1.465 -12.725  1.00  0.00    -0.203 F 
ATOM     89  F   UNL     1      -0.173  -3.315 -17.725  1.00  0.00    -0.200 F 
ATOM     90  C   UNL     1       0.037  -3.702 -15.410  1.00  0.00     0.200 A 
ATOM     91  F   UNL     1       0.337  -4.043 -13.096  1.00  0.00    -0.200 F 
ATOM     92  F   UNL     1      -0.163  -5.014 -15.593  1.00  0.00    -0.200 F 
ENDBRANCH  58  82
BRANCH  70  93
ATOM     93  C   UNL     1       2.360   4.903 -16.550  1.00  0.00     0.064 A 
ATOM     94  C   UNL     1       1.286   4.951 -15.644  1.00  0.00     0.173 A 
ATOM     95  C   UNL     1       2.371   5.847 -17.585  1.00  0.00     0.173 A 
ATOM     96  F   UNL     1       1.253   4.150 -14.572  1.00  0.00    -0.203 F 
ATOM     97  C   UNL     1       0.249   5.870 -15.799  1.00  0.00     0.198 A 
ATOM     98  C   UNL     1       1.354   6.788 -17.716  1.00  0.00     0.198 A 
ATOM     99  F   UNL     1       3.400   5.886 -18.446  1.00  0.00    -0.203 F 
ATOM    100  F   UNL     1      -0.773   5.886 -14.930  1.00  0.00    -0.200 F 
ATOM    101  C   UNL     1       0.288   6.792 -16.831  1.00  0.00     0.200 A 
ATOM    102  F   UNL     1       1.422   7.710 -18.687  1.00  0.00    -0.200 F 
ATOM    103  F   UNL     1      -0.688   7.702 -16.959  1.00  0.00    -0.200 F 
ENDBRANCH  70  93
ENDBRANCH  44  45
ENDBRANCH  37  39
ENDBRANCH  36  37
ENDBRANCH  35  36
ENDBRANCH  34  35
ENDBRANCH  33  34
ENDBRANCH  32  33
ENDBRANCH   1  32
TORSDOF 22
