REMARK SMILES COc1ccc(F)c(NC(=O)N[C@H]2CCC[C@H]2C(=O)OCCOCCOCCOCCOC(=O)c2ccc(-c3c4nc(c(-c5c(F)c(F)c(F)c(F)c5F)c5ccc([nH]5)c(-c5c(F)c(F)c(F)c(F)c5F)c5nc(c(-c6c(F)c(F)c(F)c(F)c6F)c6ccc3[nH]6)C=C5)C=C4)cc2)c1
REMARK SMILES IDX 25 1 24 2 23 3 22 4 21 5 20 6 18 7 19 8 17 9 13 10 14 11
REMARK SMILES IDX 15 12 16 13 12 14 9 15 10 16 11 18 8 20 3 21 4 22 98 23 5 24
REMARK SMILES IDX 6 25 7 26 2 27 1 28 26 29 27 30 28 31 29 32 30 33 31 34
REMARK SMILES IDX 32 35 33 36 34 37 35 38 36 39 97 40 37 41 96 42 38 43 39 44
REMARK SMILES IDX 40 45 90 46 41 47 95 48 89 49 91 50 42 51 94 52 88 53 87 54
REMARK SMILES IDX 43 56 75 57 55 58 74 59 56 60 59 61 73 62 92 63 57 64 58 65
REMARK SMILES IDX 72 67 93 68 60 69 44 70 45 71 53 72 46 73 47 74 51 75 54 76
REMARK SMILES IDX 48 77 49 78 52 79 50 80 76 81 77 82 85 83 78 84 79 85 83 86
REMARK SMILES IDX 86 87 80 88 81 89 84 90 82 91 61 92 62 93 70 94 63 95 64 96
REMARK SMILES IDX 68 97 71 98 65 99 66 100 69 101 67 102
REMARK H PARENT 9 17 12 19 91 55 59 66
REMARK Flexibility Score: inf
ROOT
ATOM      1  C   UNL     1      -2.305  -4.601  -2.882  1.00  0.00     0.188 C 
ENDROOT
BRANCH   1   2
ATOM      2  C   UNL     1      -1.204  -5.521  -3.424  1.00  0.00     0.188 C 
BRANCH   2   3
ATOM      3  O   UNL     1      -0.810  -6.691  -2.720  1.00  0.00    -0.376 OA
BRANCH   3   4
ATOM      4  C   UNL     1      -0.696  -6.702  -1.304  1.00  0.00     0.202 C 
BRANCH   4   5
ATOM      5  C   UNL     1       0.115  -5.640  -0.540  1.00  0.00     0.261 C 
BRANCH   5   6
ATOM      6  O   UNL     1      -0.163  -4.257  -0.842  1.00  0.00    -0.463 OA
BRANCH   6   7
ATOM      7  C   UNL     1       0.738  -3.671  -1.653  1.00  0.00     0.311 C 
ATOM      8  O   UNL     1       1.744  -4.235  -2.081  1.00  0.00    -0.252 OA
BRANCH   7   9
ATOM      9  C   UNL     1       0.509  -2.210  -1.952  1.00  0.00     0.121 C 
ATOM     10  C   UNL     1      -0.818  -1.452  -2.125  1.00  0.00     0.098 C 
ATOM     11  C   UNL     1      -0.341   0.015  -2.063  1.00  0.00     0.026 C 
ATOM     12  C   UNL     1       0.921   0.064  -1.217  1.00  0.00     0.003 C 
ATOM     13  C   UNL     1       1.405  -1.363  -1.066  1.00  0.00     0.017 C 
BRANCH  10  14
ATOM     14  N   UNL     1      -1.983  -1.620  -1.265  1.00  0.00    -0.334 N 
ATOM     15  N   UNL     1      -4.027  -1.234  -2.543  1.00  0.00    -0.305 N 
ATOM     16  C   UNL     1      -3.320  -1.457  -1.408  1.00  0.00     0.319 C 
ATOM     17  H   UNL     1      -4.993  -1.219  -2.353  1.00  0.00     0.171 HD
ATOM     18  O   UNL     1      -3.998  -1.605  -0.380  1.00  0.00    -0.248 OA
ATOM     19  H   UNL     1      -1.739  -1.925  -0.361  1.00  0.00     0.165 HD
BRANCH  15  20
ATOM     20  C   UNL     1      -3.787  -1.015  -3.916  1.00  0.00     0.082 A 
ATOM     21  C   UNL     1      -2.206  -0.815  -5.710  1.00  0.00     0.121 A 
ATOM     22  C   UNL     1      -3.124  -1.295  -6.630  1.00  0.00     0.049 A 
ATOM     23  C   UNL     1      -2.605  -0.519  -4.412  1.00  0.00     0.075 A 
ATOM     24  C   UNL     1      -4.441  -1.490  -6.220  1.00  0.00     0.045 A 
ATOM     25  C   UNL     1      -4.755  -1.381  -4.860  1.00  0.00     0.147 A 
ATOM     26  F   UNL     1      -5.992  -1.717  -4.461  1.00  0.00    -0.205 F 
BRANCH  21  27
ATOM     27  O   UNL     1      -0.870  -1.000  -5.946  1.00  0.00    -0.497 OA
ATOM     28  C   UNL     1      -0.175   0.183  -6.302  1.00  0.00     0.278 C 
ENDBRANCH  21  27
ENDBRANCH  15  20
ENDBRANCH  10  14
ENDBRANCH   7   9
ENDBRANCH   6   7
ENDBRANCH   5   6
ENDBRANCH   4   5
ENDBRANCH   3   4
ENDBRANCH   2   3
ENDBRANCH   1   2
BRANCH   1  29
ATOM     29  O   UNL     1      -2.617  -4.804  -1.520  1.00  0.00    -0.377 OA
BRANCH  29  30
ATOM     30  C   UNL     1      -3.846  -5.451  -1.233  1.00  0.00     0.188 C 
BRANCH  30  31
ATOM     31  C   UNL     1      -4.215  -6.666  -2.106  1.00  0.00     0.188 C 
BRANCH  31  32
ATOM     32  O   UNL     1      -4.260  -6.374  -3.497  1.00  0.00    -0.376 OA
BRANCH  32  33
ATOM     33  C   UNL     1      -5.526  -6.082  -4.072  1.00  0.00     0.202 C 
BRANCH  33  34
ATOM     34  C   UNL     1      -6.234  -4.797  -3.611  1.00  0.00     0.261 C 
BRANCH  34  35
ATOM     35  O   UNL     1      -6.552  -4.681  -2.214  1.00  0.00    -0.460 OA
BRANCH  35  36
ATOM     36  C   UNL     1      -7.311  -5.633  -1.644  1.00  0.00     0.338 C 
ATOM     37  O   UNL     1      -7.854  -6.576  -2.204  1.00  0.00    -0.246 OA
BRANCH  36  38
ATOM     38  C   UNL     1      -7.222  -5.479  -0.175  1.00  0.00     0.060 A 
ATOM     39  C   UNL     1      -6.736  -6.550   0.586  1.00  0.00     0.016 A 
ATOM     40  C   UNL     1      -7.630  -4.299   0.453  1.00  0.00     0.016 A 
ATOM     41  C   UNL     1      -6.703  -6.465   1.978  1.00  0.00     0.010 A 
ATOM     42  C   UNL     1      -7.620  -4.224   1.851  1.00  0.00     0.010 A 
ATOM     43  C   UNL     1      -7.195  -5.322   2.621  1.00  0.00    -0.014 A 
BRANCH  43  44
ATOM     44  C   UNL     1      -7.452  -5.358   4.082  1.00  0.00     0.031 A 
ATOM     45  C   UNL     1      -8.851  -5.647   4.555  1.00  0.00     0.074 A 
ATOM     46  C   UNL     1      -6.463  -5.184   4.976  1.00  0.00     0.049 A 
ATOM     47  N   UNL     1      -9.328  -5.691   5.774  1.00  0.00    -0.248 NA
ATOM     48  C   UNL     1      -9.850  -5.928   3.510  1.00  0.00     0.031 C 
ATOM     49  C   UNL     1      -5.059  -4.956   4.645  1.00  0.00     0.029 A 
ATOM     50  N   UNL     1      -6.494  -5.170   6.350  1.00  0.00    -0.354 N 
ATOM     51  C   UNL     1     -10.676  -5.997   5.640  1.00  0.00     0.074 A 
ATOM     52  C   UNL     1     -10.952  -6.099   4.224  1.00  0.00     0.031 C 
ATOM     53  C   UNL     1      -4.361  -4.818   5.786  1.00  0.00     0.029 A 
ATOM     54  C   UNL     1      -5.275  -4.909   6.925  1.00  0.00     0.049 A 
ATOM     55  H   UNL     1      -7.312  -5.333   6.872  1.00  0.00     0.167 HD
ATOM     56  C   UNL     1     -11.597  -6.186   6.613  1.00  0.00     0.037 A 
ATOM     57  C   UNL     1      -4.941  -4.738   8.221  1.00  0.00     0.037 A 
ATOM     58  C   UNL     1     -11.318  -6.088   8.021  1.00  0.00     0.049 A 
ATOM     59  C   UNL     1      -6.003  -4.866   9.284  1.00  0.00     0.074 A 
ATOM     60  C   UNL     1     -12.183  -6.274   9.084  1.00  0.00     0.029 A 
ATOM     61  N   UNL     1     -10.080  -5.771   8.562  1.00  0.00    -0.354 N 
ATOM     62  N   UNL     1      -7.274  -5.163   9.152  1.00  0.00    -0.248 NA
ATOM     63  C   UNL     1      -5.588  -4.635  10.675  1.00  0.00     0.031 C 
ATOM     64  C   UNL     1     -11.487  -6.008  10.265  1.00  0.00     0.029 A 
ATOM     65  C   UNL     1     -10.169  -5.726   9.943  1.00  0.00     0.049 A 
ATOM     66  H   UNL     1      -9.262  -5.603   8.041  1.00  0.00     0.167 HD
ATOM     67  C   UNL     1      -7.801  -5.182  10.438  1.00  0.00     0.074 A 
ATOM     68  C   UNL     1      -6.710  -4.877  11.340  1.00  0.00     0.031 C 
ATOM     69  C   UNL     1      -9.073  -5.432  10.833  1.00  0.00     0.037 A 
BRANCH  56  70
ATOM     70  C   UNL     1     -13.005  -6.500   6.198  1.00  0.00     0.064 A 
ATOM     71  C   UNL     1     -14.034  -5.573   6.426  1.00  0.00     0.173 A 
ATOM     72  C   UNL     1     -13.352  -7.743   5.648  1.00  0.00     0.173 A 
ATOM     73  F   UNL     1     -13.757  -4.371   6.953  1.00  0.00    -0.203 F 
ATOM     74  C   UNL     1     -15.359  -5.888   6.140  1.00  0.00     0.198 A 
ATOM     75  C   UNL     1     -14.675  -8.042   5.334  1.00  0.00     0.198 A 
ATOM     76  F   UNL     1     -12.405  -8.659   5.397  1.00  0.00    -0.203 F 
ATOM     77  F   UNL     1     -16.329  -5.001   6.405  1.00  0.00    -0.200 F 
ATOM     78  C   UNL     1     -15.679  -7.120   5.591  1.00  0.00     0.200 A 
ATOM     79  F   UNL     1     -14.980  -9.225   4.780  1.00  0.00    -0.200 F 
ATOM     80  F   UNL     1     -16.954  -7.419   5.310  1.00  0.00    -0.200 F 
ENDBRANCH  56  70
BRANCH  57  81
ATOM     81  C   UNL     1      -3.533  -4.423   8.582  1.00  0.00     0.064 A 
ATOM     82  C   UNL     1      -2.945  -3.200   8.224  1.00  0.00     0.173 A 
ATOM     83  C   UNL     1      -2.741  -5.345   9.281  1.00  0.00     0.173 A 
ATOM     84  F   UNL     1      -3.660  -2.279   7.563  1.00  0.00    -0.203 F 
ATOM     85  C   UNL     1      -1.612  -2.924   8.525  1.00  0.00     0.198 A 
ATOM     86  C   UNL     1      -1.417  -5.056   9.608  1.00  0.00     0.198 A 
ATOM     87  F   UNL     1      -3.264  -6.516   9.673  1.00  0.00    -0.203 F 
ATOM     88  F   UNL     1      -1.066  -1.764   8.138  1.00  0.00    -0.200 F 
ATOM     89  C   UNL     1      -0.851  -3.850   9.221  1.00  0.00     0.200 A 
ATOM     90  F   UNL     1      -0.693  -5.941  10.307  1.00  0.00    -0.200 F 
ATOM     91  F   UNL     1       0.427  -3.580   9.522  1.00  0.00    -0.200 F 
ENDBRANCH  57  81
BRANCH  69  92
ATOM     92  C   UNL     1      -9.372  -5.421  12.306  1.00  0.00     0.064 A 
ATOM     93  C   UNL     1      -9.727  -6.609  12.965  1.00  0.00     0.173 A 
ATOM     94  C   UNL     1      -9.407  -4.228  13.042  1.00  0.00     0.173 A 
ATOM     95  F   UNL     1      -9.722  -7.777  12.304  1.00  0.00    -0.203 F 
ATOM     96  C   UNL     1     -10.129  -6.599  14.298  1.00  0.00     0.198 A 
ATOM     97  C   UNL     1      -9.777  -4.227  14.385  1.00  0.00     0.198 A 
ATOM     98  F   UNL     1      -9.068  -3.067  12.463  1.00  0.00    -0.203 F 
ATOM     99  F   UNL     1     -10.509  -7.740  14.890  1.00  0.00    -0.200 F 
ATOM    100  C   UNL     1     -10.150  -5.409  15.007  1.00  0.00     0.200 A 
ATOM    101  F   UNL     1      -9.775  -3.079  15.077  1.00  0.00    -0.200 F 
ATOM    102  F   UNL     1     -10.531  -5.401  16.292  1.00  0.00    -0.200 F 
ENDBRANCH  69  92
ENDBRANCH  43  44
ENDBRANCH  36  38
ENDBRANCH  35  36
ENDBRANCH  34  35
ENDBRANCH  33  34
ENDBRANCH  32  33
ENDBRANCH  31  32
ENDBRANCH  30  31
ENDBRANCH  29  30
ENDBRANCH   1  29
TORSDOF 23
