REMARK SMILES CC(C)CSc1cc2c(cc1Cl)C=C(C(=O)OCCOCCOCCOCCOC(=O)c1ccc(-c3c4nc(c(-c5c(F)c(F)c(F)c(F)c5F)c5ccc([nH]5)c(-c5c(F)c(F)c(F)c(F)c5F)c5nc(c(-c6c(F)c(F)c(F)c(F)c6F)c6ccc3[nH]6)C=C5)C=C4)cc1)[C@@H](C(F)(F)F)O2
REMARK SMILES IDX 22 1 21 2 20 3 19 4 18 5 17 6 15 7 16 8 14 9 6 10 7 11 11 12
REMARK SMILES IDX 8 13 10 14 12 15 9 16 100 17 13 18 95 19 5 20 4 21 2 22 1 23
REMARK SMILES IDX 3 24 96 25 97 26 98 27 99 28 23 29 24 30 25 31 26 32 27 33
REMARK SMILES IDX 28 34 29 35 30 36 31 37 32 38 33 39 94 40 34 41 93 42 35 43
REMARK SMILES IDX 36 44 37 45 87 46 38 47 92 48 86 49 88 50 39 51 91 52 85 53
REMARK SMILES IDX 84 54 40 56 72 57 52 58 71 59 53 60 56 61 70 62 89 63 54 64
REMARK SMILES IDX 55 65 69 67 90 68 57 69 41 70 42 71 50 72 43 73 44 74 48 75
REMARK SMILES IDX 51 76 45 77 46 78 49 79 47 80 73 81 74 82 82 83 75 84 76 85
REMARK SMILES IDX 80 86 83 87 77 88 78 89 81 90 79 91 58 92 59 93 67 94 60 95
REMARK SMILES IDX 61 96 65 97 68 98 62 99 63 100 66 101 64 102
REMARK H PARENT 88 55 56 66
REMARK Flexibility Score: inf
ROOT
ATOM      1  C   UNL     1      -0.911   0.969   8.329  1.00  0.00     0.188 C 
ENDROOT
BRANCH   1   2
ATOM      2  C   UNL     1      -0.255  -0.410   8.539  1.00  0.00     0.188 C 
BRANCH   2   3
ATOM      3  O   UNL     1       0.442  -0.501   9.772  1.00  0.00    -0.376 OA
BRANCH   3   4
ATOM      4  C   UNL     1       1.829  -0.203   9.830  1.00  0.00     0.202 C 
BRANCH   4   5
ATOM      5  C   UNL     1       2.453   1.018   9.125  1.00  0.00     0.261 C 
BRANCH   5   6
ATOM      6  O   UNL     1       1.935   1.362   7.836  1.00  0.00    -0.460 OA
BRANCH   6   7
ATOM      7  C   UNL     1       2.301   0.609   6.784  1.00  0.00     0.338 C 
ATOM      8  O   UNL     1       3.066  -0.338   6.790  1.00  0.00    -0.246 OA
BRANCH   7   9
ATOM      9  C   UNL     1       1.459   1.019   5.638  1.00  0.00     0.087 C 
ATOM     10  C   UNL     1      -1.349   1.081   1.480  1.00  0.00     0.030 A 
ATOM     11  C   UNL     1      -0.726   2.070   2.261  1.00  0.00     0.063 A 
ATOM     12  C   UNL     1      -1.451  -0.216   2.006  1.00  0.00     0.055 A 
ATOM     13  C   UNL     1      -0.079   1.740   3.453  1.00  0.00     0.129 A 
ATOM     14  C   UNL     1      -0.776  -0.550   3.186  1.00  0.00     0.033 A 
ATOM     15  Cl  UNL     1      -2.390  -1.467   1.272  1.00  0.00    -0.083 Cl
ATOM     16  C   UNL     1      -0.039   0.415   3.876  1.00  0.00     0.019 A 
ATOM     17  O   UNL     1       0.542   2.764   4.105  1.00  0.00    -0.475 OA
ATOM     18  C   UNL     1       0.824   0.039   4.981  1.00  0.00     0.027 C 
ATOM     19  C   UNL     1       1.263   2.486   5.339  1.00  0.00     0.316 C 
BRANCH  10  20
ATOM     20  S   UNL     1      -1.878   1.605  -0.147  1.00  0.00    -0.124 SA
BRANCH  20  21
ATOM     21  C   UNL     1      -1.061   0.402  -1.276  1.00  0.00     0.078 C 
BRANCH  21  22
ATOM     22  C   UNL     1       0.474   0.442  -1.425  1.00  0.00    -0.007 C 
ATOM     23  C   UNL     1       1.254   0.052  -0.169  1.00  0.00     0.008 C 
ATOM     24  C   UNL     1       0.877  -0.521  -2.553  1.00  0.00     0.008 C 
ENDBRANCH  21  22
ENDBRANCH  20  21
ENDBRANCH  10  20
BRANCH  19  25
ATOM     25  C   UNL     1       2.586   3.264   5.281  1.00  0.00     0.430 C 
ATOM     26  F   UNL     1       2.375   4.564   4.963  1.00  0.00    -0.167 F 
ATOM     27  F   UNL     1       3.238   3.258   6.466  1.00  0.00    -0.167 F 
ATOM     28  F   UNL     1       3.426   2.750   4.354  1.00  0.00    -0.167 F 
ENDBRANCH  19  25
ENDBRANCH   7   9
ENDBRANCH   6   7
ENDBRANCH   5   6
ENDBRANCH   4   5
ENDBRANCH   3   4
ENDBRANCH   2   3
ENDBRANCH   1   2
BRANCH   1  29
ATOM     29  O   UNL     1      -0.390   1.952   9.216  1.00  0.00    -0.377 OA
BRANCH  29  30
ATOM     30  C   UNL     1      -1.024   2.070  10.491  1.00  0.00     0.188 C 
BRANCH  30  31
ATOM     31  C   UNL     1      -1.628   0.833  11.197  1.00  0.00     0.188 C 
BRANCH  31  32
ATOM     32  O   UNL     1      -2.457   0.041  10.350  1.00  0.00    -0.376 OA
BRANCH  32  33
ATOM     33  C   UNL     1      -3.857   0.073  10.575  1.00  0.00     0.202 C 
BRANCH  33  34
ATOM     34  C   UNL     1      -4.555   1.344  10.079  1.00  0.00     0.261 C 
BRANCH  34  35
ATOM     35  O   UNL     1      -4.096   2.567  10.671  1.00  0.00    -0.460 OA
BRANCH  35  36
ATOM     36  C   UNL     1      -4.213   2.702  12.011  1.00  0.00     0.338 C 
ATOM     37  O   UNL     1      -4.704   1.909  12.794  1.00  0.00    -0.246 OA
BRANCH  36  38
ATOM     38  C   UNL     1      -3.462   3.915  12.396  1.00  0.00     0.060 A 
ATOM     39  C   UNL     1      -3.669   5.113  11.707  1.00  0.00     0.016 A 
ATOM     40  C   UNL     1      -2.522   3.844  13.432  1.00  0.00     0.016 A 
ATOM     41  C   UNL     1      -2.955   6.251  12.079  1.00  0.00     0.010 A 
ATOM     42  C   UNL     1      -1.810   4.988  13.805  1.00  0.00     0.010 A 
ATOM     43  C   UNL     1      -2.041   6.204  13.146  1.00  0.00    -0.014 A 
BRANCH  43  44
ATOM     44  C   UNL     1      -1.477   7.475  13.662  1.00  0.00     0.031 A 
ATOM     45  C   UNL     1      -0.072   7.901  13.370  1.00  0.00     0.074 A 
ATOM     46  C   UNL     1      -2.288   8.268  14.387  1.00  0.00     0.049 A 
ATOM     47  N   UNL     1       0.505   9.047  13.628  1.00  0.00    -0.248 NA
ATOM     48  C   UNL     1       0.801   6.918  12.715  1.00  0.00     0.031 C 
ATOM     49  C   UNL     1      -3.662   7.931  14.765  1.00  0.00     0.029 A 
ATOM     50  N   UNL     1      -2.092   9.518  14.914  1.00  0.00    -0.354 N 
ATOM     51  C   UNL     1       1.800   8.939  13.142  1.00  0.00     0.074 A 
ATOM     52  C   UNL     1       1.942   7.592  12.625  1.00  0.00     0.031 C 
ATOM     53  C   UNL     1      -4.200   8.967  15.424  1.00  0.00     0.029 A 
ATOM     54  C   UNL     1      -3.205  10.030  15.535  1.00  0.00     0.049 A 
ATOM     55  H   UNL     1      -1.237  10.002  14.853  1.00  0.00     0.167 HD
ATOM     56  C   UNL     1       2.767   9.888  13.111  1.00  0.00     0.037 A 
ATOM     57  C   UNL     1      -3.408  11.227  16.115  1.00  0.00     0.037 A 
ATOM     58  C   UNL     1       2.618  11.221  13.643  1.00  0.00     0.049 A 
ATOM     59  C   UNL     1      -2.302  12.244  16.105  1.00  0.00     0.074 A 
ATOM     60  C   UNL     1       3.524  12.267  13.613  1.00  0.00     0.029 A 
ATOM     61  N   UNL     1       1.496  11.687  14.315  1.00  0.00    -0.354 N 
ATOM     62  N   UNL     1      -1.116  12.167  15.554  1.00  0.00    -0.248 NA
ATOM     63  C   UNL     1      -2.564  13.515  16.793  1.00  0.00     0.031 C 
ATOM     64  C   UNL     1       2.976  13.344  14.316  1.00  0.00     0.029 A 
ATOM     65  C   UNL     1       1.705  12.991  14.739  1.00  0.00     0.049 A 
ATOM     66  H   UNL     1       0.674  11.168  14.469  1.00  0.00     0.167 HD
ATOM     67  C   UNL     1      -0.494  13.379  15.817  1.00  0.00     0.074 A 
ATOM     68  C   UNL     1      -1.445  14.185  16.554  1.00  0.00     0.031 C 
ATOM     69  C   UNL     1       0.756  13.781  15.483  1.00  0.00     0.037 A 
BRANCH  56  70
ATOM     70  C   UNL     1       4.077   9.538  12.466  1.00  0.00     0.064 A 
ATOM     71  C   UNL     1       4.183   9.384  11.075  1.00  0.00     0.173 A 
ATOM     72  C   UNL     1       5.252   9.448  13.227  1.00  0.00     0.173 A 
ATOM     73  F   UNL     1       3.089   9.460  10.302  1.00  0.00    -0.203 F 
ATOM     74  C   UNL     1       5.415   9.139  10.473  1.00  0.00     0.198 A 
ATOM     75  C   UNL     1       6.486   9.229  12.618  1.00  0.00     0.198 A 
ATOM     76  F   UNL     1       5.209   9.601  14.559  1.00  0.00    -0.203 F 
ATOM     77  F   UNL     1       5.487   8.969   9.145  1.00  0.00    -0.200 F 
ATOM     78  C   UNL     1       6.566   9.071  11.243  1.00  0.00     0.200 A 
ATOM     79  F   UNL     1       7.600   9.182  13.362  1.00  0.00    -0.200 F 
ATOM     80  F   UNL     1       7.752   8.854  10.660  1.00  0.00    -0.200 F 
ENDBRANCH  56  70
BRANCH  57  81
ATOM     81  C   UNL     1      -4.732  11.534  16.713  1.00  0.00     0.064 A 
ATOM     82  C   UNL     1      -5.586  12.476  16.123  1.00  0.00     0.173 A 
ATOM     83  C   UNL     1      -5.185  10.871  17.863  1.00  0.00     0.173 A 
ATOM     84  F   UNL     1      -5.191  13.146  15.031  1.00  0.00    -0.203 F 
ATOM     85  C   UNL     1      -6.839  12.749  16.667  1.00  0.00     0.198 A 
ATOM     86  C   UNL     1      -6.449  11.124  18.389  1.00  0.00     0.198 A 
ATOM     87  F   UNL     1      -4.408   9.955  18.460  1.00  0.00    -0.203 F 
ATOM     88  F   UNL     1      -7.623  13.678  16.102  1.00  0.00    -0.200 F 
ATOM     89  C   UNL     1      -7.273  12.068  17.794  1.00  0.00     0.200 A 
ATOM     90  F   UNL     1      -6.872  10.450  19.467  1.00  0.00    -0.200 F 
ATOM     91  F   UNL     1      -8.484  12.321  18.308  1.00  0.00    -0.200 F 
ENDBRANCH  57  81
BRANCH  69  92
ATOM     92  C   UNL     1       1.184  15.152  15.922  1.00  0.00     0.064 A 
ATOM     93  C   UNL     1       1.463  15.431  17.269  1.00  0.00     0.173 A 
ATOM     94  C   UNL     1       1.389  16.175  14.984  1.00  0.00     0.173 A 
ATOM     95  F   UNL     1       1.267  14.492  18.207  1.00  0.00    -0.203 F 
ATOM     96  C   UNL     1       1.922  16.686  17.660  1.00  0.00     0.198 A 
ATOM     97  C   UNL     1       1.877  17.419  15.375  1.00  0.00     0.198 A 
ATOM     98  F   UNL     1       1.142  15.960  13.683  1.00  0.00    -0.203 F 
ATOM     99  F   UNL     1       2.150  16.939  18.956  1.00  0.00    -0.200 F 
ATOM    100  C   UNL     1       2.140  17.675  16.713  1.00  0.00     0.200 A 
ATOM    101  F   UNL     1       2.102  18.369  14.456  1.00  0.00    -0.200 F 
ATOM    102  F   UNL     1       2.601  18.875  17.089  1.00  0.00    -0.200 F 
ENDBRANCH  69  92
ENDBRANCH  43  44
ENDBRANCH  36  38
ENDBRANCH  35  36
ENDBRANCH  34  35
ENDBRANCH  33  34
ENDBRANCH  32  33
ENDBRANCH  31  32
ENDBRANCH  30  31
ENDBRANCH  29  30
ENDBRANCH   1  29
TORSDOF 24
