REMARK SMILES O=C(OCCOCCOCCOCCOC(=O)c1ccc(-c2c3nc(c(-c4c(F)c(F)c(F)c(F)c4F)c4ccc([nH]4)c(-c4c(F)c(F)c(F)c(F)c4F)c4nc(c(-c5c(F)c(F)c(F)c(F)c5F)c5ccc2[nH]5)C=C4)C=C3)cc1)C1=Cc2cc(Cl)cc(Cl)c2O[C@@H]1C(F)(F)F
REMARK SMILES IDX 10 1 9 2 8 3 7 4 6 5 5 6 4 7 3 8 2 9 1 10 81 11 82 12 92 13
REMARK SMILES IDX 83 14 91 15 84 16 90 17 85 18 88 19 86 20 87 21 89 22 93 23
REMARK SMILES IDX 94 24 95 25 96 26 11 27 12 28 13 29 14 30 15 31 16 32 17 33
REMARK SMILES IDX 18 34 19 35 80 36 20 37 79 38 21 39 22 40 23 41 73 42 24 43
REMARK SMILES IDX 78 44 72 45 74 46 25 47 77 48 71 49 70 50 26 52 58 53 38 54
REMARK SMILES IDX 57 55 39 56 42 57 56 58 75 59 40 60 41 61 55 63 76 64 43 65
REMARK SMILES IDX 27 66 28 67 36 68 29 69 30 70 34 71 37 72 31 73 32 74 35 75
REMARK SMILES IDX 33 76 59 77 60 78 68 79 61 80 62 81 66 82 69 83 63 84 64 85
REMARK SMILES IDX 67 86 65 87 44 88 45 89 53 90 46 91 47 92 51 93 54 94 48 95
REMARK SMILES IDX 49 96 52 97 50 98
REMARK H PARENT 74 51 42 62
REMARK Flexibility Score: inf
ROOT
ATOM      1  C   UNL     1       4.209  -0.027   3.620  1.00  0.00     0.188 C 
ENDROOT
BRANCH   1   2
ATOM      2  O   UNL     1       2.866  -0.223   3.990  1.00  0.00    -0.377 OA
BRANCH   2   3
ATOM      3  C   UNL     1       2.002  -0.221   2.878  1.00  0.00     0.188 C 
BRANCH   3   4
ATOM      4  C   UNL     1       2.294  -1.301   1.828  1.00  0.00     0.188 C 
BRANCH   4   5
ATOM      5  O   UNL     1       3.607  -1.513   1.210  1.00  0.00    -0.376 OA
BRANCH   5   6
ATOM      6  C   UNL     1       4.359  -0.877  -0.111  1.00  0.00     0.202 C 
BRANCH   6   7
ATOM      7  C   UNL     1       3.651   0.736  -1.402  1.00  0.00     0.261 C 
BRANCH   7   8
ATOM      8  O   UNL     1       2.752   0.594  -2.610  1.00  0.00    -0.460 OA
BRANCH   8   9
ATOM      9  C   UNL     1       2.947  -0.560  -3.259  1.00  0.00     0.338 C 
ATOM     10  O   UNL     1       2.289  -1.035  -4.149  1.00  0.00    -0.246 OA
BRANCH   9  11
ATOM     11  C   UNL     1       3.798  -1.184  -2.257  1.00  0.00     0.087 C 
ATOM     12  C   UNL     1       5.184  -0.689  -2.249  1.00  0.00     0.027 C 
ATOM     13  C   UNL     1       2.525  -0.897  -0.846  1.00  0.00     0.316 C 
ATOM     14  C   UNL     1       5.844   0.460  -1.025  1.00  0.00     0.020 A 
ATOM     15  O   UNL     1       3.157   0.452   0.412  1.00  0.00    -0.474 OA
ATOM     16  C   UNL     1       7.142   0.883  -1.135  1.00  0.00     0.032 A 
ATOM     17  C   UNL     1       4.856   1.134   0.233  1.00  0.00     0.146 A 
ATOM     18  C   UNL     1       7.547   1.833  -0.180  1.00  0.00     0.043 A 
ATOM     19  C   UNL     1       5.333   2.114   1.070  1.00  0.00     0.085 A 
ATOM     20  Cl  UNL     1       9.195   2.373  -0.270  1.00  0.00    -0.084 Cl
ATOM     21  C   UNL     1       6.701   2.419   0.850  1.00  0.00     0.045 A 
ATOM     22  Cl  UNL     1       4.425   3.010   2.197  1.00  0.00    -0.080 Cl
BRANCH  13  23
ATOM     23  C   UNL     1       2.206  -2.525  -0.680  1.00  0.00     0.430 C 
ATOM     24  F   UNL     1       1.308  -2.906   0.245  1.00  0.00    -0.167 F 
ATOM     25  F   UNL     1       1.653  -2.933  -1.865  1.00  0.00    -0.167 F 
ATOM     26  F   UNL     1       3.302  -3.312  -0.538  1.00  0.00    -0.167 F 
ENDBRANCH  13  23
ENDBRANCH   9  11
ENDBRANCH   8   9
ENDBRANCH   7   8
ENDBRANCH   6   7
ENDBRANCH   5   6
ENDBRANCH   4   5
ENDBRANCH   3   4
ENDBRANCH   2   3
ENDBRANCH   1   2
BRANCH   1  27
ATOM     27  C   UNL     1       5.161  -1.208   3.831  1.00  0.00     0.188 C 
BRANCH  27  28
ATOM     28  O   UNL     1       4.716  -2.529   4.079  1.00  0.00    -0.376 OA
BRANCH  28  29
ATOM     29  C   UNL     1       3.498  -2.792   4.749  1.00  0.00     0.202 C 
BRANCH  29  30
ATOM     30  C   UNL     1       3.237  -2.294   6.179  1.00  0.00     0.261 C 
BRANCH  30  31
ATOM     31  O   UNL     1       3.510  -0.910   6.430  1.00  0.00    -0.460 OA
BRANCH  31  32
ATOM     32  C   UNL     1       4.759  -0.640   6.862  1.00  0.00     0.338 C 
ATOM     33  O   UNL     1       5.628  -1.447   7.147  1.00  0.00    -0.246 OA
BRANCH  32  34
ATOM     34  C   UNL     1       5.021   0.814   6.785  1.00  0.00     0.060 A 
ATOM     35  C   UNL     1       6.239   1.227   6.223  1.00  0.00     0.016 A 
ATOM     36  C   UNL     1       4.127   1.756   7.298  1.00  0.00     0.016 A 
ATOM     37  C   UNL     1       6.611   2.564   6.248  1.00  0.00     0.010 A 
ATOM     38  C   UNL     1       4.519   3.097   7.367  1.00  0.00     0.010 A 
ATOM     39  C   UNL     1       5.793   3.484   6.908  1.00  0.00    -0.014 A 
BRANCH  39  40
ATOM     40  C   UNL     1       6.418   4.732   7.404  1.00  0.00     0.031 A 
ATOM     41  C   UNL     1       6.910   4.746   8.828  1.00  0.00     0.074 A 
ATOM     42  C   UNL     1       6.626   5.786   6.601  1.00  0.00     0.049 A 
ATOM     43  N   UNL     1       7.487   5.705   9.505  1.00  0.00    -0.248 NA
ATOM     44  C   UNL     1       6.718   3.504   9.594  1.00  0.00     0.031 C 
ATOM     45  C   UNL     1       6.263   5.858   5.188  1.00  0.00     0.029 A 
ATOM     46  N   UNL     1       7.199   7.003   6.869  1.00  0.00    -0.354 N 
ATOM     47  C   UNL     1       7.701   5.189  10.777  1.00  0.00     0.074 A 
ATOM     48  C   UNL     1       7.161   3.849  10.791  1.00  0.00     0.031 C 
ATOM     49  C   UNL     1       6.620   7.063   4.712  1.00  0.00     0.029 A 
ATOM     50  C   UNL     1       7.200   7.856   5.796  1.00  0.00     0.049 A 
ATOM     51  H   UNL     1       7.574   7.240   7.748  1.00  0.00     0.167 HD
ATOM     52  C   UNL     1       8.301   5.778  11.839  1.00  0.00     0.037 A 
ATOM     53  C   UNL     1       7.607   9.137   5.713  1.00  0.00     0.037 A 
ATOM     54  C   UNL     1       8.831   7.115  11.815  1.00  0.00     0.049 A 
ATOM     55  C   UNL     1       8.190   9.804   6.934  1.00  0.00     0.074 A 
ATOM     56  C   UNL     1       9.473   7.806  12.826  1.00  0.00     0.029 A 
ATOM     57  N   UNL     1       8.764   7.971  10.725  1.00  0.00    -0.354 N 
ATOM     58  N   UNL     1       8.405   9.312   8.131  1.00  0.00    -0.248 NA
ATOM     59  C   UNL     1       8.597  11.208   6.785  1.00  0.00     0.031 C 
ATOM     60  C   UNL     1       9.713   9.108  12.377  1.00  0.00     0.029 A 
ATOM     61  C   UNL     1       9.318   9.198  11.052  1.00  0.00     0.049 A 
ATOM     62  H   UNL     1       8.379   7.740   9.848  1.00  0.00     0.167 HD
ATOM     63  C   UNL     1       9.015  10.325   8.861  1.00  0.00     0.074 A 
ATOM     64  C   UNL     1       9.140  11.459   7.967  1.00  0.00     0.031 C 
ATOM     65  C   UNL     1       9.444  10.316  10.149  1.00  0.00     0.037 A 
BRANCH  52  66
ATOM     66  C   UNL     1       8.350   5.000  13.126  1.00  0.00     0.064 A 
ATOM     67  C   UNL     1       9.098   3.820  13.264  1.00  0.00     0.173 A 
ATOM     68  C   UNL     1       7.623   5.444  14.242  1.00  0.00     0.173 A 
ATOM     69  F   UNL     1       9.802   3.340  12.227  1.00  0.00    -0.203 F 
ATOM     70  C   UNL     1       9.075   3.090  14.451  1.00  0.00     0.198 A 
ATOM     71  C   UNL     1       7.640   4.737  15.441  1.00  0.00     0.198 A 
ATOM     72  F   UNL     1       6.894   6.568  14.172  1.00  0.00    -0.203 F 
ATOM     73  F   UNL     1       9.733   1.925  14.531  1.00  0.00    -0.200 F 
ATOM     74  C   UNL     1       8.352   3.552  15.539  1.00  0.00     0.200 A 
ATOM     75  F   UNL     1       6.956   5.197  16.497  1.00  0.00    -0.200 F 
ATOM     76  F   UNL     1       8.332   2.850  16.681  1.00  0.00    -0.200 F 
ENDBRANCH  52  66
BRANCH  53  77
ATOM     77  C   UNL     1       7.488   9.872   4.426  1.00  0.00     0.064 A 
ATOM     78  C   UNL     1       8.629  10.282   3.722  1.00  0.00     0.173 A 
ATOM     79  C   UNL     1       6.236  10.191   3.881  1.00  0.00     0.173 A 
ATOM     80  F   UNL     1       9.849  10.021   4.214  1.00  0.00    -0.203 F 
ATOM     81  C   UNL     1       8.522  11.002   2.534  1.00  0.00     0.198 A 
ATOM     82  C   UNL     1       6.130  10.880   2.674  1.00  0.00     0.198 A 
ATOM     83  F   UNL     1       5.112   9.823   4.513  1.00  0.00    -0.203 F 
ATOM     84  F   UNL     1       9.629  11.426   1.909  1.00  0.00    -0.200 F 
ATOM     85  C   UNL     1       7.273  11.293   2.007  1.00  0.00     0.200 A 
ATOM     86  F   UNL     1       4.922  11.144   2.160  1.00  0.00    -0.200 F 
ATOM     87  F   UNL     1       7.171  11.978   0.860  1.00  0.00    -0.200 F 
ENDBRANCH  53  77
BRANCH  65  88
ATOM     88  C   UNL     1      10.163  11.540  10.651  1.00  0.00     0.064 A 
ATOM     89  C   UNL     1       9.519  12.775  10.818  1.00  0.00     0.173 A 
ATOM     90  C   UNL     1      11.523  11.463  10.994  1.00  0.00     0.173 A 
ATOM     91  F   UNL     1       8.223  12.911  10.502  1.00  0.00    -0.203 F 
ATOM     92  C   UNL     1      10.221  13.895  11.260  1.00  0.00     0.198 A 
ATOM     93  C   UNL     1      12.209  12.572  11.480  1.00  0.00     0.198 A 
ATOM     94  F   UNL     1      12.189  10.304  10.868  1.00  0.00    -0.203 F 
ATOM     95  F   UNL     1       9.603  15.082  11.338  1.00  0.00    -0.200 F 
ATOM     96  C   UNL     1      11.562  13.791  11.598  1.00  0.00     0.200 A 
ATOM     97  F   UNL     1      13.498  12.460  11.830  1.00  0.00    -0.200 F 
ATOM     98  F   UNL     1      12.233  14.868  12.027  1.00  0.00    -0.200 F 
ENDBRANCH  65  88
ENDBRANCH  39  40
ENDBRANCH  32  34
ENDBRANCH  31  32
ENDBRANCH  30  31
ENDBRANCH  29  30
ENDBRANCH  28  29
ENDBRANCH  27  28
ENDBRANCH   1  27
TORSDOF 21
