REMARK SMILES CC(C)C[C@H](NC(=O)[C@H](Cc1ccccc1)NC(=O)CNC(=O)CNC(=O)OCc1ccccc1)C(=O)OCCOCCOCCOCCOC(=O)c1ccc(-c2c3nc(c(-c4c(F)c(F)c(F)c(F)c4F)c4ccc([nH]4)c(-c4c(F)c(F)c(F)c(F)c4F)c4nc(c(-c5c(F)c(F)c(F)c(F)c5F)c5ccc2[nH]5)C=C4)C=C3)cc1
REMARK SMILES IDX 40 1 39 2 38 3 36 4 37 5 5 6 4 7 2 8 1 9 3 10 6 11 7 12 8 14
REMARK SMILES IDX 9 15 17 16 18 17 19 19 20 20 21 21 22 22 23 24 24 25 25 26
REMARK SMILES IDX 26 27 27 29 28 30 29 31 30 32 31 33 35 34 32 35 34 36 33 37
REMARK SMILES IDX 10 38 11 39 12 40 16 41 13 42 15 43 14 44 41 45 42 46 43 47
REMARK SMILES IDX 44 48 45 49 46 50 47 51 48 52 49 53 50 54 51 55 52 56 53 57
REMARK SMILES IDX 54 58 115 59 55 60 114 61 56 62 57 63 58 64 108 65 59 66
REMARK SMILES IDX 113 67 107 68 109 69 60 70 112 71 106 72 105 73 61 75 93 76
REMARK SMILES IDX 73 77 92 78 74 79 77 80 91 81 110 82 75 83 76 84 90 86
REMARK SMILES IDX 111 87 78 88 62 89 63 90 71 91 64 92 65 93 69 94 72 95 66 96
REMARK SMILES IDX 67 97 70 98 68 99 94 100 95 101 103 102 96 103 97 104
REMARK SMILES IDX 101 105 104 106 98 107 99 108 102 109 100 110 79 111 80 112
REMARK SMILES IDX 88 113 81 114 82 115 86 116 89 117 83 118 84 119 87 120
REMARK SMILES IDX 85 121
REMARK H PARENT 6 13 17 18 21 23 25 28 109 74 77 85
REMARK Flexibility Score: inf
ROOT
ATOM      1  C   UNL     1      -0.255   5.794   4.381  1.00  0.00     0.202 C 
ENDROOT
BRANCH   1   2
ATOM      2  C   UNL     1      -1.487   4.864   4.365  1.00  0.00     0.261 C 
BRANCH   2   3
ATOM      3  O   UNL     1      -1.342   3.550   3.838  1.00  0.00    -0.462 OA
BRANCH   3   4
ATOM      4  C   UNL     1      -1.335   3.550   2.495  1.00  0.00     0.328 C 
ATOM      5  O   UNL     1      -1.509   4.560   1.817  1.00  0.00    -0.250 OA
BRANCH   4   6
ATOM      6  C   UNL     1      -1.126   2.167   1.865  1.00  0.00     0.192 C 
BRANCH   6   7
ATOM      7  C   UNL     1      -2.508   1.724   1.357  1.00  0.00     0.040 C 
BRANCH   7   8
ATOM      8  C   UNL     1      -3.221   2.685   0.393  1.00  0.00    -0.015 C 
ATOM      9  C   UNL     1      -2.356   3.180  -0.766  1.00  0.00     0.007 C 
ATOM     10  C   UNL     1      -4.468   1.991  -0.146  1.00  0.00     0.007 C 
ENDBRANCH   7   8
ENDBRANCH   6   7
BRANCH   6  11
ATOM     11  N   UNL     1      -0.576   1.025   2.608  1.00  0.00    -0.341 N 
ATOM     12  C   UNL     1      -0.098  -0.169   2.123  1.00  0.00     0.243 C 
ATOM     13  H   UNL     1      -0.546   1.129   3.587  1.00  0.00     0.164 HD
ATOM     14  O   UNL     1      -0.163  -1.132   2.901  1.00  0.00    -0.273 OA
BRANCH  12  15
ATOM     15  C   UNL     1       0.642  -0.348   0.728  1.00  0.00     0.175 C 
BRANCH  15  16
ATOM     16  N   UNL     1       0.843  -1.795   0.530  1.00  0.00    -0.342 N 
ATOM     17  C   UNL     1       1.604  -2.571  -0.275  1.00  0.00     0.240 C 
ATOM     18  H   UNL     1       0.283  -2.331   1.137  1.00  0.00     0.164 HD
ATOM     19  O   UNL     1       1.476  -3.796  -0.139  1.00  0.00    -0.273 OA
BRANCH  17  20
ATOM     20  C   UNL     1       2.675  -2.062  -1.254  1.00  0.00     0.216 C 
BRANCH  20  21
ATOM     21  N   UNL     1       2.730  -0.678  -1.671  1.00  0.00    -0.346 N 
ATOM     22  C   UNL     1       3.630   0.292  -1.346  1.00  0.00     0.239 C 
ATOM     23  H   UNL     1       2.010  -0.395  -2.280  1.00  0.00     0.164 HD
ATOM     24  O   UNL     1       3.451   1.428  -1.791  1.00  0.00    -0.273 OA
BRANCH  22  25
ATOM     25  C   UNL     1       4.763   0.000  -0.361  1.00  0.00     0.219 C 
BRANCH  25  26
ATOM     26  N   UNL     1       4.183  -0.037   0.962  1.00  0.00    -0.312 N 
ATOM     27  C   UNL     1       4.039  -1.139   1.747  1.00  0.00     0.407 C 
ATOM     28  H   UNL     1       3.861   0.817   1.331  1.00  0.00     0.167 HD
ATOM     29  O   UNL     1       3.222  -1.150   2.650  1.00  0.00    -0.225 OA
BRANCH  27  30
ATOM     30  O   UNL     1       4.914  -2.124   1.435  1.00  0.00    -0.445 OA
BRANCH  30  31
ATOM     31  C   UNL     1       4.874  -3.289   2.278  1.00  0.00     0.270 C 
BRANCH  31  32
ATOM     32  C   UNL     1       5.266  -3.062   3.725  1.00  0.00    -0.011 A 
ATOM     33  C   UNL     1       5.768  -1.837   4.192  1.00  0.00     0.007 A 
ATOM     34  C   UNL     1       5.063  -4.096   4.651  1.00  0.00     0.007 A 
ATOM     35  C   UNL     1       5.952  -1.612   5.555  1.00  0.00     0.000 A 
ATOM     36  C   UNL     1       5.283  -3.882   6.013  1.00  0.00     0.000 A 
ATOM     37  C   UNL     1       5.702  -2.632   6.467  1.00  0.00     0.000 A 
ENDBRANCH  31  32
ENDBRANCH  30  31
ENDBRANCH  27  30
ENDBRANCH  25  26
ENDBRANCH  22  25
ENDBRANCH  20  21
ENDBRANCH  17  20
ENDBRANCH  15  16
BRANCH  15  38
ATOM     38  C   UNL     1       0.087   0.397  -0.494  1.00  0.00     0.070 C 
BRANCH  38  39
ATOM     39  C   UNL     1      -0.580  -0.236  -1.686  1.00  0.00    -0.045 A 
ATOM     40  C   UNL     1      -1.284  -1.439  -1.645  1.00  0.00     0.004 A 
ATOM     41  C   UNL     1      -0.630   0.535  -2.865  1.00  0.00     0.004 A 
ATOM     42  C   UNL     1      -1.975  -1.887  -2.772  1.00  0.00     0.000 A 
ATOM     43  C   UNL     1      -1.352   0.106  -3.974  1.00  0.00     0.000 A 
ATOM     44  C   UNL     1      -2.016  -1.113  -3.931  1.00  0.00     0.000 A 
ENDBRANCH  38  39
ENDBRANCH  15  38
ENDBRANCH  12  15
ENDBRANCH   6  11
ENDBRANCH   4   6
ENDBRANCH   3   4
ENDBRANCH   2   3
ENDBRANCH   1   2
BRANCH   1  45
ATOM     45  O   UNL     1       0.979   5.649   3.697  1.00  0.00    -0.376 OA
BRANCH  45  46
ATOM     46  C   UNL     1       1.486   4.474   3.097  1.00  0.00     0.188 C 
BRANCH  46  47
ATOM     47  C   UNL     1       1.633   3.177   3.908  1.00  0.00     0.188 C 
BRANCH  47  48
ATOM     48  O   UNL     1       0.832   3.133   5.067  1.00  0.00    -0.377 OA
BRANCH  48  49
ATOM     49  C   UNL     1       1.389   3.639   6.273  1.00  0.00     0.188 C 
BRANCH  49  50
ATOM     50  C   UNL     1       2.473   4.739   6.220  1.00  0.00     0.188 C 
BRANCH  50  51
ATOM     51  O   UNL     1       3.483   4.522   5.248  1.00  0.00    -0.376 OA
BRANCH  51  52
ATOM     52  C   UNL     1       4.722   3.975   5.669  1.00  0.00     0.202 C 
BRANCH  52  53
ATOM     53  C   UNL     1       4.707   2.548   6.240  1.00  0.00     0.261 C 
BRANCH  53  54
ATOM     54  O   UNL     1       3.858   2.324   7.378  1.00  0.00    -0.460 OA
BRANCH  54  55
ATOM     55  C   UNL     1       4.087   3.052   8.491  1.00  0.00     0.338 C 
ATOM     56  O   UNL     1       4.990   3.847   8.675  1.00  0.00    -0.246 OA
BRANCH  55  57
ATOM     57  C   UNL     1       2.924   2.888   9.393  1.00  0.00     0.060 A 
ATOM     58  C   UNL     1       2.206   4.028   9.781  1.00  0.00     0.016 A 
ATOM     59  C   UNL     1       2.544   1.627   9.857  1.00  0.00     0.016 A 
ATOM     60  C   UNL     1       1.136   3.915  10.668  1.00  0.00     0.010 A 
ATOM     61  C   UNL     1       1.486   1.518  10.768  1.00  0.00     0.010 A 
ATOM     62  C   UNL     1       0.802   2.666  11.207  1.00  0.00    -0.014 A 
BRANCH  62  63
ATOM     63  C   UNL     1      -0.129   2.598  12.361  1.00  0.00     0.031 A 
ATOM     64  C   UNL     1       0.451   2.491  13.746  1.00  0.00     0.074 A 
ATOM     65  C   UNL     1      -1.461   2.687  12.193  1.00  0.00     0.049 A 
ATOM     66  N   UNL     1      -0.159   2.404  14.902  1.00  0.00    -0.248 NA
ATOM     67  C   UNL     1       1.920   2.484  13.841  1.00  0.00     0.031 C 
ATOM     68  C   UNL     1      -2.143   2.839  10.910  1.00  0.00     0.029 A 
ATOM     69  N   UNL     1      -2.479   2.658  13.115  1.00  0.00    -0.354 N 
ATOM     70  C   UNL     1       0.849   2.333  15.856  1.00  0.00     0.074 A 
ATOM     71  C   UNL     1       2.109   2.350  15.145  1.00  0.00     0.031 C 
ATOM     72  C   UNL     1      -3.470   2.878  11.124  1.00  0.00     0.029 A 
ATOM     73  C   UNL     1      -3.731   2.720  12.554  1.00  0.00     0.049 A 
ATOM     74  H   UNL     1      -2.326   2.598  14.085  1.00  0.00     0.167 HD
ATOM     75  C   UNL     1       0.734   2.273  17.204  1.00  0.00     0.037 A 
ATOM     76  C   UNL     1      -4.947   2.632  13.130  1.00  0.00     0.037 A 
ATOM     77  C   UNL     1      -0.520   2.252  17.910  1.00  0.00     0.049 A 
ATOM     78  C   UNL     1      -5.043   2.478  14.630  1.00  0.00     0.074 A 
ATOM     79  C   UNL     1      -0.740   2.196  19.276  1.00  0.00     0.029 A 
ATOM     80  N   UNL     1      -1.768   2.276  17.306  1.00  0.00    -0.354 N 
ATOM     81  N   UNL     1      -4.087   2.439  15.526  1.00  0.00    -0.248 NA
ATOM     82  C   UNL     1      -6.395   2.363  15.197  1.00  0.00     0.031 C 
ATOM     83  C   UNL     1      -2.119   2.126  19.495  1.00  0.00     0.029 A 
ATOM     84  C   UNL     1      -2.761   2.209  18.270  1.00  0.00     0.049 A 
ATOM     85  H   UNL     1      -1.925   2.333  16.336  1.00  0.00     0.167 HD
ATOM     86  C   UNL     1      -4.720   2.328  16.759  1.00  0.00     0.074 A 
ATOM     87  C   UNL     1      -6.143   2.334  16.497  1.00  0.00     0.031 C 
ATOM     88  C   UNL     1      -4.175   2.225  17.997  1.00  0.00     0.037 A 
BRANCH  75  89
ATOM     89  C   UNL     1       1.999   2.208  18.010  1.00  0.00     0.064 A 
ATOM     90  C   UNL     1       2.855   3.314  18.131  1.00  0.00     0.173 A 
ATOM     91  C   UNL     1       2.329   1.044  18.721  1.00  0.00     0.173 A 
ATOM     92  F   UNL     1       2.594   4.446  17.461  1.00  0.00    -0.203 F 
ATOM     93  C   UNL     1       4.001   3.250  18.920  1.00  0.00     0.198 A 
ATOM     94  C   UNL     1       3.458   0.994  19.534  1.00  0.00     0.198 A 
ATOM     95  F   UNL     1       1.544  -0.042  18.642  1.00  0.00    -0.203 F 
ATOM     96  F   UNL     1       4.824   4.306  18.990  1.00  0.00    -0.200 F 
ATOM     97  C   UNL     1       4.295   2.095  19.629  1.00  0.00     0.200 A 
ATOM     98  F   UNL     1       3.732  -0.118  20.229  1.00  0.00    -0.200 F 
ATOM     99  F   UNL     1       5.389   2.042  20.402  1.00  0.00    -0.200 F 
ENDBRANCH  75  89
BRANCH  76 100
ATOM    100  C   UNL     1      -6.181   2.658  12.297  1.00  0.00     0.064 A 
ATOM    101  C   UNL     1      -7.122   3.690  12.420  1.00  0.00     0.173 A 
ATOM    102  C   UNL     1      -6.476   1.614  11.406  1.00  0.00     0.173 A 
ATOM    103  F   UNL     1      -6.903   4.698  13.277  1.00  0.00    -0.203 F 
ATOM    104  C   UNL     1      -8.323   3.659  11.713  1.00  0.00     0.198 A 
ATOM    105  C   UNL     1      -7.660   1.604  10.672  1.00  0.00     0.198 A 
ATOM    106  F   UNL     1      -5.614   0.599  11.252  1.00  0.00    -0.203 F 
ATOM    107  F   UNL     1      -9.236   4.622  11.906  1.00  0.00    -0.200 F 
ATOM    108  C   UNL     1      -8.589   2.619  10.837  1.00  0.00     0.200 A 
ATOM    109  F   UNL     1      -7.905   0.603   9.816  1.00  0.00    -0.200 F 
ATOM    110  F   UNL     1      -9.747   2.586  10.163  1.00  0.00    -0.200 F 
ENDBRANCH  76 100
BRANCH  88 111
ATOM    111  C   UNL     1      -5.122   2.155  19.164  1.00  0.00     0.064 A 
ATOM    112  C   UNL     1      -5.947   1.042  19.385  1.00  0.00     0.173 A 
ATOM    113  C   UNL     1      -5.192   3.213  20.085  1.00  0.00     0.173 A 
ATOM    114  F   UNL     1      -5.928   0.007  18.530  1.00  0.00    -0.203 F 
ATOM    115  C   UNL     1      -6.838   1.010  20.454  1.00  0.00     0.198 A 
ATOM    116  C   UNL     1      -6.055   3.160  21.176  1.00  0.00     0.198 A 
ATOM    117  F   UNL     1      -4.418   4.297  19.932  1.00  0.00    -0.203 F 
ATOM    118  F   UNL     1      -7.665  -0.034  20.603  1.00  0.00    -0.200 F 
ATOM    119  C   UNL     1      -6.887   2.065  21.352  1.00  0.00     0.200 A 
ATOM    120  F   UNL     1      -6.087   4.173  22.053  1.00  0.00    -0.200 F 
ATOM    121  F   UNL     1      -7.745   2.032  22.382  1.00  0.00    -0.200 F 
ENDBRANCH  88 111
ENDBRANCH  62  63
ENDBRANCH  55  57
ENDBRANCH  54  55
ENDBRANCH  53  54
ENDBRANCH  52  53
ENDBRANCH  51  52
ENDBRANCH  50  51
ENDBRANCH  49  50
ENDBRANCH  48  49
ENDBRANCH  47  48
ENDBRANCH  46  47
ENDBRANCH  45  46
ENDBRANCH   1  45
TORSDOF 34
