REMARK SMILES COC(=O)C1=C(C)NC(C)=C(C(=O)OC)C1c1ccc(C(=O)OCCOCCOCCOCCOC(=O)c2ccc(-c3c4nc(c(-c5c(F)c(F)c(F)c(F)c5F)c5ccc([nH]5)c(-c5c(F)c(F)c(F)c(F)c5F)c5nc(c(-c6c(F)c(F)c(F)c(F)c6F)c6ccc3[nH]6)C=C5)C=C4)cc2)cc1
REMARK SMILES IDX 28 1 27 2 26 3 25 4 24 5 23 6 21 7 22 8 20 9 17 10 18 11
REMARK SMILES IDX 102 12 19 13 101 14 16 15 5 16 6 17 7 18 8 19 11 20 9 21
REMARK SMILES IDX 10 23 3 24 4 25 2 26 1 27 12 28 13 29 14 30 15 31 29 32
REMARK SMILES IDX 30 33 31 34 32 35 33 36 34 37 35 38 36 39 37 40 38 41 39 42
REMARK SMILES IDX 100 43 40 44 99 45 41 46 42 47 43 48 93 49 44 50 98 51 92 52
REMARK SMILES IDX 94 53 45 54 97 55 91 56 90 57 46 59 78 60 58 61 77 62 59 63
REMARK SMILES IDX 62 64 76 65 95 66 60 67 61 68 75 70 96 71 63 72 47 73 48 74
REMARK SMILES IDX 56 75 49 76 50 77 54 78 57 79 51 80 52 81 55 82 53 83 79 84
REMARK SMILES IDX 80 85 88 86 81 87 82 88 86 89 89 90 83 91 84 92 87 93 85 94
REMARK SMILES IDX 64 95 65 96 73 97 66 98 67 99 71 100 74 101 68 102 69 103
REMARK SMILES IDX 72 104 70 105
REMARK H PARENT 8 22 94 58 62 69
REMARK Flexibility Score: inf
ROOT
ATOM      1  C   UNL     1       6.422   4.095   5.378  1.00  0.00     0.188 C 
ENDROOT
BRANCH   1   2
ATOM      2  C   UNL     1       6.039   4.041   6.872  1.00  0.00     0.188 C 
BRANCH   2   3
ATOM      3  O   UNL     1       6.881   3.207   7.652  1.00  0.00    -0.376 OA
BRANCH   3   4
ATOM      4  C   UNL     1       6.336   2.020   8.204  1.00  0.00     0.202 C 
BRANCH   4   5
ATOM      5  C   UNL     1       5.892   0.922   7.226  1.00  0.00     0.261 C 
BRANCH   5   6
ATOM      6  O   UNL     1       5.078   1.378   6.141  1.00  0.00    -0.460 OA
BRANCH   6   7
ATOM      7  C   UNL     1       3.806   1.704   6.457  1.00  0.00     0.338 C 
ATOM      8  O   UNL     1       3.282   1.568   7.550  1.00  0.00    -0.246 OA
BRANCH   7   9
ATOM      9  C   UNL     1       3.197   2.450   5.327  1.00  0.00     0.060 A 
ATOM     10  C   UNL     1       1.943   3.916   3.277  1.00  0.00    -0.035 A 
ATOM     11  C   UNL     1       1.564   4.090   4.616  1.00  0.00     0.005 A 
ATOM     12  C   UNL     1       3.018   3.046   2.990  1.00  0.00     0.005 A 
ATOM     13  C   UNL     1       2.205   3.385   5.633  1.00  0.00     0.016 A 
ATOM     14  C   UNL     1       3.617   2.292   4.002  1.00  0.00     0.016 A 
BRANCH  10  15
ATOM     15  C   UNL     1       1.140   4.522   2.113  1.00  0.00     0.098 C 
ATOM     16  C   UNL     1       0.168   3.476   1.544  1.00  0.00     0.068 C 
ATOM     17  C   UNL     1      -1.111   3.775   1.236  1.00  0.00     0.023 C 
ATOM     18  C   UNL     1      -2.135   2.790   0.726  1.00  0.00     0.065 C 
ATOM     19  N   UNL     1      -1.571   5.058   1.437  1.00  0.00    -0.362 N 
ATOM     20  C   UNL     1       0.431   5.863   2.432  1.00  0.00     0.068 C 
ATOM     21  C   UNL     1      -0.866   6.062   2.081  1.00  0.00     0.023 C 
ATOM     22  H   UNL     1      -2.469   5.278   1.098  1.00  0.00     0.166 HD
ATOM     23  C   UNL     1      -1.699   7.296   2.347  1.00  0.00     0.065 C 
BRANCH  16  24
ATOM     24  C   UNL     1       0.575   2.062   1.432  1.00  0.00     0.336 C 
ATOM     25  O   UNL     1       0.550   1.272   2.363  1.00  0.00    -0.246 OA
BRANCH  24  26
ATOM     26  O   UNL     1       0.870   1.771   0.141  1.00  0.00    -0.466 OA
ATOM     27  C   UNL     1       1.058   0.375  -0.116  1.00  0.00     0.282 C 
ENDBRANCH  24  26
ENDBRANCH  16  24
BRANCH  20  28
ATOM     28  C   UNL     1       1.155   6.890   3.230  1.00  0.00     0.336 C 
ATOM     29  O   UNL     1       0.619   7.626   4.047  1.00  0.00    -0.246 OA
BRANCH  28  30
ATOM     30  O   UNL     1       2.494   6.832   3.014  1.00  0.00    -0.466 OA
ATOM     31  C   UNL     1       3.251   7.590   3.965  1.00  0.00     0.282 C 
ENDBRANCH  28  30
ENDBRANCH  20  28
ENDBRANCH  10  15
ENDBRANCH   7   9
ENDBRANCH   6   7
ENDBRANCH   5   6
ENDBRANCH   4   5
ENDBRANCH   3   4
ENDBRANCH   2   3
ENDBRANCH   1   2
BRANCH   1  32
ATOM     32  O   UNL     1       7.309   3.113   4.862  1.00  0.00    -0.377 OA
BRANCH  32  33
ATOM     33  C   UNL     1       8.543   2.857   5.532  1.00  0.00     0.188 C 
BRANCH  33  34
ATOM     34  C   UNL     1       9.219   3.919   6.433  1.00  0.00     0.188 C 
BRANCH  34  35
ATOM     35  O   UNL     1       8.652   5.214   6.351  1.00  0.00    -0.376 OA
BRANCH  35  36
ATOM     36  C   UNL     1       9.392   6.207   5.664  1.00  0.00     0.202 C 
BRANCH  36  37
ATOM     37  C   UNL     1       9.640   5.970   4.168  1.00  0.00     0.261 C 
BRANCH  37  38
ATOM     38  O   UNL     1      10.264   4.723   3.818  1.00  0.00    -0.460 OA
BRANCH  38  39
ATOM     39  C   UNL     1      11.535   4.521   4.227  1.00  0.00     0.338 C 
ATOM     40  O   UNL     1      12.239   5.287   4.862  1.00  0.00    -0.246 OA
BRANCH  39  41
ATOM     41  C   UNL     1      11.875   3.113   3.932  1.00  0.00     0.060 A 
ATOM     42  C   UNL     1      12.164   2.238   4.988  1.00  0.00     0.016 A 
ATOM     43  C   UNL     1      11.876   2.652   2.614  1.00  0.00     0.016 A 
ATOM     44  C   UNL     1      12.469   0.901   4.725  1.00  0.00     0.010 A 
ATOM     45  C   UNL     1      12.203   1.320   2.350  1.00  0.00     0.010 A 
ATOM     46  C   UNL     1      12.522   0.442   3.402  1.00  0.00    -0.014 A 
BRANCH  46  47
ATOM     47  C   UNL     1      13.058  -0.908   3.100  1.00  0.00     0.031 A 
ATOM     48  C   UNL     1      14.490  -1.033   2.661  1.00  0.00     0.074 A 
ATOM     49  C   UNL     1      12.288  -2.005   3.212  1.00  0.00     0.049 A 
ATOM     50  N   UNL     1      15.154  -2.092   2.274  1.00  0.00    -0.248 NA
ATOM     51  C   UNL     1      15.278   0.209   2.655  1.00  0.00     0.031 C 
ATOM     52  C   UNL     1      10.900  -2.021   3.664  1.00  0.00     0.029 A 
ATOM     53  N   UNL     1      12.569  -3.322   2.937  1.00  0.00    -0.354 N 
ATOM     54  C   UNL     1      16.434  -1.643   1.973  1.00  0.00     0.074 A 
ATOM     55  C   UNL     1      16.445  -0.213   2.192  1.00  0.00     0.031 C 
ATOM     56  C   UNL     1      10.442  -3.284   3.620  1.00  0.00     0.029 A 
ATOM     57  C   UNL     1      11.492  -4.159   3.100  1.00  0.00     0.049 A 
ATOM     58  H   UNL     1      13.457  -3.635   2.649  1.00  0.00     0.167 HD
ATOM     59  C   UNL     1      17.503  -2.361   1.556  1.00  0.00     0.037 A 
ATOM     60  C   UNL     1      11.364  -5.473   2.829  1.00  0.00     0.037 A 
ATOM     61  C   UNL     1      17.486  -3.783   1.333  1.00  0.00     0.049 A 
ATOM     62  C   UNL     1      12.546  -6.234   2.281  1.00  0.00     0.074 A 
ATOM     63  C   UNL     1      18.526  -4.607   0.937  1.00  0.00     0.029 A 
ATOM     64  N   UNL     1      16.367  -4.592   1.472  1.00  0.00    -0.354 N 
ATOM     65  N   UNL     1      13.763  -5.813   2.032  1.00  0.00    -0.248 NA
ATOM     66  C   UNL     1      12.335  -7.657   1.976  1.00  0.00     0.031 C 
ATOM     67  C   UNL     1      18.020  -5.900   0.772  1.00  0.00     0.029 A 
ATOM     68  C   UNL     1      16.682  -5.898   1.131  1.00  0.00     0.049 A 
ATOM     69  H   UNL     1      15.481  -4.283   1.770  1.00  0.00     0.167 HD
ATOM     70  C   UNL     1      14.465  -6.918   1.566  1.00  0.00     0.074 A 
ATOM     71  C   UNL     1      13.544  -8.035   1.587  1.00  0.00     0.031 C 
ATOM     72  C   UNL     1      15.755  -7.001   1.155  1.00  0.00     0.037 A 
BRANCH  59  73
ATOM     73  C   UNL     1      18.777  -1.615   1.281  1.00  0.00     0.064 A 
ATOM     74  C   UNL     1      19.539  -1.044   2.312  1.00  0.00     0.173 A 
ATOM     75  C   UNL     1      19.260  -1.500  -0.031  1.00  0.00     0.173 A 
ATOM     76  F   UNL     1      19.116  -1.113   3.583  1.00  0.00    -0.203 F 
ATOM     77  C   UNL     1      20.723  -0.363   2.036  1.00  0.00     0.198 A 
ATOM     78  C   UNL     1      20.460  -0.848  -0.300  1.00  0.00     0.198 A 
ATOM     79  F   UNL     1      18.573  -2.030  -1.054  1.00  0.00    -0.203 F 
ATOM     80  F   UNL     1      21.408   0.216   3.031  1.00  0.00    -0.200 F 
ATOM     81  C   UNL     1      21.186  -0.273   0.732  1.00  0.00     0.200 A 
ATOM     82  F   UNL     1      20.914  -0.774  -1.559  1.00  0.00    -0.200 F 
ATOM     83  F   UNL     1      22.330   0.374   0.469  1.00  0.00    -0.200 F 
ENDBRANCH  59  73
BRANCH  60  84
ATOM     84  C   UNL     1      10.060  -6.155   3.045  1.00  0.00     0.064 A 
ATOM     85  C   UNL     1       9.915  -7.155   4.018  1.00  0.00     0.173 A 
ATOM     86  C   UNL     1       8.938  -5.845   2.261  1.00  0.00     0.173 A 
ATOM     87  F   UNL     1      10.966  -7.511   4.772  1.00  0.00    -0.203 F 
ATOM     88  C   UNL     1       8.707  -7.830   4.184  1.00  0.00     0.198 A 
ATOM     89  C   UNL     1       7.721  -6.497   2.451  1.00  0.00     0.198 A 
ATOM     90  F   UNL     1       9.022  -4.902   1.311  1.00  0.00    -0.203 F 
ATOM     91  F   UNL     1       8.614  -8.819   5.084  1.00  0.00    -0.200 F 
ATOM     92  C   UNL     1       7.610  -7.496   3.406  1.00  0.00     0.200 A 
ATOM     93  F   UNL     1       6.661  -6.163   1.704  1.00  0.00    -0.200 F 
ATOM     94  F   UNL     1       6.448  -8.145   3.568  1.00  0.00    -0.200 F 
ENDBRANCH  60  84
BRANCH  72  95
ATOM     95  C   UNL     1      16.258  -8.349   0.717  1.00  0.00     0.064 A 
ATOM     96  C   UNL     1      15.823  -8.948  -0.474  1.00  0.00     0.173 A 
ATOM     97  C   UNL     1      17.221  -9.031   1.478  1.00  0.00     0.173 A 
ATOM     98  F   UNL     1      14.894  -8.346  -1.233  1.00  0.00    -0.203 F 
ATOM     99  C   UNL     1      16.310 -10.191  -0.872  1.00  0.00     0.198 A 
ATOM    100  C   UNL     1      17.733 -10.256   1.059  1.00  0.00     0.198 A 
ATOM    101  F   UNL     1      17.680  -8.500   2.622  1.00  0.00    -0.203 F 
ATOM    102  F   UNL     1      15.839 -10.768  -1.986  1.00  0.00    -0.200 F 
ATOM    103  C   UNL     1      17.270 -10.840  -0.110  1.00  0.00     0.200 A 
ATOM    104  F   UNL     1      18.674 -10.872   1.788  1.00  0.00    -0.200 F 
ATOM    105  F   UNL     1      17.745 -12.031  -0.499  1.00  0.00    -0.200 F 
ENDBRANCH  72  95
ENDBRANCH  46  47
ENDBRANCH  39  41
ENDBRANCH  38  39
ENDBRANCH  37  38
ENDBRANCH  36  37
ENDBRANCH  35  36
ENDBRANCH  34  35
ENDBRANCH  33  34
ENDBRANCH  32  33
ENDBRANCH   1  32
TORSDOF 25
