REMARK SMILES O=C(OCCOCCOCCOCCOC(=O)c1cc(S(=O)(=O)N2CCCCC2)c(Cl)cc1Cl)c1ccc(-c2c3nc(c(-c4c(F)c(F)c(F)c(F)c4F)c4ccc([nH]4)c(-c4c(F)c(F)c(F)c(F)c4F)c4nc(c(-c5c(F)c(F)c(F)c(F)c5F)c5ccc2[nH]5)C=C4)C=C3)cc1
REMARK SMILES IDX 9 1 8 2 7 3 6 4 5 5 4 6 3 7 2 8 1 9 35 10 36 11 97 12 37 13
REMARK SMILES IDX 96 14 38 15 39 16 40 17 90 18 41 19 95 20 89 21 91 22 42 23
REMARK SMILES IDX 94 24 88 25 87 26 43 28 75 29 55 30 74 31 56 32 59 33 73 34
REMARK SMILES IDX 92 35 57 36 58 37 72 39 93 40 60 41 44 42 45 43 53 44 46 45
REMARK SMILES IDX 47 46 51 47 54 48 48 49 49 50 52 51 50 52 76 53 77 54 85 55
REMARK SMILES IDX 78 56 79 57 83 58 86 59 80 60 81 61 84 62 82 63 61 64 62 65
REMARK SMILES IDX 70 66 63 67 64 68 68 69 71 70 65 71 66 72 69 73 67 74 10 75
REMARK SMILES IDX 11 76 12 77 13 78 14 79 15 80 16 81 17 82 18 83 19 84 33 85
REMARK SMILES IDX 20 86 32 87 34 88 30 89 31 90 21 91 22 92 23 93 24 94 25 95
REMARK SMILES IDX 29 96 26 97 28 98 27 99
REMARK H PARENT 91 27 59 38
REMARK Flexibility Score: inf
ROOT
ATOM      1  O   UNL     1       2.540  -3.811  -1.079  1.00  0.00    -0.377 OA
ENDROOT
BRANCH   1   2
ATOM      2  C   UNL     1       1.812  -2.590  -0.966  1.00  0.00     0.188 C 
BRANCH   2   3
ATOM      3  C   UNL     1       2.290  -1.652   0.140  1.00  0.00     0.188 C 
BRANCH   3   4
ATOM      4  O   UNL     1       3.598  -1.147  -0.149  1.00  0.00    -0.376 OA
BRANCH   4   5
ATOM      5  C   UNL     1       4.485  -1.091   0.969  1.00  0.00     0.202 C 
BRANCH   5   6
ATOM      6  C   UNL     1       4.355   0.185   1.799  1.00  0.00     0.261 C 
BRANCH   6   7
ATOM      7  O   UNL     1       3.000   0.643   1.881  1.00  0.00    -0.460 OA
BRANCH   7   8
ATOM      8  C   UNL     1       2.346   1.472   1.032  1.00  0.00     0.338 C 
ATOM      9  O   UNL     1       1.172   1.743   1.288  1.00  0.00    -0.246 OA
BRANCH   8  10
ATOM     10  C   UNL     1       2.948   2.103  -0.189  1.00  0.00     0.060 A 
ATOM     11  C   UNL     1       4.069   1.654  -0.898  1.00  0.00     0.016 A 
ATOM     12  C   UNL     1       2.278   3.235  -0.688  1.00  0.00     0.016 A 
ATOM     13  C   UNL     1       4.548   2.324  -2.019  1.00  0.00     0.010 A 
ATOM     14  C   UNL     1       2.748   3.918  -1.810  1.00  0.00     0.010 A 
ATOM     15  C   UNL     1       3.910   3.480  -2.451  1.00  0.00    -0.014 A 
BRANCH  15  16
ATOM     16  C   UNL     1       4.614   4.361  -3.394  1.00  0.00     0.031 A 
ATOM     17  C   UNL     1       5.355   5.521  -2.808  1.00  0.00     0.074 A 
ATOM     18  C   UNL     1       4.641   4.088  -4.706  1.00  0.00     0.049 A 
ATOM     19  N   UNL     1       5.899   6.549  -3.396  1.00  0.00    -0.248 NA
ATOM     20  C   UNL     1       5.500   5.516  -1.341  1.00  0.00     0.031 C 
ATOM     21  C   UNL     1       4.070   2.897  -5.332  1.00  0.00     0.029 A 
ATOM     22  N   UNL     1       5.170   4.801  -5.748  1.00  0.00    -0.354 N 
ATOM     23  C   UNL     1       6.402   7.337  -2.369  1.00  0.00     0.074 A 
ATOM     24  C   UNL     1       6.113   6.667  -1.124  1.00  0.00     0.031 C 
ATOM     25  C   UNL     1       4.259   2.973  -6.660  1.00  0.00     0.029 A 
ATOM     26  C   UNL     1       4.896   4.249  -6.974  1.00  0.00     0.049 A 
ATOM     27  H   UNL     1       5.693   5.627  -5.630  1.00  0.00     0.167 HD
ATOM     28  C   UNL     1       7.029   8.531  -2.474  1.00  0.00     0.037 A 
ATOM     29  C   UNL     1       5.090   4.763  -8.203  1.00  0.00     0.037 A 
ATOM     30  C   UNL     1       7.285   9.161  -3.738  1.00  0.00     0.049 A 
ATOM     31  C   UNL     1       5.713   6.131  -8.303  1.00  0.00     0.074 A 
ATOM     32  C   UNL     1       7.855  10.391  -4.000  1.00  0.00     0.029 A 
ATOM     33  N   UNL     1       6.972   8.588  -4.967  1.00  0.00    -0.354 N 
ATOM     34  N   UNL     1       6.120   6.924  -7.338  1.00  0.00    -0.248 NA
ATOM     35  C   UNL     1       5.890   6.686  -9.650  1.00  0.00     0.031 C 
ATOM     36  C   UNL     1       7.841  10.582  -5.386  1.00  0.00     0.029 A 
ATOM     37  C   UNL     1       7.321   9.445  -5.992  1.00  0.00     0.049 A 
ATOM     38  H   UNL     1       6.562   7.701  -5.088  1.00  0.00     0.167 HD
ATOM     39  C   UNL     1       6.623   8.060  -7.956  1.00  0.00     0.074 A 
ATOM     40  C   UNL     1       6.469   7.850  -9.384  1.00  0.00     0.031 C 
ATOM     41  C   UNL     1       7.163   9.174  -7.402  1.00  0.00     0.037 A 
BRANCH  28  42
ATOM     42  C   UNL     1       7.358   9.238  -1.191  1.00  0.00     0.064 A 
ATOM     43  C   UNL     1       8.329   8.757  -0.298  1.00  0.00     0.173 A 
ATOM     44  C   UNL     1       6.622  10.369  -0.807  1.00  0.00     0.173 A 
ATOM     45  F   UNL     1       9.039   7.659  -0.599  1.00  0.00    -0.203 F 
ATOM     46  C   UNL     1       8.512   9.349   0.951  1.00  0.00     0.198 A 
ATOM     47  C   UNL     1       6.831  10.979   0.427  1.00  0.00     0.198 A 
ATOM     48  F   UNL     1       5.676  10.868  -1.617  1.00  0.00    -0.203 F 
ATOM     49  F   UNL     1       9.381   8.818   1.822  1.00  0.00    -0.200 F 
ATOM     50  C   UNL     1       7.763  10.459   1.312  1.00  0.00     0.200 A 
ATOM     51  F   UNL     1       6.108  12.053   0.773  1.00  0.00    -0.200 F 
ATOM     52  F   UNL     1       7.924  11.014   2.521  1.00  0.00    -0.200 F 
ENDBRANCH  28  42
BRANCH  29  53
ATOM     53  C   UNL     1       4.636   4.003  -9.398  1.00  0.00     0.064 A 
ATOM     54  C   UNL     1       5.551   3.457 -10.307  1.00  0.00     0.173 A 
ATOM     55  C   UNL     1       3.271   3.764  -9.628  1.00  0.00     0.173 A 
ATOM     56  F   UNL     1       6.865   3.673 -10.146  1.00  0.00    -0.203 F 
ATOM     57  C   UNL     1       5.120   2.699 -11.396  1.00  0.00     0.198 A 
ATOM     58  C   UNL     1       2.843   2.983 -10.700  1.00  0.00     0.198 A 
ATOM     59  F   UNL     1       2.351   4.265  -8.791  1.00  0.00    -0.203 F 
ATOM     60  F   UNL     1       6.016   2.207 -12.263  1.00  0.00    -0.200 F 
ATOM     61  C   UNL     1       3.768   2.453 -11.585  1.00  0.00     0.200 A 
ATOM     62  F   UNL     1       1.537   2.736 -10.868  1.00  0.00    -0.200 F 
ATOM     63  F   UNL     1       3.357   1.708 -12.620  1.00  0.00    -0.200 F 
ENDBRANCH  29  53
BRANCH  41  64
ATOM     64  C   UNL     1       7.679  10.223  -8.337  1.00  0.00     0.064 A 
ATOM     65  C   UNL     1       6.815  11.094  -9.014  1.00  0.00     0.173 A 
ATOM     66  C   UNL     1       9.062  10.424  -8.466  1.00  0.00     0.173 A 
ATOM     67  F   UNL     1       5.486  10.931  -8.927  1.00  0.00    -0.203 F 
ATOM     68  C   UNL     1       7.320  12.131  -9.792  1.00  0.00     0.198 A 
ATOM     69  C   UNL     1       9.561  11.478  -9.221  1.00  0.00     0.198 A 
ATOM     70  F   UNL     1       9.924   9.619  -7.827  1.00  0.00    -0.203 F 
ATOM     71  F   UNL     1       6.480  12.943 -10.449  1.00  0.00    -0.200 F 
ATOM     72  C   UNL     1       8.691  12.330  -9.884  1.00  0.00     0.200 A 
ATOM     73  F   UNL     1      10.884  11.679  -9.295  1.00  0.00    -0.200 F 
ATOM     74  F   UNL     1       9.173  13.346 -10.613  1.00  0.00    -0.200 F 
ENDBRANCH  41  64
ENDBRANCH  15  16
ENDBRANCH   8  10
ENDBRANCH   7   8
ENDBRANCH   6   7
ENDBRANCH   5   6
ENDBRANCH   4   5
ENDBRANCH   3   4
ENDBRANCH   2   3
ENDBRANCH   1   2
BRANCH   1  75
ATOM     75  C   UNL     1       3.954  -3.710  -1.185  1.00  0.00     0.188 C 
BRANCH  75  76
ATOM     76  C   UNL     1       4.554  -2.844  -2.314  1.00  0.00     0.188 C 
BRANCH  76  77
ATOM     77  O   UNL     1       3.612  -2.335  -3.246  1.00  0.00    -0.376 OA
BRANCH  77  78
ATOM     78  C   UNL     1       3.600  -2.986  -4.513  1.00  0.00     0.202 C 
BRANCH  78  79
ATOM     79  C   UNL     1       3.023  -4.407  -4.499  1.00  0.00     0.261 C 
BRANCH  79  80
ATOM     80  O   UNL     1       3.746  -5.336  -3.667  1.00  0.00    -0.460 OA
BRANCH  80  81
ATOM     81  C   UNL     1       4.970  -5.758  -4.061  1.00  0.00     0.339 C 
ATOM     82  O   UNL     1       5.534  -5.499  -5.108  1.00  0.00    -0.246 OA
BRANCH  81  83
ATOM     83  C   UNL     1       5.562  -6.440  -2.882  1.00  0.00     0.080 A 
ATOM     84  C   UNL     1       4.847  -7.480  -2.264  1.00  0.00     0.040 A 
ATOM     85  C   UNL     1       6.717  -5.951  -2.268  1.00  0.00     0.057 A 
ATOM     86  C   UNL     1       5.236  -7.986  -1.004  1.00  0.00     0.102 A 
ATOM     87  C   UNL     1       7.053  -6.397  -0.986  1.00  0.00     0.043 A 
ATOM     88  Cl  UNL     1       7.732  -4.740  -2.960  1.00  0.00    -0.083 Cl
ATOM     89  C   UNL     1       6.295  -7.379  -0.332  1.00  0.00     0.062 A 
ATOM     90  Cl  UNL     1       6.744  -7.659   1.303  1.00  0.00    -0.083 Cl
BRANCH  86  91
ATOM     91  S   UNL     1       4.336  -9.419  -0.440  1.00  0.00     0.244 S 
ATOM     92  O   UNL     1       3.294  -8.934   0.436  1.00  0.00    -0.207 OA
ATOM     93  O   UNL     1       4.015 -10.155  -1.649  1.00  0.00    -0.207 OA
BRANCH  91  94
ATOM     94  N   UNL     1       5.389 -10.419   0.434  1.00  0.00    -0.198 NA
ATOM     95  C   UNL     1       6.639 -10.856  -0.212  1.00  0.00     0.102 C 
ATOM     96  C   UNL     1       5.176 -10.503   1.895  1.00  0.00     0.102 C 
ATOM     97  C   UNL     1       7.447 -11.844   0.611  1.00  0.00     0.017 C 
ATOM     98  C   UNL     1       6.146 -11.402   2.647  1.00  0.00     0.017 C 
ATOM     99  C   UNL     1       7.543 -11.402   2.058  1.00  0.00     0.003 C 
ENDBRANCH  91  94
ENDBRANCH  86  91
ENDBRANCH  81  83
ENDBRANCH  80  81
ENDBRANCH  79  80
ENDBRANCH  78  79
ENDBRANCH  77  78
ENDBRANCH  76  77
ENDBRANCH  75  76
ENDBRANCH   1  75
TORSDOF 22
