REMARK SMILES O=C(OCCOCCOCCOCCOC(=O)[C@H]1CCCN(C(=O)C2CCN(S(=O)(=O)c3ccccc3)CC2)C1)c1ccc(-c2c3nc(c(-c4c(F)c(F)c(F)c(F)c4F)c4ccc([nH]4)c(-c4c(F)c(F)c(F)c(F)c4F)c4nc(c(-c5c(F)c(F)c(F)c(F)c5F)c5ccc2[nH]5)C=C4)C=C3)cc1
REMARK SMILES IDX 10 1 9 2 8 3 7 4 6 5 5 6 4 7 3 8 2 9 1 10 41 11 42 12 103 13
REMARK SMILES IDX 43 14 102 15 44 16 45 17 46 18 96 19 47 20 101 21 95 22
REMARK SMILES IDX 97 23 48 24 100 25 94 26 93 27 49 29 81 30 61 31 80 32 62 33
REMARK SMILES IDX 65 34 79 35 98 36 63 37 64 38 78 40 99 41 66 42 50 43 51 44
REMARK SMILES IDX 59 45 52 46 53 47 57 48 60 49 54 50 55 51 58 52 56 53 82 54
REMARK SMILES IDX 83 55 91 56 84 57 85 58 89 59 92 60 86 61 87 62 90 63 88 64
REMARK SMILES IDX 67 65 68 66 76 67 69 68 70 69 74 70 77 71 71 72 72 73 75 74
REMARK SMILES IDX 73 75 11 76 12 77 13 78 14 79 15 80 16 81 17 82 18 83 19 84
REMARK SMILES IDX 40 85 20 86 22 87 21 88 23 89 24 90 25 91 26 92 39 93 27 94
REMARK SMILES IDX 38 95 28 96 29 97 30 98 31 99 32 100 33 101 37 102 34 103
REMARK SMILES IDX 36 104 35 105
REMARK H PARENT 97 28 65 39
REMARK Flexibility Score: inf
ROOT
ATOM      1  C   UNL     1       6.280  -1.157   7.355  1.00  0.00     0.188 C 
ENDROOT
BRANCH   1   2
ATOM      2  O   UNL     1       7.379  -1.983   6.980  1.00  0.00    -0.377 OA
BRANCH   2   3
ATOM      3  C   UNL     1       8.469  -2.063   7.896  1.00  0.00     0.188 C 
BRANCH   3   4
ATOM      4  C   UNL     1       9.075  -0.708   8.236  1.00  0.00     0.188 C 
BRANCH   4   5
ATOM      5  O   UNL     1       8.103   0.071   8.933  1.00  0.00    -0.376 OA
BRANCH   5   6
ATOM      6  C   UNL     1       8.136   1.468   8.655  1.00  0.00     0.202 C 
BRANCH   6   7
ATOM      7  C   UNL     1       9.149   2.225   9.511  1.00  0.00     0.261 C 
BRANCH   7   8
ATOM      8  O   UNL     1      10.231   1.396   9.961  1.00  0.00    -0.460 OA
BRANCH   8   9
ATOM      9  C   UNL     1      10.306   0.656  11.094  1.00  0.00     0.338 C 
ATOM     10  O   UNL     1      11.360   0.069  11.338  1.00  0.00    -0.246 OA
BRANCH   9  11
ATOM     11  C   UNL     1       9.201   0.518  12.095  1.00  0.00     0.060 A 
ATOM     12  C   UNL     1       7.837   0.547  11.806  1.00  0.00     0.016 A 
ATOM     13  C   UNL     1       9.579   0.217  13.415  1.00  0.00     0.016 A 
ATOM     14  C   UNL     1       6.873   0.303  12.774  1.00  0.00     0.010 A 
ATOM     15  C   UNL     1       8.619  -0.040  14.400  1.00  0.00     0.010 A 
ATOM     16  C   UNL     1       7.260   0.009  14.074  1.00  0.00    -0.014 A 
BRANCH  16  17
ATOM     17  C   UNL     1       6.207  -0.098  15.095  1.00  0.00     0.031 A 
ATOM     18  C   UNL     1       6.002   1.073  16.002  1.00  0.00     0.074 A 
ATOM     19  C   UNL     1       5.387  -1.163  15.110  1.00  0.00     0.049 A 
ATOM     20  N   UNL     1       5.239   1.185  17.053  1.00  0.00    -0.248 NA
ATOM     21  C   UNL     1       6.755   2.296  15.668  1.00  0.00     0.031 C 
ATOM     22  C   UNL     1       5.424  -2.271  14.152  1.00  0.00     0.029 A 
ATOM     23  N   UNL     1       4.353  -1.483  15.949  1.00  0.00    -0.354 N 
ATOM     24  C   UNL     1       5.460   2.467  17.535  1.00  0.00     0.074 A 
ATOM     25  C   UNL     1       6.403   3.110  16.652  1.00  0.00     0.031 C 
ATOM     26  C   UNL     1       4.459  -3.152  14.462  1.00  0.00     0.029 A 
ATOM     27  C   UNL     1       3.797  -2.712  15.685  1.00  0.00     0.049 A 
ATOM     28  H   UNL     1       4.038  -0.891  16.670  1.00  0.00     0.167 HD
ATOM     29  C   UNL     1       4.928   3.032  18.641  1.00  0.00     0.037 A 
ATOM     30  C   UNL     1       2.903  -3.418  16.402  1.00  0.00     0.037 A 
ATOM     31  C   UNL     1       3.976   2.359  19.479  1.00  0.00     0.049 A 
ATOM     32  C   UNL     1       2.403  -2.805  17.686  1.00  0.00     0.074 A 
ATOM     33  C   UNL     1       3.381   2.801  20.644  1.00  0.00     0.029 A 
ATOM     34  N   UNL     1       3.484   1.085  19.227  1.00  0.00    -0.354 N 
ATOM     35  N   UNL     1       2.655  -1.617  18.187  1.00  0.00    -0.248 NA
ATOM     36  C   UNL     1       1.528  -3.635  18.522  1.00  0.00     0.031 C 
ATOM     37  C   UNL     1       2.566   1.770  21.124  1.00  0.00     0.029 A 
ATOM     38  C   UNL     1       2.618   0.706  20.235  1.00  0.00     0.049 A 
ATOM     39  H   UNL     1       3.717   0.533  18.445  1.00  0.00     0.167 HD
ATOM     40  C   UNL     1       1.973  -1.556  19.392  1.00  0.00     0.074 A 
ATOM     41  C   UNL     1       1.267  -2.815  19.531  1.00  0.00     0.031 C 
ATOM     42  C   UNL     1       1.939  -0.562  20.315  1.00  0.00     0.037 A 
BRANCH  29  43
ATOM     43  C   UNL     1       5.436   4.383  19.039  1.00  0.00     0.064 A 
ATOM     44  C   UNL     1       5.077   5.553  18.356  1.00  0.00     0.173 A 
ATOM     45  C   UNL     1       6.317   4.500  20.125  1.00  0.00     0.173 A 
ATOM     46  F   UNL     1       4.265   5.490  17.290  1.00  0.00    -0.203 F 
ATOM     47  C   UNL     1       5.593   6.790  18.738  1.00  0.00     0.198 A 
ATOM     48  C   UNL     1       6.814   5.739  20.517  1.00  0.00     0.198 A 
ATOM     49  F   UNL     1       6.704   3.408  20.802  1.00  0.00    -0.203 F 
ATOM     50  F   UNL     1       5.272   7.891  18.044  1.00  0.00    -0.200 F 
ATOM     51  C   UNL     1       6.455   6.883  19.821  1.00  0.00     0.200 A 
ATOM     52  F   UNL     1       7.647   5.825  21.563  1.00  0.00    -0.200 F 
ATOM     53  F   UNL     1       6.951   8.073  20.185  1.00  0.00    -0.200 F 
ENDBRANCH  29  43
BRANCH  30  54
ATOM     54  C   UNL     1       2.517  -4.799  15.998  1.00  0.00     0.064 A 
ATOM     55  C   UNL     1       1.191  -5.131  15.689  1.00  0.00     0.173 A 
ATOM     56  C   UNL     1       3.466  -5.835  15.955  1.00  0.00     0.173 A 
ATOM     57  F   UNL     1       0.237  -4.189  15.738  1.00  0.00    -0.203 F 
ATOM     58  C   UNL     1       0.826  -6.441  15.379  1.00  0.00     0.198 A 
ATOM     59  C   UNL     1       3.108  -7.136  15.609  1.00  0.00     0.198 A 
ATOM     60  F   UNL     1       4.751  -5.584  16.249  1.00  0.00    -0.203 F 
ATOM     61  F   UNL     1      -0.460  -6.739  15.146  1.00  0.00    -0.200 F 
ATOM     62  C   UNL     1       1.785  -7.442  15.334  1.00  0.00     0.200 A 
ATOM     63  F   UNL     1       4.043  -8.095  15.554  1.00  0.00    -0.200 F 
ATOM     64  F   UNL     1       1.433  -8.701  15.039  1.00  0.00    -0.200 F 
ENDBRANCH  30  54
BRANCH  42  65
ATOM     65  C   UNL     1       1.113  -0.807  21.538  1.00  0.00     0.064 A 
ATOM     66  C   UNL     1       1.556  -1.666  22.553  1.00  0.00     0.173 A 
ATOM     67  C   UNL     1      -0.094  -0.119  21.728  1.00  0.00     0.173 A 
ATOM     68  F   UNL     1       2.697  -2.356  22.403  1.00  0.00    -0.203 F 
ATOM     69  C   UNL     1       0.811  -1.837  23.714  1.00  0.00     0.198 A 
ATOM     70  C   UNL     1      -0.821  -0.270  22.903  1.00  0.00     0.198 A 
ATOM     71  F   UNL     1      -0.551   0.719  20.785  1.00  0.00    -0.203 F 
ATOM     72  F   UNL     1       1.233  -2.689  24.659  1.00  0.00    -0.200 F 
ATOM     73  C   UNL     1      -0.370  -1.131  23.893  1.00  0.00     0.200 A 
ATOM     74  F   UNL     1      -1.953   0.424  23.081  1.00  0.00    -0.200 F 
ATOM     75  F   UNL     1      -1.077  -1.283  25.020  1.00  0.00    -0.200 F 
ENDBRANCH  42  65
ENDBRANCH  16  17
ENDBRANCH   9  11
ENDBRANCH   8   9
ENDBRANCH   7   8
ENDBRANCH   6   7
ENDBRANCH   5   6
ENDBRANCH   4   5
ENDBRANCH   3   4
ENDBRANCH   2   3
ENDBRANCH   1   2
BRANCH   1  76
ATOM     76  C   UNL     1       5.446  -1.537   8.587  1.00  0.00     0.188 C 
BRANCH  76  77
ATOM     77  O   UNL     1       6.002  -2.604   9.338  1.00  0.00    -0.376 OA
BRANCH  77  78
ATOM     78  C   UNL     1       5.320  -3.845   9.215  1.00  0.00     0.202 C 
BRANCH  78  79
ATOM     79  C   UNL     1       5.269  -4.531   7.832  1.00  0.00     0.261 C 
BRANCH  79  80
ATOM     80  O   UNL     1       5.134  -3.634   6.709  1.00  0.00    -0.463 OA
BRANCH  80  81
ATOM     81  C   UNL     1       4.130  -3.820   5.821  1.00  0.00     0.310 C 
ATOM     82  O   UNL     1       3.249  -4.662   5.948  1.00  0.00    -0.252 OA
BRANCH  81  83
ATOM     83  C   UNL     1       4.091  -2.748   4.729  1.00  0.00     0.119 C 
ATOM     84  C   UNL     1       3.291  -1.561   5.289  1.00  0.00     0.019 C 
ATOM     85  C   UNL     1       5.450  -2.387   4.075  1.00  0.00     0.134 C 
ATOM     86  C   UNL     1       3.413  -0.311   4.443  1.00  0.00     0.022 C 
ATOM     87  N   UNL     1       5.416  -1.106   3.325  1.00  0.00    -0.342 N 
ATOM     88  C   UNL     1       4.853  -0.008   4.071  1.00  0.00     0.119 C 
BRANCH  87  89
ATOM     89  C   UNL     1       6.186  -0.946   2.182  1.00  0.00     0.225 C 
ATOM     90  O   UNL     1       7.057  -1.784   1.914  1.00  0.00    -0.275 OA
BRANCH  89  91
ATOM     91  C   UNL     1       5.958   0.206   1.151  1.00  0.00     0.081 C 
ATOM     92  C   UNL     1       6.665   1.543   1.324  1.00  0.00     0.030 C 
ATOM     93  C   UNL     1       4.555   0.414   0.609  1.00  0.00     0.030 C 
ATOM     94  C   UNL     1       5.875   2.669   1.975  1.00  0.00     0.103 C 
ATOM     95  C   UNL     1       3.722   1.457   1.327  1.00  0.00     0.103 C 
ATOM     96  N   UNL     1       4.398   2.724   1.689  1.00  0.00    -0.198 NA
BRANCH  96  97
ATOM     97  S   UNL     1       3.619   3.661   2.953  1.00  0.00     0.243 S 
ATOM     98  O   UNL     1       3.840   2.945   4.207  1.00  0.00    -0.207 OA
ATOM     99  O   UNL     1       4.082   5.013   2.813  1.00  0.00    -0.207 OA
BRANCH  97 100
ATOM    100  C   UNL     1       1.856   3.627   2.693  1.00  0.00     0.082 A 
ATOM    101  C   UNL     1       1.174   4.818   2.431  1.00  0.00     0.022 A 
ATOM    102  C   UNL     1       1.127   2.467   2.991  1.00  0.00     0.022 A 
ATOM    103  C   UNL     1      -0.225   4.826   2.425  1.00  0.00     0.001 A 
ATOM    104  C   UNL     1      -0.266   2.469   2.946  1.00  0.00     0.001 A 
ATOM    105  C   UNL     1      -0.942   3.652   2.667  1.00  0.00     0.000 A 
ENDBRANCH  97 100
ENDBRANCH  96  97
ENDBRANCH  89  91
ENDBRANCH  87  89
ENDBRANCH  81  83
ENDBRANCH  80  81
ENDBRANCH  79  80
ENDBRANCH  78  79
ENDBRANCH  77  78
ENDBRANCH  76  77
ENDBRANCH   1  76
TORSDOF 24
