REMARK SMILES COc1ccc([C@@H]2CC(c3ccc(Cl)cc3)=NN2C2=[NH+]C(=O)[C@@H](CC(=O)OCCOCCOCCOCCOC(=O)c3ccc(-c4c5nc(c(-c6c(F)c(F)c(F)c(F)c6F)c6ccc([nH]6)c(-c6c(F)c(F)c(F)c(F)c6F)c6nc(c(-c7c(F)c(F)c(F)c(F)c7F)c7ccc4[nH]7)C=C6)C=C5)cc3)S2)cc1OC
REMARK SMILES IDX 32 1 31 2 30 3 29 4 28 5 27 6 25 7 26 8 24 9 23 10 19 11
REMARK SMILES IDX 20 12 105 13 21 14 22 16 18 17 7 18 8 19 9 20 17 21 6 22
REMARK SMILES IDX 3 23 4 24 107 25 5 26 106 27 2 28 1 29 108 30 109 31 10 32
REMARK SMILES IDX 11 33 16 34 12 35 15 36 13 37 14 38 33 39 34 40 35 41 36 42
REMARK SMILES IDX 37 43 38 44 39 45 40 46 41 47 42 48 43 49 104 50 44 51
REMARK SMILES IDX 103 52 45 53 46 54 47 55 97 56 48 57 102 58 96 59 98 60
REMARK SMILES IDX 49 61 101 62 95 63 94 64 50 66 82 67 62 68 81 69 63 70 66 71
REMARK SMILES IDX 80 72 99 73 64 74 65 75 79 77 100 78 67 79 51 80 52 81 60 82
REMARK SMILES IDX 53 83 54 84 58 85 61 86 55 87 56 88 59 89 57 90 83 91 84 92
REMARK SMILES IDX 92 93 85 94 86 95 90 96 93 97 87 98 88 99 91 100 89 101
REMARK SMILES IDX 68 102 69 103 77 104 70 105 71 106 75 107 78 108 72 109
REMARK SMILES IDX 73 110 76 111 74 112
REMARK H PARENT 20 15 98 65 66 76
REMARK Flexibility Score: inf
ROOT
ATOM      1  C   UNL     1       0.965  -6.225  -9.277  1.00  0.00     0.188 C 
ENDROOT
BRANCH   1   2
ATOM      2  C   UNL     1      -0.213  -7.107  -8.842  1.00  0.00     0.188 C 
BRANCH   2   3
ATOM      3  O   UNL     1      -1.453  -6.867  -9.466  1.00  0.00    -0.376 OA
BRANCH   3   4
ATOM      4  C   UNL     1      -2.334  -5.860  -8.992  1.00  0.00     0.202 C 
BRANCH   4   5
ATOM      5  C   UNL     1      -2.052  -4.896  -7.824  1.00  0.00     0.261 C 
BRANCH   5   6
ATOM      6  O   UNL     1      -0.686  -4.733  -7.431  1.00  0.00    -0.463 OA
BRANCH   6   7
ATOM      7  C   UNL     1      -0.368  -5.030  -6.151  1.00  0.00     0.307 C 
ATOM      8  O   UNL     1      -1.154  -5.509  -5.340  1.00  0.00    -0.252 OA
BRANCH   7   9
ATOM      9  C   UNL     1       1.092  -4.821  -5.805  1.00  0.00     0.150 C 
BRANCH   9  10
ATOM     10  C   UNL     1       1.974  -3.970  -6.708  1.00  0.00     0.184 C 
ATOM     11  C   UNL     1       2.736  -1.554  -6.710  1.00  0.00     0.340 C 
ATOM     12  N   UNL     1       3.658  -2.286  -6.178  1.00  0.00    -0.202 N 
ATOM     13  S   UNL     1       1.261  -2.384  -7.140  1.00  0.00    -0.020 SA
ATOM     14  C   UNL     1       3.273  -3.596  -6.011  1.00  0.00     0.322 C 
ATOM     15  H   UNL     1       4.544  -1.942  -5.919  1.00  0.00     0.316 HD
ATOM     16  O   UNL     1       3.923  -4.416  -5.372  1.00  0.00    -0.246 OA
BRANCH  11  17
ATOM     17  N   UNL     1       2.792  -0.200  -6.968  1.00  0.00    -0.120 N 
ATOM     18  C   UNL     1       1.861   0.740  -6.318  1.00  0.00     0.243 C 
ATOM     19  C   UNL     1       2.567   2.088  -6.404  1.00  0.00     0.118 C 
ATOM     20  C   UNL     1       3.814   1.685  -7.130  1.00  0.00     0.096 C 
ATOM     21  N   UNL     1       3.925   0.431  -7.426  1.00  0.00    -0.086 NA
BRANCH  18  22
ATOM     22  C   UNL     1       0.473   0.707  -6.933  1.00  0.00     0.003 A 
ATOM     23  C   UNL     1      -2.073   0.162  -8.067  1.00  0.00     0.160 A 
ATOM     24  C   UNL     1      -1.000   0.631  -8.846  1.00  0.00     0.051 A 
ATOM     25  C   UNL     1      -1.871  -0.038  -6.700  1.00  0.00     0.161 A 
ATOM     26  C   UNL     1       0.254   0.914  -8.293  1.00  0.00     0.012 A 
ATOM     27  C   UNL     1      -0.610   0.263  -6.152  1.00  0.00     0.058 A 
BRANCH  23  28
ATOM     28  O   UNL     1      -3.182  -0.266  -8.754  1.00  0.00    -0.493 OA
ATOM     29  C   UNL     1      -4.275   0.650  -8.713  1.00  0.00     0.278 C 
ENDBRANCH  23  28
BRANCH  25  30
ATOM     30  O   UNL     1      -2.686  -0.615  -5.767  1.00  0.00    -0.493 OA
ATOM     31  C   UNL     1      -4.074  -0.700  -6.007  1.00  0.00     0.278 C 
ENDBRANCH  25  30
ENDBRANCH  18  22
BRANCH  20  32
ATOM     32  C   UNL     1       4.836   2.680  -7.472  1.00  0.00     0.000 A 
ATOM     33  C   UNL     1       5.271   2.785  -8.796  1.00  0.00     0.011 A 
ATOM     34  C   UNL     1       5.376   3.496  -6.475  1.00  0.00     0.011 A 
ATOM     35  C   UNL     1       6.236   3.737  -9.129  1.00  0.00     0.021 A 
ATOM     36  C   UNL     1       6.355   4.433  -6.810  1.00  0.00     0.021 A 
ATOM     37  C   UNL     1       6.775   4.556  -8.135  1.00  0.00     0.041 A 
ATOM     38  Cl  UNL     1       7.971   5.722  -8.544  1.00  0.00    -0.084 Cl
ENDBRANCH  20  32
ENDBRANCH  11  17
ENDBRANCH   9  10
ENDBRANCH   7   9
ENDBRANCH   6   7
ENDBRANCH   5   6
ENDBRANCH   4   5
ENDBRANCH   3   4
ENDBRANCH   2   3
ENDBRANCH   1   2
BRANCH   1  39
ATOM     39  O   UNL     1       0.691  -4.904  -9.707  1.00  0.00    -0.377 OA
BRANCH  39  40
ATOM     40  C   UNL     1       0.050  -4.679 -10.961  1.00  0.00     0.188 C 
BRANCH  40  41
ATOM     41  C   UNL     1      -0.199  -5.835 -11.951  1.00  0.00     0.188 C 
BRANCH  41  42
ATOM     42  O   UNL     1       0.729  -6.901 -11.875  1.00  0.00    -0.376 OA
BRANCH  42  43
ATOM     43  C   UNL     1       1.852  -6.889 -12.742  1.00  0.00     0.202 C 
BRANCH  43  44
ATOM     44  C   UNL     1       2.789  -5.672 -12.693  1.00  0.00     0.261 C 
BRANCH  44  45
ATOM     45  O   UNL     1       2.204  -4.403 -13.041  1.00  0.00    -0.460 OA
BRANCH  45  46
ATOM     46  C   UNL     1       1.632  -4.277 -14.254  1.00  0.00     0.338 C 
ATOM     47  O   UNL     1       1.593  -5.109 -15.147  1.00  0.00    -0.246 OA
BRANCH  46  48
ATOM     48  C   UNL     1       0.885  -3.003 -14.276  1.00  0.00     0.060 A 
ATOM     49  C   UNL     1      -0.509  -3.030 -14.408  1.00  0.00     0.016 A 
ATOM     50  C   UNL     1       1.560  -1.784 -14.186  1.00  0.00     0.016 A 
ATOM     51  C   UNL     1      -1.231  -1.836 -14.480  1.00  0.00     0.010 A 
ATOM     52  C   UNL     1       0.838  -0.589 -14.281  1.00  0.00     0.010 A 
ATOM     53  C   UNL     1      -0.558  -0.608 -14.459  1.00  0.00    -0.014 A 
BRANCH  53  54
ATOM     54  C   UNL     1      -1.292   0.652 -14.746  1.00  0.00     0.031 A 
ATOM     55  C   UNL     1      -1.208   1.260 -16.110  1.00  0.00     0.074 A 
ATOM     56  C   UNL     1      -2.003   1.283 -13.797  1.00  0.00     0.049 A 
ATOM     57  N   UNL     1      -1.714   2.387 -16.541  1.00  0.00    -0.248 NA
ATOM     58  C   UNL     1      -0.446   0.508 -17.114  1.00  0.00     0.031 C 
ATOM     59  C   UNL     1      -2.142   0.812 -12.431  1.00  0.00     0.029 A 
ATOM     60  N   UNL     1      -2.697   2.472 -13.821  1.00  0.00    -0.354 N 
ATOM     61  C   UNL     1      -1.325   2.486 -17.867  1.00  0.00     0.074 A 
ATOM     62  C   UNL     1      -0.514   1.321 -18.158  1.00  0.00     0.031 C 
ATOM     63  C   UNL     1      -2.822   1.735 -11.736  1.00  0.00     0.029 A 
ATOM     64  C   UNL     1      -3.208   2.834 -12.600  1.00  0.00     0.049 A 
ATOM     65  H   UNL     1      -2.814   3.011 -14.636  1.00  0.00     0.167 HD
ATOM     66  C   UNL     1      -1.625   3.458 -18.759  1.00  0.00     0.037 A 
ATOM     67  C   UNL     1      -3.897   3.920 -12.198  1.00  0.00     0.037 A 
ATOM     68  C   UNL     1      -2.416   4.625 -18.466  1.00  0.00     0.049 A 
ATOM     69  C   UNL     1      -4.197   4.996 -13.199  1.00  0.00     0.074 A 
ATOM     70  C   UNL     1      -2.791   5.646 -19.323  1.00  0.00     0.029 A 
ATOM     71  N   UNL     1      -2.941   4.941 -17.221  1.00  0.00    -0.354 N 
ATOM     72  N   UNL     1      -3.870   5.053 -14.465  1.00  0.00    -0.248 NA
ATOM     73  C   UNL     1      -4.952   6.161 -12.718  1.00  0.00     0.031 C 
ATOM     74  C   UNL     1      -3.485   6.610 -18.584  1.00  0.00     0.029 A 
ATOM     75  C   UNL     1      -3.606   6.158 -17.281  1.00  0.00     0.049 A 
ATOM     76  H   UNL     1      -2.854   4.384 -16.414  1.00  0.00     0.167 HD
ATOM     77  C   UNL     1      -4.386   6.250 -14.935  1.00  0.00     0.074 A 
ATOM     78  C   UNL     1      -5.079   6.874 -13.827  1.00  0.00     0.031 C 
ATOM     79  C   UNL     1      -4.281   6.786 -16.174  1.00  0.00     0.037 A 
BRANCH  66  80
ATOM     80  C   UNL     1      -1.058   3.312 -20.139  1.00  0.00     0.064 A 
ATOM     81  C   UNL     1      -1.508   2.316 -21.020  1.00  0.00     0.173 A 
ATOM     82  C   UNL     1      -0.069   4.196 -20.594  1.00  0.00     0.173 A 
ATOM     83  F   UNL     1      -2.440   1.435 -20.625  1.00  0.00    -0.203 F 
ATOM     84  C   UNL     1      -0.967   2.195 -22.297  1.00  0.00     0.198 A 
ATOM     85  C   UNL     1       0.444   4.093 -21.883  1.00  0.00     0.198 A 
ATOM     86  F   UNL     1       0.394   5.165 -19.790  1.00  0.00    -0.203 F 
ATOM     87  F   UNL     1      -1.372   1.203 -23.102  1.00  0.00    -0.200 F 
ATOM     88  C   UNL     1       0.001   3.088 -22.730  1.00  0.00     0.200 A 
ATOM     89  F   UNL     1       1.369   4.965 -22.305  1.00  0.00    -0.200 F 
ATOM     90  F   UNL     1       0.514   2.975 -23.963  1.00  0.00    -0.200 F 
ENDBRANCH  66  80
BRANCH  67  91
ATOM     91  C   UNL     1      -4.369   4.059 -10.791  1.00  0.00     0.064 A 
ATOM     92  C   UNL     1      -5.738   4.011 -10.485  1.00  0.00     0.173 A 
ATOM     93  C   UNL     1      -3.475   4.281  -9.734  1.00  0.00     0.173 A 
ATOM     94  F   UNL     1      -6.637   3.822 -11.463  1.00  0.00    -0.203 F 
ATOM     95  C   UNL     1      -6.195   4.205  -9.182  1.00  0.00     0.198 A 
ATOM     96  C   UNL     1      -3.932   4.448  -8.427  1.00  0.00     0.198 A 
ATOM     97  F   UNL     1      -2.156   4.318  -9.967  1.00  0.00    -0.203 F 
ATOM     98  F   UNL     1      -7.511   4.195  -8.927  1.00  0.00    -0.200 F 
ATOM     99  C   UNL     1      -5.292   4.418  -8.153  1.00  0.00     0.200 A 
ATOM    100  F   UNL     1      -3.054   4.620  -7.429  1.00  0.00    -0.200 F 
ATOM    101  F   UNL     1      -5.730   4.585  -6.898  1.00  0.00    -0.200 F 
ENDBRANCH  67  91
BRANCH  79 102
ATOM    102  C   UNL     1      -4.946   8.112 -16.401  1.00  0.00     0.064 A 
ATOM    103  C   UNL     1      -4.466   9.289 -15.805  1.00  0.00     0.173 A 
ATOM    104  C   UNL     1      -6.073   8.209 -17.231  1.00  0.00     0.173 A 
ATOM    105  F   UNL     1      -3.406   9.247 -14.983  1.00  0.00    -0.203 F 
ATOM    106  C   UNL     1      -5.109  10.507 -16.008  1.00  0.00     0.198 A 
ATOM    107  C   UNL     1      -6.690   9.434 -17.460  1.00  0.00     0.198 A 
ATOM    108  F   UNL     1      -6.573   7.114 -17.823  1.00  0.00    -0.203 F 
ATOM    109  F   UNL     1      -4.670  11.606 -15.379  1.00  0.00    -0.200 F 
ATOM    110  C   UNL     1      -6.215  10.580 -16.842  1.00  0.00     0.200 A 
ATOM    111  F   UNL     1      -7.752   9.505 -18.276  1.00  0.00    -0.200 F 
ATOM    112  F   UNL     1      -6.830  11.754 -17.039  1.00  0.00    -0.200 F 
ENDBRANCH  79 102
ENDBRANCH  53  54
ENDBRANCH  46  48
ENDBRANCH  45  46
ENDBRANCH  44  45
ENDBRANCH  43  44
ENDBRANCH  42  43
ENDBRANCH  41  42
ENDBRANCH  40  41
ENDBRANCH  39  40
ENDBRANCH   1  39
TORSDOF 26
