REMARK SMILES CC[C@](C)(NC(=O)c1ccc2ccccc2c1O)C(=O)OCCOCCOCCOCCOC(=O)c1ccc(-c2c3nc(c(-c4c(F)c(F)c(F)c(F)c4F)c4ccc([nH]4)c(-c4c(F)c(F)c(F)c(F)c4F)c4nc(c(-c5c(F)c(F)c(F)c(F)c5F)c5ccc2[nH]5)C=C4)C=C3)cc1
REMARK SMILES IDX 26 1 25 2 24 3 23 4 22 5 21 6 19 7 20 8 3 9 4 10 2 11 1 12
REMARK SMILES IDX 5 13 6 14 7 16 8 17 9 18 17 19 10 20 16 21 11 22 15 23 12 24
REMARK SMILES IDX 14 25 13 26 18 27 27 29 28 30 29 31 30 32 31 33 32 34 33 35
REMARK SMILES IDX 34 36 35 37 36 38 37 39 98 40 38 41 97 42 39 43 40 44 41 45
REMARK SMILES IDX 91 46 42 47 96 48 90 49 92 50 43 51 95 52 89 53 88 54 44 56
REMARK SMILES IDX 76 57 56 58 75 59 57 60 60 61 74 62 93 63 58 64 59 65 73 67
REMARK SMILES IDX 94 68 61 69 45 70 46 71 54 72 47 73 48 74 52 75 55 76 49 77
REMARK SMILES IDX 50 78 53 79 51 80 77 81 78 82 86 83 79 84 80 85 84 86 87 87
REMARK SMILES IDX 81 88 82 89 85 90 83 91 62 92 63 93 71 94 64 95 65 96 69 97
REMARK SMILES IDX 72 98 66 99 67 100 70 101 68 102
REMARK H PARENT 5 15 18 28 92 55 60 66
REMARK Flexibility Score: inf
ROOT
ATOM      1  C   UNL     1       2.777  -3.846   1.512  1.00  0.00     0.188 C 
ENDROOT
BRANCH   1   2
ATOM      2  C   UNL     1       3.205  -2.465   0.964  1.00  0.00     0.188 C 
BRANCH   2   3
ATOM      3  O   UNL     1       4.548  -2.083   1.270  1.00  0.00    -0.376 OA
BRANCH   3   4
ATOM      4  C   UNL     1       4.960  -0.814   0.718  1.00  0.00     0.202 C 
BRANCH   4   5
ATOM      5  C   UNL     1       4.429   0.506   1.333  1.00  0.00     0.261 C 
BRANCH   5   6
ATOM      6  O   UNL     1       3.253   0.313   2.112  1.00  0.00    -0.462 OA
BRANCH   6   7
ATOM      7  C   UNL     1       2.047   0.692   1.649  1.00  0.00     0.331 C 
ATOM      8  O   UNL     1       1.869   1.397   0.663  1.00  0.00    -0.249 OA
BRANCH   7   9
ATOM      9  C   UNL     1       0.914  -0.009   2.463  1.00  0.00     0.135 C 
ATOM     10  C   UNL     1       0.170  -0.883   1.399  1.00  0.00     0.047 C 
BRANCH   9  11
ATOM     11  C   UNL     1      -0.045   1.079   3.001  1.00  0.00     0.037 C 
ATOM     12  C   UNL     1      -1.356   0.553   3.584  1.00  0.00     0.007 C 
ENDBRANCH   9  11
BRANCH   9  13
ATOM     13  N   UNL     1       1.387  -0.920   3.585  1.00  0.00    -0.336 N 
ATOM     14  C   UNL     1       2.134  -0.574   4.703  1.00  0.00     0.255 C 
ATOM     15  H   UNL     1       1.133  -1.868   3.510  1.00  0.00     0.165 HD
ATOM     16  O   UNL     1       1.602  -0.486   5.808  1.00  0.00    -0.269 OA
BRANCH  14  17
ATOM     17  C   UNL     1       3.627  -0.503   4.659  1.00  0.00     0.082 A 
ATOM     18  C   UNL     1       4.344  -1.545   4.093  1.00  0.00     0.018 A 
ATOM     19  C   UNL     1       4.364   0.549   5.186  1.00  0.00     0.136 A 
ATOM     20  C   UNL     1       5.734  -1.610   4.047  1.00  0.00     0.010 A 
ATOM     21  C   UNL     1       5.776   0.611   4.987  1.00  0.00     0.024 A 
ATOM     22  C   UNL     1       6.460  -0.506   4.440  1.00  0.00    -0.015 A 
ATOM     23  C   UNL     1       6.546   1.759   5.236  1.00  0.00     0.012 A 
ATOM     24  C   UNL     1       7.840  -0.487   4.201  1.00  0.00     0.009 A 
ATOM     25  C   UNL     1       7.911   1.802   4.921  1.00  0.00     0.001 A 
ATOM     26  C   UNL     1       8.561   0.677   4.418  1.00  0.00     0.001 A 
BRANCH  19  27
ATOM     27  O   UNL     1       3.731   1.567   5.852  1.00  0.00    -0.506 OA
ATOM     28  H   UNL     1       2.804   1.534   5.987  1.00  0.00     0.293 HD
ENDBRANCH  19  27
ENDBRANCH  14  17
ENDBRANCH   9  13
ENDBRANCH   7   9
ENDBRANCH   6   7
ENDBRANCH   5   6
ENDBRANCH   4   5
ENDBRANCH   3   4
ENDBRANCH   2   3
ENDBRANCH   1   2
BRANCH   1  29
ATOM     29  O   UNL     1       2.383  -3.808   2.891  1.00  0.00    -0.377 OA
BRANCH  29  30
ATOM     30  C   UNL     1       3.151  -4.499   3.886  1.00  0.00     0.188 C 
BRANCH  30  31
ATOM     31  C   UNL     1       4.479  -5.139   3.457  1.00  0.00     0.188 C 
BRANCH  31  32
ATOM     32  O   UNL     1       4.373  -6.396   2.785  1.00  0.00    -0.376 OA
BRANCH  32  33
ATOM     33  C   UNL     1       3.228  -7.186   3.090  1.00  0.00     0.202 C 
BRANCH  33  34
ATOM     34  C   UNL     1       3.204  -7.846   4.482  1.00  0.00     0.261 C 
BRANCH  34  35
ATOM     35  O   UNL     1       3.526  -6.967   5.583  1.00  0.00    -0.460 OA
BRANCH  35  36
ATOM     36  C   UNL     1       4.799  -7.069   6.045  1.00  0.00     0.338 C 
ATOM     37  O   UNL     1       5.663  -7.822   5.634  1.00  0.00    -0.246 OA
BRANCH  36  38
ATOM     38  C   UNL     1       5.084  -6.047   7.083  1.00  0.00     0.060 A 
ATOM     39  C   UNL     1       6.293  -5.340   6.988  1.00  0.00     0.016 A 
ATOM     40  C   UNL     1       4.276  -5.896   8.211  1.00  0.00     0.016 A 
ATOM     41  C   UNL     1       6.745  -4.561   8.057  1.00  0.00     0.010 A 
ATOM     42  C   UNL     1       4.735  -5.123   9.289  1.00  0.00     0.010 A 
ATOM     43  C   UNL     1       6.003  -4.509   9.243  1.00  0.00    -0.014 A 
BRANCH  43  44
ATOM     44  C   UNL     1       6.668  -4.084  10.508  1.00  0.00     0.031 A 
ATOM     45  C   UNL     1       7.208  -5.162  11.417  1.00  0.00     0.074 A 
ATOM     46  C   UNL     1       6.831  -2.792  10.844  1.00  0.00     0.049 A 
ATOM     47  N   UNL     1       7.758  -5.068  12.602  1.00  0.00    -0.248 NA
ATOM     48  C   UNL     1       7.108  -6.542  10.914  1.00  0.00     0.031 C 
ATOM     49  C   UNL     1       6.425  -1.647  10.036  1.00  0.00     0.029 A 
ATOM     50  N   UNL     1       7.380  -2.232  11.974  1.00  0.00    -0.354 N 
ATOM     51  C   UNL     1       8.049  -6.371  12.989  1.00  0.00     0.074 A 
ATOM     52  C   UNL     1       7.587  -7.241  11.930  1.00  0.00     0.031 C 
ATOM     53  C   UNL     1       6.724  -0.517  10.703  1.00  0.00     0.029 A 
ATOM     54  C   UNL     1       7.309  -0.860  12.000  1.00  0.00     0.049 A 
ATOM     55  H   UNL     1       7.786  -2.764  12.697  1.00  0.00     0.167 HD
ATOM     56  C   UNL     1       8.654  -6.809  14.120  1.00  0.00     0.037 A 
ATOM     57  C   UNL     1       7.654   0.011  12.970  1.00  0.00     0.037 A 
ATOM     58  C   UNL     1       9.119  -5.947  15.175  1.00  0.00     0.049 A 
ATOM     59  C   UNL     1       8.243  -0.504  14.263  1.00  0.00     0.074 A 
ATOM     60  C   UNL     1       9.753  -6.293  16.355  1.00  0.00     0.029 A 
ATOM     61  N   UNL     1       8.991  -4.566  15.179  1.00  0.00    -0.354 N 
ATOM     62  N   UNL     1       8.526  -1.735  14.618  1.00  0.00    -0.248 NA
ATOM     63  C   UNL     1       8.566   0.498  15.290  1.00  0.00     0.031 C 
ATOM     64  C   UNL     1       9.951  -5.127  17.102  1.00  0.00     0.029 A 
ATOM     65  C   UNL     1       9.508  -4.047  16.355  1.00  0.00     0.049 A 
ATOM     66  H   UNL     1       8.592  -4.034  14.453  1.00  0.00     0.167 HD
ATOM     67  C   UNL     1       9.093  -1.650  15.885  1.00  0.00     0.074 A 
ATOM     68  C   UNL     1       9.125  -0.246  16.234  1.00  0.00     0.031 C 
ATOM     69  C   UNL     1       9.549  -2.645  16.687  1.00  0.00     0.037 A 
BRANCH  56  70
ATOM     70  C   UNL     1       8.812  -8.294  14.290  1.00  0.00     0.064 A 
ATOM     71  C   UNL     1       9.686  -9.047  13.491  1.00  0.00     0.173 A 
ATOM     72  C   UNL     1       8.085  -8.973  15.282  1.00  0.00     0.173 A 
ATOM     73  F   UNL     1      10.394  -8.452  12.519  1.00  0.00    -0.203 F 
ATOM     74  C   UNL     1       9.798 -10.426  13.652  1.00  0.00     0.198 A 
ATOM     75  C   UNL     1       8.228 -10.346  15.464  1.00  0.00     0.198 A 
ATOM     76  F   UNL     1       7.239  -8.304  16.079  1.00  0.00    -0.203 F 
ATOM     77  F   UNL     1      10.593 -11.132  12.835  1.00  0.00    -0.200 F 
ATOM     78  C   UNL     1       9.075 -11.073  14.642  1.00  0.00     0.200 A 
ATOM     79  F   UNL     1       7.540 -10.966  16.433  1.00  0.00    -0.200 F 
ATOM     80  F   UNL     1       9.188 -12.399  14.799  1.00  0.00    -0.200 F 
ENDBRANCH  56  70
BRANCH  57  81
ATOM     81  C   UNL     1       7.442   1.472  12.774  1.00  0.00     0.064 A 
ATOM     82  C   UNL     1       8.527   2.358  12.696  1.00  0.00     0.173 A 
ATOM     83  C   UNL     1       6.152   2.020  12.704  1.00  0.00     0.173 A 
ATOM     84  F   UNL     1       9.781   1.891  12.794  1.00  0.00    -0.203 F 
ATOM     85  C   UNL     1       8.330   3.732  12.576  1.00  0.00     0.198 A 
ATOM     86  C   UNL     1       5.957   3.391  12.551  1.00  0.00     0.198 A 
ATOM     87  F   UNL     1       5.078   1.221  12.789  1.00  0.00    -0.203 F 
ATOM     88  F   UNL     1       9.385   4.559  12.565  1.00  0.00    -0.200 F 
ATOM     89  C   UNL     1       7.045   4.248  12.497  1.00  0.00     0.200 A 
ATOM     90  F   UNL     1       4.713   3.884  12.470  1.00  0.00    -0.200 F 
ATOM     91  F   UNL     1       6.857   5.569  12.384  1.00  0.00    -0.200 F 
ENDBRANCH  57  81
BRANCH  69  92
ATOM     92  C   UNL     1      10.178  -2.254  17.997  1.00  0.00     0.064 A 
ATOM     93  C   UNL     1       9.425  -1.724  19.056  1.00  0.00     0.173 A 
ATOM     94  C   UNL     1      11.553  -2.451  18.207  1.00  0.00     0.173 A 
ATOM     95  F   UNL     1       8.110  -1.507  18.907  1.00  0.00    -0.203 F 
ATOM     96  C   UNL     1      10.031  -1.373  20.261  1.00  0.00     0.198 A 
ATOM     97  C   UNL     1      12.148  -2.133  19.425  1.00  0.00     0.198 A 
ATOM     98  F   UNL     1      12.319  -2.966  17.234  1.00  0.00    -0.203 F 
ATOM     99  F   UNL     1       9.302  -0.815  21.237  1.00  0.00    -0.200 F 
ATOM    100  C   UNL     1      11.389  -1.585  20.447  1.00  0.00     0.200 A 
ATOM    101  F   UNL     1      13.456  -2.357  19.609  1.00  0.00    -0.200 F 
ATOM    102  F   UNL     1      11.968  -1.253  21.609  1.00  0.00    -0.200 F 
ENDBRANCH  69  92
ENDBRANCH  43  44
ENDBRANCH  36  38
ENDBRANCH  35  36
ENDBRANCH  34  35
ENDBRANCH  33  34
ENDBRANCH  32  33
ENDBRANCH  31  32
ENDBRANCH  30  31
ENDBRANCH  29  30
ENDBRANCH   1  29
TORSDOF 24
