REMARK SMILES O=C(OCCOCCOCCOCCOC(=O)[C@H](CCOCC(F)(F)F)c1ccccc1Br)c1ccc(-c2c3nc(c(-c4c(F)c(F)c(F)c(F)c4F)c4ccc([nH]4)c(-c4c(F)c(F)c(F)c(F)c4F)c4nc(c(-c5c(F)c(F)c(F)c(F)c5F)c5ccc2[nH]5)C=C4)C=C3)cc1
REMARK SMILES IDX 10 1 9 2 8 3 7 4 6 5 5 6 4 7 3 8 2 9 1 10 34 11 35 12 96 13
REMARK SMILES IDX 36 14 95 15 37 16 38 17 39 18 89 19 40 20 94 21 88 22 90 23
REMARK SMILES IDX 41 24 93 25 87 26 86 27 42 29 74 30 54 31 73 32 55 33 58 34
REMARK SMILES IDX 72 35 91 36 56 37 57 38 71 40 92 41 59 42 43 43 44 44 52 45
REMARK SMILES IDX 45 46 46 47 50 48 53 49 47 50 48 51 51 52 49 53 75 54 76 55
REMARK SMILES IDX 84 56 77 57 78 58 82 59 85 60 79 61 80 62 83 63 81 64 60 65
REMARK SMILES IDX 61 66 69 67 62 68 63 69 67 70 70 71 64 72 65 73 68 74 66 75
REMARK SMILES IDX 11 76 12 77 13 78 14 79 15 80 16 81 17 82 18 83 27 84 28 85
REMARK SMILES IDX 32 86 29 87 31 88 33 89 30 90 19 91 20 92 21 93 22 94 23 95
REMARK SMILES IDX 24 96 25 97 26 98
REMARK H PARENT 90 28 58 39
REMARK Flexibility Score: inf
ROOT
ATOM      1  C   UNL     1       6.099  -4.753   0.086  1.00  0.00     0.188 C 
ENDROOT
BRANCH   1   2
ATOM      2  O   UNL     1       6.378  -5.827   0.965  1.00  0.00    -0.377 OA
BRANCH   2   3
ATOM      3  C   UNL     1       6.941  -5.436   2.215  1.00  0.00     0.188 C 
BRANCH   3   4
ATOM      4  C   UNL     1       8.021  -4.353   2.124  1.00  0.00     0.188 C 
BRANCH   4   5
ATOM      5  O   UNL     1       7.450  -3.101   1.745  1.00  0.00    -0.376 OA
BRANCH   5   6
ATOM      6  C   UNL     1       8.156  -2.275   0.820  1.00  0.00     0.202 C 
BRANCH   6   7
ATOM      7  C   UNL     1       9.510  -1.749   1.264  1.00  0.00     0.261 C 
BRANCH   7   8
ATOM      8  O   UNL     1      10.045  -2.332   2.458  1.00  0.00    -0.460 OA
BRANCH   8   9
ATOM      9  C   UNL     1       9.691  -2.234   3.755  1.00  0.00     0.338 C 
ATOM     10  O   UNL     1      10.334  -2.899   4.569  1.00  0.00    -0.246 OA
BRANCH   9  11
ATOM     11  C   UNL     1       8.574  -1.406   4.298  1.00  0.00     0.060 A 
ATOM     12  C   UNL     1       7.429  -1.004   3.613  1.00  0.00     0.016 A 
ATOM     13  C   UNL     1       8.652  -1.089   5.664  1.00  0.00     0.016 A 
ATOM     14  C   UNL     1       6.395  -0.324   4.223  1.00  0.00     0.010 A 
ATOM     15  C   UNL     1       7.637  -0.369   6.293  1.00  0.00     0.010 A 
ATOM     16  C   UNL     1       6.522   0.032   5.553  1.00  0.00    -0.014 A 
BRANCH  16  17
ATOM     17  C   UNL     1       5.627   1.083   6.030  1.00  0.00     0.031 A 
ATOM     18  C   UNL     1       6.192   2.463   6.055  1.00  0.00     0.074 A 
ATOM     19  C   UNL     1       4.334   0.822   6.263  1.00  0.00     0.049 A 
ATOM     20  N   UNL     1       5.737   3.538   6.626  1.00  0.00    -0.248 NA
ATOM     21  C   UNL     1       7.461   2.655   5.326  1.00  0.00     0.031 C 
ATOM     22  C   UNL     1       3.673  -0.462   6.022  1.00  0.00     0.029 A 
ATOM     23  N   UNL     1       3.345   1.628   6.748  1.00  0.00    -0.354 N 
ATOM     24  C   UNL     1       6.702   4.509   6.397  1.00  0.00     0.074 A 
ATOM     25  C   UNL     1       7.752   3.912   5.609  1.00  0.00     0.031 C 
ATOM     26  C   UNL     1       2.387  -0.364   6.392  1.00  0.00     0.029 A 
ATOM     27  C   UNL     1       2.176   0.952   6.984  1.00  0.00     0.049 A 
ATOM     28  H   UNL     1       3.459   2.593   6.910  1.00  0.00     0.167 HD
ATOM     29  C   UNL     1       6.701   5.779   6.856  1.00  0.00     0.037 A 
ATOM     30  C   UNL     1       1.103   1.347   7.689  1.00  0.00     0.037 A 
ATOM     31  C   UNL     1       5.611   6.296   7.634  1.00  0.00     0.049 A 
ATOM     32  C   UNL     1       1.155   2.725   8.294  1.00  0.00     0.074 A 
ATOM     33  C   UNL     1       5.475   7.526   8.242  1.00  0.00     0.029 A 
ATOM     34  N   UNL     1       4.450   5.575   7.908  1.00  0.00    -0.354 N 
ATOM     35  N   UNL     1       2.113   3.623   8.212  1.00  0.00    -0.248 NA
ATOM     36  C   UNL     1       0.006   3.142   9.100  1.00  0.00     0.031 C 
ATOM     37  C   UNL     1       4.257   7.525   8.931  1.00  0.00     0.029 A 
ATOM     38  C   UNL     1       3.598   6.324   8.692  1.00  0.00     0.049 A 
ATOM     39  H   UNL     1       4.264   4.662   7.587  1.00  0.00     0.167 HD
ATOM     40  C   UNL     1       1.675   4.723   8.931  1.00  0.00     0.074 A 
ATOM     41  C   UNL     1       0.361   4.374   9.445  1.00  0.00     0.031 C 
ATOM     42  C   UNL     1       2.289   5.914   9.148  1.00  0.00     0.037 A 
BRANCH  29  43
ATOM     43  C   UNL     1       7.950   6.581   6.636  1.00  0.00     0.064 A 
ATOM     44  C   UNL     1       8.378   6.981   5.360  1.00  0.00     0.173 A 
ATOM     45  C   UNL     1       8.796   6.857   7.721  1.00  0.00     0.173 A 
ATOM     46  F   UNL     1       7.629   6.708   4.280  1.00  0.00    -0.203 F 
ATOM     47  C   UNL     1       9.625   7.576   5.174  1.00  0.00     0.198 A 
ATOM     48  C   UNL     1      10.025   7.485   7.537  1.00  0.00     0.198 A 
ATOM     49  F   UNL     1       8.448   6.485   8.962  1.00  0.00    -0.203 F 
ATOM     50  F   UNL     1      10.052   7.860   3.935  1.00  0.00    -0.200 F 
ATOM     51  C   UNL     1      10.447   7.828   6.262  1.00  0.00     0.200 A 
ATOM     52  F   UNL     1      10.817   7.727   8.591  1.00  0.00    -0.200 F 
ATOM     53  F   UNL     1      11.655   8.379   6.079  1.00  0.00    -0.200 F 
ENDBRANCH  29  43
BRANCH  30  54
ATOM     54  C   UNL     1      -0.020   0.402   7.915  1.00  0.00     0.064 A 
ATOM     55  C   UNL     1      -1.282   0.621   7.348  1.00  0.00     0.173 A 
ATOM     56  C   UNL     1       0.162  -0.780   8.654  1.00  0.00     0.173 A 
ATOM     57  F   UNL     1      -1.514   1.738   6.644  1.00  0.00    -0.203 F 
ATOM     58  C   UNL     1      -2.315  -0.302   7.511  1.00  0.00     0.198 A 
ATOM     59  C   UNL     1      -0.861  -1.715   8.792  1.00  0.00     0.198 A 
ATOM     60  F   UNL     1       1.351  -1.045   9.216  1.00  0.00    -0.203 F 
ATOM     61  F   UNL     1      -3.519  -0.057   6.976  1.00  0.00    -0.200 F 
ATOM     62  C   UNL     1      -2.101  -1.474   8.223  1.00  0.00     0.200 A 
ATOM     63  F   UNL     1      -0.641  -2.854   9.462  1.00  0.00    -0.200 F 
ATOM     64  F   UNL     1      -3.089  -2.369   8.361  1.00  0.00    -0.200 F 
ENDBRANCH  30  54
BRANCH  42  65
ATOM     65  C   UNL     1       1.516   6.943   9.911  1.00  0.00     0.064 A 
ATOM     66  C   UNL     1       1.356   6.865  11.300  1.00  0.00     0.173 A 
ATOM     67  C   UNL     1       1.032   8.079   9.244  1.00  0.00     0.173 A 
ATOM     68  F   UNL     1       1.793   5.790  11.972  1.00  0.00    -0.203 F 
ATOM     69  C   UNL     1       0.732   7.893  11.997  1.00  0.00     0.198 A 
ATOM     70  C   UNL     1       0.439   9.118   9.949  1.00  0.00     0.198 A 
ATOM     71  F   UNL     1       1.175   8.195   7.915  1.00  0.00    -0.203 F 
ATOM     72  F   UNL     1       0.564   7.793  13.323  1.00  0.00    -0.200 F 
ATOM     73  C   UNL     1       0.288   9.023  11.325  1.00  0.00     0.200 A 
ATOM     74  F   UNL     1       0.031  10.217   9.301  1.00  0.00    -0.200 F 
ATOM     75  F   UNL     1      -0.284  10.026  12.004  1.00  0.00    -0.200 F 
ENDBRANCH  42  65
ENDBRANCH  16  17
ENDBRANCH   9  11
ENDBRANCH   8   9
ENDBRANCH   7   8
ENDBRANCH   6   7
ENDBRANCH   5   6
ENDBRANCH   4   5
ENDBRANCH   3   4
ENDBRANCH   2   3
ENDBRANCH   1   2
BRANCH   1  76
ATOM     76  C   UNL     1       5.000  -3.737   0.462  1.00  0.00     0.188 C 
BRANCH  76  77
ATOM     77  O   UNL     1       4.510  -3.897   1.781  1.00  0.00    -0.376 OA
BRANCH  77  78
ATOM     78  C   UNL     1       3.253  -4.555   1.899  1.00  0.00     0.202 C 
BRANCH  78  79
ATOM     79  C   UNL     1       3.135  -5.981   1.334  1.00  0.00     0.261 C 
BRANCH  79  80
ATOM     80  O   UNL     1       3.586  -6.171  -0.021  1.00  0.00    -0.463 OA
BRANCH  80  81
ATOM     81  C   UNL     1       2.898  -5.635  -1.069  1.00  0.00     0.313 C 
ATOM     82  O   UNL     1       1.848  -5.014  -0.964  1.00  0.00    -0.252 OA
BRANCH  81  83
ATOM     83  C   UNL     1       3.712  -5.851  -2.360  1.00  0.00     0.132 C 
BRANCH  83  84
ATOM     84  C   UNL     1       3.552  -7.271  -2.865  1.00  0.00    -0.019 A 
ATOM     85  C   UNL     1       4.495  -8.218  -2.391  1.00  0.00     0.006 A 
ATOM     86  C   UNL     1       2.509  -7.727  -3.675  1.00  0.00     0.022 A 
ATOM     87  C   UNL     1       4.418  -9.562  -2.741  1.00  0.00     0.000 A 
ATOM     88  C   UNL     1       2.449  -9.076  -4.043  1.00  0.00     0.016 A 
ATOM     89  Br  UNL     1       1.090  -6.613  -4.260  1.00  0.00    -0.051 Br
ATOM     90  C   UNL     1       3.398  -9.989  -3.579  1.00  0.00     0.001 A 
ENDBRANCH  83  84
BRANCH  83  91
ATOM     91  C   UNL     1       3.685  -4.667  -3.359  1.00  0.00     0.048 C 
BRANCH  91  92
ATOM     92  C   UNL     1       4.962  -3.790  -3.352  1.00  0.00     0.162 C 
BRANCH  92  93
ATOM     93  O   UNL     1       5.975  -4.308  -4.219  1.00  0.00    -0.372 OA
BRANCH  93  94
ATOM     94  C   UNL     1       7.105  -4.936  -3.591  1.00  0.00     0.275 C 
BRANCH  94  95
ATOM     95  C   UNL     1       8.112  -4.014  -2.897  1.00  0.00     0.411 C 
ATOM     96  F   UNL     1       7.517  -2.953  -2.306  1.00  0.00    -0.168 F 
ATOM     97  F   UNL     1       8.767  -4.687  -1.918  1.00  0.00    -0.168 F 
ATOM     98  F   UNL     1       9.046  -3.537  -3.746  1.00  0.00    -0.168 F 
ENDBRANCH  94  95
ENDBRANCH  93  94
ENDBRANCH  92  93
ENDBRANCH  91  92
ENDBRANCH  83  91
ENDBRANCH  81  83
ENDBRANCH  80  81
ENDBRANCH  79  80
ENDBRANCH  78  79
ENDBRANCH  77  78
ENDBRANCH  76  77
ENDBRANCH   1  76
TORSDOF 26
