REMARK SMILES Cc1cc(NCc2ccco2)cc(C(=O)OCCOCCOCCOCCOC(=O)c2ccc(-c3c4nc(c(-c5c(F)c(F)c(F)c(F)c5F)c5ccc([nH]5)c(-c5c(F)c(F)c(F)c(F)c5F)c5nc(c(-c6c(F)c(F)c(F)c(F)c6F)c6ccc3[nH]6)C=C5)C=C4)cc2)c1N
REMARK SMILES IDX 21 1 20 2 19 3 18 4 17 5 16 6 14 7 15 8 13 9 1 10 2 11 3 12
REMARK SMILES IDX 94 13 4 14 12 15 95 16 5 19 6 21 7 22 8 23 11 24 9 25 10 26
REMARK SMILES IDX 22 27 23 28 24 29 25 30 26 31 27 32 28 33 29 34 30 35 31 36
REMARK SMILES IDX 32 37 93 38 33 39 92 40 34 41 35 42 36 43 86 44 37 45 91 46
REMARK SMILES IDX 85 47 87 48 38 49 90 50 84 51 83 52 39 54 71 55 51 56 70 57
REMARK SMILES IDX 52 58 55 59 69 60 88 61 53 62 54 63 68 65 89 66 56 67 40 68
REMARK SMILES IDX 41 69 49 70 42 71 43 72 47 73 50 74 44 75 45 76 48 77 46 78
REMARK SMILES IDX 72 79 73 80 81 81 74 82 75 83 79 84 82 85 76 86 77 87 80 88
REMARK SMILES IDX 78 89 57 90 58 91 66 92 59 93 60 94 64 95 67 96 61 97 62 98
REMARK SMILES IDX 65 99 63 100
REMARK H PARENT 95 17 95 18 5 20 87 53 55 64
REMARK Flexibility Score: inf
ROOT
ATOM      1  C   UNL     1      -0.631  -2.956  -2.086  1.00  0.00     0.188 C 
ENDROOT
BRANCH   1   2
ATOM      2  C   UNL     1       0.370  -3.826  -1.292  1.00  0.00     0.188 C 
BRANCH   2   3
ATOM      3  O   UNL     1      -0.084  -5.142  -1.018  1.00  0.00    -0.376 OA
BRANCH   3   4
ATOM      4  C   UNL     1      -0.379  -5.482   0.322  1.00  0.00     0.202 C 
BRANCH   4   5
ATOM      5  C   UNL     1      -1.558  -4.756   0.983  1.00  0.00     0.261 C 
BRANCH   5   6
ATOM      6  O   UNL     1      -1.570  -3.329   0.843  1.00  0.00    -0.460 OA
BRANCH   6   7
ATOM      7  C   UNL     1      -0.633  -2.634   1.533  1.00  0.00     0.340 C 
ATOM      8  O   UNL     1       0.200  -3.111   2.287  1.00  0.00    -0.246 OA
BRANCH   7   9
ATOM      9  C   UNL     1      -0.658  -1.218   1.072  1.00  0.00     0.085 A 
ATOM     10  C   UNL     1       1.719   1.567  -0.016  1.00  0.00     0.047 C 
ATOM     11  C   UNL     1       0.484   0.774   0.322  1.00  0.00    -0.025 A 
ATOM     12  C   UNL     1      -0.774   1.371   0.107  1.00  0.00     0.031 A 
ATOM     13  C   UNL     1       0.556  -0.545   0.802  1.00  0.00     0.049 A 
ATOM     14  C   UNL     1      -1.981   0.703   0.352  1.00  0.00     0.036 A 
ATOM     15  C   UNL     1      -1.902  -0.600   0.837  1.00  0.00     0.043 A 
BRANCH  13  16
ATOM     16  N   UNL     1       1.780  -1.218   0.813  1.00  0.00    -0.398 N 
ATOM     17  H   UNL     1       2.613  -0.729   0.622  1.00  0.00     0.156 HD
ATOM     18  H   UNL     1       1.810  -2.182   1.011  1.00  0.00     0.156 HD
ENDBRANCH  13  16
BRANCH  14  19
ATOM     19  N   UNL     1      -3.156   1.330  -0.005  1.00  0.00    -0.378 N 
ATOM     20  H   UNL     1      -3.085   2.256  -0.331  1.00  0.00     0.161 HD
BRANCH  19  21
ATOM     21  C   UNL     1      -4.489   0.755   0.053  1.00  0.00     0.188 C 
BRANCH  21  22
ATOM     22  C   UNL     1      -5.193   0.937   1.352  1.00  0.00     0.122 A 
ATOM     23  C   UNL     1      -5.790   0.066   2.240  1.00  0.00     0.047 A 
ATOM     24  O   UNL     1      -5.326   2.221   1.800  1.00  0.00    -0.467 OA
ATOM     25  C   UNL     1      -6.307   0.861   3.292  1.00  0.00     0.042 A 
ATOM     26  C   UNL     1      -5.994   2.163   2.980  1.00  0.00     0.195 A 
ENDBRANCH  21  22
ENDBRANCH  19  21
ENDBRANCH  14  19
ENDBRANCH   7   9
ENDBRANCH   6   7
ENDBRANCH   5   6
ENDBRANCH   4   5
ENDBRANCH   3   4
ENDBRANCH   2   3
ENDBRANCH   1   2
BRANCH   1  27
ATOM     27  O   UNL     1      -1.905  -3.472  -2.461  1.00  0.00    -0.377 OA
BRANCH  27  28
ATOM     28  C   UNL     1      -2.043  -4.844  -2.809  1.00  0.00     0.188 C 
BRANCH  28  29
ATOM     29  C   UNL     1      -0.925  -5.568  -3.595  1.00  0.00     0.188 C 
BRANCH  29  30
ATOM     30  O   UNL     1       0.182  -4.748  -3.921  1.00  0.00    -0.376 OA
BRANCH  30  31
ATOM     31  C   UNL     1       0.325  -4.311  -5.258  1.00  0.00     0.202 C 
BRANCH  31  32
ATOM     32  C   UNL     1      -0.814  -3.494  -5.884  1.00  0.00     0.261 C 
BRANCH  32  33
ATOM     33  O   UNL     1      -2.141  -4.022  -5.741  1.00  0.00    -0.460 OA
BRANCH  33  34
ATOM     34  C   UNL     1      -2.438  -5.158  -6.403  1.00  0.00     0.338 C 
ATOM     35  O   UNL     1      -1.702  -5.811  -7.125  1.00  0.00    -0.246 OA
BRANCH  34  36
ATOM     36  C   UNL     1      -3.776  -5.592  -5.951  1.00  0.00     0.060 A 
ATOM     37  C   UNL     1      -3.915  -6.819  -5.287  1.00  0.00     0.016 A 
ATOM     38  C   UNL     1      -4.887  -4.772  -6.162  1.00  0.00     0.016 A 
ATOM     39  C   UNL     1      -5.173  -7.242  -4.858  1.00  0.00     0.010 A 
ATOM     40  C   UNL     1      -6.149  -5.208  -5.755  1.00  0.00     0.010 A 
ATOM     41  C   UNL     1      -6.302  -6.459  -5.131  1.00  0.00    -0.014 A 
BRANCH  41  42
ATOM     42  C   UNL     1      -7.657  -7.034  -4.957  1.00  0.00     0.031 A 
ATOM     43  C   UNL     1      -8.346  -7.600  -6.167  1.00  0.00     0.074 A 
ATOM     44  C   UNL     1      -8.259  -7.068  -3.756  1.00  0.00     0.049 A 
ATOM     45  N   UNL     1      -9.552  -8.091  -6.288  1.00  0.00    -0.248 NA
ATOM     46  C   UNL     1      -7.564  -7.609  -7.415  1.00  0.00     0.031 C 
ATOM     47  C   UNL     1      -7.676  -6.593  -2.504  1.00  0.00     0.029 A 
ATOM     48  N   UNL     1      -9.508  -7.516  -3.400  1.00  0.00    -0.354 N 
ATOM     49  C   UNL     1      -9.674  -8.460  -7.622  1.00  0.00     0.074 A 
ATOM     50  C   UNL     1      -8.436  -8.105  -8.278  1.00  0.00     0.031 C 
ATOM     51  C   UNL     1      -8.575  -6.758  -1.516  1.00  0.00     0.029 A 
ATOM     52  C   UNL     1      -9.806  -7.315  -2.075  1.00  0.00     0.049 A 
ATOM     53  H   UNL     1     -10.129  -7.941  -4.034  1.00  0.00     0.167 HD
ATOM     54  C   UNL     1     -10.723  -9.052  -8.240  1.00  0.00     0.037 A 
ATOM     55  C   UNL     1     -10.955  -7.529  -1.403  1.00  0.00     0.037 A 
ATOM     56  C   UNL     1     -11.956  -9.397  -7.584  1.00  0.00     0.049 A 
ATOM     57  C   UNL     1     -12.141  -8.110  -2.134  1.00  0.00     0.074 A 
ATOM     58  C   UNL     1     -13.077 -10.006  -8.119  1.00  0.00     0.029 A 
ATOM     59  N   UNL     1     -12.233  -9.151  -6.247  1.00  0.00    -0.354 N 
ATOM     60  N   UNL     1     -12.245  -8.478  -3.389  1.00  0.00    -0.248 NA
ATOM     61  C   UNL     1     -13.370  -8.310  -1.352  1.00  0.00     0.031 C 
ATOM     62  C   UNL     1     -14.055 -10.073  -7.122  1.00  0.00     0.029 A 
ATOM     63  C   UNL     1     -13.519  -9.571  -5.947  1.00  0.00     0.049 A 
ATOM     64  H   UNL     1     -11.609  -8.739  -5.607  1.00  0.00     0.167 HD
ATOM     65  C   UNL     1     -13.532  -8.982  -3.537  1.00  0.00     0.074 A 
ATOM     66  C   UNL     1     -14.167  -8.887  -2.240  1.00  0.00     0.031 C 
ATOM     67  C   UNL     1     -14.134  -9.480  -4.646  1.00  0.00     0.037 A 
BRANCH  54  68
ATOM     68  C   UNL     1     -10.591  -9.337  -9.709  1.00  0.00     0.064 A 
ATOM     69  C   UNL     1      -9.717 -10.321 -10.196  1.00  0.00     0.173 A 
ATOM     70  C   UNL     1     -11.376  -8.639 -10.639  1.00  0.00     0.173 A 
ATOM     71  F   UNL     1      -8.932 -11.006  -9.350  1.00  0.00    -0.203 F 
ATOM     72  C   UNL     1      -9.613 -10.575 -11.561  1.00  0.00     0.198 A 
ATOM     73  C   UNL     1     -11.294  -8.919 -12.000  1.00  0.00     0.198 A 
ATOM     74  F   UNL     1     -12.229  -7.689 -10.227  1.00  0.00    -0.203 F 
ATOM     75  F   UNL     1      -8.734 -11.483 -12.007  1.00  0.00    -0.200 F 
ATOM     76  C   UNL     1     -10.408  -9.881 -12.461  1.00  0.00     0.200 A 
ATOM     77  F   UNL     1     -12.074  -8.258 -12.866  1.00  0.00    -0.200 F 
ATOM     78  F   UNL     1     -10.316 -10.134 -13.774  1.00  0.00    -0.200 F 
ENDBRANCH  54  68
BRANCH  55  79
ATOM     79  C   UNL     1     -11.055  -7.173   0.038  1.00  0.00     0.064 A 
ATOM     80  C   UNL     1     -11.235  -8.158   1.020  1.00  0.00     0.173 A 
ATOM     81  C   UNL     1     -11.009  -5.836   0.462  1.00  0.00     0.173 A 
ATOM     82  F   UNL     1     -11.313  -9.450   0.666  1.00  0.00    -0.203 F 
ATOM     83  C   UNL     1     -11.390  -7.819   2.363  1.00  0.00     0.198 A 
ATOM     84  C   UNL     1     -11.129  -5.500   1.808  1.00  0.00     0.198 A 
ATOM     85  F   UNL     1     -10.842  -4.852  -0.435  1.00  0.00    -0.203 F 
ATOM     86  F   UNL     1     -11.620  -8.777   3.271  1.00  0.00    -0.200 F 
ATOM     87  C   UNL     1     -11.331  -6.490   2.757  1.00  0.00     0.200 A 
ATOM     88  F   UNL     1     -11.056  -4.216   2.186  1.00  0.00    -0.200 F 
ATOM     89  F   UNL     1     -11.479  -6.165   4.048  1.00  0.00    -0.200 F 
ENDBRANCH  55  79
BRANCH  67  90
ATOM     90  C   UNL     1     -15.534 -10.008  -4.500  1.00  0.00     0.064 A 
ATOM     91  C   UNL     1     -16.627  -9.160  -4.272  1.00  0.00     0.173 A 
ATOM     92  C   UNL     1     -15.789 -11.383  -4.636  1.00  0.00     0.173 A 
ATOM     93  F   UNL     1     -16.439  -7.840  -4.122  1.00  0.00    -0.203 F 
ATOM     94  C   UNL     1     -17.918  -9.670  -4.155  1.00  0.00     0.198 A 
ATOM     95  C   UNL     1     -17.085 -11.885  -4.556  1.00  0.00     0.198 A 
ATOM     96  F   UNL     1     -14.782 -12.239  -4.866  1.00  0.00    -0.203 F 
ATOM     97  F   UNL     1     -18.940  -8.847  -3.883  1.00  0.00    -0.200 F 
ATOM     98  C   UNL     1     -18.147 -11.030  -4.306  1.00  0.00     0.200 A 
ATOM     99  F   UNL     1     -17.305 -13.196  -4.722  1.00  0.00    -0.200 F 
ATOM    100  F   UNL     1     -19.391 -11.517  -4.203  1.00  0.00    -0.200 F 
ENDBRANCH  67  90
ENDBRANCH  41  42
ENDBRANCH  34  36
ENDBRANCH  33  34
ENDBRANCH  32  33
ENDBRANCH  31  32
ENDBRANCH  30  31
ENDBRANCH  29  30
ENDBRANCH  28  29
ENDBRANCH  27  28
ENDBRANCH   1  27
TORSDOF 24
