REMARK SMILES Cc1occc1C(=O)NN1C(=O)/C(=C\c2ccc(O[C@H](C)C(=O)OCCOCCOCCOCCOC(=O)c3ccc(-c4c5nc(c(-c6c(F)c(F)c(F)c(F)c6F)c6ccc([nH]6)c(-c6c(F)c(F)c(F)c(F)c6F)c6nc(c(-c7c(F)c(F)c(F)c(F)c7F)c7ccc4[nH]7)C=C6)C=C5)cc3)cc2)SC1=S
REMARK SMILES IDX 28 1 27 2 26 3 25 4 24 5 22 6 23 7 20 8 21 9 19 10 18 11
REMARK SMILES IDX 15 12 16 13 103 14 17 15 102 16 14 17 10 18 11 19 105 20
REMARK SMILES IDX 12 21 13 22 104 23 106 24 9 25 7 26 8 27 6 29 1 30 2 31 3 32
REMARK SMILES IDX 4 33 5 34 29 35 30 36 31 37 32 38 33 39 34 40 35 41 36 42
REMARK SMILES IDX 37 43 38 44 39 45 40 46 101 47 41 48 100 49 42 50 43 51
REMARK SMILES IDX 44 52 94 53 45 54 99 55 93 56 95 57 46 58 98 59 92 60 91 61
REMARK SMILES IDX 47 63 79 64 59 65 78 66 60 67 63 68 77 69 96 70 61 71 62 72
REMARK SMILES IDX 76 74 97 75 64 76 48 77 49 78 57 79 50 80 51 81 55 82 58 83
REMARK SMILES IDX 52 84 53 85 56 86 54 87 80 88 81 89 89 90 82 91 83 92 87 93
REMARK SMILES IDX 90 94 84 95 85 96 88 97 86 98 65 99 66 100 74 101 67 102
REMARK SMILES IDX 68 103 72 104 75 105 69 106 70 107 73 108 71 109
REMARK H PARENT 9 28 95 62 63 73
REMARK Flexibility Score: inf
ROOT
ATOM      1  C   UNL     1       7.565  -3.216  -8.647  1.00  0.00     0.188 C 
ENDROOT
BRANCH   1   2
ATOM      2  O   UNL     1       6.785  -2.247  -9.326  1.00  0.00    -0.376 OA
BRANCH   2   3
ATOM      3  C   UNL     1       5.688  -1.595  -8.709  1.00  0.00     0.202 C 
BRANCH   3   4
ATOM      4  C   UNL     1       4.697  -2.289  -7.759  1.00  0.00     0.261 C 
BRANCH   4   5
ATOM      5  O   UNL     1       5.197  -3.313  -6.891  1.00  0.00    -0.461 OA
BRANCH   5   6
ATOM      6  C   UNL     1       5.000  -4.583  -7.324  1.00  0.00     0.347 C 
ATOM      7  O   UNL     1       4.566  -4.868  -8.436  1.00  0.00    -0.248 OA
BRANCH   6   8
ATOM      8  C   UNL     1       5.278  -5.636  -6.255  1.00  0.00     0.279 C 
ATOM      9  C   UNL     1       6.621  -5.698  -5.527  1.00  0.00     0.066 C 
BRANCH   8  10
ATOM     10  O   UNL     1       4.116  -5.748  -5.441  1.00  0.00    -0.479 OA
BRANCH  10  11
ATOM     11  C   UNL     1       3.949  -5.041  -4.295  1.00  0.00     0.120 A 
ATOM     12  C   UNL     1       3.601  -4.166  -1.663  1.00  0.00    -0.024 A 
ATOM     13  C   UNL     1       4.572  -3.579  -2.479  1.00  0.00     0.012 A 
ATOM     14  C   UNL     1       2.677  -5.041  -2.238  1.00  0.00     0.012 A 
ATOM     15  C   UNL     1       4.724  -3.997  -3.804  1.00  0.00     0.047 A 
ATOM     16  C   UNL     1       2.876  -5.500  -3.536  1.00  0.00     0.047 A 
BRANCH  12  17
ATOM     17  C   UNL     1       3.648  -3.908  -0.220  1.00  0.00     0.029 C 
ATOM     18  N   UNL     1       3.303  -6.934   1.747  1.00  0.00    -0.198 N 
ATOM     19  C   UNL     1       3.611  -6.342   0.535  1.00  0.00     0.285 C 
ATOM     20  C   UNL     1       3.520  -6.197   2.889  1.00  0.00     0.168 C 
ATOM     21  O   UNL     1       3.836  -6.956  -0.498  1.00  0.00    -0.266 OA
ATOM     22  C   UNL     1       3.696  -4.862   0.724  1.00  0.00     0.082 C 
ATOM     23  S   UNL     1       3.821  -4.518   2.420  1.00  0.00    -0.052 SA
ATOM     24  S   UNL     1       3.529  -6.723   4.469  1.00  0.00    -0.050 S 
BRANCH  18  25
ATOM     25  N   UNL     1       3.084  -8.305   1.733  1.00  0.00    -0.254 N 
ATOM     26  C   UNL     1       1.890  -8.970   1.885  1.00  0.00     0.273 C 
ATOM     27  O   UNL     1       1.904 -10.179   1.636  1.00  0.00    -0.267 OA
ATOM     28  H   UNL     1       3.880  -8.869   1.597  1.00  0.00     0.192 HD
BRANCH  26  29
ATOM     29  C   UNL     1       0.674  -8.357   2.415  1.00  0.00     0.082 A 
ATOM     30  C   UNL     1       0.371  -5.837   1.586  1.00  0.00     0.088 C 
ATOM     31  C   UNL     1       0.096  -7.099   2.297  1.00  0.00     0.113 A 
ATOM     32  O   UNL     1      -1.075  -7.047   3.002  1.00  0.00    -0.469 OA
ATOM     33  C   UNL     1      -1.302  -8.271   3.522  1.00  0.00     0.196 A 
ATOM     34  C   UNL     1      -0.282  -9.116   3.179  1.00  0.00     0.056 A 
ENDBRANCH  26  29
ENDBRANCH  18  25
ENDBRANCH  12  17
ENDBRANCH  10  11
ENDBRANCH   8  10
ENDBRANCH   6   8
ENDBRANCH   5   6
ENDBRANCH   4   5
ENDBRANCH   3   4
ENDBRANCH   2   3
ENDBRANCH   1   2
BRANCH   1  35
ATOM     35  C   UNL     1       8.054  -2.968  -7.211  1.00  0.00     0.188 C 
BRANCH  35  36
ATOM     36  O   UNL     1       7.427  -1.895  -6.539  1.00  0.00    -0.377 OA
BRANCH  36  37
ATOM     37  C   UNL     1       8.088  -0.637  -6.581  1.00  0.00     0.188 C 
BRANCH  37  38
ATOM     38  C   UNL     1       8.908  -0.271  -7.837  1.00  0.00     0.188 C 
BRANCH  38  39
ATOM     39  O   UNL     1       9.795  -1.289  -8.277  1.00  0.00    -0.376 OA
BRANCH  39  40
ATOM     40  C   UNL     1      11.159  -1.238  -7.886  1.00  0.00     0.202 C 
BRANCH  40  41
ATOM     41  C   UNL     1      11.483  -1.397  -6.390  1.00  0.00     0.261 C 
BRANCH  41  42
ATOM     42  O   UNL     1      10.887  -0.439  -5.502  1.00  0.00    -0.460 OA
BRANCH  42  43
ATOM     43  C   UNL     1      11.157   0.865  -5.709  1.00  0.00     0.338 C 
ATOM     44  O   UNL     1      11.917   1.339  -6.539  1.00  0.00    -0.246 OA
BRANCH  43  45
ATOM     45  C   UNL     1      10.217   1.659  -4.891  1.00  0.00     0.060 A 
ATOM     46  C   UNL     1       9.348   2.550  -5.533  1.00  0.00     0.016 A 
ATOM     47  C   UNL     1      10.194   1.528  -3.501  1.00  0.00     0.016 A 
ATOM     48  C   UNL     1       8.481   3.345  -4.784  1.00  0.00     0.010 A 
ATOM     49  C   UNL     1       9.343   2.344  -2.749  1.00  0.00     0.010 A 
ATOM     50  C   UNL     1       8.510   3.282  -3.385  1.00  0.00    -0.014 A 
BRANCH  50  51
ATOM     51  C   UNL     1       7.835   4.338  -2.590  1.00  0.00     0.031 A 
ATOM     52  C   UNL     1       8.668   5.484  -2.082  1.00  0.00     0.074 A 
ATOM     53  C   UNL     1       6.512   4.304  -2.352  1.00  0.00     0.049 A 
ATOM     54  N   UNL     1       8.325   6.490  -1.319  1.00  0.00    -0.248 NA
ATOM     55  C   UNL     1      10.082   5.497  -2.494  1.00  0.00     0.031 C 
ATOM     56  C   UNL     1       5.590   3.281  -2.838  1.00  0.00     0.029 A 
ATOM     57  N   UNL     1       5.717   5.159  -1.629  1.00  0.00    -0.354 N 
ATOM     58  C   UNL     1       9.478   7.249  -1.158  1.00  0.00     0.074 A 
ATOM     59  C   UNL     1      10.538   6.572  -1.871  1.00  0.00     0.031 C 
ATOM     60  C   UNL     1       4.354   3.559  -2.386  1.00  0.00     0.029 A 
ATOM     61  C   UNL     1       4.406   4.757  -1.549  1.00  0.00     0.049 A 
ATOM     62  H   UNL     1       6.055   5.982  -1.207  1.00  0.00     0.167 HD
ATOM     63  C   UNL     1       9.635   8.413  -0.485  1.00  0.00     0.037 A 
ATOM     64  C   UNL     1       3.377   5.284  -0.855  1.00  0.00     0.037 A 
ATOM     65  C   UNL     1       8.580   9.084   0.226  1.00  0.00     0.049 A 
ATOM     66  C   UNL     1       3.606   6.529  -0.030  1.00  0.00     0.074 A 
ATOM     67  C   UNL     1       8.638  10.267   0.941  1.00  0.00     0.029 A 
ATOM     68  N   UNL     1       7.274   8.625   0.316  1.00  0.00    -0.354 N 
ATOM     69  N   UNL     1       4.693   7.249   0.106  1.00  0.00    -0.248 NA
ATOM     70  C   UNL     1       2.458   7.036   0.737  1.00  0.00     0.031 C 
ATOM     71  C   UNL     1       7.383  10.494   1.512  1.00  0.00     0.029 A 
ATOM     72  C   UNL     1       6.524   9.490   1.096  1.00  0.00     0.049 A 
ATOM     73  H   UNL     1       6.931   7.807  -0.111  1.00  0.00     0.167 HD
ATOM     74  C   UNL     1       4.350   8.310   0.936  1.00  0.00     0.074 A 
ATOM     75  C   UNL     1       2.949   8.149   1.260  1.00  0.00     0.031 C 
ATOM     76  C   UNL     1       5.123   9.327   1.392  1.00  0.00     0.037 A 
BRANCH  63  77
ATOM     77  C   UNL     1      11.003   9.030  -0.467  1.00  0.00     0.064 A 
ATOM     78  C   UNL     1      11.563   9.615  -1.612  1.00  0.00     0.173 A 
ATOM     79  C   UNL     1      11.740   9.085   0.726  1.00  0.00     0.173 A 
ATOM     80  F   UNL     1      10.907   9.575  -2.781  1.00  0.00    -0.203 F 
ATOM     81  C   UNL     1      12.818  10.219  -1.567  1.00  0.00     0.198 A 
ATOM     82  C   UNL     1      12.980   9.717   0.775  1.00  0.00     0.198 A 
ATOM     83  F   UNL     1      11.250   8.541   1.850  1.00  0.00    -0.203 F 
ATOM     84  F   UNL     1      13.351  10.736  -2.683  1.00  0.00    -0.200 F 
ATOM     85  C   UNL     1      13.520  10.278  -0.372  1.00  0.00     0.200 A 
ATOM     86  F   UNL     1      13.650   9.786   1.933  1.00  0.00    -0.200 F 
ATOM     87  F   UNL     1      14.720  10.874  -0.327  1.00  0.00    -0.200 F 
ENDBRANCH  63  77
BRANCH  64  88
ATOM     88  C   UNL     1       2.039   4.631  -0.872  1.00  0.00     0.064 A 
ATOM     89  C   UNL     1       0.918   5.287  -1.403  1.00  0.00     0.173 A 
ATOM     90  C   UNL     1       1.838   3.367  -0.298  1.00  0.00     0.173 A 
ATOM     91  F   UNL     1       1.049   6.509  -1.940  1.00  0.00    -0.203 F 
ATOM     92  C   UNL     1      -0.354   4.721  -1.324  1.00  0.00     0.198 A 
ATOM     93  C   UNL     1       0.573   2.786  -0.253  1.00  0.00     0.198 A 
ATOM     94  F   UNL     1       2.873   2.694   0.227  1.00  0.00    -0.203 F 
ATOM     95  F   UNL     1      -1.416   5.403  -1.773  1.00  0.00    -0.200 F 
ATOM     96  C   UNL     1      -0.525   3.470  -0.752  1.00  0.00     0.200 A 
ATOM     97  F   UNL     1       0.415   1.570   0.287  1.00  0.00    -0.200 F 
ATOM     98  F   UNL     1      -1.748   2.930  -0.669  1.00  0.00    -0.200 F 
ENDBRANCH  64  88
BRANCH  76  99
ATOM     99  C   UNL     1       4.464  10.378   2.241  1.00  0.00     0.064 A 
ATOM    100  C   UNL     1       4.024  10.109   3.546  1.00  0.00     0.173 A 
ATOM    101  C   UNL     1       4.310  11.686   1.755  1.00  0.00     0.173 A 
ATOM    102  F   UNL     1       4.136   8.873   4.055  1.00  0.00    -0.203 F 
ATOM    103  C   UNL     1       3.426  11.102   4.319  1.00  0.00     0.198 A 
ATOM    104  C   UNL     1       3.746  12.685   2.544  1.00  0.00     0.198 A 
ATOM    105  F   UNL     1       4.724  12.002   0.518  1.00  0.00    -0.203 F 
ATOM    106  F   UNL     1       2.962  10.807   5.541  1.00  0.00    -0.200 F 
ATOM    107  C   UNL     1       3.295  12.390   3.821  1.00  0.00     0.200 A 
ATOM    108  F   UNL     1       3.640  13.933   2.067  1.00  0.00    -0.200 F 
ATOM    109  F   UNL     1       2.728  13.345   4.570  1.00  0.00    -0.200 F 
ENDBRANCH  76  99
ENDBRANCH  50  51
ENDBRANCH  43  45
ENDBRANCH  42  43
ENDBRANCH  41  42
ENDBRANCH  40  41
ENDBRANCH  39  40
ENDBRANCH  38  39
ENDBRANCH  37  38
ENDBRANCH  36  37
ENDBRANCH  35  36
ENDBRANCH   1  35
TORSDOF 25
