REMARK SMILES CNS(=O)(=O)c1ccc(Oc2csc(C(=O)OCCOCCOCCOCCOC(=O)c3ccc(-c4c5nc(c(-c6c(F)c(F)c(F)c(F)c6F)c6ccc([nH]6)c(-c6c(F)c(F)c(F)c(F)c6F)c6nc(c(-c7c(F)c(F)c(F)c(F)c7F)c7ccc4[nH]7)C=C6)C=C5)cc3)c2)cc1
REMARK SMILES IDX 22 1 21 2 20 3 19 4 18 5 17 6 15 7 16 8 14 9 11 10 12 11
REMARK SMILES IDX 95 12 13 13 10 14 9 15 6 16 7 17 97 18 8 19 96 20 3 21 4 22
REMARK SMILES IDX 5 23 2 24 1 25 23 27 24 28 25 29 26 30 27 31 28 32 29 33
REMARK SMILES IDX 30 34 31 35 32 36 33 37 94 38 34 39 93 40 35 41 36 42 37 43
REMARK SMILES IDX 87 44 38 45 92 46 86 47 88 48 39 49 91 50 85 51 84 52 40 54
REMARK SMILES IDX 72 55 52 56 71 57 53 58 56 59 70 60 89 61 54 62 55 63 69 65
REMARK SMILES IDX 90 66 57 67 41 68 42 69 50 70 43 71 44 72 48 73 51 74 45 75
REMARK SMILES IDX 46 76 49 77 47 78 73 79 74 80 82 81 75 82 76 83 80 84 83 85
REMARK SMILES IDX 77 86 78 87 81 88 79 89 58 90 59 91 67 92 60 93 61 94 65 95
REMARK SMILES IDX 68 96 62 97 63 98 66 99 64 100
REMARK H PARENT 2 26 88 53 56 64
REMARK Flexibility Score: inf
ROOT
ATOM      1  C   UNL     1      -6.492  -5.087   5.248  1.00  0.00     0.188 C 
ENDROOT
BRANCH   1   2
ATOM      2  C   UNL     1      -6.540  -5.972   6.508  1.00  0.00     0.188 C 
BRANCH   2   3
ATOM      3  O   UNL     1      -7.854  -6.133   7.014  1.00  0.00    -0.376 OA
BRANCH   3   4
ATOM      4  C   UNL     1      -8.255  -5.430   8.174  1.00  0.00     0.202 C 
BRANCH   4   5
ATOM      5  C   UNL     1      -8.114  -3.901   8.262  1.00  0.00     0.261 C 
BRANCH   5   6
ATOM      6  O   UNL     1      -6.926  -3.321   7.717  1.00  0.00    -0.459 OA
BRANCH   6   7
ATOM      7  C   UNL     1      -5.760  -3.481   8.396  1.00  0.00     0.348 C 
ATOM      8  O   UNL     1      -5.664  -4.040   9.480  1.00  0.00    -0.245 OA
BRANCH   7   9
ATOM      9  C   UNL     1      -4.679  -3.006   7.551  1.00  0.00     0.116 A 
ATOM     10  C   UNL     1      -3.491  -1.910   5.868  1.00  0.00     0.138 A 
ATOM     11  C   UNL     1      -2.537  -2.790   6.324  1.00  0.00     0.112 A 
ATOM     12  C   UNL     1      -4.717  -2.027   6.574  1.00  0.00     0.074 A 
ATOM     13  S   UNL     1      -3.135  -3.747   7.620  1.00  0.00    -0.133 S 
BRANCH  10  14
ATOM     14  O   UNL     1      -3.284  -0.931   4.964  1.00  0.00    -0.456 OA
BRANCH  14  15
ATOM     15  C   UNL     1      -2.777  -1.101   3.702  1.00  0.00     0.127 A 
ATOM     16  C   UNL     1      -1.893  -1.112   1.054  1.00  0.00     0.082 A 
ATOM     17  C   UNL     1      -2.089   0.103   1.711  1.00  0.00     0.025 A 
ATOM     18  C   UNL     1      -2.152  -2.323   1.706  1.00  0.00     0.025 A 
ATOM     19  C   UNL     1      -2.518   0.102   3.035  1.00  0.00     0.048 A 
ATOM     20  C   UNL     1      -2.602  -2.316   3.035  1.00  0.00     0.048 A 
BRANCH  16  21
ATOM     21  S   UNL     1      -1.394  -1.084  -0.649  1.00  0.00     0.240 S 
ATOM     22  O   UNL     1      -1.786   0.179  -1.227  1.00  0.00    -0.207 OA
ATOM     23  O   UNL     1      -1.780  -2.344  -1.252  1.00  0.00    -0.207 OA
BRANCH  21  24
ATOM     24  N   UNL     1       0.284  -1.114  -0.536  1.00  0.00    -0.214 NA
ATOM     25  C   UNL     1       0.977   0.101  -0.120  1.00  0.00     0.120 C 
ATOM     26  H   UNL     1       0.527  -1.844   0.133  1.00  0.00     0.141 HD
ENDBRANCH  21  24
ENDBRANCH  16  21
ENDBRANCH  14  15
ENDBRANCH  10  14
ENDBRANCH   7   9
ENDBRANCH   6   7
ENDBRANCH   5   6
ENDBRANCH   4   5
ENDBRANCH   3   4
ENDBRANCH   2   3
ENDBRANCH   1   2
BRANCH   1  27
ATOM     27  O   UNL     1      -7.640  -4.283   5.019  1.00  0.00    -0.377 OA
BRANCH  27  28
ATOM     28  C   UNL     1      -8.886  -4.911   4.710  1.00  0.00     0.188 C 
BRANCH  28  29
ATOM     29  C   UNL     1      -9.056  -6.446   4.564  1.00  0.00     0.188 C 
BRANCH  29  30
ATOM     30  O   UNL     1      -7.868  -7.152   4.250  1.00  0.00    -0.376 OA
BRANCH  30  31
ATOM     31  C   UNL     1      -7.742  -7.694   2.948  1.00  0.00     0.202 C 
BRANCH  31  32
ATOM     32  C   UNL     1      -7.612  -6.675   1.809  1.00  0.00     0.261 C 
BRANCH  32  33
ATOM     33  O   UNL     1      -8.662  -5.700   1.723  1.00  0.00    -0.460 OA
BRANCH  33  34
ATOM     34  C   UNL     1      -9.897  -6.151   1.410  1.00  0.00     0.338 C 
ATOM     35  O   UNL     1     -10.229  -7.300   1.183  1.00  0.00    -0.246 OA
BRANCH  34  36
ATOM     36  C   UNL     1     -10.837  -5.021   1.564  1.00  0.00     0.060 A 
ATOM     37  C   UNL     1     -11.879  -5.122   2.495  1.00  0.00     0.016 A 
ATOM     38  C   UNL     1     -10.683  -3.866   0.795  1.00  0.00     0.016 A 
ATOM     39  C   UNL     1     -12.792  -4.076   2.636  1.00  0.00     0.010 A 
ATOM     40  C   UNL     1     -11.609  -2.827   0.924  1.00  0.00     0.010 A 
ATOM     41  C   UNL     1     -12.686  -2.940   1.821  1.00  0.00    -0.014 A 
BRANCH  41  42
ATOM     42  C   UNL     1     -13.794  -1.954   1.774  1.00  0.00     0.031 A 
ATOM     43  C   UNL     1     -14.784  -2.046   0.644  1.00  0.00     0.074 A 
ATOM     44  C   UNL     1     -13.927  -1.000   2.713  1.00  0.00     0.049 A 
ATOM     45  N   UNL     1     -15.788  -1.261   0.349  1.00  0.00    -0.248 NA
ATOM     46  C   UNL     1     -14.616  -3.179  -0.283  1.00  0.00     0.031 C 
ATOM     47  C   UNL     1     -13.056  -0.829   3.874  1.00  0.00     0.029 A 
ATOM     48  N   UNL     1     -14.842   0.019   2.825  1.00  0.00    -0.354 N 
ATOM     49  C   UNL     1     -16.358  -1.794  -0.800  1.00  0.00     0.074 A 
ATOM     50  C   UNL     1     -15.580  -2.957  -1.163  1.00  0.00     0.031 C 
ATOM     51  C   UNL     1     -13.467   0.246   4.572  1.00  0.00     0.029 A 
ATOM     52  C   UNL     1     -14.605   0.858   3.887  1.00  0.00     0.049 A 
ATOM     53  H   UNL     1     -15.597   0.136   2.204  1.00  0.00     0.167 HD
ATOM     54  C   UNL     1     -17.436  -1.352  -1.488  1.00  0.00     0.037 A 
ATOM     55  C   UNL     1     -15.217   2.007   4.240  1.00  0.00     0.037 A 
ATOM     56  C   UNL     1     -18.217  -0.202  -1.117  1.00  0.00     0.049 A 
ATOM     57  C   UNL     1     -16.379   2.509   3.415  1.00  0.00     0.074 A 
ATOM     58  C   UNL     1     -19.353   0.300  -1.729  1.00  0.00     0.029 A 
ATOM     59  N   UNL     1     -17.938   0.631  -0.045  1.00  0.00    -0.354 N 
ATOM     60  N   UNL     1     -16.940   1.975   2.357  1.00  0.00    -0.248 NA
ATOM     61  C   UNL     1     -16.995   3.776   3.837  1.00  0.00     0.031 C 
ATOM     62  C   UNL     1     -19.721   1.475  -1.068  1.00  0.00     0.029 A 
ATOM     63  C   UNL     1     -18.859   1.664   0.001  1.00  0.00     0.049 A 
ATOM     64  H   UNL     1     -17.195   0.507   0.589  1.00  0.00     0.167 HD
ATOM     65  C   UNL     1     -17.993   2.816   2.015  1.00  0.00     0.074 A 
ATOM     66  C   UNL     1     -18.004   3.887   2.986  1.00  0.00     0.031 C 
ATOM     67  C   UNL     1     -18.872   2.712   0.987  1.00  0.00     0.037 A 
BRANCH  54  68
ATOM     68  C   UNL     1     -17.832  -2.091  -2.732  1.00  0.00     0.064 A 
ATOM     69  C   UNL     1     -18.428  -3.359  -2.682  1.00  0.00     0.173 A 
ATOM     70  C   UNL     1     -17.689  -1.480  -3.987  1.00  0.00     0.173 A 
ATOM     71  F   UNL     1     -18.574  -3.992  -1.508  1.00  0.00    -0.203 F 
ATOM     72  C   UNL     1     -18.860  -3.992  -3.845  1.00  0.00     0.198 A 
ATOM     73  C   UNL     1     -18.149  -2.103  -5.144  1.00  0.00     0.198 A 
ATOM     74  F   UNL     1     -17.128  -0.266  -4.089  1.00  0.00    -0.203 F 
ATOM     75  F   UNL     1     -19.402  -5.216  -3.778  1.00  0.00    -0.200 F 
ATOM     76  C   UNL     1     -18.732  -3.359  -5.072  1.00  0.00     0.200 A 
ATOM     77  F   UNL     1     -18.038  -1.482  -6.326  1.00  0.00    -0.200 F 
ATOM     78  F   UNL     1     -19.171  -3.959  -6.187  1.00  0.00    -0.200 F 
ENDBRANCH  54  68
BRANCH  55  79
ATOM     79  C   UNL     1     -14.733   2.795   5.408  1.00  0.00     0.064 A 
ATOM     80  C   UNL     1     -15.544   3.002   6.534  1.00  0.00     0.173 A 
ATOM     81  C   UNL     1     -13.477   3.421   5.391  1.00  0.00     0.173 A 
ATOM     82  F   UNL     1     -16.765   2.450   6.590  1.00  0.00    -0.203 F 
ATOM     83  C   UNL     1     -15.137   3.836   7.574  1.00  0.00     0.198 A 
ATOM     84  C   UNL     1     -13.055   4.223   6.449  1.00  0.00     0.198 A 
ATOM     85  F   UNL     1     -12.661   3.261   4.339  1.00  0.00    -0.203 F 
ATOM     86  F   UNL     1     -15.965   4.077   8.599  1.00  0.00    -0.200 F 
ATOM     87  C   UNL     1     -13.891   4.443   7.532  1.00  0.00     0.200 A 
ATOM     88  F   UNL     1     -11.845   4.798   6.410  1.00  0.00    -0.200 F 
ATOM     89  F   UNL     1     -13.504   5.253   8.527  1.00  0.00    -0.200 F 
ENDBRANCH  55  79
BRANCH  67  90
ATOM     90  C   UNL     1     -19.956   3.749   0.890  1.00  0.00     0.064 A 
ATOM     91  C   UNL     1     -19.683   5.079   0.536  1.00  0.00     0.173 A 
ATOM     92  C   UNL     1     -21.296   3.392   1.109  1.00  0.00     0.173 A 
ATOM     93  F   UNL     1     -18.419   5.476   0.327  1.00  0.00    -0.203 F 
ATOM     94  C   UNL     1     -20.706   6.018   0.438  1.00  0.00     0.198 A 
ATOM     95  C   UNL     1     -22.320   4.325   0.973  1.00  0.00     0.198 A 
ATOM     96  F   UNL     1     -21.616   2.131   1.438  1.00  0.00    -0.203 F 
ATOM     97  F   UNL     1     -20.415   7.295   0.154  1.00  0.00    -0.200 F 
ATOM     98  C   UNL     1     -22.024   5.639   0.647  1.00  0.00     0.200 A 
ATOM     99  F   UNL     1     -23.594   3.951   1.156  1.00  0.00    -0.200 F 
ATOM    100  F   UNL     1     -23.008   6.543   0.542  1.00  0.00    -0.200 F 
ENDBRANCH  67  90
ENDBRANCH  41  42
ENDBRANCH  34  36
ENDBRANCH  33  34
ENDBRANCH  32  33
ENDBRANCH  31  32
ENDBRANCH  30  31
ENDBRANCH  29  30
ENDBRANCH  28  29
ENDBRANCH  27  28
ENDBRANCH   1  27
TORSDOF 24
