REMARK SMILES CSCC[C@@H](C(=O)OCCOCCOCCOCCOC(=O)c1ccc(-c2c3nc(c(-c4c(F)c(F)c(F)c(F)c4F)c4ccc([nH]4)c(-c4c(F)c(F)c(F)c(F)c4F)c4nc(c(-c5c(F)c(F)c(F)c(F)c5F)c5ccc2[nH]5)C=C4)C=C3)cc1)N1C(=O)/C(=C/c2ccc(Cl)cc2Cl)SC1=S
REMARK SMILES IDX 13 1 12 2 11 3 10 4 9 5 8 6 6 7 7 8 5 9 4 10 3 11 2 12 1 13
REMARK SMILES IDX 86 14 87 15 100 16 88 17 89 18 99 19 101 20 90 21 91 22
REMARK SMILES IDX 92 23 97 24 93 25 96 26 98 27 94 28 95 29 14 30 15 31 16 32
REMARK SMILES IDX 17 33 18 34 19 35 20 36 21 37 22 38 23 39 24 40 85 41 25 42
REMARK SMILES IDX 84 43 26 44 27 45 28 46 78 47 29 48 83 49 77 50 79 51 30 52
REMARK SMILES IDX 82 53 76 54 75 55 31 57 63 58 43 59 62 60 44 61 47 62 61 63
REMARK SMILES IDX 80 64 45 65 46 66 60 68 81 69 48 70 32 71 33 72 41 73 34 74
REMARK SMILES IDX 35 75 39 76 42 77 36 78 37 79 40 80 38 81 64 82 65 83 73 84
REMARK SMILES IDX 66 85 67 86 71 87 74 88 68 89 69 90 72 91 70 92 49 93 50 94
REMARK SMILES IDX 58 95 51 96 52 97 56 98 59 99 53 100 54 101 57 102 55 103
REMARK H PARENT 79 56 47 67
REMARK Flexibility Score: inf
ROOT
ATOM      1  C   UNL     1       3.128  -3.974   2.018  1.00  0.00     0.188 C 
ENDROOT
BRANCH   1   2
ATOM      2  C   UNL     1       3.722  -4.592   0.739  1.00  0.00     0.188 C 
BRANCH   2   3
ATOM      3  O   UNL     1       4.961  -4.111   0.247  1.00  0.00    -0.376 OA
BRANCH   3   4
ATOM      4  C   UNL     1       5.215  -2.719   0.168  1.00  0.00     0.202 C 
BRANCH   4   5
ATOM      5  C   UNL     1       4.142  -1.673  -0.209  1.00  0.00     0.261 C 
BRANCH   5   6
ATOM      6  O   UNL     1       2.778  -1.885   0.206  1.00  0.00    -0.462 OA
BRANCH   6   7
ATOM      7  C   UNL     1       1.922  -2.377  -0.719  1.00  0.00     0.329 C 
ATOM      8  O   UNL     1       2.267  -2.667  -1.862  1.00  0.00    -0.250 OA
BRANCH   7   9
ATOM      9  C   UNL     1       0.451  -2.520  -0.243  1.00  0.00     0.202 C 
BRANCH   9  10
ATOM     10  C   UNL     1       0.006  -2.311   1.220  1.00  0.00     0.048 C 
BRANCH  10  11
ATOM     11  C   UNL     1       0.525  -1.089   1.984  1.00  0.00     0.072 C 
BRANCH  11  12
ATOM     12  S   UNL     1      -0.183   0.499   1.439  1.00  0.00    -0.165 SA
ATOM     13  C   UNL     1       0.905   0.902   0.054  1.00  0.00     0.085 C 
ENDBRANCH  11  12
ENDBRANCH  10  11
ENDBRANCH   9  10
BRANCH   9  14
ATOM     14  N   UNL     1      -0.031  -3.813  -0.828  1.00  0.00    -0.278 N 
ATOM     15  C   UNL     1       0.283  -5.033  -0.245  1.00  0.00     0.266 C 
ATOM     16  C   UNL     1      -0.668  -3.894  -2.055  1.00  0.00     0.149 C 
ATOM     17  O   UNL     1       0.748  -5.221   0.870  1.00  0.00    -0.268 OA
ATOM     18  C   UNL     1      -0.006  -6.156  -1.171  1.00  0.00     0.081 C 
ATOM     19  S   UNL     1      -0.910  -5.578  -2.506  1.00  0.00    -0.054 SA
ATOM     20  S   UNL     1      -1.201  -2.655  -3.038  1.00  0.00    -0.052 S 
ATOM     21  C   UNL     1       0.460  -7.399  -0.965  1.00  0.00     0.031 C 
BRANCH  21  22
ATOM     22  C   UNL     1       0.267  -8.517  -1.903  1.00  0.00    -0.006 A 
ATOM     23  C   UNL     1      -0.638  -9.527  -1.544  1.00  0.00     0.011 A 
ATOM     24  C   UNL     1       0.905  -8.589  -3.156  1.00  0.00     0.049 A 
ATOM     25  C   UNL     1      -0.951 -10.547  -2.446  1.00  0.00     0.021 A 
ATOM     26  C   UNL     1       0.578  -9.600  -4.063  1.00  0.00     0.041 A 
ATOM     27  Cl  UNL     1       2.121  -7.452  -3.629  1.00  0.00    -0.084 Cl
ATOM     28  C   UNL     1      -0.359 -10.565  -3.708  1.00  0.00     0.042 A 
ATOM     29  Cl  UNL     1      -0.796 -11.786  -4.838  1.00  0.00    -0.084 Cl
ENDBRANCH  21  22
ENDBRANCH   9  14
ENDBRANCH   7   9
ENDBRANCH   6   7
ENDBRANCH   5   6
ENDBRANCH   4   5
ENDBRANCH   3   4
ENDBRANCH   2   3
ENDBRANCH   1   2
BRANCH   1  30
ATOM     30  O   UNL     1       3.876  -2.910   2.569  1.00  0.00    -0.377 OA
BRANCH  30  31
ATOM     31  C   UNL     1       4.856  -3.254   3.534  1.00  0.00     0.188 C 
BRANCH  31  32
ATOM     32  C   UNL     1       5.551  -4.629   3.456  1.00  0.00     0.188 C 
BRANCH  32  33
ATOM     33  O   UNL     1       4.689  -5.725   3.180  1.00  0.00    -0.376 OA
BRANCH  33  34
ATOM     34  C   UNL     1       4.239  -6.554   4.239  1.00  0.00     0.202 C 
BRANCH  34  35
ATOM     35  C   UNL     1       3.235  -5.951   5.236  1.00  0.00     0.261 C 
BRANCH  35  36
ATOM     36  O   UNL     1       3.651  -4.742   5.886  1.00  0.00    -0.460 OA
BRANCH  36  37
ATOM     37  C   UNL     1       4.750  -4.820   6.660  1.00  0.00     0.338 C 
ATOM     38  O   UNL     1       5.410  -5.818   6.911  1.00  0.00    -0.246 OA
BRANCH  37  39
ATOM     39  C   UNL     1       5.160  -3.451   7.019  1.00  0.00     0.060 A 
ATOM     40  C   UNL     1       6.440  -3.021   6.649  1.00  0.00     0.016 A 
ATOM     41  C   UNL     1       4.300  -2.605   7.726  1.00  0.00     0.016 A 
ATOM     42  C   UNL     1       6.895  -1.770   7.051  1.00  0.00     0.010 A 
ATOM     43  C   UNL     1       4.766  -1.359   8.151  1.00  0.00     0.010 A 
ATOM     44  C   UNL     1       6.087  -0.967   7.865  1.00  0.00    -0.014 A 
BRANCH  44  45
ATOM     45  C   UNL     1       6.738   0.111   8.647  1.00  0.00     0.031 A 
ATOM     46  C   UNL     1       7.176  -0.214  10.050  1.00  0.00     0.074 A 
ATOM     47  C   UNL     1       7.016   1.308   8.105  1.00  0.00     0.049 A 
ATOM     48  N   UNL     1       7.805   0.529  10.924  1.00  0.00    -0.248 NA
ATOM     49  C   UNL     1       6.862  -1.570  10.534  1.00  0.00     0.031 C 
ATOM     50  C   UNL     1       6.693   1.716   6.741  1.00  0.00     0.029 A 
ATOM     51  N   UNL     1       7.649   2.398   8.645  1.00  0.00    -0.354 N 
ATOM     52  C   UNL     1       7.951  -0.264  12.055  1.00  0.00     0.074 A 
ATOM     53  C   UNL     1       7.315  -1.531  11.775  1.00  0.00     0.031 C 
ATOM     54  C   UNL     1       7.134   2.972   6.548  1.00  0.00     0.029 A 
ATOM     55  C   UNL     1       7.745   3.462   7.783  1.00  0.00     0.049 A 
ATOM     56  H   UNL     1       8.002   2.417   9.564  1.00  0.00     0.167 HD
ATOM     57  C   UNL     1       8.572   0.032  13.221  1.00  0.00     0.037 A 
ATOM     58  C   UNL     1       8.261   4.690   7.980  1.00  0.00     0.037 A 
ATOM     59  C   UNL     1       9.206   1.294  13.493  1.00  0.00     0.049 A 
ATOM     60  C   UNL     1       8.883   5.021   9.315  1.00  0.00     0.074 A 
ATOM     61  C   UNL     1       9.874   1.695  14.636  1.00  0.00     0.029 A 
ATOM     62  N   UNL     1       9.240   2.364  12.611  1.00  0.00    -0.354 N 
ATOM     63  N   UNL     1       9.041   4.260  10.372  1.00  0.00    -0.248 NA
ATOM     64  C   UNL     1       9.411   6.383   9.477  1.00  0.00     0.031 C 
ATOM     65  C   UNL     1      10.253   3.031  14.472  1.00  0.00     0.029 A 
ATOM     66  C   UNL     1       9.894   3.437  13.196  1.00  0.00     0.049 A 
ATOM     67  H   UNL     1       8.856   2.362  11.705  1.00  0.00     0.167 HD
ATOM     68  C   UNL     1       9.727   5.032  11.303  1.00  0.00     0.074 A 
ATOM     69  C   UNL     1       9.961   6.319  10.681  1.00  0.00     0.031 C 
ATOM     70  C   UNL     1      10.135   4.705  12.555  1.00  0.00     0.037 A 
BRANCH  57  71
ATOM     71  C   UNL     1       8.549  -1.011  14.302  1.00  0.00     0.064 A 
ATOM     72  C   UNL     1       9.259  -2.217  14.191  1.00  0.00     0.173 A 
ATOM     73  C   UNL     1       7.809  -0.793  15.474  1.00  0.00     0.173 A 
ATOM     74  F   UNL     1       9.966  -2.486  13.083  1.00  0.00    -0.203 F 
ATOM     75  C   UNL     1       9.200  -3.179  15.197  1.00  0.00     0.198 A 
ATOM     76  C   UNL     1       7.783  -1.740  16.494  1.00  0.00     0.198 A 
ATOM     77  F   UNL     1       7.112   0.341  15.633  1.00  0.00    -0.203 F 
ATOM     78  F   UNL     1       9.835  -4.349  15.041  1.00  0.00    -0.200 F 
ATOM     79  C   UNL     1       8.470  -2.936  16.350  1.00  0.00     0.200 A 
ATOM     80  F   UNL     1       7.087  -1.498  17.613  1.00  0.00    -0.200 F 
ATOM     81  F   UNL     1       8.418  -3.860  17.320  1.00  0.00    -0.200 F 
ENDBRANCH  57  71
BRANCH  58  82
ATOM     82  C   UNL     1       8.224   5.702   6.891  1.00  0.00     0.064 A 
ATOM     83  C   UNL     1       9.404   6.168   6.293  1.00  0.00     0.173 A 
ATOM     84  C   UNL     1       7.011   6.252   6.449  1.00  0.00     0.173 A 
ATOM     85  F   UNL     1      10.591   5.694   6.697  1.00  0.00    -0.203 F 
ATOM     86  C   UNL     1       9.374   7.162   5.316  1.00  0.00     0.198 A 
ATOM     87  C   UNL     1       6.979   7.221   5.449  1.00  0.00     0.198 A 
ATOM     88  F   UNL     1       5.853   5.843   6.988  1.00  0.00    -0.203 F 
ATOM     89  F   UNL     1      10.520   7.630   4.804  1.00  0.00    -0.200 F 
ATOM     90  C   UNL     1       8.161   7.684   4.891  1.00  0.00     0.200 A 
ATOM     91  F   UNL     1       5.805   7.713   5.032  1.00  0.00    -0.200 F 
ATOM     92  F   UNL     1       8.133   8.640   3.952  1.00  0.00    -0.200 F 
ENDBRANCH  58  82
BRANCH  70  93
ATOM     93  C   UNL     1      10.943   5.725  13.310  1.00  0.00     0.064 A 
ATOM     94  C   UNL     1      10.389   6.930  13.768  1.00  0.00     0.173 A 
ATOM     95  C   UNL     1      12.294   5.476  13.600  1.00  0.00     0.173 A 
ATOM     96  F   UNL     1       9.105   7.223  13.512  1.00  0.00    -0.203 F 
ATOM     97  C   UNL     1      11.168   7.865  14.446  1.00  0.00     0.198 A 
ATOM     98  C   UNL     1      13.059   6.394  14.314  1.00  0.00     0.198 A 
ATOM     99  F   UNL     1      12.873   4.334  13.198  1.00  0.00    -0.203 F 
ATOM    100  F   UNL     1      10.634   9.038  14.812  1.00  0.00    -0.200 F 
ATOM    101  C   UNL     1      12.499   7.593  14.724  1.00  0.00     0.200 A 
ATOM    102  F   UNL     1      14.339   6.119  14.599  1.00  0.00    -0.200 F 
ATOM    103  F   UNL     1      13.246   8.493  15.379  1.00  0.00    -0.200 F 
ENDBRANCH  70  93
ENDBRANCH  44  45
ENDBRANCH  37  39
ENDBRANCH  36  37
ENDBRANCH  35  36
ENDBRANCH  34  35
ENDBRANCH  33  34
ENDBRANCH  32  33
ENDBRANCH  31  32
ENDBRANCH  30  31
ENDBRANCH   1  30
TORSDOF 25
